@<TRIPOS>MOLECULE
NONAME
37 38 1 0 0 
SMALL
USER_CHARGES


@<TRIPOS>ATOM
  1 S       -1.0000    -0.4070     0.5040 S.3   1 <1>  -0.0800 
  2 C       -0.4510    -1.7310    -0.4680 C.2   1 <1>   0.4420 
  3 C       -0.0740     0.6410    -0.5200 C.2   1 <1>   0.1980 
  4 N        0.3320    -1.3500    -1.4090 N.2   1 <1>  -0.3380 
  5 N       -0.9120    -2.9820    -0.1140 N.am  1 <1>  -0.4940 
  6 N        0.5430     0.0010    -1.4330 N.2   1 <1>  -0.3380 
  7 C       -0.0830     2.1390    -0.2090 C.3   1 <1>   0.3800 
  8 C       -0.6400    -4.1970    -0.6720 C.2   1 <1>   0.5690 
  9 O       -1.3980     2.5500     0.0460 O.3   1 <1>  -0.5600 
 10 C        0.4640     2.9800    -1.3680 C.3   1 <1>  -0.2400 
 11 O        0.1090    -4.3610    -1.5990 O.2   1 <1>  -0.5700 
 12 C       -1.3230    -5.4130    -0.0740 C.3   1 <1>  -0.0990 
 13 C       -1.5390     3.6490     0.8920 C.3   1 <1>   0.0400 
 14 C       -2.8490    -5.3820    -0.2620 C.3   1 <1>  -0.1600 
 15 C       -3.5150    -6.6490     0.2890 C.3   1 <1>   0.0200 
 16 C       -5.0210    -6.5780     0.1280 C.2   1 <1>  -0.1400 
 17 S       -5.8980    -5.4450     1.1450 S.3   1 <1>  -0.0800 
 18 C       -5.8710    -7.2450    -0.6750 C.2   1 <1>  -0.1500 
 19 C       -7.4290    -5.9190     0.4310 C.2   1 <1>  -0.1100 
 20 C       -7.2410    -6.8690    -0.5040 C.2   1 <1>  -0.1500 
 21 H       -1.5680    -2.9870     0.6600 H     1 <1>   0.3700 
 22 H        0.5070     2.2980     0.6770 H     1 <1>   0.0800 
 23 H       -0.1500     2.8400    -2.2400 H     1 <1>   0.0800 
 24 H        1.4630     2.6630    -1.6050 H     1 <1>   0.0800 
 25 H        0.4950     4.0220    -1.1110 H     1 <1>   0.0800 
 26 H       -1.0770    -5.4690     0.9710 H     1 <1>   0.0800 
 27 H       -0.9220    -6.2910    -0.5510 H     1 <1>   0.0800 
 28 H       -2.5910     3.8410     1.0150 H     1 <1>   0.0800 
 29 H       -1.0690     4.5100     0.4520 H     1 <1>   0.0800 
 30 H       -1.1010     3.4230     1.8490 H     1 <1>   0.0800 
 31 H       -3.0770    -5.2960    -1.3110 H     1 <1>   0.0800 
 32 H       -3.2610    -4.5210     0.2350 H     1 <1>   0.0800 
 33 H       -3.2800    -6.7740     1.3320 H     1 <1>   0.0800 
 34 H       -3.1460    -7.5100    -0.2420 H     1 <1>   0.0800 
 35 H       -5.5940    -7.9970    -1.3930 H     1 <1>   0.1500 
 36 H       -8.3170    -5.4310     0.7910 H     1 <1>   0.1500 
 37 H       -8.0170    -7.3300    -1.0900 H     1 <1>   0.1500 
@<TRIPOS>BOND
  1   1   2  1   
  2   1   3  1   
  3   2   4  2   
  4   2   5  1   
  5   3   6  2   
  6   3   7  1   
  7   4   6  1   
  8   5   8  am  
  9   5  21  1   
 10   7   9  1   
 11   7  10  1   
 12   7  22  1   
 13   8  11  2   
 14   8  12  1   
 15   9  13  1   
 16  10  23  1   
 17  10  24  1   
 18  10  25  1   
 19  12  14  1   
 20  12  26  1   
 21  12  27  1   
 22  13  28  1   
 23  13  29  1   
 24  13  30  1   
 25  14  15  1   
 26  14  31  1   
 27  14  32  1   
 28  15  16  1   
 29  15  33  1   
 30  15  34  1   
 31  16  17  1   
 32  16  18  2   
 33  17  19  1   
 34  18  20  1   
 35  18  35  1   
 36  19  20  2   
 37  19  36  1   
 38  20  37  1   
@<TRIPOS>SUBSTRUCTURE
  1 ****   5 GROUP 4 **** **** 0

# MOE 2024.06 (io_trps.svl 2023.06)
