@<TRIPOS>MOLECULE
NONAME
50 52 1 0 0 
SMALL
USER_CHARGES


@<TRIPOS>ATOM
  1 CL      -1.4280    -2.7750     3.7750 Cl    1 <1>  -0.1770 
  2 C       -1.1120    -3.2390     2.1240 C.ar  1 <1>   0.1770 
  3 C       -2.0680    -3.9480     1.4250 C.ar  1 <1>  -0.1500 
  4 C        0.0930    -2.8890     1.5440 C.ar  1 <1>  -0.1500 
  5 C       -1.8340    -4.3370     0.1080 C.ar  1 <1>   0.0860 
  6 C        0.3390    -3.2570     0.2330 C.ar  1 <1>  -0.1500 
  7 C       -2.8310    -5.0900    -0.6290 C.2   1 <1>   0.5440 
  8 C       -0.6170    -3.9700    -0.4720 C.ar  1 <1>  -0.1500 
  9 O       -3.9530    -4.6340    -0.7280 O.2   1 <1>  -0.5700 
 10 N       -2.5470    -6.3110    -1.2100 N.am  1 <1>  -0.6600 
 11 C       -1.3650    -7.1440    -0.8560 C.3   1 <1>   0.1400 
 12 C       -3.5080    -6.9720    -2.1390 C.3   1 <1>   0.1400 
 13 C       -1.8340    -8.4460    -0.2020 C.3   1 <1>  -0.1600 
 14 C       -4.0270    -8.2630    -1.5010 C.3   1 <1>  -0.1600 
 15 C       -2.8610    -9.1840    -1.0870 C.3   1 <1>  -0.0190 
 16 C       -3.2840   -10.5490    -0.5240 C.2   1 <1>   0.5690 
 17 O       -3.0210   -11.5070    -1.2170 O.2   1 <1>  -0.5700 
 18 N       -3.9130   -10.7360     0.6850 N.am  1 <1>  -0.6600 
 19 C       -4.0280   -12.1220     1.2390 C.3   1 <1>   0.3200 
 20 C       -4.6240    -9.6970     1.4920 C.3   1 <1>   0.1400 
 21 C       -5.2440   -12.8350     0.6750 C.2   1 <1>   0.0060 
 22 C       -6.1270    -9.6950     1.1860 C.3   1 <1>   0.1200 
 23 N       -6.2520   -13.2580     1.3700 N.2   1 <1>  -0.5650 
 24 N       -5.3570   -13.0800    -0.6470 N.pl3 1 <1>   0.0330 
 25 O       -6.7280    -8.6510     1.8740 O.3   1 <1>  -0.6800 
 26 C       -7.0660   -13.8110     0.4480 C.2   1 <1>   0.0770 
 27 C       -6.5350   -13.7110    -0.7910 C.2   1 <1>  -0.3020 
 28 H       -3.0020    -4.1980     1.8960 H     1 <1>   0.1500 
 29 H        0.8200    -2.3350     2.1110 H     1 <1>   0.1500 
 30 H        1.2690    -2.9850    -0.2370 H     1 <1>   0.1500 
 31 H       -0.4280    -4.2480    -1.4940 H     1 <1>   0.1500 
 32 H       -0.7120    -6.6250    -0.1770 H     1 <1>   0.0800 
 33 H       -0.8100    -7.3610    -1.7530 H     1 <1>   0.0800 
 34 H       -3.0040    -7.1940    -3.0640 H     1 <1>   0.0800 
 35 H       -4.3350    -6.3200    -2.3630 H     1 <1>   0.0800 
 36 H       -2.2470    -8.2120     0.7600 H     1 <1>   0.0800 
 37 H       -0.9820    -9.0830    -0.0410 H     1 <1>   0.0800 
 38 H       -4.6580    -8.7740    -2.2060 H     1 <1>   0.0800 
 39 H       -4.6360    -7.9860    -0.6630 H     1 <1>   0.0800 
 40 H       -2.3390    -9.4090    -2.0020 H     1 <1>   0.0800 
 41 H       -4.1020   -12.0880     2.3120 H     1 <1>   0.0800 
 42 H       -3.1450   -12.6870     0.9940 H     1 <1>   0.0800 
 43 H       -4.2280    -8.7220     1.2880 H     1 <1>   0.0800 
 44 H       -4.4730    -9.8960     2.5390 H     1 <1>   0.0800 
 45 H       -6.5980   -10.6120     1.4910 H     1 <1>   0.0800 
 46 H       -6.2960    -9.5350     0.1360 H     1 <1>   0.0800 
 47 H       -4.6610   -12.8020    -1.3540 H     1 <1>   0.2700 
 48 H       -6.8840    -8.8950     2.8070 H     1 <1>   0.4000 
 49 H       -8.0050   -14.2600     0.7280 H     1 <1>   0.1500 
 50 H       -6.9190   -14.0420    -1.7380 H     1 <1>   0.1500 
@<TRIPOS>BOND
  1   1   2  1   
  2   2   3  ar  
  3   2   4  ar  
  4   3   5  ar  
  5   3  28  1   
  6   4   6  ar  
  7   4  29  1   
  8   5   7  1   
  9   5   8  ar  
 10   6   8  ar  
 11   6  30  1   
 12   7   9  2   
 13   7  10  am  
 14   8  31  1   
 15  10  11  1   
 16  10  12  1   
 17  11  13  1   
 18  11  32  1   
 19  11  33  1   
 20  12  14  1   
 21  12  34  1   
 22  12  35  1   
 23  13  15  1   
 24  13  36  1   
 25  13  37  1   
 26  14  15  1   
 27  14  38  1   
 28  14  39  1   
 29  15  16  1   
 30  15  40  1   
 31  16  17  2   
 32  16  18  am  
 33  18  19  1   
 34  18  20  1   
 35  19  21  1   
 36  19  41  1   
 37  19  42  1   
 38  20  22  1   
 39  20  43  1   
 40  20  44  1   
 41  21  23  2   
 42  21  24  1   
 43  22  25  1   
 44  22  45  1   
 45  22  46  1   
 46  23  26  1   
 47  24  27  1   
 48  24  47  1   
 49  25  48  1   
 50  26  27  2   
 51  26  49  1   
 52  27  50  1   
@<TRIPOS>SUBSTRUCTURE
  1 ****  13 GROUP 4 **** **** 0

# MOE 2024.06 (io_trps.svl 2023.06)
