@<TRIPOS>MOLECULE
NONAME
56 58 1 0 0 
SMALL
USER_CHARGES


@<TRIPOS>ATOM
  1 O       -2.6840     1.1970    -1.7330 O.2   1 <1>  -0.5700 
  2 C       -1.7760     1.5910    -1.0170 C.2   1 <1>   0.5440 
  3 N       -0.8110     0.6650    -0.6370 N.am  1 <1>  -0.6600 
  4 C       -1.7760     2.9950    -0.5820 C.ar  1 <1>   0.3960 
  5 C       -0.7120    -0.6780    -1.2750 C.3   1 <1>   0.0600 
  6 C        0.1820     0.9100     0.4430 C.3   1 <1>   0.0600 
  7 N       -0.6190     3.6690    -0.4640 N.ar  1 <1>  -0.6200 
  8 C       -3.0020     3.6020    -0.3080 C.ar  1 <1>  -0.1500 
  9 C       -0.6860     4.9300    -0.0690 C.ar  1 <1>   0.4100 
 10 C       -3.0710     4.9150     0.1070 C.ar  1 <1>  -0.1500 
 11 N        0.5040     5.6200     0.0360 N.pl3 1 <1>  -0.8380 
 12 C       -1.8780     5.5810     0.2270 C.ar  1 <1>  -0.1500 
 13 C        0.7890     6.6060    -1.0330 C.3   1 <1>   0.2090 
 14 C        1.6980     4.8840     0.5250 C.3   1 <1>   0.2090 
 15 C        1.8210     7.6200    -0.5340 C.3   1 <1>  -0.1600 
 16 C        2.7390     5.8790     1.0400 C.3   1 <1>  -0.1600 
 17 C        3.1000     6.9230    -0.0320 C.3   1 <1>  -0.0190 
 18 C        4.1190     7.9310     0.4930 C.2   1 <1>   0.5690 
 19 O        3.8290     8.6470     1.4210 O.2   1 <1>  -0.5700 
 20 N        5.3350     8.0030    -0.1090 N.am  1 <1>  -0.7300 
 21 C        6.4230     8.9160     0.3160 C.3   1 <1>   0.1400 
 22 C        6.3650    10.2120    -0.4910 C.3   1 <1>  -0.0170 
 23 C        7.4940    11.1400    -0.0730 C.ar  1 <1>  -0.1430 
 24 C        7.3540    11.9350     1.0540 C.ar  1 <1>  -0.1500 
 25 C        8.6690    11.1990    -0.8060 C.ar  1 <1>  -0.1500 
 26 C        8.3780    12.7800     1.4460 C.ar  1 <1>  -0.1500 
 27 C        9.6940    12.0440    -0.4150 C.ar  1 <1>  -0.1500 
 28 C        9.5500    12.8340     0.7110 C.ar  1 <1>  -0.1500 
 29 H       -1.2980    -0.7170    -2.1770 H     1 <1>   0.0800 
 30 H       -1.0730    -1.4290    -0.5950 H     1 <1>   0.0800 
 31 H        0.3130    -0.8870    -1.5280 H     1 <1>   0.0800 
 32 H       -0.2040     1.6170     1.1570 H     1 <1>   0.0800 
 33 H        1.0880     1.3030     0.0150 H     1 <1>   0.0800 
 34 H        0.4020    -0.0080     0.9600 H     1 <1>   0.0800 
 35 H       -3.9050     3.0300    -0.4250 H     1 <1>   0.1500 
 36 H       -4.0120     5.3900     0.3250 H     1 <1>   0.1500 
 37 H       -1.8400     6.6030     0.5500 H     1 <1>   0.1500 
 38 H       -0.1170     7.1170    -1.3120 H     1 <1>   0.0800 
 39 H        1.1650     6.0870    -1.8990 H     1 <1>   0.0800 
 40 H        2.1070     4.2960    -0.2790 H     1 <1>   0.0800 
 41 H        1.4080     4.2160     1.3200 H     1 <1>   0.0800 
 42 H        1.3830     8.1920     0.2650 H     1 <1>   0.0800 
 43 H        2.0650     8.3000    -1.3290 H     1 <1>   0.0800 
 44 H        3.6230     5.3460     1.3430 H     1 <1>   0.0800 
 45 H        2.3410     6.3740     1.9100 H     1 <1>   0.0800 
 46 H        3.5400     6.4030    -0.8640 H     1 <1>   0.0800 
 47 H        5.5440     7.4040    -0.9080 H     1 <1>   0.3700 
 48 H        7.3750     8.4340     0.1730 H     1 <1>   0.0800 
 49 H        6.3170     9.1430     1.3640 H     1 <1>   0.0800 
 50 H        5.4210    10.6980    -0.3160 H     1 <1>   0.0800 
 51 H        6.4440     9.9930    -1.5410 H     1 <1>   0.0800 
 52 H        6.4460    11.8980     1.6320 H     1 <1>   0.1500 
 53 H        8.7940    10.5900    -1.6840 H     1 <1>   0.1500 
 54 H        8.2630    13.3930     2.3220 H     1 <1>   0.1500 
 55 H       10.6040    12.0860    -0.9880 H     1 <1>   0.1500 
 56 H       10.3460    13.4910     1.0150 H     1 <1>   0.1500 
@<TRIPOS>BOND
  1   1   2  2   
  2   2   3  am  
  3   2   4  1   
  4   3   5  1   
  5   3   6  1   
  6   4   7  ar  
  7   4   8  ar  
  8   5  29  1   
  9   5  30  1   
 10   5  31  1   
 11   6  32  1   
 12   6  33  1   
 13   6  34  1   
 14   7   9  ar  
 15   8  10  ar  
 16   8  35  1   
 17   9  11  1   
 18   9  12  ar  
 19  10  12  ar  
 20  10  36  1   
 21  11  13  1   
 22  11  14  1   
 23  12  37  1   
 24  13  15  1   
 25  13  38  1   
 26  13  39  1   
 27  14  16  1   
 28  14  40  1   
 29  14  41  1   
 30  15  17  1   
 31  15  42  1   
 32  15  43  1   
 33  16  17  1   
 34  16  44  1   
 35  16  45  1   
 36  17  18  1   
 37  17  46  1   
 38  18  19  2   
 39  18  20  am  
 40  20  21  1   
 41  20  47  1   
 42  21  22  1   
 43  21  48  1   
 44  21  49  1   
 45  22  23  1   
 46  22  50  1   
 47  22  51  1   
 48  23  24  ar  
 49  23  25  ar  
 50  24  26  ar  
 51  24  52  1   
 52  25  27  ar  
 53  25  53  1   
 54  26  28  ar  
 55  26  54  1   
 56  27  28  ar  
 57  27  55  1   
 58  28  56  1   
@<TRIPOS>SUBSTRUCTURE
  1 ****  17 GROUP 4 **** **** 0

# MOE 2024.06 (io_trps.svl 2023.06)
