@<TRIPOS>MOLECULE
NONAME
62 65 1 0 0 
SMALL
USER_CHARGES


@<TRIPOS>ATOM
  1 O       -0.3870     0.7930     0.9290 O.2   1 <1>  -0.5700 
  2 C       -1.5020     1.1250     0.5850 C.2   1 <1>   0.5690 
  3 N       -2.6070     0.3800     0.9250 N.am  1 <1>  -0.6600 
  4 C       -1.6480     2.4070    -0.2630 C.3   1 <1>   0.1710 
  5 C       -4.0050     0.6330     0.4700 C.3   1 <1>   0.1400 
  6 C       -2.4840    -0.8430     1.7720 C.3   1 <1>   0.1400 
  7 N       -0.4770     3.3290    -0.1880 N.3   1 <1>  -0.8100 
  8 C       -4.4970    -0.5640    -0.3470 C.3   1 <1>  -0.1600 
  9 C       -2.9640    -2.0640     0.9820 C.3   1 <1>  -0.1600 
 10 C       -0.2650     4.1940    -1.3690 C.3   1 <1>   0.1100 
 11 C       -0.3690     4.0320     1.1010 C.3   1 <1>   0.1100 
 12 C       -4.3950    -1.8810     0.4460 C.3   1 <1>   0.4240 
 13 C        1.2230     4.5940    -1.5100 C.3   1 <1>   0.3430 
 14 C        1.0510     3.8740     1.6570 C.3   1 <1>  -0.1600 
 15 O       -5.1710    -1.7090     1.6130 O.3   1 <1>  -0.5600 
 16 C       -4.8630    -3.1160    -0.3780 C.ar  1 <1>  -0.1430 
 17 N        2.0600     3.7710    -0.5830 N.4   1 <1>  -0.9590 
 18 C        2.1720     4.3980     0.7550 C.3   1 <1>   0.3430 
 19 C       -6.5360    -1.9590     1.5320 C.3   1 <1>   0.1200 
 20 C       -4.2100    -3.5220    -1.5510 C.ar  1 <1>   0.0820 
 21 C       -5.9670    -3.8550     0.0460 C.ar  1 <1>  -0.1430 
 22 C        3.3620     3.3340    -1.1560 C.3   1 <1>   0.2630 
 23 C       -6.7290    -3.4470     1.2900 C.3   1 <1>  -0.0170 
 24 O       -3.1450    -2.8050    -1.9960 O.3   1 <1>  -0.3620 
 25 C       -4.6560    -4.6420    -2.2500 C.ar  1 <1>  -0.1500 
 26 C       -6.3980    -4.9690    -0.6550 C.ar  1 <1>  -0.1500 
 27 C       -2.2810    -3.2790    -3.0060 C.3   1 <1>   0.0400 
 28 C       -5.7430    -5.3640    -1.8030 C.ar  1 <1>  -0.1500 
 29 H       -2.5270     2.9440     0.0450 H     1 <1>   0.0800 
 30 H       -1.7880     2.0880    -1.2790 H     1 <1>   0.0800 
 31 H       -4.0730     1.5190    -0.1330 H     1 <1>   0.0800 
 32 H       -4.6340     0.7710     1.3330 H     1 <1>   0.0800 
 33 H       -3.0820    -0.7200     2.6590 H     1 <1>   0.0800 
 34 H       -1.4650    -0.9960     2.0820 H     1 <1>   0.0800 
 35 H       -3.9010    -0.6200    -1.2360 H     1 <1>   0.0800 
 36 H       -5.5100    -0.4060    -0.6630 H     1 <1>   0.0800 
 37 H       -2.9340    -2.9370     1.6080 H     1 <1>   0.0800 
 38 H       -2.2700    -2.2250     0.1820 H     1 <1>   0.0800 
 39 H       -0.8890     5.0700    -1.3170 H     1 <1>   0.0800 
 40 H       -0.5410     3.6530    -2.2580 H     1 <1>   0.0800 
 41 H       -1.0550     3.6040     1.8140 H     1 <1>   0.0800 
 42 H       -0.6230     5.0730     0.9890 H     1 <1>   0.0800 
 43 H        1.3430     5.6420    -1.2890 H     1 <1>   0.0800 
 44 H        1.5270     4.4330    -2.5310 H     1 <1>   0.0800 
 45 H        1.2250     2.8330     1.8680 H     1 <1>   0.0800 
 46 H        1.1060     4.3920     2.5970 H     1 <1>   0.0800 
 47 H        1.4380     2.9490    -0.4050 H     1 <1>   0.4500 
 48 H        3.1200     4.1460     1.2010 H     1 <1>   0.0800 
 49 H        2.1110     5.4710     0.6700 H     1 <1>   0.0800 
 50 H       -6.9610    -1.3750     0.7350 H     1 <1>   0.0800 
 51 H       -6.9820    -1.6660     2.4660 H     1 <1>   0.0800 
 52 H        3.9950     4.1850    -1.3420 H     1 <1>   0.0800 
 53 H        3.2010     2.8090    -2.0840 H     1 <1>   0.0800 
 54 H        3.8620     2.6690    -0.4710 H     1 <1>   0.0800 
 55 H       -7.7770    -3.6530     1.1720 H     1 <1>   0.0800 
 56 H       -6.3660    -4.0010     2.1380 H     1 <1>   0.0800 
 57 H       -4.1740    -4.9700    -3.1500 H     1 <1>   0.1500 
 58 H       -7.2470    -5.5330    -0.3110 H     1 <1>   0.1500 
 59 H       -1.4590    -2.5920    -3.0900 H     1 <1>   0.0800 
 60 H       -2.8180    -3.3210    -3.9360 H     1 <1>   0.0800 
 61 H       -1.9150    -4.2510    -2.7250 H     1 <1>   0.0800 
 62 H       -6.0810    -6.2300    -2.3460 H     1 <1>   0.1500 
@<TRIPOS>BOND
  1   1   2  2   
  2   2   3  am  
  3   2   4  1   
  4   3   5  1   
  5   3   6  1   
  6   4   7  1   
  7   4  29  1   
  8   4  30  1   
  9   5   8  1   
 10   5  31  1   
 11   5  32  1   
 12   6   9  1   
 13   6  33  1   
 14   6  34  1   
 15   7  10  1   
 16   7  11  1   
 17   8  12  1   
 18   8  35  1   
 19   8  36  1   
 20   9  12  1   
 21   9  37  1   
 22   9  38  1   
 23  10  13  1   
 24  10  39  1   
 25  10  40  1   
 26  11  14  1   
 27  11  41  1   
 28  11  42  1   
 29  12  15  1   
 30  12  16  1   
 31  13  17  1   
 32  13  43  1   
 33  13  44  1   
 34  14  18  1   
 35  14  45  1   
 36  14  46  1   
 37  15  19  1   
 38  16  20  ar  
 39  16  21  ar  
 40  17  18  1   
 41  17  22  1   
 42  17  47  1   
 43  18  48  1   
 44  18  49  1   
 45  19  23  1   
 46  19  50  1   
 47  19  51  1   
 48  20  24  1   
 49  20  25  ar  
 50  21  23  1   
 51  21  26  ar  
 52  22  52  1   
 53  22  53  1   
 54  22  54  1   
 55  23  55  1   
 56  23  56  1   
 57  24  27  1   
 58  25  28  ar  
 59  25  57  1   
 60  26  28  ar  
 61  26  58  1   
 62  27  59  1   
 63  27  60  1   
 64  27  61  1   
 65  28  62  1   
@<TRIPOS>SUBSTRUCTURE
  1 ****   3 GROUP 4 **** **** 0

# MOE 2024.06 (io_trps.svl 2023.06)
