@<TRIPOS>MOLECULE
NONAME
48 50 1 0 0 
SMALL
USER_CHARGES


@<TRIPOS>ATOM
  1 O        0.8950     1.5570    -1.2570 O.3   1 <1>  -0.0190 
  2 N        1.6910     0.5520    -1.4640 N.2   1 <1>  -0.4100 
  3 C        0.8130     1.8590     0.0110 C.2   1 <1>  -0.0400 
  4 C        2.1090     0.1800    -0.3080 C.2   1 <1>   0.1080 
  5 C        1.5790     0.9920     0.6920 C.2   1 <1>  -0.1500 
  6 C       -0.0300     3.0400     0.4500 C.3   1 <1>   0.0200 
  7 C        3.0500    -0.9820    -0.0770 C.3   1 <1>  -0.0590 
  8 C        0.2370     4.2530    -0.4640 C.3   1 <1>  -0.0800 
  9 C       -0.3570     5.5910    -0.0270 C.3   1 <1>   0.2000 
 10 C        1.7310     4.5390    -0.6710 C.3   1 <1>   0.3430 
 11 O       -0.1090     5.8020     1.3280 O.3   1 <1>  -0.6800 
 12 C        0.4870     6.5820    -0.8320 C.3   1 <1>   0.3430 
 13 N        1.8830     6.0210    -0.8260 N.4   1 <1>  -0.9590 
 14 C        2.6950     6.5710     0.3030 C.3   1 <1>   0.4860 
 15 C        2.7880     8.0730     0.1900 C.ar  1 <1>  -0.1430 
 16 C        3.6070     8.6880    -0.7280 C.ar  1 <1>   0.1600 
 17 C        2.0430     8.8880     1.0090 C.ar  1 <1>   0.1600 
 18 N        3.6610     9.9920    -0.8450 N.ar  1 <1>  -0.6200 
 19 N        2.0810    10.1940     0.9080 N.ar  1 <1>  -0.6200 
 20 C        2.8940    10.6890    -0.0170 C.ar  1 <1>   0.4770 
 21 C        2.9610    12.2170    -0.1520 C.3   1 <1>   0.0630 
 22 C        3.4560    12.8850     1.1410 C.3   1 <1>  -0.2400 
 23 C        1.6070    12.8130    -0.5710 C.3   1 <1>  -0.2400 
 24 H        1.7680     0.9060     1.7460 H     1 <1>   0.1500 
 25 H       -1.0700     2.7680     0.3980 H     1 <1>   0.0800 
 26 H        0.2080     3.2610     1.4760 H     1 <1>   0.0800 
 27 H        3.9150    -0.6550     0.4690 H     1 <1>   0.0800 
 28 H        3.3670    -1.3910    -1.0190 H     1 <1>   0.0800 
 29 H        2.5480    -1.7510     0.4820 H     1 <1>   0.0800 
 30 H       -0.1680     4.0200    -1.4350 H     1 <1>   0.0800 
 31 H       -1.4130     5.6920    -0.2180 H     1 <1>   0.0800 
 32 H        2.0930     4.0130    -1.5420 H     1 <1>   0.0800 
 33 H        2.2840     4.1960     0.1890 H     1 <1>   0.0800 
 34 H       -0.8490     5.4640     1.8780 H     1 <1>   0.4000 
 35 H        0.4290     7.5750    -0.4180 H     1 <1>   0.0800 
 36 H        0.1190     6.6080    -1.8450 H     1 <1>   0.0800 
 37 H        2.3470     6.2500    -1.7140 H     1 <1>   0.4500 
 38 H        2.2370     6.3110     1.2440 H     1 <1>   0.0800 
 39 H        3.6870     6.1480     0.2850 H     1 <1>   0.0800 
 40 H        4.2330     8.1120    -1.3880 H     1 <1>   0.1500 
 41 H        1.3930     8.4710     1.7620 H     1 <1>   0.1500 
 42 H        3.6710    12.4480    -0.9280 H     1 <1>   0.0800 
 43 H        2.7630    12.7070     1.9450 H     1 <1>   0.0800 
 44 H        3.5590    13.9460     1.0010 H     1 <1>   0.0800 
 45 H        4.4130    12.4800     1.4190 H     1 <1>   0.0800 
 46 H        0.8660    12.6310     0.1880 H     1 <1>   0.0800 
 47 H        1.2760    12.3620    -1.4890 H     1 <1>   0.0800 
 48 H        1.6940    13.8740    -0.7210 H     1 <1>   0.0800 
@<TRIPOS>BOND
  1   1   2  1   
  2   1   3  1   
  3   2   4  2   
  4   3   5  2   
  5   3   6  1   
  6   4   5  1   
  7   4   7  1   
  8   5  24  1   
  9   6   8  1   
 10   6  25  1   
 11   6  26  1   
 12   7  27  1   
 13   7  28  1   
 14   7  29  1   
 15   8   9  1   
 16   8  10  1   
 17   8  30  1   
 18   9  11  1   
 19   9  12  1   
 20   9  31  1   
 21  10  13  1   
 22  10  32  1   
 23  10  33  1   
 24  11  34  1   
 25  12  13  1   
 26  12  35  1   
 27  12  36  1   
 28  13  14  1   
 29  13  37  1   
 30  14  15  1   
 31  14  38  1   
 32  14  39  1   
 33  15  16  ar  
 34  15  17  ar  
 35  16  18  ar  
 36  16  40  1   
 37  17  19  ar  
 38  17  41  1   
 39  18  20  ar  
 40  19  20  ar  
 41  20  21  1   
 42  21  22  1   
 43  21  23  1   
 44  21  42  1   
 45  22  43  1   
 46  22  44  1   
 47  22  45  1   
 48  23  46  1   
 49  23  47  1   
 50  23  48  1   
@<TRIPOS>SUBSTRUCTURE
  1 ****  13 GROUP 4 **** **** 0

# MOE 2024.06 (io_trps.svl 2023.06)
