@<TRIPOS>MOLECULE
NONAME
42 43 1 0 0 
SMALL
USER_CHARGES


@<TRIPOS>ATOM
  1 S       -0.2240     0.0100     0.2270 S.o2  1 <1>   1.3330 
  2 O       -0.9010     1.2690     0.0160 O.2   1 <1>  -0.6500 
  3 O       -0.2880    -0.6250     1.5240 O.2   1 <1>  -0.6500 
  4 N       -0.7990    -1.1020    -0.9200 N.am  1 <1>  -0.8490 
  5 C        1.4880     0.2250    -0.2670 C.3   1 <1>  -0.0550 
  6 C       -2.2310    -0.9330    -1.1880 C.3   1 <1>   0.1160 
  7 C       -0.5200    -2.4990    -0.5680 C.3   1 <1>   0.1160 
  8 C        2.2640     1.2380     0.6010 C.3   1 <1>  -0.0800 
  9 C        3.6210     1.5510    -0.0060 C.3   1 <1>   0.2200 
 10 C        2.6610     0.6420     1.9540 C.3   1 <1>   0.1200 
 11 N        4.1050     2.8470     0.5190 N.am  1 <1>  -0.7300 
 12 C        4.4840     0.4230     0.5520 C.3   1 <1>   0.1200 
 13 O        3.9210     0.0630     1.7800 O.3   1 <1>  -0.5600 
 14 C        4.5030     3.9140    -0.2230 C.2   1 <1>   0.7150 
 15 O        4.4120     3.8420    -1.4340 O.2   1 <1>  -0.5700 
 16 C        5.0260     5.0750     0.4520 C.2   1 <1>  -0.2370 
 17 N        5.5780     6.1700    -0.1730 N.pl3 1 <1>   0.0480 
 18 C        5.0770     5.3120     1.8050 C.2   1 <1>  -0.1500 
 19 C        5.9600     7.0530     0.7810 C.2   1 <1>  -0.3020 
 20 C        5.7520     6.3940    -1.6220 C.3   1 <1>   0.0160 
 21 C        5.6660     6.5540     2.0090 C.2   1 <1>  -0.1500 
 22 H        1.9880    -0.7230    -0.2440 H     1 <1>   0.0800 
 23 H        1.4930     0.5720    -1.2820 H     1 <1>   0.0800 
 24 H       -2.5590    -1.6420    -1.9280 H     1 <1>   0.0800 
 25 H       -2.4210     0.0580    -1.5660 H     1 <1>   0.0800 
 26 H       -2.8000    -1.0740    -0.2840 H     1 <1>   0.0800 
 27 H       -0.8210    -3.1500    -1.3710 H     1 <1>   0.0800 
 28 H       -1.0540    -2.7760     0.3270 H     1 <1>   0.0800 
 29 H        0.5340    -2.6360    -0.3960 H     1 <1>   0.0800 
 30 H        1.6720     2.1310     0.7150 H     1 <1>   0.0800 
 31 H        3.6140     1.5580    -1.0830 H     1 <1>   0.0800 
 32 H        1.9820    -0.1080     2.3190 H     1 <1>   0.0800 
 33 H        2.7610     1.4170     2.6950 H     1 <1>   0.0800 
 34 H        4.2860     2.8720     1.5210 H     1 <1>   0.3700 
 35 H        5.5080     0.7180     0.6950 H     1 <1>   0.0800 
 36 H        4.4410    -0.4400    -0.0890 H     1 <1>   0.0800 
 37 H        4.7300     4.6730     2.5980 H     1 <1>   0.1500 
 38 H        6.4240     7.9950     0.5470 H     1 <1>   0.1500 
 39 H        6.2470     7.3330    -1.7890 H     1 <1>   0.0800 
 40 H        4.7870     6.4080    -2.0960 H     1 <1>   0.0800 
 41 H        6.3420     5.5980    -2.0370 H     1 <1>   0.0800 
 42 H        5.8440     7.0150     2.9660 H     1 <1>   0.1500 
@<TRIPOS>BOND
  1   1   2  2   
  2   1   3  2   
  3   1   4  am  
  4   1   5  1   
  5   4   6  1   
  6   4   7  1   
  7   5   8  1   
  8   5  22  1   
  9   5  23  1   
 10   6  24  1   
 11   6  25  1   
 12   6  26  1   
 13   7  27  1   
 14   7  28  1   
 15   7  29  1   
 16   8   9  1   
 17   8  10  1   
 18   8  30  1   
 19   9  11  1   
 20   9  12  1   
 21   9  31  1   
 22  10  13  1   
 23  10  32  1   
 24  10  33  1   
 25  11  14  am  
 26  11  34  1   
 27  12  13  1   
 28  12  35  1   
 29  12  36  1   
 30  14  15  2   
 31  14  16  1   
 32  16  17  1   
 33  16  18  2   
 34  17  19  1   
 35  17  20  1   
 36  18  21  1   
 37  18  37  1   
 38  19  21  2   
 39  19  38  1   
 40  20  39  1   
 41  20  40  1   
 42  20  41  1   
 43  21  42  1   
@<TRIPOS>SUBSTRUCTURE
  1 ****   9 GROUP 4 **** **** 0

# MOE 2024.06 (io_trps.svl 2023.06)
