@<TRIPOS>MOLECULE
NONAME
50 52 1 0 0 
SMALL
USER_CHARGES


@<TRIPOS>ATOM
  1 CL      -0.7770    -0.0720     1.7490 Cl    1 <1>  -0.1770 
  2 C       -0.6090    -1.6320     0.9990 C.ar  1 <1>   0.1770 
  3 C       -1.7110    -2.4330     0.8480 C.ar  1 <1>  -0.1500 
  4 C        0.6450    -2.0400     0.5630 C.ar  1 <1>  -0.1500 
  5 C       -1.5780    -3.6870     0.2460 C.ar  1 <1>   0.3610 
  6 C        0.7860    -3.2720    -0.0300 C.ar  1 <1>  -0.1500 
  7 N       -2.6750    -4.5140     0.0790 N.ar  1 <1>  -0.1790 
  8 C       -0.3180    -4.1270    -0.2040 C.ar  1 <1>   0.0000 
  9 C       -2.6480    -5.7220    -0.4910 C.ar  1 <1>   0.4610 
 10 C       -0.2450    -5.4190    -0.8060 C.ar  1 <1>  -0.1430 
 11 N       -3.7950    -6.4360    -0.6040 N.pl3 1 <1>  -0.8380 
 12 C       -1.3740    -6.1700    -0.9330 C.ar  1 <1>  -0.1500 
 13 C        1.0930    -5.9630    -1.2970 C.3   1 <1>  -0.0970 
 14 C       -3.9180    -7.6850    -1.4410 C.3   1 <1>   0.2090 
 15 C       -5.1010    -6.1410     0.0690 C.3   1 <1>   0.2090 
 16 C       -4.2410    -8.9460    -0.6030 C.3   1 <1>   0.0000 
 17 C       -5.4450    -7.2870     1.0200 C.3   1 <1>  -0.1600 
 18 C       -5.4800    -8.6290     0.2790 C.3   1 <1>   0.2000 
 19 C       -4.6800   -10.0560    -1.5930 C.3   1 <1>   0.1200 
 20 C       -2.9840    -9.4820     0.1620 C.3   1 <1>  -0.1600 
 21 O       -5.6920    -9.6350     1.2000 O.3   1 <1>  -0.6800 
 22 O       -3.7020   -10.2670    -2.5590 O.3   1 <1>  -0.6800 
 23 C       -2.5110    -8.7660     1.4400 C.3   1 <1>  -0.1600 
 24 C       -1.1670    -9.3290     1.9110 C.3   1 <1>  -0.2400 
 25 H       -2.6640    -2.0790     1.1980 H     1 <1>   0.1500 
 26 H        1.4880    -1.3830     0.6990 H     1 <1>   0.1500 
 27 H        1.7630    -3.5780    -0.3640 H     1 <1>   0.1500 
 28 H       -3.5810    -4.1790     0.3800 H     1 <1>   0.4570 
 29 H       -1.2980    -7.1480    -1.3660 H     1 <1>   0.1500 
 30 H        0.9830    -6.9460    -1.7190 H     1 <1>   0.0800 
 31 H        1.7910    -6.0290    -0.4810 H     1 <1>   0.0800 
 32 H        1.5020    -5.3190    -2.0560 H     1 <1>   0.0800 
 33 H       -4.7200    -7.5300    -2.1450 H     1 <1>   0.0800 
 34 H       -3.0440    -7.8600    -2.0390 H     1 <1>   0.0800 
 35 H       -5.0710    -5.2250     0.6280 H     1 <1>   0.0800 
 36 H       -5.8740    -6.0470    -0.6780 H     1 <1>   0.0800 
 37 H       -6.4180    -7.1040     1.4420 H     1 <1>   0.0800 
 38 H       -4.7400    -7.2980     1.8260 H     1 <1>   0.0800 
 39 H       -6.3530    -8.6130    -0.3530 H     1 <1>   0.0800 
 40 H       -5.5880    -9.7830    -2.1040 H     1 <1>   0.0800 
 41 H       -4.8460   -10.9840    -1.0710 H     1 <1>   0.0800 
 42 H       -3.1630   -10.5090     0.4300 H     1 <1>   0.0800 
 43 H       -2.1610    -9.5010    -0.5330 H     1 <1>   0.0800 
 44 H       -4.8800    -9.7860     1.7220 H     1 <1>   0.4000 
 45 H       -3.9240   -11.0450    -3.1110 H     1 <1>   0.4000 
 46 H       -2.3940    -7.7150     1.2720 H     1 <1>   0.0800 
 47 H       -3.2250    -8.9070     2.2310 H     1 <1>   0.0800 
 48 H       -0.4090    -9.1780     1.1620 H     1 <1>   0.0800 
 49 H       -1.2480   -10.3830     2.1100 H     1 <1>   0.0800 
 50 H       -0.8550    -8.8360     2.8150 H     1 <1>   0.0800 
@<TRIPOS>BOND
  1   1   2  1   
  2   2   3  ar  
  3   2   4  ar  
  4   3   5  ar  
  5   3  25  1   
  6   4   6  ar  
  7   4  26  1   
  8   5   7  ar  
  9   5   8  ar  
 10   6   8  ar  
 11   6  27  1   
 12   7   9  ar  
 13   7  28  1   
 14   8  10  ar  
 15   9  11  1   
 16   9  12  ar  
 17  10  12  ar  
 18  10  13  1   
 19  11  14  1   
 20  11  15  1   
 21  12  29  1   
 22  13  30  1   
 23  13  31  1   
 24  13  32  1   
 25  14  16  1   
 26  14  33  1   
 27  14  34  1   
 28  15  17  1   
 29  15  35  1   
 30  15  36  1   
 31  16  18  1   
 32  16  19  1   
 33  16  20  1   
 34  17  18  1   
 35  17  37  1   
 36  17  38  1   
 37  18  21  1   
 38  18  39  1   
 39  19  22  1   
 40  19  40  1   
 41  19  41  1   
 42  20  23  1   
 43  20  42  1   
 44  20  43  1   
 45  21  44  1   
 46  22  45  1   
 47  23  24  1   
 48  23  46  1   
 49  23  47  1   
 50  24  48  1   
 51  24  49  1   
 52  24  50  1   
@<TRIPOS>SUBSTRUCTURE
  1 ****   9 GROUP 4 **** **** 0

# MOE 2024.06 (io_trps.svl 2023.06)
