@<TRIPOS>MOLECULE
NONAME
42 44 1 0 0 
SMALL
USER_CHARGES


@<TRIPOS>ATOM
  1 S       -0.5990     2.3690     1.7590 S.3   1 <1>  -0.0800 
  2 C        0.1580     1.7220     0.3090 C.2   1 <1>  -0.0450 
  3 C       -2.1170     1.5760     1.3770 C.2   1 <1>  -0.1100 
  4 C       -0.7220     0.9720    -0.3810 C.2   1 <1>  -0.1500 
  5 C        1.6110     2.0950     0.0520 C.3   1 <1>   0.0850 
  6 C       -2.0150     0.8860     0.2270 C.2   1 <1>  -0.1500 
  7 C        1.7190     3.5090    -0.5290 C.2   1 <1>   0.6300 
  8 C        2.6360     1.0270    -0.2530 C.3   1 <1>  -0.1900 
  9 C        2.6290     1.6700     1.0910 C.3   1 <1>  -0.2000 
 10 O        1.7860     3.6730    -1.7260 O.2   1 <1>  -0.5700 
 11 N        1.7450     4.5610     0.3330 N.am  1 <1>  -0.7300 
 12 C        2.2430    -0.4550    -0.3250 C.3   1 <1>  -0.1450 
 13 C        3.8130     1.3330    -1.1900 C.3   1 <1>  -0.1450 
 14 C        1.8140     5.9790    -0.0630 C.3   1 <1>   0.1400 
 15 C        3.2670     6.4430     0.0170 C.3   1 <1>  -0.1600 
 16 C        3.4160     7.8860    -0.4760 C.3   1 <1>   0.0200 
 17 C        4.8590     8.3430    -0.3820 C.2   1 <1>   0.0060 
 18 N        5.2860     9.1910     0.4960 N.2   1 <1>  -0.5650 
 19 N        5.8250     7.8970    -1.2150 N.pl3 1 <1>   0.0330 
 20 C        6.6000     9.3060     0.2230 C.2   1 <1>   0.0770 
 21 C        6.9480     8.5220    -0.8200 C.2   1 <1>  -0.3020 
 22 H       -2.9340     1.7130     2.0630 H     1 <1>   0.1500 
 23 H       -0.5120     0.4720    -1.3100 H     1 <1>   0.1500 
 24 H       -2.8020     0.3120    -0.2310 H     1 <1>   0.1500 
 25 H        2.2870     1.1060     1.9400 H     1 <1>   0.1000 
 26 H        3.4270     2.3470     1.3440 H     1 <1>   0.1000 
 27 H        1.6630     4.3700     1.3330 H     1 <1>   0.3700 
 28 H        1.4830    -0.6950     0.3970 H     1 <1>   0.0800 
 29 H        3.0980    -1.0770    -0.1260 H     1 <1>   0.0800 
 30 H        1.8690    -0.6900    -1.3060 H     1 <1>   0.0800 
 31 H        4.1630     2.3420    -1.0640 H     1 <1>   0.0800 
 32 H        3.5060     1.2100    -2.2140 H     1 <1>   0.0800 
 33 H        4.6340     0.6670    -0.9930 H     1 <1>   0.0800 
 34 H        1.1910     6.5660     0.5910 H     1 <1>   0.0800 
 35 H        1.4480     6.0880    -1.0710 H     1 <1>   0.0800 
 36 H        3.8750     5.7950    -0.5910 H     1 <1>   0.0800 
 37 H        3.6100     6.3830     1.0350 H     1 <1>   0.0800 
 38 H        2.8090     8.5390     0.1270 H     1 <1>   0.0800 
 39 H        3.0830     7.9700    -1.4960 H     1 <1>   0.0800 
 40 H        5.7150     7.2240    -1.9790 H     1 <1>   0.2700 
 41 H        7.2340     9.9580     0.8020 H     1 <1>   0.1500 
 42 H        7.9050     8.3810    -1.2870 H     1 <1>   0.1500 
@<TRIPOS>BOND
  1   1   2  1   
  2   1   3  1   
  3   2   4  2   
  4   2   5  1   
  5   3   6  2   
  6   3  22  1   
  7   4   6  1   
  8   4  23  1   
  9   5   7  1   
 10   5   8  1   
 11   5   9  1   
 12   6  24  1   
 13   7  10  2   
 14   7  11  am  
 15   8   9  1   
 16   8  12  1   
 17   8  13  1   
 18   9  25  1   
 19   9  26  1   
 20  11  14  1   
 21  11  27  1   
 22  12  28  1   
 23  12  29  1   
 24  12  30  1   
 25  13  31  1   
 26  13  32  1   
 27  13  33  1   
 28  14  15  1   
 29  14  34  1   
 30  14  35  1   
 31  15  16  1   
 32  15  36  1   
 33  15  37  1   
 34  16  17  1   
 35  16  38  1   
 36  16  39  1   
 37  17  18  2   
 38  17  19  1   
 39  18  20  1   
 40  19  21  1   
 41  19  40  1   
 42  20  21  2   
 43  20  41  1   
 44  21  42  1   
@<TRIPOS>SUBSTRUCTURE
  1 ****  11 GROUP 4 **** **** 0

# MOE 2024.06 (io_trps.svl 2023.06)
