@<TRIPOS>MOLECULE
NONAME
60 63 1 0 0 
SMALL
USER_CHARGES


@<TRIPOS>ATOM
  1 O        1.7730     0.6990    -2.6210 O.2   1 <1>  -0.5700 
  2 C        1.7120    -0.2160    -1.8320 C.2   1 <1>   0.5690 
  3 N        2.1330    -0.0280    -0.5340 N.am  1 <1>  -0.6600 
  4 C        1.2020    -1.5710    -2.3600 C.3   1 <1>   0.1710 
  5 C        2.2400     1.3540     0.0400 C.3   1 <1>   0.1400 
  6 C        2.4900    -1.1340     0.4010 C.3   1 <1>   0.1400 
  7 N        0.2200    -2.2820    -1.4950 N.3   1 <1>  -0.8100 
  8 C        3.6710     1.7970     0.4530 C.3   1 <1>   0.4230 
  9 C        3.9910    -1.0960     0.7640 C.3   1 <1>  -0.0800 
 10 C       -0.1320    -3.5980    -2.0840 C.3   1 <1>   0.1100 
 11 C       -1.0170    -1.4780    -1.3250 C.3   1 <1>   0.1100 
 12 N        4.8090     1.1310    -0.2980 N.4   1 <1>  -0.9590 
 13 C        3.8750     1.7120     1.9820 C.3   1 <1>   0.1200 
 14 C        4.2650    -0.6200     2.1990 C.3   1 <1>   0.1200 
 15 C        4.8420    -0.3770    -0.2980 C.3   1 <1>   0.3430 
 16 C       -1.1710    -4.3610    -1.2400 C.3   1 <1>   0.2090 
 17 C       -2.0790    -2.2010    -0.4730 C.3   1 <1>   0.2090 
 18 C        4.8230     1.6150    -1.7160 C.3   1 <1>   0.2630 
 19 O        3.4870     0.4860     2.5160 O.3   1 <1>  -0.5600 
 20 N       -2.3990    -3.5420    -1.0400 N.pl3 1 <1>  -0.8380 
 21 C       -3.4890    -4.1980    -0.4790 C.ar  1 <1>   0.1000 
 22 C       -3.4700    -4.6590     0.8330 C.ar  1 <1>  -0.1500 
 23 C       -4.6290    -4.4010    -1.2420 C.ar  1 <1>  -0.1500 
 24 C       -4.5650    -5.3110     1.3760 C.ar  1 <1>  -0.1440 
 25 C       -5.7270    -5.0510    -0.7100 C.ar  1 <1>  -0.1500 
 26 C       -5.6950    -5.5060     0.5980 C.ar  1 <1>  -0.1500 
 27 C       -4.5400    -5.8130     2.8080 C.3   1 <1>  -0.0970 
 28 H        2.0580    -2.2040    -2.5070 H     1 <1>   0.0800 
 29 H        0.7580    -1.4020    -3.3260 H     1 <1>   0.0800 
 30 H        1.8670     2.0690    -0.6730 H     1 <1>   0.0800 
 31 H        1.5860     1.4210     0.8920 H     1 <1>   0.0800 
 32 H        1.8760    -1.0700     1.2850 H     1 <1>   0.0800 
 33 H        2.2770    -2.0840    -0.0550 H     1 <1>   0.0800 
 34 H        3.7260     2.8490     0.2320 H     1 <1>   0.0800 
 35 H        4.3180    -2.1200     0.7450 H     1 <1>   0.0800 
 36 H       -0.5370    -3.4600    -3.0720 H     1 <1>   0.0800 
 37 H        0.7540    -4.2020    -2.1660 H     1 <1>   0.0800 
 38 H       -0.7790    -0.5440    -0.8470 H     1 <1>   0.0800 
 39 H       -1.4470    -1.2590    -2.2880 H     1 <1>   0.0800 
 40 H        5.6780     1.4490     0.1490 H     1 <1>   0.4500 
 41 H        3.2540     2.4540     2.4540 H     1 <1>   0.0800 
 42 H        4.8950     1.9130     2.2590 H     1 <1>   0.0800 
 43 H        5.3040    -0.3900     2.3650 H     1 <1>   0.0800 
 44 H        3.9810    -1.3960     2.8900 H     1 <1>   0.0800 
 45 H        4.5080    -0.7300    -1.2600 H     1 <1>   0.0800 
 46 H        5.8650    -0.6970    -0.1870 H     1 <1>   0.0800 
 47 H       -0.7420    -4.6090    -0.2850 H     1 <1>   0.0800 
 48 H       -1.4370    -5.2770    -1.7380 H     1 <1>   0.0800 
 49 H       -2.9770    -1.6090    -0.4410 H     1 <1>   0.0800 
 50 H       -1.7130    -2.3110     0.5320 H     1 <1>   0.0800 
 51 H        3.9280     1.3010    -2.2280 H     1 <1>   0.0800 
 52 H        5.6750     1.2160    -2.2430 H     1 <1>   0.0800 
 53 H        4.8740     2.6910    -1.7480 H     1 <1>   0.0800 
 54 H       -2.5870    -4.5010     1.4220 H     1 <1>   0.1500 
 55 H       -4.6400    -4.0430    -2.2540 H     1 <1>   0.1500 
 56 H       -6.6050    -5.2030    -1.3120 H     1 <1>   0.1500 
 57 H       -6.5520    -6.0110     1.0060 H     1 <1>   0.1500 
 58 H       -5.3920    -5.4360     3.3430 H     1 <1>   0.0800 
 59 H       -3.6480    -5.4890     3.3130 H     1 <1>   0.0800 
 60 H       -4.5700    -6.8880     2.8170 H     1 <1>   0.0800 
@<TRIPOS>BOND
  1   1   2  2   
  2   2   3  am  
  3   2   4  1   
  4   3   5  1   
  5   3   6  1   
  6   4   7  1   
  7   4  28  1   
  8   4  29  1   
  9   5   8  1   
 10   5  30  1   
 11   5  31  1   
 12   6   9  1   
 13   6  32  1   
 14   6  33  1   
 15   7  10  1   
 16   7  11  1   
 17   8  12  1   
 18   8  13  1   
 19   8  34  1   
 20   9  14  1   
 21   9  15  1   
 22   9  35  1   
 23  10  16  1   
 24  10  36  1   
 25  10  37  1   
 26  11  17  1   
 27  11  38  1   
 28  11  39  1   
 29  12  15  1   
 30  12  18  1   
 31  12  40  1   
 32  13  19  1   
 33  13  41  1   
 34  13  42  1   
 35  14  19  1   
 36  14  43  1   
 37  14  44  1   
 38  15  45  1   
 39  15  46  1   
 40  16  20  1   
 41  16  47  1   
 42  16  48  1   
 43  17  20  1   
 44  17  49  1   
 45  17  50  1   
 46  18  51  1   
 47  18  52  1   
 48  18  53  1   
 49  20  21  1   
 50  21  22  ar  
 51  21  23  ar  
 52  22  24  ar  
 53  22  54  1   
 54  23  25  ar  
 55  23  55  1   
 56  24  26  ar  
 57  24  27  1   
 58  25  26  ar  
 59  25  56  1   
 60  26  57  1   
 61  27  58  1   
 62  27  59  1   
 63  27  60  1   
@<TRIPOS>SUBSTRUCTURE
  1 ****   7 GROUP 4 **** **** 0

# MOE 2024.06 (io_trps.svl 2023.06)
