@<TRIPOS>MOLECULE
NONAME
43 45 1 0 0 
SMALL
USER_CHARGES


@<TRIPOS>ATOM
  1 N        0.6860     1.0420    -0.0490 N.ar  1 <1>  -0.6200 
  2 C        0.3540     2.0240    -0.8790 C.ar  1 <1>   0.4100 
  3 C       -0.2440     0.7910     0.8540 C.ar  1 <1>   0.1660 
  4 N        1.2910     2.3710    -1.8490 N.pl3 1 <1>  -0.8380 
  5 C       -0.8750     2.7000    -0.7780 C.ar  1 <1>   0.1600 
  6 C       -1.4500     1.4810     0.9380 C.ar  1 <1>   0.1600 
  7 C        0.0750    -0.3230     1.8310 C.3   1 <1>  -0.0960 
  8 C        1.7480     3.7860    -1.9690 C.3   1 <1>   0.2090 
  9 C        2.2490     1.3390    -2.3390 C.3   1 <1>   0.1290 
 10 N       -1.8080     2.4620     0.1240 N.ar  1 <1>  -0.6200 
 11 C        2.2290     4.3580    -0.6250 C.3   1 <1>  -0.0800 
 12 C        2.7310     5.7950    -0.7560 C.3   1 <1>   0.2090 
 13 C        3.4060     3.6090    -0.0050 C.3   1 <1>  -0.1600 
 14 N        3.8390     5.9320     0.2240 N.pl3 1 <1>  -0.8380 
 15 C        4.0510     4.6350     0.9110 C.3   1 <1>   0.2090 
 16 C        4.0410     7.1640     0.8630 C.ar  1 <1>   0.1000 
 17 C        4.3430     7.2700     2.2210 C.ar  1 <1>  -0.1500 
 18 C        3.9570     8.3450     0.1290 C.ar  1 <1>  -0.1500 
 19 C        4.5310     8.5020     2.8210 C.ar  1 <1>  -0.1500 
 20 C        4.1430     9.5800     0.7230 C.ar  1 <1>  -0.1500 
 21 C        4.4290     9.6620     2.0740 C.ar  1 <1>  -0.1500 
 22 H       -1.0700     3.4700    -1.4980 H     1 <1>   0.1500 
 23 H       -2.1520     1.2130     1.7070 H     1 <1>   0.1500 
 24 H        0.9730    -0.0810     2.3690 H     1 <1>   0.0800 
 25 H        0.2330    -1.2380     1.2900 H     1 <1>   0.0800 
 26 H       -0.7250    -0.4670     2.5330 H     1 <1>   0.0800 
 27 H        0.9350     4.3840    -2.3430 H     1 <1>   0.0800 
 28 H        2.5490     3.8420    -2.6870 H     1 <1>   0.0800 
 29 H        1.7690     0.3760    -2.3630 H     1 <1>   0.0800 
 30 H        3.0980     1.2840    -1.6820 H     1 <1>   0.0800 
 31 H        2.5790     1.5820    -3.3340 H     1 <1>   0.0800 
 32 H        1.4120     4.3680     0.0740 H     1 <1>   0.0800 
 33 H        1.9430     6.4990    -0.5460 H     1 <1>   0.0800 
 34 H        3.1240     5.9760    -1.7410 H     1 <1>   0.0800 
 35 H        4.1170     3.3270    -0.7610 H     1 <1>   0.0800 
 36 H        3.0910     2.7310     0.5320 H     1 <1>   0.0800 
 37 H        5.1000     4.4430     1.0520 H     1 <1>   0.0800 
 38 H        3.5430     4.6380     1.8600 H     1 <1>   0.0800 
 39 H        4.4330     6.3890     2.8240 H     1 <1>   0.1500 
 40 H        3.7520     8.2940    -0.9220 H     1 <1>   0.1500 
 41 H        4.7590     8.5590     3.8710 H     1 <1>   0.1500 
 42 H        4.0690    10.4770     0.1340 H     1 <1>   0.1500 
 43 H        4.5740    10.6210     2.5400 H     1 <1>   0.1500 
@<TRIPOS>BOND
  1   1   2  ar  
  2   1   3  ar  
  3   2   4  1   
  4   2   5  ar  
  5   3   6  ar  
  6   3   7  1   
  7   4   8  1   
  8   4   9  1   
  9   5  10  ar  
 10   5  22  1   
 11   6  10  ar  
 12   6  23  1   
 13   7  24  1   
 14   7  25  1   
 15   7  26  1   
 16   8  11  1   
 17   8  27  1   
 18   8  28  1   
 19   9  29  1   
 20   9  30  1   
 21   9  31  1   
 22  11  12  1   
 23  11  13  1   
 24  11  32  1   
 25  12  14  1   
 26  12  33  1   
 27  12  34  1   
 28  13  15  1   
 29  13  35  1   
 30  13  36  1   
 31  14  15  1   
 32  14  16  1   
 33  15  37  1   
 34  15  38  1   
 35  16  17  ar  
 36  16  18  ar  
 37  17  19  ar  
 38  17  39  1   
 39  18  20  ar  
 40  18  40  1   
 41  19  21  ar  
 42  19  41  1   
 43  20  21  ar  
 44  20  42  1   
 45  21  43  1   
@<TRIPOS>SUBSTRUCTURE
  1 ****  11 GROUP 4 **** **** 0

# MOE 2024.06 (io_trps.svl 2023.06)
