@<TRIPOS>MOLECULE
NONAME
53 55 1 0 0 
SMALL
USER_CHARGES


@<TRIPOS>ATOM
  1 F        0.0240     1.1600     0.1520 F     1 <1>  -0.1900 
  2 C       -1.2780     1.2840     0.1410 C.ar  1 <1>   0.1900 
  3 C       -1.9260     2.2420    -0.6470 C.ar  1 <1>   0.0830 
  4 C       -1.9840     0.4180     0.9540 C.ar  1 <1>  -0.1500 
  5 O       -1.3440     3.1480    -1.4850 O.3   1 <1>  -0.3630 
  6 C       -3.3090     2.2950    -0.5850 C.ar  1 <1>  -0.1500 
  7 C       -3.3640     0.4990     0.9920 C.ar  1 <1>  -0.1500 
  8 C        0.0480     3.2070    -1.7050 C.3   1 <1>   0.0400 
  9 C       -4.0560     1.4340     0.2200 C.ar  1 <1>   0.0530 
 10 C       -5.4930     1.5330     0.2550 C.2   1 <1>   0.0870 
 11 O       -6.0470     2.7150     0.3520 O.3   1 <1>  -0.0190 
 12 C       -6.5050     0.6220     0.2030 C.2   1 <1>  -0.0860 
 13 N       -7.3510     2.6680     0.3810 N.2   1 <1>  -0.4100 
 14 C       -7.6540     1.4220     0.2940 C.2   1 <1>   0.3720 
 15 C       -6.4780    -0.8030     0.0620 C.2   1 <1>   0.7160 
 16 N       -8.9840     0.9660     0.2910 N.pl3 1 <1>  -0.8210 
 17 O       -5.4380    -1.4270    -0.0340 O.2   1 <1>  -0.5700 
 18 N       -7.6390    -1.5120     0.0350 N.am  1 <1>  -0.7300 
 19 C       -9.6980     1.3120     1.5530 C.3   1 <1>   0.1290 
 20 C       -9.7420     1.4680    -0.8900 C.3   1 <1>   0.1290 
 21 C       -7.7620    -2.9520    -0.2030 C.3   1 <1>   0.2200 
 22 C       -9.0350    -3.2290    -0.9970 C.3   1 <1>  -0.1600 
 23 C       -7.7860    -3.6780     1.1390 C.3   1 <1>  -0.1600 
 24 C       -9.2290    -4.7330    -1.1770 C.3   1 <1>   0.3430 
 25 C       -7.9930    -5.1740     0.9280 C.3   1 <1>   0.3430 
 26 N       -9.2510    -5.4090     0.1560 N.4   1 <1>  -0.9590 
 27 C       -9.5110    -6.8730     0.0050 C.3   1 <1>   0.2630 
 28 H       -1.4590    -0.3080     1.5480 H     1 <1>   0.1500 
 29 H       -3.8210     3.0270    -1.1840 H     1 <1>   0.1500 
 30 H       -3.9140    -0.1720     1.6270 H     1 <1>   0.1500 
 31 H        0.2400     3.9860    -2.4210 H     1 <1>   0.0800 
 32 H        0.3820     2.2630    -2.0960 H     1 <1>   0.0800 
 33 H        0.5400     3.4380    -0.7760 H     1 <1>   0.0800 
 34 H       -8.4910    -0.9360     0.1210 H     1 <1>   0.3700 
 35 H       -9.1180     0.9920     2.4020 H     1 <1>   0.0800 
 36 H      -10.6570     0.8240     1.5830 H     1 <1>   0.0800 
 37 H       -9.8430     2.3780     1.6200 H     1 <1>   0.0800 
 38 H       -9.2000     1.2470    -1.7950 H     1 <1>   0.0800 
 39 H       -9.8740     2.5360    -0.8220 H     1 <1>   0.0800 
 40 H      -10.7080     0.9970    -0.9400 H     1 <1>   0.0800 
 41 H       -6.9080    -3.2870    -0.7730 H     1 <1>   0.0800 
 42 H       -8.9560    -2.7700    -1.9670 H     1 <1>   0.0800 
 43 H       -9.8910    -2.8140    -0.4950 H     1 <1>   0.0800 
 44 H       -8.5680    -3.2880     1.7660 H     1 <1>   0.0800 
 45 H       -6.8460    -3.5240     1.6380 H     1 <1>   0.0800 
 46 H       -8.4210    -5.1300    -1.7720 H     1 <1>   0.0800 
 47 H      -10.1540    -4.9160    -1.7000 H     1 <1>   0.0800 
 48 H       -8.0480    -5.6670     1.8860 H     1 <1>   0.0800 
 49 H       -7.1510    -5.5790     0.3880 H     1 <1>   0.0800 
 50 H      -10.0240    -4.9980     0.6990 H     1 <1>   0.4500 
 51 H       -8.7190    -7.3400    -0.5580 H     1 <1>   0.0800 
 52 H      -10.4430    -7.0370    -0.5120 H     1 <1>   0.0800 
 53 H       -9.5700    -7.3460     0.9720 H     1 <1>   0.0800 
@<TRIPOS>BOND
  1   1   2  1   
  2   2   3  ar  
  3   2   4  ar  
  4   3   5  1   
  5   3   6  ar  
  6   4   7  ar  
  7   4  28  1   
  8   5   8  1   
  9   6   9  ar  
 10   6  29  1   
 11   7   9  ar  
 12   7  30  1   
 13   8  31  1   
 14   8  32  1   
 15   8  33  1   
 16   9  10  1   
 17  10  11  1   
 18  10  12  2   
 19  11  13  1   
 20  12  14  1   
 21  12  15  1   
 22  13  14  2   
 23  14  16  1   
 24  15  17  2   
 25  15  18  am  
 26  16  19  1   
 27  16  20  1   
 28  18  21  1   
 29  18  34  1   
 30  19  35  1   
 31  19  36  1   
 32  19  37  1   
 33  20  38  1   
 34  20  39  1   
 35  20  40  1   
 36  21  22  1   
 37  21  23  1   
 38  21  41  1   
 39  22  24  1   
 40  22  42  1   
 41  22  43  1   
 42  23  25  1   
 43  23  44  1   
 44  23  45  1   
 45  24  26  1   
 46  24  46  1   
 47  24  47  1   
 48  25  26  1   
 49  25  48  1   
 50  25  49  1   
 51  26  27  1   
 52  26  50  1   
 53  27  51  1   
 54  27  52  1   
 55  27  53  1   
@<TRIPOS>SUBSTRUCTURE
  1 ****  15 GROUP 4 **** **** 0

# MOE 2024.06 (io_trps.svl 2023.06)
