@<TRIPOS>MOLECULE
NONAME
40 42 1 0 0 
SMALL
USER_CHARGES


@<TRIPOS>ATOM
  1 CL      -1.5810    -0.1790    -0.1050 Cl    1 <1>  -0.1230 
  2 C       -1.0840     1.4540     0.3040 C.2   1 <1>   0.1230 
  3 C       -1.8810     2.4450     0.8850 C.2   1 <1>   0.2030 
  4 C        0.1340     1.9800     0.0940 C.2   1 <1>  -0.3020 
  5 N       -1.1610     3.5550     1.0120 N.2   1 <1>  -0.7070 
  6 C       -3.2670     2.2310     1.2770 C.2   1 <1>   0.7160 
  7 N        0.0610     3.2510     0.5360 N.pl3 1 <1>   0.3000 
  8 O       -3.5580     1.2250     1.9060 O.2   1 <1>  -0.5700 
  9 N       -4.2880     3.1140     0.9590 N.am  1 <1>  -0.6600 
 10 C       -5.6920     2.9060     1.4210 C.3   1 <1>   0.1400 
 11 C       -4.1450     4.2550     0.0140 C.3   1 <1>   0.1400 
 12 C       -6.6050     2.5770     0.2260 C.3   1 <1>   0.0000 
 13 C       -5.0290     4.0180    -1.2160 C.3   1 <1>  -0.1600 
 14 C       -8.0510     2.3480     0.7040 C.3   1 <1>   0.2000 
 15 C       -6.4890     3.7100    -0.8330 C.3   1 <1>  -0.1600 
 16 C       -6.2770     1.2070    -0.3960 C.3   1 <1>  -0.1600 
 17 O       -8.7310     3.5520     0.9040 O.3   1 <1>  -0.5600 
 18 C       -8.7130     1.5000    -0.3850 C.3   1 <1>  -0.1600 
 19 C       -7.5720     0.7300    -1.0640 C.3   1 <1>  -0.1600 
 20 C       -9.9270     3.4420     1.6090 C.3   1 <1>   0.0400 
 21 H        1.0150     1.5380    -0.3310 H     1 <1>   0.1500 
 22 H        0.8310     3.9330     0.5250 H     1 <1>   0.2700 
 23 H       -5.7410     2.1170     2.1510 H     1 <1>   0.0800 
 24 H       -6.0390     3.8080     1.8950 H     1 <1>   0.0800 
 25 H       -4.4510     5.1580     0.5140 H     1 <1>   0.0800 
 26 H       -3.1270     4.3820    -0.3030 H     1 <1>   0.0800 
 27 H       -5.0040     4.8940    -1.8390 H     1 <1>   0.0800 
 28 H       -4.6160     3.2090    -1.7900 H     1 <1>   0.0800 
 29 H       -8.0330     1.7990     1.6300 H     1 <1>   0.0800 
 30 H       -7.0500     3.4620    -1.7160 H     1 <1>   0.0800 
 31 H       -6.9160     4.6110    -0.4280 H     1 <1>   0.0800 
 32 H       -5.4560     1.2370    -1.0880 H     1 <1>   0.0800 
 33 H       -6.0180     0.5140     0.3880 H     1 <1>   0.0800 
 34 H       -9.4340     0.8260     0.0410 H     1 <1>   0.0800 
 35 H       -9.1930     2.1390    -1.1060 H     1 <1>   0.0800 
 36 H       -7.6900    -0.3340    -0.9480 H     1 <1>   0.0800 
 37 H       -7.5520     0.9640    -2.1150 H     1 <1>   0.0800 
 38 H      -10.3390     4.4290     1.7200 H     1 <1>   0.0800 
 39 H       -9.7300     3.0210     2.5800 H     1 <1>   0.0800 
 40 H      -10.6140     2.8250     1.0590 H     1 <1>   0.0800 
@<TRIPOS>BOND
  1   1   2  1   
  2   2   3  1   
  3   2   4  2   
  4   3   5  2   
  5   3   6  1   
  6   4   7  1   
  7   4  21  1   
  8   5   7  1   
  9   6   8  2   
 10   6   9  am  
 11   7  22  1   
 12   9  10  1   
 13   9  11  1   
 14  10  12  1   
 15  10  23  1   
 16  10  24  1   
 17  11  13  1   
 18  11  25  1   
 19  11  26  1   
 20  12  14  1   
 21  12  15  1   
 22  12  16  1   
 23  13  15  1   
 24  13  27  1   
 25  13  28  1   
 26  14  17  1   
 27  14  18  1   
 28  14  29  1   
 29  15  30  1   
 30  15  31  1   
 31  16  19  1   
 32  16  32  1   
 33  16  33  1   
 34  17  20  1   
 35  18  19  1   
 36  18  34  1   
 37  18  35  1   
 38  19  36  1   
 39  19  37  1   
 40  20  38  1   
 41  20  39  1   
 42  20  40  1   
@<TRIPOS>SUBSTRUCTURE
  1 ****   9 GROUP 4 **** **** 0

# MOE 2024.06 (io_trps.svl 2023.06)
