@<TRIPOS>MOLECULE
NONAME
39 41 1 0 0 
SMALL
USER_CHARGES


@<TRIPOS>ATOM
  1 O       -0.4850     0.1750    -0.3530 O.2   1 <1>  -0.5700 
  2 C       -1.5540     0.7360    -0.2990 C.2   1 <1>   0.5770 
  3 N       -2.7170     0.0190    -0.2160 N.am  1 <1>  -0.6600 
  4 C       -1.6040     2.2630    -0.3410 C.3   1 <1>   0.0530 
  5 C       -4.0970     0.5620    -0.2570 C.3   1 <1>   0.1400 
  6 C       -2.7330    -1.4620    -0.1770 C.3   1 <1>   0.1400 
  7 C       -0.2520     3.0120    -0.1640 C.3   1 <1>   0.0000 
  8 C       -2.0480     2.9320     0.9880 C.3   1 <1>   0.0000 
  9 C       -4.9940    -0.6650    -0.4240 C.3   1 <1>   0.2000 
 10 C       -4.1850    -1.8430     0.1160 C.3   1 <1>  -0.0800 
 11 C       -1.0330     4.0590     0.6690 C.3   1 <1>   0.0000 
 12 O       -6.1760    -0.5310     0.2880 O.3   1 <1>  -0.6800 
 13 C       -4.6060    -3.1880    -0.4960 C.3   1 <1>  -0.0160 
 14 C       -3.7770    -4.3300     0.0700 C.ar  1 <1>  -0.1440 
 15 C       -2.6660    -4.8270    -0.5820 C.ar  1 <1>  -0.1500 
 16 C       -4.0950    -4.9280     1.2730 C.ar  1 <1>  -0.1500 
 17 C       -1.9470    -5.8650    -0.0140 C.ar  1 <1>   0.1600 
 18 C       -3.3090    -5.9620     1.7530 C.ar  1 <1>   0.1600 
 19 N       -2.2410    -6.4450     1.1390 N.ar  1 <1>  -0.6200 
 20 H       -2.1560     2.6410    -1.1850 H     1 <1>   0.0000 
 21 H       -4.3070     1.0660     0.6700 H     1 <1>   0.0800 
 22 H       -4.2160     1.2360    -1.0870 H     1 <1>   0.0800 
 23 H       -2.4190    -1.8350    -1.1370 H     1 <1>   0.0800 
 24 H       -2.0640    -1.8320     0.5830 H     1 <1>   0.0800 
 25 H        0.4680     2.4790     0.4340 H     1 <1>   0.0000 
 26 H        0.1540     3.4010    -1.0800 H     1 <1>   0.0000 
 27 H       -3.0730     3.2590     0.9920 H     1 <1>   0.0000 
 28 H       -1.7740     2.3620     1.8600 H     1 <1>   0.0000 
 29 H       -5.2370    -0.7980    -1.4640 H     1 <1>   0.0800 
 30 H       -4.2890    -1.8890     1.1860 H     1 <1>   0.0800 
 31 H       -1.4570     4.8420     0.0630 H     1 <1>   0.0000 
 32 H       -0.4980     4.4210     1.5290 H     1 <1>   0.0000 
 33 H       -5.9940    -0.4580     1.2440 H     1 <1>   0.4000 
 34 H       -4.4970    -3.1570    -1.5660 H     1 <1>   0.0800 
 35 H       -5.6460    -3.3650    -0.2830 H     1 <1>   0.0800 
 36 H       -2.3510    -4.4200    -1.5250 H     1 <1>   0.1500 
 37 H       -4.9470    -4.6000     1.8400 H     1 <1>   0.1500 
 38 H       -1.0820    -6.2390    -0.5350 H     1 <1>   0.1500 
 39 H       -3.5730    -6.4170     2.6930 H     1 <1>   0.1500 
@<TRIPOS>BOND
  1   1   2  2   
  2   2   3  am  
  3   2   4  1   
  4   3   5  1   
  5   3   6  1   
  6   4   7  1   
  7   4   8  1   
  8   4  20  1   
  9   5   9  1   
 10   5  21  1   
 11   5  22  1   
 12   6  10  1   
 13   6  23  1   
 14   6  24  1   
 15   7  11  1   
 16   7  25  1   
 17   7  26  1   
 18   8  11  1   
 19   8  27  1   
 20   8  28  1   
 21   9  10  1   
 22   9  12  1   
 23   9  29  1   
 24  10  13  1   
 25  10  30  1   
 26  11  31  1   
 27  11  32  1   
 28  12  33  1   
 29  13  14  1   
 30  13  34  1   
 31  13  35  1   
 32  14  15  ar  
 33  14  16  ar  
 34  15  17  ar  
 35  15  36  1   
 36  16  18  ar  
 37  16  37  1   
 38  17  19  ar  
 39  17  38  1   
 40  18  19  ar  
 41  18  39  1   
@<TRIPOS>SUBSTRUCTURE
  1 ****   6 GROUP 4 **** **** 0

# MOE 2024.06 (io_trps.svl 2023.06)
