@<TRIPOS>MOLECULE
NONAME
38 39 1 0 0 
SMALL
USER_CHARGES


@<TRIPOS>ATOM
  1 S        1.6780     0.3240    -0.3950 S.3   1 <1>  -0.3320 
  2 C        1.3410    -1.4370    -0.5020 C.ar  1 <1>   0.4120 
  3 C        0.7320     0.9780     1.0670 C.3   1 <1>   0.1310 
  4 N        1.9230    -2.0190    -1.5350 N.ar  1 <1>  -0.6200 
  5 C        0.5400    -2.0760     0.4350 C.ar  1 <1>  -0.1500 
  6 C        0.9300     2.4770     1.2380 C.2   1 <1>   0.5690 
  7 C        1.6940    -3.3170    -1.6440 C.ar  1 <1>   0.1600 
  8 C        0.3140    -3.4290     0.3010 C.ar  1 <1>  -0.1500 
  9 O        0.4950     2.9820     2.2450 O.2   1 <1>  -0.5700 
 10 N        1.5860     3.1700     0.2570 N.am  1 <1>  -0.4940 
 11 C        0.9130    -4.0570    -0.7720 C.ar  1 <1>  -0.1500 
 12 C        2.0050     4.5180     0.1330 C.2   1 <1>  -0.0880 
 13 N        1.4770     5.6370     0.7080 N.pl3 1 <1>   0.3140 
 14 C        3.0460     4.9400    -0.6260 C.2   1 <1>  -0.1810 
 15 N        2.1570     6.7450     0.3400 N.2   1 <1>  -0.7070 
 16 C        0.2840     5.7760     1.5520 C.3   1 <1>   0.0160 
 17 C        3.0900     6.3190    -0.4480 C.2   1 <1>   0.1080 
 18 C        3.9760     4.1000    -1.4870 C.3   1 <1>   0.0210 
 19 C        4.0880     7.2630    -1.0800 C.3   1 <1>  -0.0590 
 20 C        5.1490     3.5820    -0.6540 C.3   1 <1>  -0.2400 
 21 H        1.0890     0.4630     1.9390 H     1 <1>   0.0800 
 22 H       -0.3070     0.7630     0.9030 H     1 <1>   0.0800 
 23 H        0.0960    -1.5490     1.2540 H     1 <1>   0.1500 
 24 H        2.1560    -3.8210    -2.4770 H     1 <1>   0.1500 
 25 H       -0.3000    -3.9730     1.0000 H     1 <1>   0.1500 
 26 H        1.9510     2.5640    -0.4820 H     1 <1>   0.3700 
 27 H        0.7770    -5.1110    -0.9330 H     1 <1>   0.1500 
 28 H       -0.4890     5.1290     1.1840 H     1 <1>   0.0800 
 29 H       -0.0530     6.7950     1.5220 H     1 <1>   0.0800 
 30 H        0.5370     5.5110     2.5610 H     1 <1>   0.0800 
 31 H        4.3430     4.6900    -2.3080 H     1 <1>   0.0800 
 32 H        3.4340     3.2690    -1.9000 H     1 <1>   0.0800 
 33 H        5.0790     6.8590    -1.0020 H     1 <1>   0.0800 
 34 H        4.0590     8.2110    -0.5760 H     1 <1>   0.0800 
 35 H        3.8390     7.4100    -2.1140 H     1 <1>   0.0800 
 36 H        5.7080     4.4050    -0.2460 H     1 <1>   0.0800 
 37 H        5.8030     2.9840    -1.2630 H     1 <1>   0.0800 
 38 H        4.7850     2.9790     0.1600 H     1 <1>   0.0800 
@<TRIPOS>BOND
  1   1   2  1   
  2   1   3  1   
  3   2   4  ar  
  4   2   5  ar  
  5   3   6  1   
  6   3  21  1   
  7   3  22  1   
  8   4   7  ar  
  9   5   8  ar  
 10   5  23  1   
 11   6   9  2   
 12   6  10  am  
 13   7  11  ar  
 14   7  24  1   
 15   8  11  ar  
 16   8  25  1   
 17  10  12  1   
 18  10  26  1   
 19  11  27  1   
 20  12  13  1   
 21  12  14  2   
 22  13  15  1   
 23  13  16  1   
 24  14  17  1   
 25  14  18  1   
 26  15  17  2   
 27  16  28  1   
 28  16  29  1   
 29  16  30  1   
 30  17  19  1   
 31  18  20  1   
 32  18  31  1   
 33  18  32  1   
 34  19  33  1   
 35  19  34  1   
 36  19  35  1   
 37  20  36  1   
 38  20  37  1   
 39  20  38  1   
@<TRIPOS>SUBSTRUCTURE
  1 ****  10 GROUP 4 **** **** 0

# MOE 2024.06 (io_trps.svl 2023.06)
