@<TRIPOS>MOLECULE
NONAME
45 47 1 0 0 
SMALL
USER_CHARGES


@<TRIPOS>ATOM
  1 F       -2.0750    -0.0670     1.7960 F     1 <1>  -0.1900 
  2 C       -2.4270     1.0060     1.1410 C.ar  1 <1>   0.1900 
  3 C       -1.8220     2.2030     1.4530 C.ar  1 <1>  -0.1500 
  4 C       -3.3900     0.9010     0.1600 C.ar  1 <1>  -0.1500 
  5 C       -2.1730     3.3660     0.7670 C.ar  1 <1>   0.0860 
  6 C       -3.7500     2.0450    -0.5280 C.ar  1 <1>  -0.1500 
  7 C       -3.1540     3.2650    -0.2360 C.ar  1 <1>  -0.1440 
  8 C       -1.5000     4.6080     1.1150 C.2   1 <1>   0.5440 
  9 C       -3.5970     4.4860    -1.0350 C.3   1 <1>  -0.0960 
 10 O       -2.1130     5.6480     1.2770 O.2   1 <1>  -0.5700 
 11 N       -0.1320     4.6740     1.2230 N.am  1 <1>  -0.6600 
 12 C        0.5140     5.6870     2.1400 C.3   1 <1>   0.1400 
 13 C        0.7450     4.0650     0.1770 C.3   1 <1>   0.1400 
 14 C        0.9460     6.9830     1.4060 C.3   1 <1>   0.4230 
 15 C        1.3930     5.0920    -0.7880 C.3   1 <1>  -0.0800 
 16 N        0.1060     7.1130     0.1610 N.4   1 <1>  -0.9590 
 17 C        2.4840     7.0230     1.2000 C.3   1 <1>   0.1200 
 18 C        2.8620     5.3840    -0.4480 C.3   1 <1>   0.1200 
 19 C        0.6310     6.4080    -1.0500 C.3   1 <1>   0.3430 
 20 C       -0.1760     8.5740    -0.1590 C.3   1 <1>   0.2370 
 21 O        3.0060     5.7640     0.8770 O.3   1 <1>  -0.5600 
 22 C        1.0690     9.4190    -0.4330 C.2   1 <1>   0.9060 
 23 O        1.5830     9.3470    -1.5530 O.co2 1 <1>  -0.9000 
 24 O        1.5920     9.9930     0.5250 O.co2 1 <1>  -0.9000 
 25 H       -1.0790     2.2340     2.2300 H     1 <1>   0.1500 
 26 H       -3.8440    -0.0500    -0.0550 H     1 <1>   0.1500 
 27 H       -4.5050     1.9750    -1.2930 H     1 <1>   0.1500 
 28 H       -4.2190     4.2040    -1.8650 H     1 <1>   0.0800 
 29 H       -2.7440     5.0140    -1.4210 H     1 <1>   0.0800 
 30 H       -4.1590     5.1500    -0.4030 H     1 <1>   0.0800 
 31 H       -0.1910     5.9600     2.9060 H     1 <1>   0.0800 
 32 H        1.3530     5.2370     2.6430 H     1 <1>   0.0800 
 33 H        1.5130     3.4860     0.6620 H     1 <1>   0.0800 
 34 H        0.1600     3.3770    -0.4100 H     1 <1>   0.0800 
 35 H        0.7110     7.8160     2.0490 H     1 <1>   0.0800 
 36 H        1.4420     4.6060    -1.7450 H     1 <1>   0.0800 
 37 H       -0.7830     6.6460     0.4290 H     1 <1>   0.4500 
 38 H        2.9400     7.3100     2.1300 H     1 <1>   0.0800 
 39 H        2.7880     7.7430     0.4600 H     1 <1>   0.0800 
 40 H        3.2740     6.1560    -1.0790 H     1 <1>   0.0800 
 41 H        3.4520     4.4930    -0.5800 H     1 <1>   0.0800 
 42 H       -0.1990     6.2030    -1.7050 H     1 <1>   0.0800 
 43 H        1.2940     7.0730    -1.5820 H     1 <1>   0.0800 
 44 H       -0.8060     8.6420    -1.0270 H     1 <1>   0.0800 
 45 H       -0.6900     9.0310     0.6660 H     1 <1>   0.0800 
@<TRIPOS>BOND
  1   1   2  1   
  2   2   3  ar  
  3   2   4  ar  
  4   3   5  ar  
  5   3  25  1   
  6   4   6  ar  
  7   4  26  1   
  8   5   7  ar  
  9   5   8  1   
 10   6   7  ar  
 11   6  27  1   
 12   7   9  1   
 13   8  10  2   
 14   8  11  am  
 15   9  28  1   
 16   9  29  1   
 17   9  30  1   
 18  11  12  1   
 19  11  13  1   
 20  12  14  1   
 21  12  31  1   
 22  12  32  1   
 23  13  15  1   
 24  13  33  1   
 25  13  34  1   
 26  14  16  1   
 27  14  17  1   
 28  14  35  1   
 29  15  18  1   
 30  15  19  1   
 31  15  36  1   
 32  16  19  1   
 33  16  20  1   
 34  16  37  1   
 35  17  21  1   
 36  17  38  1   
 37  17  39  1   
 38  18  21  1   
 39  18  40  1   
 40  18  41  1   
 41  19  42  1   
 42  19  43  1   
 43  20  22  1   
 44  20  44  1   
 45  20  45  1   
 46  22  23  ar  
 47  22  24  ar  
@<TRIPOS>SUBSTRUCTURE
  1 ****  11 GROUP 4 **** **** 0

# MOE 2024.06 (io_trps.svl 2023.06)
