@<TRIPOS>MOLECULE
NONAME
54 57 1 0 0 
SMALL
USER_CHARGES


@<TRIPOS>ATOM
  1 N        0.8440     0.2310     1.0620 N.ar  1 <1>  -0.6200 
  2 C       -0.0710     0.9530     1.7170 C.ar  1 <1>   0.7200 
  3 C        1.2440     0.7500    -0.0690 C.ar  1 <1>   0.1660 
  4 N       -0.5810     2.1230     1.3210 N.ar  1 <1>  -0.6200 
  5 N       -0.5180     0.4460     2.9200 N.pl3 1 <1>  -0.8380 
  6 C        0.7890     1.9330    -0.5620 C.ar  1 <1>  -0.1430 
  7 C        2.2820     0.1260    -0.9670 C.3   1 <1>   0.1430 
  8 C       -0.1500     2.6050     0.1790 C.ar  1 <1>   0.1600 
  9 C       -0.4600    -1.0040     3.2480 C.3   1 <1>   0.1290 
 10 C       -1.2820     1.2860     3.8840 C.3   1 <1>   0.1290 
 11 C        1.4480     2.2800    -1.8730 C.3   1 <1>  -0.0160 
 12 C        3.4640    -0.3150    -0.0860 C.3   1 <1>   0.3430 
 13 C        1.6900    -1.0870    -1.7140 C.3   1 <1>  -0.1600 
 14 C        2.6310     1.2920    -1.9320 C.3   1 <1>  -0.1600 
 15 N        4.5110    -1.0670    -0.8650 N.4   1 <1>  -0.9590 
 16 C        2.7800    -1.9020    -2.4330 C.3   1 <1>  -0.1600 
 17 C        3.9220    -2.2890    -1.4890 C.3   1 <1>   0.3430 
 18 C        5.6660    -1.4690     0.0020 C.3   1 <1>   0.3430 
 19 C        6.4890    -0.2810     0.5160 C.3   1 <1>   0.0200 
 20 C        7.6830    -0.8060     1.2900 C.2   1 <1>   0.0060 
 21 N        7.9100    -2.0710     1.4410 N.2   1 <1>  -0.5650 
 22 N        8.6080    -0.0120     1.8860 N.pl3 1 <1>   0.0480 
 23 C        9.0400    -2.1120     2.1710 C.2   1 <1>   0.0770 
 24 C        9.4780    -0.8670     2.4500 C.2   1 <1>  -0.3020 
 25 C        8.6890     1.4600     1.9340 C.3   1 <1>   0.0160 
 26 H       -0.5490     3.5450    -0.1620 H     1 <1>   0.1500 
 27 H       -0.2980    -1.5930     2.3620 H     1 <1>   0.0800 
 28 H       -1.3890    -1.3170     3.6930 H     1 <1>   0.0800 
 29 H        0.3420    -1.1850     3.9410 H     1 <1>   0.0800 
 30 H       -0.9580     2.3110     3.8310 H     1 <1>   0.0800 
 31 H       -1.1250     0.9330     4.8880 H     1 <1>   0.0800 
 32 H       -2.3310     1.2390     3.6500 H     1 <1>   0.0800 
 33 H        1.7800     3.3040    -1.8950 H     1 <1>   0.0800 
 34 H        0.7580     2.1020    -2.6800 H     1 <1>   0.0800 
 35 H        3.0810    -0.9460     0.7000 H     1 <1>   0.0800 
 36 H        3.8920     0.5580     0.3780 H     1 <1>   0.0800 
 37 H        0.9420    -0.7610    -2.4180 H     1 <1>   0.0800 
 38 H        1.1950    -1.7250    -1.0000 H     1 <1>   0.0800 
 39 H        2.8110     0.9670    -2.9410 H     1 <1>   0.0800 
 40 H        3.5070     1.8060    -1.5770 H     1 <1>   0.0800 
 41 H        4.8580    -0.4680    -1.6240 H     1 <1>   0.4500 
 42 H        3.1750    -1.3520    -3.2680 H     1 <1>   0.0800 
 43 H        2.3390    -2.8020    -2.8280 H     1 <1>   0.0800 
 44 H        3.5420    -2.9420    -0.7180 H     1 <1>   0.0800 
 45 H        4.6790    -2.8250    -2.0400 H     1 <1>   0.0800 
 46 H        6.3280    -2.1110    -0.5570 H     1 <1>   0.0800 
 47 H        5.3120    -2.0370     0.8480 H     1 <1>   0.0800 
 48 H        5.8990     0.3300     1.1730 H     1 <1>   0.0800 
 49 H        6.8440     0.3060    -0.3110 H     1 <1>   0.0800 
 50 H        9.4880    -3.0490     2.4630 H     1 <1>   0.1500 
 51 H       10.3440    -0.5570     3.0070 H     1 <1>   0.1500 
 52 H        7.7720     1.8580     2.3280 H     1 <1>   0.0800 
 53 H        8.8600     1.8420     0.9450 H     1 <1>   0.0800 
 54 H        9.5030     1.7540     2.5720 H     1 <1>   0.0800 
@<TRIPOS>BOND
  1   1   2  ar  
  2   1   3  ar  
  3   2   4  ar  
  4   2   5  1   
  5   3   6  ar  
  6   3   7  1   
  7   4   8  ar  
  8   5   9  1   
  9   5  10  1   
 10   6   8  ar  
 11   6  11  1   
 12   7  12  1   
 13   7  13  1   
 14   7  14  1   
 15   8  26  1   
 16   9  27  1   
 17   9  28  1   
 18   9  29  1   
 19  10  30  1   
 20  10  31  1   
 21  10  32  1   
 22  11  14  1   
 23  11  33  1   
 24  11  34  1   
 25  12  15  1   
 26  12  35  1   
 27  12  36  1   
 28  13  16  1   
 29  13  37  1   
 30  13  38  1   
 31  14  39  1   
 32  14  40  1   
 33  15  17  1   
 34  15  18  1   
 35  15  41  1   
 36  16  17  1   
 37  16  42  1   
 38  16  43  1   
 39  17  44  1   
 40  17  45  1   
 41  18  19  1   
 42  18  46  1   
 43  18  47  1   
 44  19  20  1   
 45  19  48  1   
 46  19  49  1   
 47  20  21  2   
 48  20  22  1   
 49  21  23  1   
 50  22  24  1   
 51  22  25  1   
 52  23  24  2   
 53  23  50  1   
 54  24  51  1   
 55  25  52  1   
 56  25  53  1   
 57  25  54  1   
@<TRIPOS>SUBSTRUCTURE
  1 ****  12 GROUP 4 **** **** 0

# MOE 2024.06 (io_trps.svl 2023.06)
