@<TRIPOS>MOLECULE
NONAME
44 46 1 0 0 
SMALL
USER_CHARGES


@<TRIPOS>ATOM
  1 F       -2.5560     2.6250     0.7370 F     1 <1>  -0.3400 
  2 C       -1.7610     3.0060     1.7280 C.3   1 <1>   0.8800 
  3 F       -2.5590     3.4780     2.6740 F     1 <1>  -0.3400 
  4 O       -0.9550     4.0680     1.2740 O.3   1 <1>  -0.3630 
  5 C        0.1210     3.8430     0.4840 C.ar  1 <1>   0.0830 
  6 C        0.9010     4.9460     0.1910 C.ar  1 <1>  -0.1500 
  7 C        0.4720     2.5970    -0.0280 C.ar  1 <1>  -0.1500 
  8 C        2.0520     4.8510    -0.5910 C.ar  1 <1>   0.0860 
  9 C        1.6020     2.4790    -0.8150 C.ar  1 <1>  -0.1500 
 10 C        2.8810     6.0130    -0.8720 C.2   1 <1>   0.5440 
 11 C        2.3790     3.5890    -1.0900 C.ar  1 <1>  -0.1500 
 12 O        3.8260     5.9620    -1.6370 O.2   1 <1>  -0.5700 
 13 N        2.6930     7.2100    -0.2300 N.am  1 <1>  -0.6600 
 14 C        3.2420     7.3320     1.1660 C.3   1 <1>   0.2200 
 15 C        2.5420     8.4430    -1.0630 C.3   1 <1>   0.1400 
 16 C        2.5900     8.4660     1.9730 C.3   1 <1>   0.1200 
 17 C        4.7860     7.4870     1.1450 C.3   1 <1>   0.3430 
 18 C        3.4460     9.6210    -0.6550 C.3   1 <1>  -0.0800 
 19 O        3.2600     9.6710     1.7560 O.3   1 <1>  -0.5600 
 20 N        5.3100     7.9120    -0.2000 N.4   1 <1>  -0.9590 
 21 C        2.9230    10.3500     0.5930 C.3   1 <1>   0.1200 
 22 C        4.9590     9.3180    -0.5720 C.3   1 <1>   0.3430 
 23 C        6.7690     7.6500    -0.3330 C.3   1 <1>   0.2630 
 24 H       -1.1980     2.1710     2.1040 H     1 <1>   0.0800 
 25 H        0.5930     5.8980     0.5830 H     1 <1>   0.1500 
 26 H       -0.1140     1.7160     0.1560 H     1 <1>   0.1500 
 27 H        1.8780     1.5190    -1.2190 H     1 <1>   0.1500 
 28 H        3.2550     3.4770    -1.7070 H     1 <1>   0.1500 
 29 H        3.0120     6.4200     1.6900 H     1 <1>   0.0800 
 30 H        2.7440     8.1960    -2.0930 H     1 <1>   0.0800 
 31 H        1.5120     8.7560    -1.0190 H     1 <1>   0.0800 
 32 H        2.6850     8.2520     3.0230 H     1 <1>   0.0800 
 33 H        1.5420     8.5730     1.7450 H     1 <1>   0.0800 
 34 H        5.2130     6.5310     1.3980 H     1 <1>   0.0800 
 35 H        5.0910     8.1890     1.9030 H     1 <1>   0.0800 
 36 H        3.3400    10.3450    -1.4430 H     1 <1>   0.0800 
 37 H        4.8050     7.2940    -0.8770 H     1 <1>   0.4500 
 38 H        1.8540    10.4830     0.5610 H     1 <1>   0.0800 
 39 H        3.3760    11.3250     0.6620 H     1 <1>   0.0800 
 40 H        5.4110    10.0000     0.1310 H     1 <1>   0.0800 
 41 H        5.3860     9.5220    -1.5400 H     1 <1>   0.0800 
 42 H        7.3250     8.2530     0.3660 H     1 <1>   0.0800 
 43 H        7.0990     7.8820    -1.3330 H     1 <1>   0.0800 
 44 H        6.9780     6.6100    -0.1400 H     1 <1>   0.0800 
@<TRIPOS>BOND
  1   1   2  1   
  2   2   3  1   
  3   2   4  1   
  4   2  24  1   
  5   4   5  1   
  6   5   6  ar  
  7   5   7  ar  
  8   6   8  ar  
  9   6  25  1   
 10   7   9  ar  
 11   7  26  1   
 12   8  10  1   
 13   8  11  ar  
 14   9  11  ar  
 15   9  27  1   
 16  10  12  2   
 17  10  13  am  
 18  11  28  1   
 19  13  14  1   
 20  13  15  1   
 21  14  16  1   
 22  14  17  1   
 23  14  29  1   
 24  15  18  1   
 25  15  30  1   
 26  15  31  1   
 27  16  19  1   
 28  16  32  1   
 29  16  33  1   
 30  17  20  1   
 31  17  34  1   
 32  17  35  1   
 33  18  21  1   
 34  18  22  1   
 35  18  36  1   
 36  19  21  1   
 37  20  22  1   
 38  20  23  1   
 39  20  37  1   
 40  21  38  1   
 41  21  39  1   
 42  22  40  1   
 43  22  41  1   
 44  23  42  1   
 45  23  43  1   
 46  23  44  1   
@<TRIPOS>SUBSTRUCTURE
  1 ****  13 GROUP 4 **** **** 0

# MOE 2024.06 (io_trps.svl 2023.06)
