@<TRIPOS>MOLECULE
NONAME
27 27 1 0 0 
SMALL
USER_CHARGES


@<TRIPOS>ATOM
  1 N        1.2900    -0.3320    -1.9060 N.pl3 1 <1>  -0.7540 
  2 C        1.6730    -0.5170    -0.6650 C.cat 1 <1>   0.6040 
  3 N        2.2360     0.3630     0.1470 N.pl3 1 <1>  -0.5140 
  4 C        1.5260    -1.8190     0.0870 C.3   1 <1>   0.0060 
  5 N        2.5040    -0.1610     1.3940 N.2   1 <1>  -0.2800 
  6 C        2.5980     1.7820    -0.1090 C.3   1 <1>   0.3290 
  7 C        2.1250    -1.3640     1.3990 C.2   1 <1>   0.3290 
  8 C        1.4170     2.6890     0.2540 C.3   1 <1>  -0.1600 
  9 C        1.7280     4.1860     0.0830 C.3   1 <1>  -0.0800 
 10 C        0.5470     5.0190     0.5930 C.3   1 <1>  -0.2400 
 11 C        2.0170     4.5580    -1.3780 C.3   1 <1>  -0.2400 
 12 H        0.8560    -1.0530    -2.4890 H     1 <1>   0.4500 
 13 H        1.3890     0.5590    -2.3950 H     1 <1>   0.4500 
 14 H        2.1090    -2.6040    -0.3570 H     1 <1>   0.0800 
 15 H        0.4960    -2.0980     0.2040 H     1 <1>   0.0800 
 16 H        2.8640     1.9020    -1.1440 H     1 <1>   0.0800 
 17 H        3.4550     2.0410     0.4900 H     1 <1>   0.0800 
 18 H        2.1930    -2.0530     2.2230 H     1 <1>   0.0600 
 19 H        1.1630     2.5090     1.2850 H     1 <1>   0.0800 
 20 H        0.5640     2.4320    -0.3490 H     1 <1>   0.0800 
 21 H        2.5910     4.4370     0.6800 H     1 <1>   0.0800 
 22 H       -0.3430     4.8130     0.0240 H     1 <1>   0.0800 
 23 H        0.7670     6.0690     0.5130 H     1 <1>   0.0800 
 24 H        0.3500     4.8000     1.6290 H     1 <1>   0.0800 
 25 H        1.1940     4.2830    -2.0140 H     1 <1>   0.0800 
 26 H        2.9120     4.0830    -1.7360 H     1 <1>   0.0800 
 27 H        2.1630     5.6210    -1.4630 H     1 <1>   0.0800 
@<TRIPOS>BOND
  1   1   2  ar  
  2   1  12  1   
  3   1  13  1   
  4   2   3  ar  
  5   2   4  1   
  6   3   5  1   
  7   3   6  1   
  8   4   7  1   
  9   4  14  1   
 10   4  15  1   
 11   5   7  2   
 12   6   8  1   
 13   6  16  1   
 14   6  17  1   
 15   7  18  1   
 16   8   9  1   
 17   8  19  1   
 18   8  20  1   
 19   9  10  1   
 20   9  11  1   
 21   9  21  1   
 22  10  22  1   
 23  10  23  1   
 24  10  24  1   
 25  11  25  1   
 26  11  26  1   
 27  11  27  1   
@<TRIPOS>SUBSTRUCTURE
  1 ****   6 GROUP 4 **** **** 0

# MOE 2024.06 (io_trps.svl 2023.06)
