@<TRIPOS>MOLECULE
NONAME
49 50 1 0 0 
SMALL
USER_CHARGES


@<TRIPOS>ATOM
  1 S        0.3160     0.2570    -0.5400 S.o2  1 <1>   1.3330 
  2 O        0.3410    -1.1810    -0.3940 O.2   1 <1>  -0.6500 
  3 O        0.0520     0.8390    -1.8360 O.2   1 <1>  -0.6500 
  4 N       -0.8270     0.8700     0.5540 N.am  1 <1>  -0.8490 
  5 C        1.8480     0.9780     0.0460 C.3   1 <1>  -0.0550 
  6 C       -2.1700     0.9320    -0.0310 C.3   1 <1>   0.1160 
  7 C       -0.8740     0.1250     1.8180 C.3   1 <1>   0.1160 
  8 C        3.0810     0.5710    -0.7970 C.3   1 <1>  -0.0800 
  9 C        4.3380     1.3870    -0.5070 C.3   1 <1>   0.2200 
 10 C        3.5630    -0.8130    -0.3680 C.3   1 <1>   0.1200 
 11 N        4.0680     2.8290    -0.2670 N.am  1 <1>  -0.7300 
 12 C        4.9460     0.6620     0.7000 C.3   1 <1>   0.1200 
 13 O        4.3080    -0.5810     0.7820 O.3   1 <1>  -0.5600 
 14 C        5.0150     3.7450     0.0990 C.2   1 <1>   0.5440 
 15 O        6.1520     3.3550     0.2820 O.2   1 <1>  -0.5700 
 16 C        4.6760     5.1500     0.2400 C.ar  1 <1>   0.0860 
 17 C        5.6510     6.1380     0.0970 C.ar  1 <1>  -0.1500 
 18 C        3.3780     5.5720     0.5200 C.ar  1 <1>  -0.1500 
 19 C        5.3650     7.4950     0.2140 C.ar  1 <1>   0.0820 
 20 C        3.0710     6.9130     0.6340 C.ar  1 <1>  -0.1500 
 21 O        6.3490     8.4300     0.0720 O.3   1 <1>  -0.3620 
 22 C        4.0410     7.8900     0.4820 C.ar  1 <1>   0.0820 
 23 C        7.7140     8.0840    -0.0350 C.3   1 <1>   0.0400 
 24 O        3.5720     9.1600     0.6200 O.3   1 <1>  -0.3630 
 25 C        4.3650    10.3160     0.4760 C.3   1 <1>   0.0400 
 26 H        1.7200     2.0410     0.0140 H     1 <1>   0.0800 
 27 H        2.0110     0.7070     1.0700 H     1 <1>   0.0800 
 28 H       -2.8700     1.3370     0.6790 H     1 <1>   0.0800 
 29 H       -2.4950    -0.0520    -0.3280 H     1 <1>   0.0800 
 30 H       -2.1660     1.5690    -0.8990 H     1 <1>   0.0800 
 31 H       -1.5520     0.6030     2.5040 H     1 <1>   0.0800 
 32 H        0.1020     0.0960     2.2710 H     1 <1>   0.0800 
 33 H       -1.2040    -0.8870     1.6470 H     1 <1>   0.0800 
 34 H        2.8470     0.5890    -1.8470 H     1 <1>   0.0800 
 35 H        5.0260     1.2980    -1.3310 H     1 <1>   0.0800 
 36 H        4.2190    -1.2430    -1.1070 H     1 <1>   0.0800 
 37 H        2.7730    -1.5080    -0.1420 H     1 <1>   0.0800 
 38 H        3.2080     3.1820    -0.6880 H     1 <1>   0.3700 
 39 H        4.7620     1.1920     1.6180 H     1 <1>   0.0800 
 40 H        6.0020     0.5030     0.5690 H     1 <1>   0.0800 
 41 H        6.6490     5.8020    -0.1130 H     1 <1>   0.1500 
 42 H        2.5950     4.8480     0.6610 H     1 <1>   0.1500 
 43 H        2.0620     7.2190     0.8490 H     1 <1>   0.1500 
 44 H        8.2880     8.9930    -0.0570 H     1 <1>   0.0800 
 45 H        7.8670     7.5360    -0.9470 H     1 <1>   0.0800 
 46 H        7.9950     7.4960     0.8220 H     1 <1>   0.0800 
 47 H        3.7350    11.1750     0.6140 H     1 <1>   0.0800 
 48 H        4.7890    10.3270    -0.5120 H     1 <1>   0.0800 
 49 H        5.1360    10.3040     1.2260 H     1 <1>   0.0800 
@<TRIPOS>BOND
  1   1   2  2   
  2   1   3  2   
  3   1   4  am  
  4   1   5  1   
  5   4   6  1   
  6   4   7  1   
  7   5   8  1   
  8   5  26  1   
  9   5  27  1   
 10   6  28  1   
 11   6  29  1   
 12   6  30  1   
 13   7  31  1   
 14   7  32  1   
 15   7  33  1   
 16   8   9  1   
 17   8  10  1   
 18   8  34  1   
 19   9  11  1   
 20   9  12  1   
 21   9  35  1   
 22  10  13  1   
 23  10  36  1   
 24  10  37  1   
 25  11  14  am  
 26  11  38  1   
 27  12  13  1   
 28  12  39  1   
 29  12  40  1   
 30  14  15  2   
 31  14  16  1   
 32  16  17  ar  
 33  16  18  ar  
 34  17  19  ar  
 35  17  41  1   
 36  18  20  ar  
 37  18  42  1   
 38  19  21  1   
 39  19  22  ar  
 40  20  22  ar  
 41  20  43  1   
 42  21  23  1   
 43  22  24  1   
 44  23  44  1   
 45  23  45  1   
 46  23  46  1   
 47  24  25  1   
 48  25  47  1   
 49  25  48  1   
 50  25  49  1   
@<TRIPOS>SUBSTRUCTURE
  1 ****  11 GROUP 4 **** **** 0

# MOE 2024.06 (io_trps.svl 2023.06)
