@<TRIPOS>MOLECULE
NONAME
46 48 1 0 0 
SMALL
USER_CHARGES


@<TRIPOS>ATOM
  1 N       -0.6230     1.7120     1.6250 N.2   1 <1>  -0.6210 
  2 C       -1.8450     1.2970     1.7510 C.2   1 <1>   0.9190 
  3 C       -0.1320     1.8900     0.3990 C.2   1 <1>   0.2710 
  4 N       -2.6520     1.0500     0.6960 N.pl3 1 <1>  -0.6690 
  5 N       -2.3210     1.1070     2.9790 N.pl3 1 <1>  -0.8500 
  6 N        1.1630     2.2850     0.4100 N.pl3 1 <1>  -0.8690 
  7 C       -0.8860     1.6590    -0.7280 C.2   1 <1>  -0.1410 
  8 C       -2.1780     1.2220    -0.5360 C.cat 1 <1>   0.7910 
  9 C       -3.9470     0.6200     0.5410 C.2   1 <1>   0.5030 
 10 C        2.0740     2.6130    -0.7330 C.3   1 <1>   0.2090 
 11 N       -3.1760     0.8960    -1.3750 N.pl3 1 <1>  -0.3930 
 12 N       -4.2880     0.5180    -0.6880 N.2   1 <1>  -0.2600 
 13 C        3.1400     3.7120    -0.4160 C.3   1 <1>   0.4230 
 14 N        2.6070     4.9340     0.2890 N.4   1 <1>  -0.9590 
 15 C        3.8890     4.1610    -1.7000 C.3   1 <1>  -0.0800 
 16 C        2.4090     4.7840     1.7520 C.3   1 <1>   0.3430 
 17 C        1.3330     5.4850    -0.2300 C.3   1 <1>   0.3430 
 18 C        4.6380     2.9910    -2.3660 C.3   1 <1>  -0.2400 
 19 C        4.9120     5.2860    -1.4350 C.3   1 <1>  -0.2400 
 20 C        1.5620     5.9890     2.1400 C.3   1 <1>  -0.1600 
 21 C        0.8840     6.4580     0.8500 C.3   1 <1>  -0.1600 
 22 H       -1.6930     1.2720     3.7680 H     1 <1>   0.4000 
 23 H       -3.2310     0.7250     3.2200 H     1 <1>   0.4000 
 24 H        1.6410     2.0690     1.2940 H     1 <1>   0.4000 
 25 H       -0.4960     1.7930    -1.7150 H     1 <1>   0.1500 
 26 H       -4.5920     0.3970     1.3780 H     1 <1>   0.1500 
 27 H        1.4900     2.9300    -1.5780 H     1 <1>   0.0800 
 28 H        2.5850     1.7090    -1.0170 H     1 <1>   0.0800 
 29 H       -3.1400     0.9090    -2.4010 H     1 <1>   0.4500 
 30 H        3.8780     3.2600     0.2260 H     1 <1>   0.0800 
 31 H        3.3150     5.6690     0.1760 H     1 <1>   0.4500 
 32 H        3.1690     4.5280    -2.4130 H     1 <1>   0.0800 
 33 H        3.3460     4.7660     2.2850 H     1 <1>   0.0800 
 34 H        1.8550     3.8860     1.9660 H     1 <1>   0.0800 
 35 H        0.6040     4.6970    -0.3210 H     1 <1>   0.0800 
 36 H        1.4640     5.9750    -1.1820 H     1 <1>   0.0800 
 37 H        5.3410     2.5450    -1.6840 H     1 <1>   0.0800 
 38 H        5.1870     3.3390    -3.2250 H     1 <1>   0.0800 
 39 H        3.9630     2.2300    -2.7150 H     1 <1>   0.0800 
 40 H        5.6110     5.0000    -0.6670 H     1 <1>   0.0800 
 41 H        4.4360     6.2080    -1.1540 H     1 <1>   0.0800 
 42 H        5.4750     5.4930    -2.3300 H     1 <1>   0.0800 
 43 H        2.1910     6.7660     2.5410 H     1 <1>   0.0800 
 44 H        0.8430     5.7110     2.8910 H     1 <1>   0.0800 
 45 H       -0.1890     6.4560     0.9380 H     1 <1>   0.0800 
 46 H        1.2030     7.4560     0.5980 H     1 <1>   0.0800 
@<TRIPOS>BOND
  1   1   2  2   
  2   1   3  1   
  3   2   4  1   
  4   2   5  1   
  5   3   6  1   
  6   3   7  2   
  7   4   8  ar  
  8   4   9  1   
  9   5  22  1   
 10   5  23  1   
 11   6  10  1   
 12   6  24  1   
 13   7   8  1   
 14   7  25  1   
 15   8  11  ar  
 16   9  12  2   
 17   9  26  1   
 18  10  13  1   
 19  10  27  1   
 20  10  28  1   
 21  11  12  1   
 22  11  29  1   
 23  13  14  1   
 24  13  15  1   
 25  13  30  1   
 26  14  16  1   
 27  14  17  1   
 28  14  31  1   
 29  15  18  1   
 30  15  19  1   
 31  15  32  1   
 32  16  20  1   
 33  16  33  1   
 34  16  34  1   
 35  17  21  1   
 36  17  35  1   
 37  17  36  1   
 38  18  37  1   
 39  18  38  1   
 40  18  39  1   
 41  19  40  1   
 42  19  41  1   
 43  19  42  1   
 44  20  21  1   
 45  20  43  1   
 46  20  44  1   
 47  21  45  1   
 48  21  46  1   
@<TRIPOS>SUBSTRUCTURE
  1 ****   6 GROUP 4 **** **** 0

# MOE 2024.06 (io_trps.svl 2023.06)
