@<TRIPOS>MOLECULE
NONAME
43 44 1 0 0 
SMALL
USER_CHARGES


@<TRIPOS>ATOM
  1 O        0.2530    -0.3070     1.1280 O.2   1 <1>  -0.5700 
  2 C        1.1750    -0.6740     0.4260 C.2   1 <1>   0.5440 
  3 N        2.1120     0.2240    -0.0150 N.am  1 <1>  -0.4930 
  4 C        1.2770    -2.0720     0.0430 C.ar  1 <1>   0.0860 
  5 C        2.2590     1.6030     0.2770 C.2   1 <1>   0.0630 
  6 C        0.1290    -2.8500    -0.0960 C.ar  1 <1>  -0.1500 
  7 C        2.5050    -2.6880    -0.1960 C.ar  1 <1>  -0.1500 
  8 C        1.3030     2.6240     0.3020 C.2   1 <1>   0.1080 
  9 C        3.4270     2.2190     0.5650 C.2   1 <1>  -0.3320 
 10 C        0.1570    -4.1950    -0.4710 C.ar  1 <1>   0.0860 
 11 C        2.5730    -4.0150    -0.5740 C.ar  1 <1>  -0.1500 
 12 N        1.8260     3.7770     0.5830 N.2   1 <1>  -0.7070 
 13 C       -0.1770     2.4790     0.0290 C.3   1 <1>  -0.0590 
 14 N        3.1360     3.5320     0.7510 N.pl3 1 <1>   0.3140 
 15 C        4.8240     1.6280     0.6910 C.3   1 <1>  -0.0600 
 16 C       -1.0390    -5.0040    -0.6140 C.2   1 <1>   0.4230 
 17 C        1.4140    -4.7530    -0.7110 C.ar  1 <1>  -0.1500 
 18 C        4.0680     4.6250     1.0990 C.3   1 <1>   0.0960 
 19 O       -1.0200    -6.1330    -1.0300 O.2   1 <1>  -0.5700 
 20 C       -2.3970    -4.4440    -0.2330 C.3   1 <1>  -0.1790 
 21 C        4.6840     5.2470    -0.1620 C.3   1 <1>  -0.1600 
 22 C        5.6620     6.3730     0.1890 C.3   1 <1>  -0.2400 
 23 H        2.8520    -0.1460    -0.6040 H     1 <1>   0.3700 
 24 H       -0.8140    -2.3720     0.0990 H     1 <1>   0.1500 
 25 H        3.4210    -2.1360    -0.0780 H     1 <1>   0.1500 
 26 H        3.5270    -4.4790    -0.7590 H     1 <1>   0.1500 
 27 H       -0.3480     1.7040    -0.6940 H     1 <1>   0.0800 
 28 H       -0.5700     3.4050    -0.3480 H     1 <1>   0.0800 
 29 H       -0.6840     2.2290     0.9430 H     1 <1>   0.0800 
 30 H        4.8050     0.5660     0.5290 H     1 <1>   0.0800 
 31 H        5.2140     1.8090     1.6770 H     1 <1>   0.0800 
 32 H        5.4830     2.0720    -0.0330 H     1 <1>   0.0800 
 33 H        1.4780    -5.7880    -1.0070 H     1 <1>   0.1500 
 34 H        4.8350     4.2340     1.7410 H     1 <1>   0.0800 
 35 H        3.5160     5.3700     1.6430 H     1 <1>   0.0800 
 36 H       -2.3830    -4.1020     0.7850 H     1 <1>   0.0800 
 37 H       -3.1450    -5.2110    -0.3250 H     1 <1>   0.0800 
 38 H       -2.6570    -3.6330    -0.8870 H     1 <1>   0.0800 
 39 H        3.8930     5.6440    -0.7770 H     1 <1>   0.0800 
 40 H        5.2020     4.4890    -0.7240 H     1 <1>   0.0800 
 41 H        5.1580     7.1540     0.7320 H     1 <1>   0.0800 
 42 H        6.0740     6.7960    -0.7110 H     1 <1>   0.0800 
 43 H        6.4720     5.9980     0.7910 H     1 <1>   0.0800 
@<TRIPOS>BOND
  1   1   2  2   
  2   2   3  am  
  3   2   4  1   
  4   3   5  1   
  5   3  23  1   
  6   4   6  ar  
  7   4   7  ar  
  8   5   8  1   
  9   5   9  2   
 10   6  10  ar  
 11   6  24  1   
 12   7  11  ar  
 13   7  25  1   
 14   8  12  2   
 15   8  13  1   
 16   9  14  1   
 17   9  15  1   
 18  10  16  1   
 19  10  17  ar  
 20  11  17  ar  
 21  11  26  1   
 22  12  14  1   
 23  13  27  1   
 24  13  28  1   
 25  13  29  1   
 26  14  18  1   
 27  15  30  1   
 28  15  31  1   
 29  15  32  1   
 30  16  19  2   
 31  16  20  1   
 32  17  33  1   
 33  18  21  1   
 34  18  34  1   
 35  18  35  1   
 36  20  36  1   
 37  20  37  1   
 38  20  38  1   
 39  21  22  1   
 40  21  39  1   
 41  21  40  1   
 42  22  41  1   
 43  22  42  1   
 44  22  43  1   
@<TRIPOS>SUBSTRUCTURE
  1 ****   3 GROUP 4 **** **** 0

# MOE 2024.06 (io_trps.svl 2023.06)
