@<TRIPOS>MOLECULE
NONAME
47 51 1 0 0 
SMALL
USER_CHARGES


@<TRIPOS>ATOM
  1 O        0.8950    -0.5080    -0.9030 O.3   1 <1>  -0.5600 
  2 C        1.9210    -1.0960    -0.1330 C.3   1 <1>   0.4600 
  3 C       -0.4400    -0.7400    -0.5210 C.3   1 <1>   0.1200 
  4 C        1.5070    -2.5080     0.2650 C.2   1 <1>  -0.3320 
  5 C        3.1570    -1.1350    -1.0340 C.3   1 <1>  -0.1600 
  6 C        2.1860    -0.2240     1.0990 C.3   1 <1>  -0.1600 
  7 C       -0.7980    -2.2300    -0.6400 C.3   1 <1>   0.0210 
  8 N        2.2830    -3.4390     0.8990 N.pl3 1 <1>   0.0330 
  9 C        0.2860    -3.0310     0.0360 C.2   1 <1>  -0.1810 
 10 C        3.6020     0.2780    -1.4070 C.3   1 <1>   0.2090 
 11 C        2.6630     1.1720     0.7030 C.3   1 <1>   0.2090 
 12 C        1.5320    -4.5770     1.0640 C.ar  1 <1>  -0.1520 
 13 C        0.2670    -4.3530     0.5270 C.ar  1 <1>   0.0000 
 14 N        3.8820     1.0480    -0.1580 N.pl3 1 <1>  -0.8380 
 15 C        1.8540    -5.8060     1.6470 C.ar  1 <1>  -0.1500 
 16 C       -0.6930    -5.3690     0.5670 C.ar  1 <1>  -0.1500 
 17 C        5.0260     1.7440     0.0830 C.ar  1 <1>   0.4100 
 18 C        0.9000    -6.7970     1.6810 C.ar  1 <1>  -0.1500 
 19 C       -0.3740    -6.5780     1.1410 C.ar  1 <1>  -0.1500 
 20 N        4.9430     2.8250     0.8390 N.ar  1 <1>  -0.6200 
 21 C        6.2610     1.3300    -0.4560 C.ar  1 <1>  -0.1500 
 22 C        6.0360     3.5260     1.0390 C.ar  1 <1>   0.7710 
 23 C        7.3700     2.0730    -0.2270 C.ar  1 <1>   0.2110 
 24 N        7.2330     3.1900     0.5290 N.ar  1 <1>  -0.1790 
 25 N        5.9080     4.6150     1.7910 N.pl3 1 <1>  -0.9000 
 26 H       -1.0730    -0.1540    -1.1640 H     1 <1>   0.0800 
 27 H       -0.5700    -0.4040     0.4920 H     1 <1>   0.0800 
 28 H        2.9230    -1.6940    -1.9210 H     1 <1>   0.0800 
 29 H        3.9630    -1.6330    -0.5310 H     1 <1>   0.0800 
 30 H        2.9450    -0.6830     1.7050 H     1 <1>   0.0800 
 31 H        1.3000    -0.1550     1.7000 H     1 <1>   0.0800 
 32 H       -0.8670    -2.5110    -1.6750 H     1 <1>   0.0800 
 33 H       -1.7450    -2.4140    -0.1670 H     1 <1>   0.0800 
 34 H        3.2530    -3.3270     1.2050 H     1 <1>   0.2700 
 35 H        2.8150     0.7710    -1.9550 H     1 <1>   0.0800 
 36 H        4.4610     0.2360    -2.0510 H     1 <1>   0.0800 
 37 H        2.8710     1.7360     1.5950 H     1 <1>   0.0800 
 38 H        1.8910     1.6860     0.1550 H     1 <1>   0.0800 
 39 H        2.8340    -5.9650     2.0590 H     1 <1>   0.1500 
 40 H       -1.6650    -5.1880     0.1480 H     1 <1>   0.1500 
 41 H        1.1240    -7.7510     2.1240 H     1 <1>   0.1500 
 42 H       -1.1010    -7.3700     1.1790 H     1 <1>   0.1500 
 43 H        6.3080     0.4240    -1.0300 H     1 <1>   0.1500 
 44 H        8.3420     1.8100    -0.6140 H     1 <1>   0.1500 
 45 H        8.0140     3.8020     0.7420 H     1 <1>   0.4570 
 46 H        6.6150     5.2970     2.0690 H     1 <1>   0.4000 
 47 H        4.9700     4.8270     2.1470 H     1 <1>   0.4000 
@<TRIPOS>BOND
  1   1   2  1   
  2   1   3  1   
  3   2   4  1   
  4   2   5  1   
  5   2   6  1   
  6   3   7  1   
  7   3  26  1   
  8   3  27  1   
  9   4   8  1   
 10   4   9  2   
 11   5  10  1   
 12   5  28  1   
 13   5  29  1   
 14   6  11  1   
 15   6  30  1   
 16   6  31  1   
 17   7   9  1   
 18   7  32  1   
 19   7  33  1   
 20   8  12  1   
 21   8  34  1   
 22   9  13  1   
 23  10  14  1   
 24  10  35  1   
 25  10  36  1   
 26  11  14  1   
 27  11  37  1   
 28  11  38  1   
 29  12  13  ar  
 30  12  15  ar  
 31  13  16  ar  
 32  14  17  1   
 33  15  18  ar  
 34  15  39  1   
 35  16  19  ar  
 36  16  40  1   
 37  17  20  ar  
 38  17  21  ar  
 39  18  19  ar  
 40  18  41  1   
 41  19  42  1   
 42  20  22  ar  
 43  21  23  ar  
 44  21  43  1   
 45  22  24  ar  
 46  22  25  1   
 47  23  24  ar  
 48  23  44  1   
 49  24  45  1   
 50  25  46  1   
 51  25  47  1   
@<TRIPOS>SUBSTRUCTURE
  1 ****   2 GROUP 4 **** **** 0

# MOE 2024.06 (io_trps.svl 2023.06)
