@<TRIPOS>MOLECULE
NONAME
44 45 1 0 0 
SMALL
USER_CHARGES


@<TRIPOS>ATOM
  1 S       -0.0810     0.1630     0.0840 S.3   1 <1>  -0.4600 
  2 C        0.5480     1.8370    -0.2250 C.3   1 <1>   0.0700 
  3 C        0.0100    -0.6180    -1.5480 C.3   1 <1>  -0.0100 
  4 C        0.6710     2.5540     1.1180 C.3   1 <1>   0.1400 
  5 N        1.0350     3.9740     0.9030 N.am  1 <1>  -0.7300 
  6 C        2.2780     4.4730     0.6690 C.2   1 <1>   0.7160 
  7 O        3.2040     3.6880     0.5990 O.2   1 <1>  -0.5700 
  8 C        2.4710     5.8840     0.5000 C.2   1 <1>  -0.0860 
  9 C        1.4580     6.8510     0.4140 C.2   1 <1>   0.3720 
 10 C        3.6090     6.6200     0.3590 C.2   1 <1>   0.0870 
 11 N        1.9460     8.0260     0.2310 N.2   1 <1>  -0.4100 
 12 N        0.0770     6.6140     0.5050 N.pl3 1 <1>  -0.8210 
 13 O        3.2400     7.8660     0.1980 O.3   1 <1>  -0.0190 
 14 C        5.0150     6.3030     0.3630 C.ar  1 <1>   0.0530 
 15 C       -0.5570     7.3330     1.6450 C.3   1 <1>   0.1290 
 16 C       -0.6350     6.9010    -0.7710 C.3   1 <1>   0.1290 
 17 C        5.8760     6.9020    -0.5580 C.ar  1 <1>  -0.1500 
 18 C        5.5670     5.4120     1.2850 C.ar  1 <1>  -0.1500 
 19 C        7.2360     6.6360    -0.5880 C.ar  1 <1>   0.0830 
 20 C        6.9190     5.1230     1.2840 C.ar  1 <1>  -0.1500 
 21 O        7.9400     7.2990    -1.5500 O.3   1 <1>  -0.3630 
 22 C        7.7400     5.7320     0.3540 C.ar  1 <1>   0.1900 
 23 C        9.3240     7.1180    -1.7520 C.3   1 <1>   0.0400 
 24 F        9.0100     5.4190     0.4060 F     1 <1>  -0.1900 
 25 H       -0.1570     2.3270    -0.8720 H     1 <1>   0.0800 
 26 H        1.5080     1.7420    -0.7020 H     1 <1>   0.0800 
 27 H       -0.3500    -1.6260    -1.4480 H     1 <1>   0.0800 
 28 H        1.0380    -0.6080    -1.8650 H     1 <1>   0.0800 
 29 H       -0.6100    -0.0550    -2.2230 H     1 <1>   0.0800 
 30 H        1.4320     2.0740     1.7110 H     1 <1>   0.0800 
 31 H       -0.2630     2.5040     1.6490 H     1 <1>   0.0800 
 32 H        0.2750     4.6720     0.8750 H     1 <1>   0.3700 
 33 H        0.0020     7.1520     2.5470 H     1 <1>   0.0800 
 34 H       -1.5650     6.9840     1.7860 H     1 <1>   0.0800 
 35 H       -0.5710     8.3930     1.4550 H     1 <1>   0.0800 
 36 H       -0.1470     6.3920    -1.5850 H     1 <1>   0.0800 
 37 H       -0.6260     7.9590    -0.9720 H     1 <1>   0.0800 
 38 H       -1.6540     6.5600    -0.7100 H     1 <1>   0.0800 
 39 H        5.4760     7.5960    -1.2760 H     1 <1>   0.1500 
 40 H        4.9290     4.9390     2.0110 H     1 <1>   0.1500 
 41 H        7.3340     4.4310     1.9940 H     1 <1>   0.1500 
 42 H        9.6240     7.7350    -2.5800 H     1 <1>   0.0800 
 43 H        9.5130     6.0840    -1.9810 H     1 <1>   0.0800 
 44 H        9.8500     7.4200    -0.8640 H     1 <1>   0.0800 
@<TRIPOS>BOND
  1   1   2  1   
  2   1   3  1   
  3   2   4  1   
  4   2  25  1   
  5   2  26  1   
  6   3  27  1   
  7   3  28  1   
  8   3  29  1   
  9   4   5  1   
 10   4  30  1   
 11   4  31  1   
 12   5   6  am  
 13   5  32  1   
 14   6   7  2   
 15   6   8  1   
 16   8   9  1   
 17   8  10  2   
 18   9  11  2   
 19   9  12  1   
 20  10  13  1   
 21  10  14  1   
 22  11  13  1   
 23  12  15  1   
 24  12  16  1   
 25  14  17  ar  
 26  14  18  ar  
 27  15  33  1   
 28  15  34  1   
 29  15  35  1   
 30  16  36  1   
 31  16  37  1   
 32  16  38  1   
 33  17  19  ar  
 34  17  39  1   
 35  18  20  ar  
 36  18  40  1   
 37  19  21  1   
 38  19  22  ar  
 39  20  22  ar  
 40  20  41  1   
 41  21  23  1   
 42  22  24  1   
 43  23  42  1   
 44  23  43  1   
 45  23  44  1   
@<TRIPOS>SUBSTRUCTURE
  1 ****   8 GROUP 4 **** **** 0

# MOE 2024.06 (io_trps.svl 2023.06)
