@<TRIPOS>MOLECULE
NONAME
44 45 1 0 0 
SMALL
USER_CHARGES


@<TRIPOS>ATOM
  1 S       -1.2890    -0.3340    -1.6700 S.3   1 <1>  -0.0800 
  2 C       -1.9900    -0.3010    -0.0650 C.2   1 <1>   0.1980 
  3 C        0.2700    -0.0310    -0.9620 C.2   1 <1>  -0.1100 
  4 N       -1.1520    -0.0880     0.8690 N.2   1 <1>  -0.5650 
  5 C       -3.4840    -0.5180     0.0580 C.3   1 <1>   0.0200 
  6 C        0.1290     0.0650     0.3690 C.2   1 <1>   0.0460 
  7 C       -3.8550    -1.9910    -0.1610 C.3   1 <1>  -0.1600 
  8 C        1.2280     0.3240     1.3750 C.3   1 <1>  -0.0590 
  9 C       -5.3520    -2.2180     0.0370 C.3   1 <1>   0.1400 
 10 N       -5.6600    -3.6370    -0.2280 N.am  1 <1>  -0.7300 
 11 C       -6.5870    -4.0840    -1.1110 C.2   1 <1>   0.5690 
 12 O       -7.2800    -3.3420    -1.7620 O.2   1 <1>  -0.5700 
 13 C       -6.7650    -5.5730    -1.2600 C.3   1 <1>  -0.0990 
 14 C       -7.7280    -6.0810    -0.1910 C.3   1 <1>   0.1400 
 15 N       -7.6830    -7.5590    -0.1460 N.am  1 <1>  -0.7300 
 16 C       -6.7720    -8.2940     0.5610 C.2   1 <1>   0.5440 
 17 O       -5.9090    -7.6820     1.1640 O.2   1 <1>  -0.5700 
 18 C       -6.8120    -9.7490     0.6140 C.ar  1 <1>   0.0860 
 19 C       -7.5450   -10.5540    -0.2640 C.ar  1 <1>   0.1900 
 20 C       -6.0830   -10.4350     1.5910 C.ar  1 <1>  -0.1500 
 21 F       -8.2530   -10.0150    -1.2200 F     1 <1>  -0.1900 
 22 C       -7.5700   -11.9350    -0.1900 C.ar  1 <1>  -0.1500 
 23 C       -6.0930   -11.8170     1.6830 C.ar  1 <1>  -0.1500 
 24 C       -6.8370   -12.5720     0.7940 C.ar  1 <1>  -0.1500 
 25 H        1.1190     0.0420    -1.6160 H     1 <1>   0.1500 
 26 H       -3.9890     0.1030    -0.6600 H     1 <1>   0.0800 
 27 H       -3.7890    -0.2110     1.0420 H     1 <1>   0.0800 
 28 H       -3.3030    -2.5970     0.5370 H     1 <1>   0.0800 
 29 H       -3.5820    -2.2810    -1.1610 H     1 <1>   0.0800 
 30 H        2.1760     0.4280     0.8800 H     1 <1>   0.0800 
 31 H        1.2820    -0.4950     2.0690 H     1 <1>   0.0800 
 32 H        1.0140     1.2270     1.9180 H     1 <1>   0.0800 
 33 H       -5.9130    -1.5910    -0.6370 H     1 <1>   0.0800 
 34 H       -5.6390    -1.9770     1.0460 H     1 <1>   0.0800 
 35 H       -5.1270    -4.3190     0.3180 H     1 <1>   0.3700 
 36 H       -5.8070    -6.0480    -1.1510 H     1 <1>   0.0800 
 37 H       -7.1520    -5.7890    -2.2380 H     1 <1>   0.0800 
 38 H       -8.7310    -5.7490    -0.4030 H     1 <1>   0.0800 
 39 H       -7.4410    -5.6920     0.7730 H     1 <1>   0.0800 
 40 H       -8.3590    -8.0520    -0.7370 H     1 <1>   0.3700 
 41 H       -5.4950    -9.8700     2.2960 H     1 <1>   0.1500 
 42 H       -8.1540   -12.5030    -0.8930 H     1 <1>   0.1500 
 43 H       -5.5180   -12.3070     2.4510 H     1 <1>   0.1500 
 44 H       -6.8430   -13.6470     0.8680 H     1 <1>   0.1500 
@<TRIPOS>BOND
  1   1   2  1   
  2   1   3  1   
  3   2   4  2   
  4   2   5  1   
  5   3   6  2   
  6   3  25  1   
  7   4   6  1   
  8   5   7  1   
  9   5  26  1   
 10   5  27  1   
 11   6   8  1   
 12   7   9  1   
 13   7  28  1   
 14   7  29  1   
 15   8  30  1   
 16   8  31  1   
 17   8  32  1   
 18   9  10  1   
 19   9  33  1   
 20   9  34  1   
 21  10  11  am  
 22  10  35  1   
 23  11  12  2   
 24  11  13  1   
 25  13  14  1   
 26  13  36  1   
 27  13  37  1   
 28  14  15  1   
 29  14  38  1   
 30  14  39  1   
 31  15  16  am  
 32  15  40  1   
 33  16  17  2   
 34  16  18  1   
 35  18  19  ar  
 36  18  20  ar  
 37  19  21  1   
 38  19  22  ar  
 39  20  23  ar  
 40  20  41  1   
 41  22  24  ar  
 42  22  42  1   
 43  23  24  ar  
 44  23  43  1   
 45  24  44  1   
@<TRIPOS>SUBSTRUCTURE
  1 ****  10 GROUP 4 **** **** 0

# MOE 2024.06 (io_trps.svl 2023.06)
