@<TRIPOS>MOLECULE
NONAME
16 17 1 0 0 
SMALL
USER_CHARGES


@<TRIPOS>ATOM
  1 S       -0.0300    -0.1200    -0.6040 S.3   1 <1>  -0.9360 
  2 C        0.9290    -1.4160    -0.5200 C.cat 1 <1>   0.7360 
  3 N        2.1730    -1.5110    -0.9390 N.pl3 1 <1>  -0.3930 
  4 N        0.5740    -2.5630    -0.0120 N.pl3 1 <1>  -0.7000 
  5 N        2.6550    -2.7710    -0.6980 N.2   1 <1>  -0.2600 
  6 C        1.6620    -3.3720    -0.1410 C.2   1 <1>   0.5800 
  7 C        1.6340    -4.8140     0.3430 C.3   1 <1>  -0.0270 
  8 C        2.3460    -5.9070    -0.4000 C.3   1 <1>  -0.2000 
  9 C        0.8480    -5.8540    -0.4000 C.3   1 <1>  -0.2000 
 10 H        2.6540    -0.7220    -1.3740 H     1 <1>   0.4500 
 11 H       -0.3560    -2.7120     0.3630 H     1 <1>   0.4500 
 12 H        1.6380    -4.8710     1.4170 H     1 <1>   0.1000 
 13 H        2.8370    -6.6810     0.1640 H     1 <1>   0.1000 
 14 H        2.8680    -5.6690    -1.3110 H     1 <1>   0.1000 
 15 H        0.3470    -5.5830    -1.3140 H     1 <1>   0.1000 
 16 H        0.3060    -6.5960     0.1610 H     1 <1>   0.1000 
@<TRIPOS>BOND
  1   1   2  1   
  2   2   3  ar  
  3   2   4  ar  
  4   3   5  1   
  5   3  10  1   
  6   4   6  1   
  7   4  11  1   
  8   5   6  2   
  9   6   7  1   
 10   7   8  1   
 11   7   9  1   
 12   7  12  1   
 13   8   9  1   
 14   8  13  1   
 15   8  14  1   
 16   9  15  1   
 17   9  16  1   
@<TRIPOS>SUBSTRUCTURE
  1 ****   6 GROUP 4 **** **** 0

# MOE 2024.06 (io_trps.svl 2023.06)
