@<TRIPOS>MOLECULE
NONAME
50 54 1 0 0 
SMALL
USER_CHARGES


@<TRIPOS>ATOM
  1 N       -0.0030    -0.1910    -0.4120 N.ar  1 <1>  -0.1790 
  2 C       -0.0860    -1.5230    -0.3850 C.ar  1 <1>   0.4610 
  3 C        1.1630     0.5400    -0.2810 C.ar  1 <1>   0.3610 
  4 N       -1.2910    -2.1230    -0.5480 N.pl3 1 <1>  -0.8380 
  5 C        1.1380    -2.2180    -0.1840 C.ar  1 <1>  -0.1500 
  6 C        2.3790    -0.1490    -0.0970 C.ar  1 <1>   0.0000 
  7 C        1.1370     1.9390    -0.3340 C.ar  1 <1>  -0.1500 
  8 C       -1.4790    -3.6050    -0.7540 C.3   1 <1>   0.2090 
  9 C       -2.6310    -1.4470    -0.5070 C.3   1 <1>   0.2090 
 10 C        2.3320    -1.5760    -0.0470 C.ar  1 <1>  -0.1430 
 11 C        3.5560     0.6100     0.0280 C.ar  1 <1>  -0.1500 
 12 C        2.3070     2.6420    -0.2070 C.ar  1 <1>  -0.1430 
 13 C       -2.2410    -4.2260     0.4300 C.3   1 <1>   0.1000 
 14 C       -3.4270    -1.9900     0.6850 C.3   1 <1>  -0.1600 
 15 C        3.6140    -2.3730     0.1670 C.3   1 <1>  -0.0970 
 16 C        3.5040     1.9790    -0.0280 C.ar  1 <1>  -0.1430 
 17 C        2.5140     4.1380    -0.2360 C.3   1 <1>  -0.0170 
 18 C       -2.4630    -5.7200     0.2300 C.2   1 <1>  -0.3320 
 19 C       -3.5930    -3.5180     0.6190 C.3   1 <1>  -0.1600 
 20 C        4.6510     2.9540     0.0820 C.3   1 <1>  -0.0170 
 21 C        4.0370     4.2830    -0.3880 C.3   1 <1>  -0.1600 
 22 N       -2.8990    -6.5380     1.2150 N.pl3 1 <1>   0.3000 
 23 C       -2.2950    -6.5000    -0.8620 C.2   1 <1>  -0.1500 
 24 N       -3.0150    -7.8090     0.7940 N.2   1 <1>  -0.7070 
 25 C       -2.6520    -7.7790    -0.4500 C.2   1 <1>   0.1390 
 26 H       -0.8610     0.3170    -0.5750 H     1 <1>   0.4570 
 27 H        1.1160    -3.2870    -0.1240 H     1 <1>   0.1500 
 28 H        0.2120     2.4690    -0.4740 H     1 <1>   0.1500 
 29 H       -0.5480    -4.1210    -0.8910 H     1 <1>   0.0800 
 30 H       -2.0510    -3.7590    -1.6530 H     1 <1>   0.0800 
 31 H       -3.1640    -1.6540    -1.4210 H     1 <1>   0.0800 
 32 H       -2.5450    -0.3810    -0.4100 H     1 <1>   0.0800 
 33 H        4.5060     0.1260     0.1680 H     1 <1>   0.1500 
 34 H       -1.6400    -4.0880     1.3130 H     1 <1>   0.0800 
 35 H       -4.3990    -1.5300     0.7020 H     1 <1>   0.0800 
 36 H       -2.9240    -1.7200     1.5970 H     1 <1>   0.0800 
 37 H        3.4180    -3.4300     0.1870 H     1 <1>   0.0800 
 38 H        4.0700    -2.1000     1.1020 H     1 <1>   0.0800 
 39 H        4.3100    -2.1780    -0.6300 H     1 <1>   0.0800 
 40 H        2.1890     4.5660     0.6960 H     1 <1>   0.0800 
 41 H        1.9920     4.6020    -1.0540 H     1 <1>   0.0800 
 42 H       -4.0690    -3.8670     1.5190 H     1 <1>   0.0800 
 43 H       -4.2370    -3.7680    -0.2080 H     1 <1>   0.0800 
 44 H        5.4850     2.6640    -0.5340 H     1 <1>   0.0800 
 45 H        4.9640     3.0260     1.1090 H     1 <1>   0.0800 
 46 H        4.4190     5.1210     0.1690 H     1 <1>   0.0800 
 47 H        4.2700     4.4220    -1.4300 H     1 <1>   0.0800 
 48 H       -3.1290    -6.2670     2.1790 H     1 <1>   0.2700 
 49 H       -1.9650    -6.2470    -1.8540 H     1 <1>   0.1500 
 50 H       -2.6340    -8.6520    -1.0820 H     1 <1>   0.1500 
@<TRIPOS>BOND
  1   1   2  ar  
  2   1   3  ar  
  3   1  26  1   
  4   2   4  1   
  5   2   5  ar  
  6   3   6  ar  
  7   3   7  ar  
  8   4   8  1   
  9   4   9  1   
 10   5  10  ar  
 11   5  27  1   
 12   6  10  ar  
 13   6  11  ar  
 14   7  12  ar  
 15   7  28  1   
 16   8  13  1   
 17   8  29  1   
 18   8  30  1   
 19   9  14  1   
 20   9  31  1   
 21   9  32  1   
 22  10  15  1   
 23  11  16  ar  
 24  11  33  1   
 25  12  16  ar  
 26  12  17  1   
 27  13  18  1   
 28  13  19  1   
 29  13  34  1   
 30  14  19  1   
 31  14  35  1   
 32  14  36  1   
 33  15  37  1   
 34  15  38  1   
 35  15  39  1   
 36  16  20  1   
 37  17  21  1   
 38  17  40  1   
 39  17  41  1   
 40  18  22  1   
 41  18  23  2   
 42  19  42  1   
 43  19  43  1   
 44  20  21  1   
 45  20  44  1   
 46  20  45  1   
 47  21  46  1   
 48  21  47  1   
 49  22  24  1   
 50  22  48  1   
 51  23  25  1   
 52  23  49  1   
 53  24  25  2   
 54  25  50  1   
@<TRIPOS>SUBSTRUCTURE
  1 ****   2 GROUP 4 **** **** 0

# MOE 2024.06 (io_trps.svl 2023.06)
