@<TRIPOS>MOLECULE
NONAME
52 55 1 0 0 
SMALL
USER_CHARGES


@<TRIPOS>ATOM
  1 O       -0.4190     0.1160    -1.3110 O.2   1 <1>  -0.5700 
  2 C       -1.4430     0.7060    -1.0570 C.2   1 <1>   0.5690 
  3 N       -2.6600     0.0750    -1.1190 N.am  1 <1>  -0.6600 
  4 C       -1.3660     2.1840    -0.6830 C.3   1 <1>  -0.0990 
  5 C       -4.0010     0.7070    -0.9140 C.3   1 <1>   0.1400 
  6 C       -2.7620    -1.3930    -1.3900 C.3   1 <1>   0.1400 
  7 C        0.0480     2.7120    -0.3680 C.3   1 <1>  -0.0800 
  8 C       -4.7890    -0.0330     0.1840 C.3   1 <1>   0.1900 
  9 C       -3.5960    -2.0960    -0.3060 C.3   1 <1>   0.1100 
 10 C        0.6670     2.1130     0.8950 C.3   1 <1>  -0.1600 
 11 C        0.0710     4.2140    -0.0950 C.3   1 <1>  -0.1600 
 12 N       -4.9300    -1.4720    -0.1520 N.3   1 <1>  -0.8100 
 13 C       -6.1750     0.6120     0.3820 C.3   1 <1>   0.1200 
 14 C        1.7150     3.1290     1.3570 C.3   1 <1>  -0.1600 
 15 C        1.3820     4.4510     0.6540 C.3   1 <1>  -0.1600 
 16 C       -5.7440    -2.1540     0.8840 C.3   1 <1>   0.3330 
 17 O       -6.8880    -0.0590     1.3800 O.3   1 <1>  -0.5600 
 18 C       -6.0190    -3.6070     0.5000 C.ar  1 <1>  -0.1440 
 19 C       -7.0850    -1.4200     1.0960 C.3   1 <1>   0.1200 
 20 C       -5.8350    -4.6190     1.4310 C.ar  1 <1>  -0.1500 
 21 C       -6.4580    -3.9370    -0.7750 C.ar  1 <1>  -0.1500 
 22 C       -6.0880    -5.9380     1.0940 C.ar  1 <1>  -0.1500 
 23 C       -6.7120    -5.2540    -1.1140 C.ar  1 <1>  -0.1500 
 24 C       -6.5270    -6.2560    -0.1780 C.ar  1 <1>  -0.1500 
 25 H       -1.7670     2.7470    -1.5050 H     1 <1>   0.0800 
 26 H       -1.9840     2.3540     0.1780 H     1 <1>   0.0800 
 27 H       -3.9080     1.7420    -0.6490 H     1 <1>   0.0800 
 28 H       -4.5530     0.6530    -1.8360 H     1 <1>   0.0800 
 29 H       -3.2290    -1.5440    -2.3480 H     1 <1>   0.0800 
 30 H       -1.7850    -1.8420    -1.4260 H     1 <1>   0.0800 
 31 H        0.7020     2.5090    -1.2010 H     1 <1>   0.0800 
 32 H       -4.2440     0.0680     1.1080 H     1 <1>   0.0800 
 33 H       -3.0600    -2.0580     0.6280 H     1 <1>   0.0800 
 34 H       -3.7060    -3.1300    -0.5830 H     1 <1>   0.0800 
 35 H       -0.0840     2.0100     1.6590 H     1 <1>   0.0800 
 36 H        1.1040     1.1480     0.7030 H     1 <1>   0.0800 
 37 H        0.0190     4.7900    -1.0030 H     1 <1>   0.0800 
 38 H       -0.7520     4.4840     0.5440 H     1 <1>   0.0800 
 39 H       -6.7440     0.5790    -0.5310 H     1 <1>   0.0800 
 40 H       -6.0710     1.6370     0.6920 H     1 <1>   0.0800 
 41 H        1.6880     3.2390     2.4270 H     1 <1>   0.0800 
 42 H        2.6990     2.8020     1.0660 H     1 <1>   0.0800 
 43 H        2.1610     4.6850    -0.0510 H     1 <1>   0.0800 
 44 H        1.2910     5.2630     1.3550 H     1 <1>   0.0800 
 45 H       -5.2070    -2.1350     1.8170 H     1 <1>   0.0800 
 46 H       -7.6140    -1.8560     1.9240 H     1 <1>   0.0800 
 47 H       -7.6980    -1.5020     0.2160 H     1 <1>   0.0800 
 48 H       -5.4950    -4.3880     2.4260 H     1 <1>   0.1500 
 49 H       -6.5980    -3.1600    -1.5080 H     1 <1>   0.1500 
 50 H       -5.9440    -6.7170     1.8220 H     1 <1>   0.1500 
 51 H       -7.0520    -5.4980    -2.1050 H     1 <1>   0.1500 
 52 H       -6.7240    -7.2810    -0.4410 H     1 <1>   0.1500 
@<TRIPOS>BOND
  1   1   2  2   
  2   2   3  am  
  3   2   4  1   
  4   3   5  1   
  5   3   6  1   
  6   4   7  1   
  7   4  25  1   
  8   4  26  1   
  9   5   8  1   
 10   5  27  1   
 11   5  28  1   
 12   6   9  1   
 13   6  29  1   
 14   6  30  1   
 15   7  10  1   
 16   7  11  1   
 17   7  31  1   
 18   8  12  1   
 19   8  13  1   
 20   8  32  1   
 21   9  12  1   
 22   9  33  1   
 23   9  34  1   
 24  10  14  1   
 25  10  35  1   
 26  10  36  1   
 27  11  15  1   
 28  11  37  1   
 29  11  38  1   
 30  12  16  1   
 31  13  17  1   
 32  13  39  1   
 33  13  40  1   
 34  14  15  1   
 35  14  41  1   
 36  14  42  1   
 37  15  43  1   
 38  15  44  1   
 39  16  18  1   
 40  16  19  1   
 41  16  45  1   
 42  17  19  1   
 43  18  20  ar  
 44  18  21  ar  
 45  19  46  1   
 46  19  47  1   
 47  20  22  ar  
 48  20  48  1   
 49  21  23  ar  
 50  21  49  1   
 51  22  24  ar  
 52  22  50  1   
 53  23  24  ar  
 54  23  51  1   
 55  24  52  1   
@<TRIPOS>SUBSTRUCTURE
  1 ****   8 GROUP 4 **** **** 0

# MOE 2024.06 (io_trps.svl 2023.06)
