@<TRIPOS>MOLECULE
NONAME
48 51 1 0 0 
SMALL
USER_CHARGES


@<TRIPOS>ATOM
  1 O        1.7230    -0.9280     2.2130 O.2   1 <1>  -0.5700 
  2 C        1.7270    -0.8590     0.9930 C.2   1 <1>   0.5440 
  3 N        2.0580     0.3280     0.3920 N.am  1 <1>  -0.5090 
  4 C        1.4060    -2.0300     0.2080 C.ar  1 <1>   0.0860 
  5 C        1.7730     0.6000    -1.0340 C.3   1 <1>   0.0490 
  6 C        3.0700     1.2170     1.0130 C.3   1 <1>   0.3210 
  7 C        0.1140    -2.5940     0.1650 C.ar  1 <1>   0.0530 
  8 C        2.4250    -2.6120    -0.5470 C.ar  1 <1>  -0.1500 
  9 C        1.0120     1.8390    -1.3860 C.3   1 <1>  -0.2000 
 10 C        0.3630     0.5000    -1.5260 C.3   1 <1>  -0.2000 
 11 C        4.4480     0.8390     0.4910 C.2   1 <1>  -0.1810 
 12 C       -1.0200    -2.0670     0.8940 C.2   1 <1>   0.1330 
 13 C       -0.0830    -3.7150    -0.6430 C.ar  1 <1>  -0.1500 
 14 C        2.2020    -3.7230    -1.3330 C.ar  1 <1>  -0.1500 
 15 C        5.2650    -0.1760     0.9860 C.2   1 <1>   0.1080 
 16 C        5.1490     1.3710    -0.5380 C.2   1 <1>  -0.3320 
 17 N       -2.2590    -2.0920     0.4860 N.2   1 <1>  -0.3380 
 18 N       -0.9660    -1.4930     2.1020 N.pl3 1 <1>   0.0330 
 19 C        0.9380    -4.2780    -1.3810 C.ar  1 <1>  -0.1500 
 20 N        6.3690    -0.2810     0.3190 N.2   1 <1>  -0.7070 
 21 C        4.9720    -1.0860     2.1580 C.3   1 <1>  -0.0590 
 22 N        6.3050     0.6750    -0.6190 N.pl3 1 <1>   0.3140 
 23 C        4.7870     2.5170    -1.4710 C.3   1 <1>  -0.0600 
 24 N       -3.0150    -1.5300     1.4280 N.2   1 <1>  -0.3380 
 25 C       -2.2230    -1.1790     2.3800 C.2   1 <1>   0.0360 
 26 C        7.4020     0.8710    -1.5740 C.3   1 <1>   0.0160 
 27 H        2.5740     0.2890    -1.6860 H     1 <1>   0.1000 
 28 H        3.0450     1.1280     2.0840 H     1 <1>   0.0800 
 29 H        2.8480     2.2380     0.7660 H     1 <1>   0.0800 
 30 H        3.4120    -2.1780    -0.5170 H     1 <1>   0.1500 
 31 H        1.2630     2.3710    -2.2870 H     1 <1>   0.1000 
 32 H        0.6690     2.4880    -0.6000 H     1 <1>   0.1000 
 33 H       -0.4300     0.2510    -0.8420 H     1 <1>   0.1000 
 34 H        0.1870     0.1160    -2.5160 H     1 <1>   0.1000 
 35 H       -1.0660    -4.1540    -0.6920 H     1 <1>   0.1500 
 36 H        3.0050    -4.1550    -1.9060 H     1 <1>   0.1500 
 37 H       -0.1110    -1.3160     2.6450 H     1 <1>   0.2700 
 38 H        0.7510    -5.1440    -1.9930 H     1 <1>   0.1500 
 39 H        4.4000    -0.5720     2.9070 H     1 <1>   0.0800 
 40 H        5.8960    -1.4140     2.5990 H     1 <1>   0.0800 
 41 H        4.4260    -1.9470     1.8230 H     1 <1>   0.0800 
 42 H        3.8340     2.9380    -1.2080 H     1 <1>   0.0800 
 43 H        4.7340     2.1650    -2.4850 H     1 <1>   0.0800 
 44 H        5.5280     3.2940    -1.4080 H     1 <1>   0.0800 
 45 H       -2.5280    -0.6900     3.2880 H     1 <1>   0.1500 
 46 H        7.0270     0.7490    -2.5710 H     1 <1>   0.0800 
 47 H        8.1660     0.1400    -1.3840 H     1 <1>   0.0800 
 48 H        7.8070     1.8570    -1.4470 H     1 <1>   0.0800 
@<TRIPOS>BOND
  1   1   2  2   
  2   2   3  am  
  3   2   4  1   
  4   3   5  1   
  5   3   6  1   
  6   4   7  ar  
  7   4   8  ar  
  8   5   9  1   
  9   5  10  1   
 10   5  27  1   
 11   6  11  1   
 12   6  28  1   
 13   6  29  1   
 14   7  12  1   
 15   7  13  ar  
 16   8  14  ar  
 17   8  30  1   
 18   9  10  1   
 19   9  31  1   
 20   9  32  1   
 21  10  33  1   
 22  10  34  1   
 23  11  15  1   
 24  11  16  2   
 25  12  17  2   
 26  12  18  1   
 27  13  19  ar  
 28  13  35  1   
 29  14  19  ar  
 30  14  36  1   
 31  15  20  2   
 32  15  21  1   
 33  16  22  1   
 34  16  23  1   
 35  17  24  1   
 36  18  25  1   
 37  18  37  1   
 38  19  38  1   
 39  20  22  1   
 40  21  39  1   
 41  21  40  1   
 42  21  41  1   
 43  22  26  1   
 44  23  42  1   
 45  23  43  1   
 46  23  44  1   
 47  24  25  2   
 48  25  45  1   
 49  26  46  1   
 50  26  47  1   
 51  26  48  1   
@<TRIPOS>SUBSTRUCTURE
  1 ****   2 GROUP 4 **** **** 0

# MOE 2024.06 (io_trps.svl 2023.06)
