@<TRIPOS>MOLECULE
NONAME
54 56 1 0 0 
SMALL
USER_CHARGES


@<TRIPOS>ATOM
  1 S        1.4490     2.1130    -1.8810 S.o2  1 <1>   1.3330 
  2 O        1.2540     3.5310    -2.1270 O.2   1 <1>  -0.6500 
  3 O        1.7070     1.2500    -3.0070 O.2   1 <1>  -0.6500 
  4 N        2.8160     1.9910    -0.8780 N.am  1 <1>  -0.8490 
  5 C        0.0590     1.4100    -0.9580 C.3   1 <1>  -0.0550 
  6 C        4.0110     2.5150    -1.5600 C.3   1 <1>   0.1160 
  7 C        3.1280     0.6090    -0.4770 C.3   1 <1>   0.1160 
  8 C       -0.5640     2.1500     0.2570 C.3   1 <1>  -0.0800 
  9 C       -1.4100     3.3550    -0.1660 C.3   1 <1>   0.2000 
 10 C        0.4310     2.7280     1.2700 C.3   1 <1>   0.2090 
 11 O       -2.4970     3.4390     0.6900 O.3   1 <1>  -0.6800 
 12 C       -0.5200     4.5860     0.0290 C.3   1 <1>   0.2090 
 13 N        0.6820     4.1070     0.7890 N.pl3 1 <1>  -0.8380 
 14 C        1.9100     4.6520     0.7680 C.ar  1 <1>   0.4610 
 15 N        2.3150     5.3110    -0.3130 N.ar  1 <1>  -0.1790 
 16 C        2.8350     4.5160     1.8300 C.ar  1 <1>  -0.1500 
 17 C        3.5560     5.8950    -0.4520 C.ar  1 <1>   0.3610 
 18 C        4.0830     5.0580     1.7700 C.ar  1 <1>  -0.1440 
 19 C        4.4820     5.7820     0.6020 C.ar  1 <1>   0.0000 
 20 C        3.9030     6.5700    -1.6260 C.ar  1 <1>  -0.1500 
 21 C        5.0470     4.8960     2.9390 C.3   1 <1>  -0.0970 
 22 C        5.7410     6.3800     0.4300 C.ar  1 <1>  -0.1500 
 23 C        5.1460     7.1390    -1.7620 C.ar  1 <1>  -0.1500 
 24 C        6.0740     7.0460    -0.7270 C.ar  1 <1>  -0.1440 
 25 C        7.4440     7.6890    -0.8900 C.3   1 <1>  -0.0170 
 26 C        7.3780     9.1860    -0.5790 C.3   1 <1>  -0.2400 
 27 H       -0.7360     1.2460    -1.6600 H     1 <1>   0.0800 
 28 H        0.3430     0.4310    -0.6280 H     1 <1>   0.0800 
 29 H        4.8490     2.5340    -0.8830 H     1 <1>   0.0800 
 30 H        3.8380     3.5140    -1.9150 H     1 <1>   0.0800 
 31 H        4.2610     1.8990    -2.4090 H     1 <1>   0.0800 
 32 H        4.0300     0.5880     0.1110 H     1 <1>   0.0800 
 33 H        3.2680    -0.0180    -1.3440 H     1 <1>   0.0800 
 34 H        2.3380     0.1980     0.1250 H     1 <1>   0.0800 
 35 H       -1.1910     1.4300     0.7550 H     1 <1>   0.0800 
 36 H       -1.7920     3.2810    -1.1710 H     1 <1>   0.0800 
 37 H        1.3360     2.1490     1.3300 H     1 <1>   0.0800 
 38 H       -0.0220     2.7750     2.2470 H     1 <1>   0.0800 
 39 H       -2.2110     3.6220     1.6070 H     1 <1>   0.4000 
 40 H       -1.0380     5.3470     0.5890 H     1 <1>   0.0800 
 41 H       -0.2480     4.9940    -0.9270 H     1 <1>   0.0800 
 42 H        1.7450     5.1490    -1.1490 H     1 <1>   0.4570 
 43 H        2.5050     3.9720     2.6960 H     1 <1>   0.1500 
 44 H        3.1950     6.6480    -2.4310 H     1 <1>   0.1500 
 45 H        4.5990     4.3280     3.7360 H     1 <1>   0.0800 
 46 H        5.3210     5.8600     3.3300 H     1 <1>   0.0800 
 47 H        5.9360     4.3810     2.6210 H     1 <1>   0.0800 
 48 H        6.4670     6.3190     1.2210 H     1 <1>   0.1500 
 49 H        5.4110     7.6630    -2.6660 H     1 <1>   0.1500 
 50 H        8.1520     7.2200    -0.2290 H     1 <1>   0.0800 
 51 H        7.7960     7.5440    -1.8970 H     1 <1>   0.0800 
 52 H        7.0400     9.3410     0.4300 H     1 <1>   0.0800 
 53 H        6.6980     9.6790    -1.2510 H     1 <1>   0.0800 
 54 H        8.3520     9.6300    -0.6890 H     1 <1>   0.0800 
@<TRIPOS>BOND
  1   1   2  2   
  2   1   3  2   
  3   1   4  am  
  4   1   5  1   
  5   4   6  1   
  6   4   7  1   
  7   5   8  1   
  8   5  27  1   
  9   5  28  1   
 10   6  29  1   
 11   6  30  1   
 12   6  31  1   
 13   7  32  1   
 14   7  33  1   
 15   7  34  1   
 16   8   9  1   
 17   8  10  1   
 18   8  35  1   
 19   9  11  1   
 20   9  12  1   
 21   9  36  1   
 22  10  13  1   
 23  10  37  1   
 24  10  38  1   
 25  11  39  1   
 26  12  13  1   
 27  12  40  1   
 28  12  41  1   
 29  13  14  1   
 30  14  15  ar  
 31  14  16  ar  
 32  15  17  ar  
 33  15  42  1   
 34  16  18  ar  
 35  16  43  1   
 36  17  19  ar  
 37  17  20  ar  
 38  18  19  ar  
 39  18  21  1   
 40  19  22  ar  
 41  20  23  ar  
 42  20  44  1   
 43  21  45  1   
 44  21  46  1   
 45  21  47  1   
 46  22  24  ar  
 47  22  48  1   
 48  23  24  ar  
 49  23  49  1   
 50  24  25  1   
 51  25  26  1   
 52  25  50  1   
 53  25  51  1   
 54  26  52  1   
 55  26  53  1   
 56  26  54  1   
@<TRIPOS>SUBSTRUCTURE
  1 ****  15 GROUP 4 **** **** 0

# MOE 2024.06 (io_trps.svl 2023.06)
