@<TRIPOS>MOLECULE
NONAME
50 53 1 0 0 
SMALL
USER_CHARGES


@<TRIPOS>ATOM
  1 S        0.4890     0.7880     2.4590 S.3   1 <1>  -0.0800 
  2 C        0.2140     2.0700     1.2980 C.2   1 <1>  -0.1400 
  3 C        2.2150     1.1180     2.4430 C.2   1 <1>  -0.1100 
  4 C        1.3550     2.6710     0.9370 C.2   1 <1>  -0.1810 
  5 C       -1.1570     2.4280     0.7940 C.3   1 <1>   0.0200 
  6 C        2.5060     2.1290     1.6010 C.2   1 <1>  -0.1500 
  7 C        1.3560     3.8120    -0.0830 C.3   1 <1>   0.4610 
  8 C       -1.0600     3.8320     0.1760 C.3   1 <1>   0.1200 
  9 O        0.0680     3.9450    -0.6590 O.3   1 <1>  -0.5600 
 10 C        2.3040     3.4870    -1.2440 C.3   1 <1>  -0.1600 
 11 C        1.7500     5.1430     0.5740 C.3   1 <1>  -0.1600 
 12 C        2.3860     4.6380    -2.2480 C.3   1 <1>   0.1400 
 13 C        1.8290     6.2750    -0.4510 C.3   1 <1>   0.1400 
 14 N        2.7760     5.8800    -1.5270 N.am  1 <1>  -0.6600 
 15 C        3.9830     6.5150    -1.7470 C.2   1 <1>   0.7160 
 16 O        4.7750     6.0310    -2.5360 O.2   1 <1>  -0.5700 
 17 C        4.3210     7.7330    -1.0390 C.2   1 <1>  -0.0860 
 18 C        3.8310     9.0030    -1.2260 C.2   1 <1>  -0.3320 
 19 C        5.2300     7.8400     0.0260 C.2   1 <1>  -0.1810 
 20 N        4.3950     9.8420    -0.3400 N.pl3 1 <1>   0.0330 
 21 C        2.8170     9.4610    -2.2600 C.3   1 <1>  -0.0600 
 22 C        5.2640     9.1450     0.4590 C.2   1 <1>  -0.2370 
 23 C        6.0170     6.6520     0.5560 C.3   1 <1>  -0.0590 
 24 C        6.0060     9.7660     1.5230 C.2   1 <1>   0.5940 
 25 O        6.6460     9.1640     2.3460 O.2   1 <1>  -0.5700 
 26 C        5.9910    11.2750     1.6470 C.3   1 <1>  -0.1790 
 27 H        2.8370     0.5110     3.0760 H     1 <1>   0.1500 
 28 H       -1.8670     2.4320     1.6010 H     1 <1>   0.0800 
 29 H       -1.4740     1.7150     0.0540 H     1 <1>   0.0800 
 30 H        3.4930     2.5180     1.4180 H     1 <1>   0.1500 
 31 H       -0.9900     4.5760     0.9490 H     1 <1>   0.0800 
 32 H       -1.9320     4.0360    -0.4200 H     1 <1>   0.0800 
 33 H        1.9660     2.5940    -1.7370 H     1 <1>   0.0800 
 34 H        3.2910     3.2970    -0.8690 H     1 <1>   0.0800 
 35 H        2.7130     5.0360     1.0370 H     1 <1>   0.0800 
 36 H        1.0530     5.3940     1.3510 H     1 <1>   0.0800 
 37 H        1.4280     4.7890    -2.7170 H     1 <1>   0.0800 
 38 H        3.0990     4.3990    -3.0190 H     1 <1>   0.0800 
 39 H        2.1450     7.1800     0.0370 H     1 <1>   0.0800 
 40 H        0.8590     6.4500    -0.8840 H     1 <1>   0.0800 
 41 H        4.2070    10.8480    -0.2720 H     1 <1>   0.2700 
 42 H        2.5060     8.6350    -2.8750 H     1 <1>   0.0800 
 43 H        3.2520    10.2110    -2.8970 H     1 <1>   0.0800 
 44 H        1.9490     9.8710    -1.7750 H     1 <1>   0.0800 
 45 H        6.4410     6.1000    -0.2640 H     1 <1>   0.0800 
 46 H        5.3670     6.0030     1.1130 H     1 <1>   0.0800 
 47 H        6.8210     6.9660     1.1940 H     1 <1>   0.0800 
 48 H        6.2690    11.7240     0.7120 H     1 <1>   0.0800 
 49 H        6.6970    11.5830     2.3970 H     1 <1>   0.0800 
 50 H        5.0130    11.6070     1.9380 H     1 <1>   0.0800 
@<TRIPOS>BOND
  1   1   2  1   
  2   1   3  1   
  3   2   4  2   
  4   2   5  1   
  5   3   6  2   
  6   3  27  1   
  7   4   6  1   
  8   4   7  1   
  9   5   8  1   
 10   5  28  1   
 11   5  29  1   
 12   6  30  1   
 13   7   9  1   
 14   7  10  1   
 15   7  11  1   
 16   8   9  1   
 17   8  31  1   
 18   8  32  1   
 19  10  12  1   
 20  10  33  1   
 21  10  34  1   
 22  11  13  1   
 23  11  35  1   
 24  11  36  1   
 25  12  14  1   
 26  12  37  1   
 27  12  38  1   
 28  13  14  1   
 29  13  39  1   
 30  13  40  1   
 31  14  15  am  
 32  15  16  2   
 33  15  17  1   
 34  17  18  2   
 35  17  19  1   
 36  18  20  1   
 37  18  21  1   
 38  19  22  2   
 39  19  23  1   
 40  20  22  1   
 41  20  41  1   
 42  21  42  1   
 43  21  43  1   
 44  21  44  1   
 45  22  24  1   
 46  23  45  1   
 47  23  46  1   
 48  23  47  1   
 49  24  25  2   
 50  24  26  1   
 51  26  48  1   
 52  26  49  1   
 53  26  50  1   
@<TRIPOS>SUBSTRUCTURE
  1 ****  13 GROUP 4 **** **** 0

# MOE 2024.06 (io_trps.svl 2023.06)
