@<TRIPOS>MOLECULE
NONAME
32 33 1 0 0 
SMALL
USER_CHARGES


@<TRIPOS>ATOM
  1 S       -1.5640    -0.4090    -2.0200 S.3   1 <1>  -0.0800 
  2 C       -2.3030    -1.5310    -0.8920 C.2   1 <1>  -0.1100 
  3 C       -2.0830     0.9610    -1.0560 C.2   1 <1>  -0.1100 
  4 C       -2.8940    -0.8750     0.1260 C.2   1 <1>  -0.1810 
  5 C       -2.7630     0.5490     0.0300 C.2   1 <1>  -0.1500 
  6 C       -3.6460    -1.5040     1.2960 C.3   1 <1>   0.0820 
  7 C       -3.8050    -3.0180     1.2020 C.2   1 <1>   0.5690 
  8 O       -3.1460    -3.6910     1.9620 O.2   1 <1>  -0.5700 
  9 N       -4.6750    -3.5920     0.3080 N.am  1 <1>  -0.6600 
 10 C       -4.9060    -5.0790     0.3150 C.3   1 <1>   0.1400 
 11 C       -5.4890    -2.8540    -0.7010 C.3   1 <1>   0.1400 
 12 C       -6.3060    -5.4920    -0.1890 C.3   1 <1>   0.2000 
 13 C       -6.9880    -3.0310    -0.4130 C.3   1 <1>  -0.1600 
 14 O       -6.2850    -5.6590    -1.5650 O.3   1 <1>  -0.6800 
 15 C       -7.3570    -4.4280     0.1520 C.3   1 <1>  -0.1860 
 16 C       -8.7360    -4.8840    -0.2800 C.2   1 <1>   0.9060 
 17 O       -9.6530    -4.8640     0.5430 O.co2 1 <1>  -0.9000 
 18 O       -8.8900    -5.2730    -1.4470 O.co2 1 <1>  -0.9000 
 19 H       -2.2180    -2.5820    -1.1150 H     1 <1>   0.1500 
 20 H       -1.8190     1.9420    -1.4090 H     1 <1>   0.1500 
 21 H       -3.1840     1.1980     0.7780 H     1 <1>   0.1500 
 22 H       -4.6220    -1.0660     1.3760 H     1 <1>   0.0800 
 23 H       -3.1170    -1.2770     2.2030 H     1 <1>   0.0800 
 24 H       -4.1520    -5.5670    -0.2770 H     1 <1>   0.0800 
 25 H       -4.8070    -5.4300     1.3270 H     1 <1>   0.0800 
 26 H       -5.2450    -1.8090    -0.7330 H     1 <1>   0.0800 
 27 H       -5.2680    -3.2640    -1.6720 H     1 <1>   0.0800 
 28 H       -6.5870    -6.4410     0.2360 H     1 <1>   0.0800 
 29 H       -7.3190    -2.2760     0.2780 H     1 <1>   0.0800 
 30 H       -7.5190    -2.8690    -1.3350 H     1 <1>   0.0800 
 31 H       -7.2470    -5.6180    -1.8490 H     1 <1>   0.4000 
 32 H       -7.3830    -4.3500     1.2230 H     1 <1>   0.0800 
@<TRIPOS>BOND
  1   1   2  1   
  2   1   3  1   
  3   2   4  2   
  4   2  19  1   
  5   3   5  2   
  6   3  20  1   
  7   4   5  1   
  8   4   6  1   
  9   5  21  1   
 10   6   7  1   
 11   6  22  1   
 12   6  23  1   
 13   7   8  2   
 14   7   9  am  
 15   9  10  1   
 16   9  11  1   
 17  10  12  1   
 18  10  24  1   
 19  10  25  1   
 20  11  13  1   
 21  11  26  1   
 22  11  27  1   
 23  12  14  1   
 24  12  15  1   
 25  12  28  1   
 26  13  15  1   
 27  13  29  1   
 28  13  30  1   
 29  14  31  1   
 30  15  16  1   
 31  15  32  1   
 32  16  17  ar  
 33  16  18  ar  
@<TRIPOS>SUBSTRUCTURE
  1 ****  11 GROUP 4 **** **** 0

# MOE 2024.06 (io_trps.svl 2023.06)
