@<TRIPOS>MOLECULE
NONAME
55 58 1 0 0 
SMALL
USER_CHARGES


@<TRIPOS>ATOM
  1 O       -0.4900    -1.3680    -1.5260 O.2   1 <1>  -0.5700 
  2 C        0.3420    -1.9810    -0.9100 C.2   1 <1>   0.5690 
  3 N        0.0150    -2.7340     0.1610 N.am  1 <1>  -0.7300 
  4 C        1.8020    -1.9260    -1.3040 C.3   1 <1>  -0.0990 
  5 C        1.0100    -3.5000     0.9400 C.3   1 <1>   0.1400 
  6 C        2.4410    -3.3290    -1.2400 C.3   1 <1>  -0.0800 
  7 C        2.0030    -4.1790    -0.0230 C.3   1 <1>  -0.0800 
  8 C        3.9730    -3.2930    -1.2030 C.3   1 <1>  -0.1600 
  9 C        3.3000    -4.6190     0.6710 C.3   1 <1>  -0.1600 
 10 C        4.3710    -4.5390    -0.4120 C.3   1 <1>   0.2200 
 11 N        5.7400    -4.5000     0.1720 N.am  1 <1>  -0.6600 
 12 C        6.7330    -3.7660    -0.4360 C.2   1 <1>   0.5440 
 13 C        6.1440    -5.7680     0.8380 C.3   1 <1>   0.0600 
 14 O        7.4530    -4.3460    -1.2310 O.2   1 <1>  -0.5700 
 15 C        6.9290    -2.3580    -0.1430 C.ar  1 <1>   0.0860 
 16 C        7.6500    -1.5300    -1.0060 C.ar  1 <1>  -0.1500 
 17 C        6.4080    -1.7620     1.0100 C.ar  1 <1>  -0.1500 
 18 C        7.8320    -0.1870    -0.7420 C.ar  1 <1>  -0.1500 
 19 C        6.5880    -0.4200     1.2750 C.ar  1 <1>  -0.1500 
 20 C        7.3020     0.3950     0.4040 C.ar  1 <1>   0.1000 
 21 N        7.4720     1.7440     0.6820 N.pl3 1 <1>  -0.8380 
 22 C        8.7760     2.4300     0.4860 C.3   1 <1>   0.2090 
 23 C        6.2990     2.6260     0.9130 C.3   1 <1>   0.2090 
 24 C        8.6630     3.4550    -0.6490 C.3   1 <1>  -0.1600 
 25 C        6.1870     3.6460    -0.2250 C.3   1 <1>  -0.1600 
 26 C        7.4950     4.4260    -0.4260 C.3   1 <1>  -0.1600 
 27 H       -0.9660    -2.7530     0.4480 H     1 <1>   0.3700 
 28 H        1.8930    -1.5220    -2.2960 H     1 <1>   0.0800 
 29 H        2.2930    -1.2560    -0.6230 H     1 <1>   0.0800 
 30 H        1.5290    -2.8170     1.5920 H     1 <1>   0.0800 
 31 H        0.5130    -4.2400     1.5440 H     1 <1>   0.0800 
 32 H        2.1380    -3.8650    -2.1250 H     1 <1>   0.0800 
 33 H        1.5210    -5.0630    -0.4070 H     1 <1>   0.0800 
 34 H        4.2890    -2.4110    -0.6770 H     1 <1>   0.0800 
 35 H        4.3960    -3.2970    -2.1930 H     1 <1>   0.0800 
 36 H        3.2120    -5.6120     1.0720 H     1 <1>   0.0800 
 37 H        3.5510    -3.9300     1.4590 H     1 <1>   0.0800 
 38 H        4.2880    -5.3970    -1.0600 H     1 <1>   0.0800 
 39 H        5.5950    -5.8960     1.7540 H     1 <1>   0.0800 
 40 H        7.1960    -5.7440     1.0680 H     1 <1>   0.0800 
 41 H        5.9570    -6.6020     0.1840 H     1 <1>   0.0800 
 42 H        8.0710    -1.9570    -1.9010 H     1 <1>   0.1500 
 43 H        5.8560    -2.3670     1.7060 H     1 <1>   0.1500 
 44 H        8.3820     0.4240    -1.4310 H     1 <1>   0.1500 
 45 H        6.1860     0.0140     2.1710 H     1 <1>   0.1500 
 46 H        9.0450     2.9290     1.4010 H     1 <1>   0.0800 
 47 H        9.5430     1.7090     0.2620 H     1 <1>   0.0800 
 48 H        5.3990     2.0380     0.9590 H     1 <1>   0.0800 
 49 H        6.4230     3.1340     1.8540 H     1 <1>   0.0800 
 50 H        9.5830     4.0040    -0.7230 H     1 <1>   0.0800 
 51 H        8.5200     2.9270    -1.5760 H     1 <1>   0.0800 
 52 H        5.9380     3.1190    -1.1290 H     1 <1>   0.0800 
 53 H        5.3850     4.3290    -0.0110 H     1 <1>   0.0800 
 54 H        7.4000     5.0840    -1.2730 H     1 <1>   0.0800 
 55 H        7.6900     5.0280     0.4450 H     1 <1>   0.0800 
@<TRIPOS>BOND
  1   1   2  2   
  2   2   3  am  
  3   2   4  1   
  4   3   5  1   
  5   3  27  1   
  6   4   6  1   
  7   4  28  1   
  8   4  29  1   
  9   5   7  1   
 10   5  30  1   
 11   5  31  1   
 12   6   7  1   
 13   6   8  1   
 14   6  32  1   
 15   7   9  1   
 16   7  33  1   
 17   8  10  1   
 18   8  34  1   
 19   8  35  1   
 20   9  10  1   
 21   9  36  1   
 22   9  37  1   
 23  10  11  1   
 24  10  38  1   
 25  11  12  am  
 26  11  13  1   
 27  12  14  2   
 28  12  15  1   
 29  13  39  1   
 30  13  40  1   
 31  13  41  1   
 32  15  16  ar  
 33  15  17  ar  
 34  16  18  ar  
 35  16  42  1   
 36  17  19  ar  
 37  17  43  1   
 38  18  20  ar  
 39  18  44  1   
 40  19  20  ar  
 41  19  45  1   
 42  20  21  1   
 43  21  22  1   
 44  21  23  1   
 45  22  24  1   
 46  22  46  1   
 47  22  47  1   
 48  23  25  1   
 49  23  48  1   
 50  23  49  1   
 51  24  26  1   
 52  24  50  1   
 53  24  51  1   
 54  25  26  1   
 55  25  52  1   
 56  25  53  1   
 57  26  54  1   
 58  26  55  1   
@<TRIPOS>SUBSTRUCTURE
  1 ****  17 GROUP 4 **** **** 0

# MOE 2024.06 (io_trps.svl 2023.06)
