@<TRIPOS>MOLECULE
NONAME
46 49 1 0 0 
SMALL
USER_CHARGES


@<TRIPOS>ATOM
  1 S        0.7210     1.2620     1.2200 S.3   1 <1>  -0.0800 
  2 C        2.1830     2.2440     1.0990 C.ar  1 <1>   0.0400 
  3 C        1.1310     0.3230    -0.2350 C.2   1 <1>  -0.0450 
  4 C        2.9190     1.8550    -0.0080 C.ar  1 <1>   0.0000 
  5 C        2.5740     3.2570     1.9540 C.ar  1 <1>  -0.1500 
  6 C        0.2390    -0.7120    -0.7030 C.2   1 <1>   0.7150 
  7 C        2.3030     0.7860    -0.7340 C.2   1 <1>  -0.1500 
  8 C        4.1140     2.5240    -0.2640 C.ar  1 <1>  -0.1500 
  9 C        3.7640     3.9090     1.6830 C.ar  1 <1>  -0.1500 
 10 O        0.3180    -1.0820    -1.8610 O.2   1 <1>  -0.5700 
 11 N       -0.6860    -1.3200     0.1220 N.am  1 <1>  -0.6600 
 12 C        4.5280     3.5420     0.5780 C.ar  1 <1>  -0.1500 
 13 C       -1.9450    -1.8800    -0.4540 C.3   1 <1>   0.2200 
 14 C       -0.2420    -1.8600     1.4420 C.3   1 <1>   0.0600 
 15 C       -2.9910    -2.2470     0.6010 C.3   1 <1>  -0.1600 
 16 C       -2.6830    -0.8550    -1.3150 C.3   1 <1>  -0.1600 
 17 C       -4.3290    -2.2650    -0.1490 C.3   1 <1>  -0.0800 
 18 C       -4.1340    -1.3440    -1.3730 C.3   1 <1>  -0.0800 
 19 C       -5.5250    -1.9050     0.7540 C.3   1 <1>   0.1400 
 20 C       -5.1580    -0.1980    -1.4590 C.3   1 <1>  -0.0990 
 21 N       -6.7000    -1.5390    -0.0750 N.am  1 <1>  -0.6600 
 22 C       -6.5530    -0.7060    -1.1510 C.2   1 <1>   0.5690 
 23 C       -8.0200    -2.0740     0.3520 C.3   1 <1>   0.0600 
 24 O       -7.4720    -0.3580    -1.8520 O.2   1 <1>  -0.5700 
 25 H        1.9670     3.5220     2.8010 H     1 <1>   0.1500 
 26 H        2.7690     0.3980    -1.6230 H     1 <1>   0.1500 
 27 H        4.7060     2.2440    -1.1170 H     1 <1>   0.1500 
 28 H        4.1020     4.7030     2.3270 H     1 <1>   0.1500 
 29 H        5.4510     4.0580     0.3790 H     1 <1>   0.1500 
 30 H       -1.7120    -2.7480    -1.0510 H     1 <1>   0.0800 
 31 H       -0.7970    -1.3900     2.2350 H     1 <1>   0.0800 
 32 H        0.8060    -1.6700     1.5960 H     1 <1>   0.0800 
 33 H       -0.3980    -2.9240     1.4760 H     1 <1>   0.0800 
 34 H       -2.7870    -3.2010     1.0540 H     1 <1>   0.0800 
 35 H       -3.0150    -1.4790     1.3540 H     1 <1>   0.0800 
 36 H       -2.6340     0.1070    -0.8350 H     1 <1>   0.0800 
 37 H       -2.2590    -0.7850    -2.3020 H     1 <1>   0.0800 
 38 H       -4.4900    -3.2640    -0.5180 H     1 <1>   0.0800 
 39 H       -4.2510    -1.9550    -2.2530 H     1 <1>   0.0800 
 40 H       -5.2790    -1.0630     1.3780 H     1 <1>   0.0800 
 41 H       -5.7630    -2.7400     1.3900 H     1 <1>   0.0800 
 42 H       -5.1420     0.2380    -2.4410 H     1 <1>   0.0800 
 43 H       -4.9270     0.5700    -0.7450 H     1 <1>   0.0800 
 44 H       -8.2380    -1.7480     1.3530 H     1 <1>   0.0800 
 45 H       -8.0030    -3.1490     0.3200 H     1 <1>   0.0800 
 46 H       -8.7990    -1.7220    -0.3020 H     1 <1>   0.0800 
@<TRIPOS>BOND
  1   1   2  1   
  2   1   3  1   
  3   2   4  ar  
  4   2   5  ar  
  5   3   6  1   
  6   3   7  2   
  7   4   7  1   
  8   4   8  ar  
  9   5   9  ar  
 10   5  25  1   
 11   6  10  2   
 12   6  11  am  
 13   7  26  1   
 14   8  12  ar  
 15   8  27  1   
 16   9  12  ar  
 17   9  28  1   
 18  11  13  1   
 19  11  14  1   
 20  12  29  1   
 21  13  15  1   
 22  13  16  1   
 23  13  30  1   
 24  14  31  1   
 25  14  32  1   
 26  14  33  1   
 27  15  17  1   
 28  15  34  1   
 29  15  35  1   
 30  16  18  1   
 31  16  36  1   
 32  16  37  1   
 33  17  18  1   
 34  17  19  1   
 35  17  38  1   
 36  18  20  1   
 37  18  39  1   
 38  19  21  1   
 39  19  40  1   
 40  19  41  1   
 41  20  22  1   
 42  20  42  1   
 43  20  43  1   
 44  21  22  am  
 45  21  23  1   
 46  22  24  2   
 47  23  44  1   
 48  23  45  1   
 49  23  46  1   
@<TRIPOS>SUBSTRUCTURE
  1 ****  11 GROUP 4 **** **** 0

# MOE 2024.06 (io_trps.svl 2023.06)
