@<TRIPOS>MOLECULE
NONAME
47 50 1 0 0 
SMALL
USER_CHARGES


@<TRIPOS>ATOM
  1 O       -2.1470     0.8200    -1.8690 O.2   1 <1>  -0.5700 
  2 C       -1.9780     0.9260    -0.6690 C.2   1 <1>   0.5440 
  3 N       -2.0940    -0.2000     0.0940 N.am  1 <1>  -0.7300 
  4 C       -1.6590     2.2090    -0.0670 C.ar  1 <1>   0.0860 
  5 C       -2.4230    -1.5480    -0.4220 C.3   1 <1>   0.2200 
  6 C       -1.0770     3.2290    -0.8250 C.ar  1 <1>  -0.1500 
  7 C       -1.9140     2.4820     1.2800 C.ar  1 <1>  -0.1500 
  8 C       -3.8930    -1.8300    -0.1690 C.3   1 <1>  -0.0800 
  9 C       -1.7490    -2.6070     0.4430 C.3   1 <1>   0.1200 
 10 C       -0.7530     4.4580    -0.2780 C.ar  1 <1>  -0.1430 
 11 C       -1.5950     3.7050     1.8400 C.ar  1 <1>  -0.1500 
 12 C       -3.8810    -2.3360     1.2780 C.3   1 <1>   0.1200 
 13 C       -4.4440    -2.8790    -1.1530 C.3   1 <1>  -0.0160 
 14 O       -2.5870    -2.7960     1.5450 O.3   1 <1>  -0.5600 
 15 C       -1.0170     4.6960     1.0670 C.ar  1 <1>   0.0820 
 16 C       -0.1140     5.5340    -1.1410 C.3   1 <1>  -0.0170 
 17 C       -5.9260    -3.1330    -0.9210 C.ar  1 <1>  -0.1430 
 18 O       -0.7190     5.8740     1.6590 O.3   1 <1>  -0.3630 
 19 C        0.5640     6.5860    -0.2600 C.3   1 <1>  -0.1600 
 20 C       -6.8850    -2.2220    -1.3150 C.ar  1 <1>  -0.1500 
 21 C       -6.3900    -4.2800    -0.3090 C.ar  1 <1>  -0.1500 
 22 C       -0.3780     6.9990     0.8740 C.3   1 <1>   0.1200 
 23 C       -8.2230    -2.4910    -1.0800 C.ar  1 <1>   0.1600 
 24 C       -7.7510    -4.4520    -0.1200 C.ar  1 <1>   0.1600 
 25 N       -8.6790    -3.5840    -0.4890 N.ar  1 <1>  -0.6200 
 26 H       -1.9310    -0.1630     1.1010 H     1 <1>   0.3700 
 27 H       -2.1430    -1.6310    -1.4600 H     1 <1>   0.0800 
 28 H       -0.8790     3.0410    -1.8670 H     1 <1>   0.1500 
 29 H       -2.3740     1.7350     1.9010 H     1 <1>   0.1500 
 30 H       -4.4800    -0.9330    -0.2600 H     1 <1>   0.0800 
 31 H       -0.7710    -2.3100     0.7770 H     1 <1>   0.0800 
 32 H       -1.6860    -3.5430    -0.0820 H     1 <1>   0.0800 
 33 H       -1.7930     3.9050     2.8780 H     1 <1>   0.1500 
 34 H       -4.5790    -3.1350     1.4530 H     1 <1>   0.0800 
 35 H       -4.0850    -1.5300     1.9610 H     1 <1>   0.0800 
 36 H       -3.9010    -3.8030    -1.0590 H     1 <1>   0.0800 
 37 H       -4.3110    -2.5260    -2.1610 H     1 <1>   0.0800 
 38 H        0.6100     5.0970    -1.8070 H     1 <1>   0.0800 
 39 H       -0.8820     5.9990    -1.7330 H     1 <1>   0.0800 
 40 H        0.8260     7.4450    -0.8510 H     1 <1>   0.0800 
 41 H        1.4670     6.1830     0.1660 H     1 <1>   0.0800 
 42 H       -6.6050    -1.3060    -1.8030 H     1 <1>   0.1500 
 43 H       -5.7080    -5.0400     0.0250 H     1 <1>   0.1500 
 44 H       -1.2900     7.4130     0.4820 H     1 <1>   0.0800 
 45 H        0.0900     7.7190     1.5210 H     1 <1>   0.0800 
 46 H       -8.9570    -1.7690    -1.3930 H     1 <1>   0.1500 
 47 H       -8.0950    -5.3520     0.3600 H     1 <1>   0.1500 
@<TRIPOS>BOND
  1   1   2  2   
  2   2   3  am  
  3   2   4  1   
  4   3   5  1   
  5   3  26  1   
  6   4   6  ar  
  7   4   7  ar  
  8   5   8  1   
  9   5   9  1   
 10   5  27  1   
 11   6  10  ar  
 12   6  28  1   
 13   7  11  ar  
 14   7  29  1   
 15   8  12  1   
 16   8  13  1   
 17   8  30  1   
 18   9  14  1   
 19   9  31  1   
 20   9  32  1   
 21  10  15  ar  
 22  10  16  1   
 23  11  15  ar  
 24  11  33  1   
 25  12  14  1   
 26  12  34  1   
 27  12  35  1   
 28  13  17  1   
 29  13  36  1   
 30  13  37  1   
 31  15  18  1   
 32  16  19  1   
 33  16  38  1   
 34  16  39  1   
 35  17  20  ar  
 36  17  21  ar  
 37  18  22  1   
 38  19  22  1   
 39  19  40  1   
 40  19  41  1   
 41  20  23  ar  
 42  20  42  1   
 43  21  24  ar  
 44  21  43  1   
 45  22  44  1   
 46  22  45  1   
 47  23  25  ar  
 48  23  46  1   
 49  24  25  ar  
 50  24  47  1   
@<TRIPOS>SUBSTRUCTURE
  1 ****   3 GROUP 4 **** **** 0

# MOE 2024.06 (io_trps.svl 2023.06)
