@<TRIPOS>MOLECULE
NONAME
50 52 1 0 0 
SMALL
USER_CHARGES


@<TRIPOS>ATOM
  1 O       -5.6670    -3.2400    -0.1220 O.co2 1 <1>  -0.9000 
  2 C       -5.4900    -2.3880    -1.0080 C.2   1 <1>   0.9060 
  3 O       -6.1470    -2.4930    -2.0480 O.co2 1 <1>  -0.9000 
  4 C       -4.5820    -1.1730    -0.7640 C.3   1 <1>   0.0140 
  5 O       -5.2320    -0.0130    -0.2000 O.3   1 <1>  -0.3630 
  6 C       -5.9410    -0.2430     0.9330 C.ar  1 <1>   0.0830 
  7 C       -5.4680     0.0070     2.2290 C.ar  1 <1>   0.0820 
  8 C       -7.1510    -0.8840     0.7600 C.ar  1 <1>  -0.1500 
  9 O       -4.3520     0.7210     2.5500 O.3   1 <1>  -0.3630 
 10 C       -6.1710    -0.5230     3.3020 C.ar  1 <1>  -0.1500 
 11 C       -7.7810    -1.5070     1.8190 C.ar  1 <1>  -0.1440 
 12 C       -3.7360     1.5740     1.6120 C.3   1 <1>   0.0400 
 13 C       -7.3020    -1.3010     3.1040 C.ar  1 <1>  -0.1500 
 14 C       -8.8900    -2.4840     1.5000 C.3   1 <1>   0.4860 
 15 N       -8.3340    -3.4690     0.5320 N.4   1 <1>  -0.9590 
 16 C       -8.8910    -3.3940    -0.8520 C.3   1 <1>   0.3430 
 17 C       -8.2940    -4.8870     0.9570 C.3   1 <1>   0.3430 
 18 C       -9.2780    -4.8220    -1.2410 C.3   1 <1>   0.2000 
 19 C       -8.4470    -5.7140    -0.3230 C.3   1 <1>  -0.0800 
 20 O      -10.6270    -5.0270    -0.9590 O.3   1 <1>  -0.6800 
 21 C       -7.0790    -6.0570    -0.9500 C.3   1 <1>  -0.0170 
 22 C       -6.1570    -6.7590     0.0390 C.ar  1 <1>   0.1670 
 23 N       -6.6630    -7.8150     0.6620 N.ar  1 <1>  -0.6200 
 24 C       -4.8600    -6.2900     0.2510 C.ar  1 <1>   0.1600 
 25 C       -5.7890    -8.3760     1.4810 C.ar  1 <1>   0.1600 
 26 N       -3.9880    -6.8530     1.0750 N.ar  1 <1>  -0.6200 
 27 C       -4.4950    -7.9110     1.6790 C.ar  1 <1>   0.1600 
 28 H       -4.1510    -0.8770    -1.7000 H     1 <1>   0.0800 
 29 H       -3.7980    -1.4650    -0.0920 H     1 <1>   0.0800 
 30 H       -7.5340    -0.9680    -0.2420 H     1 <1>   0.1500 
 31 H       -5.8060    -0.3420     4.2960 H     1 <1>   0.1500 
 32 H       -3.0410     2.2030     2.1370 H     1 <1>   0.0800 
 33 H       -4.4900     2.1750     1.1350 H     1 <1>   0.0800 
 34 H       -3.2110     0.9750     0.8900 H     1 <1>   0.0800 
 35 H       -7.7840    -1.7500     3.9540 H     1 <1>   0.1500 
 36 H       -9.7270    -1.9610     1.0700 H     1 <1>   0.0800 
 37 H       -9.2070    -2.9810     2.4010 H     1 <1>   0.0800 
 38 H       -7.3120    -3.2190     0.4030 H     1 <1>   0.4500 
 39 H       -9.7430    -2.7400    -0.9160 H     1 <1>   0.0800 
 40 H       -8.1300    -3.0420    -1.5240 H     1 <1>   0.0800 
 41 H       -7.3690    -5.1100     1.4660 H     1 <1>   0.0800 
 42 H       -9.1190    -5.0950     1.6170 H     1 <1>   0.0800 
 43 H       -9.1210    -5.0110    -2.2900 H     1 <1>   0.0800 
 44 H       -8.9570    -6.6390    -0.1140 H     1 <1>   0.0800 
 45 H      -10.7900    -5.0940    -0.0010 H     1 <1>   0.4000 
 46 H       -6.6030    -5.1720    -1.3310 H     1 <1>   0.0800 
 47 H       -7.2320    -6.7150    -1.7860 H     1 <1>   0.0800 
 48 H       -4.5300    -5.4150    -0.2830 H     1 <1>   0.1500 
 49 H       -6.1100    -9.2480     2.0220 H     1 <1>   0.1500 
 50 H       -3.8560    -8.4360     2.3660 H     1 <1>   0.1500 
@<TRIPOS>BOND
  1   1   2  ar  
  2   2   3  ar  
  3   2   4  1   
  4   4   5  1   
  5   4  28  1   
  6   4  29  1   
  7   5   6  1   
  8   6   7  ar  
  9   6   8  ar  
 10   7   9  1   
 11   7  10  ar  
 12   8  11  ar  
 13   8  30  1   
 14   9  12  1   
 15  10  13  ar  
 16  10  31  1   
 17  11  13  ar  
 18  11  14  1   
 19  12  32  1   
 20  12  33  1   
 21  12  34  1   
 22  13  35  1   
 23  14  15  1   
 24  14  36  1   
 25  14  37  1   
 26  15  16  1   
 27  15  17  1   
 28  15  38  1   
 29  16  18  1   
 30  16  39  1   
 31  16  40  1   
 32  17  19  1   
 33  17  41  1   
 34  17  42  1   
 35  18  19  1   
 36  18  20  1   
 37  18  43  1   
 38  19  21  1   
 39  19  44  1   
 40  20  45  1   
 41  21  22  1   
 42  21  46  1   
 43  21  47  1   
 44  22  23  ar  
 45  22  24  ar  
 46  23  25  ar  
 47  24  26  ar  
 48  24  48  1   
 49  25  27  ar  
 50  25  49  1   
 51  26  27  ar  
 52  27  50  1   
@<TRIPOS>SUBSTRUCTURE
  1 ****   1 GROUP 4 **** **** 0

# MOE 2024.06 (io_trps.svl 2023.06)
