@<TRIPOS>MOLECULE
NONAME
44 47 1 0 0 
SMALL
USER_CHARGES


@<TRIPOS>ATOM
  1 CL      -1.6670    -0.6780     1.6500 Cl    1 <1>  -0.1770 
  2 C       -2.3630     0.4930     0.5550 C.ar  1 <1>   0.1770 
  3 C       -3.1400     0.0830    -0.5350 C.ar  1 <1>   0.0860 
  4 C       -2.1000     1.8280     0.8220 C.ar  1 <1>  -0.1500 
  5 C       -3.4450    -1.3050    -0.8180 C.2   1 <1>   0.5440 
  6 C       -3.6320     1.0850    -1.3740 C.ar  1 <1>  -0.1500 
  7 C       -2.6090     2.8070    -0.0130 C.ar  1 <1>  -0.1500 
  8 O       -3.4070    -1.7120    -1.9620 O.2   1 <1>  -0.5700 
  9 N       -3.8820    -2.1880     0.1420 N.am  1 <1>  -0.6600 
 10 C       -3.3650     2.4100    -1.0980 C.ar  1 <1>   0.1900 
 11 C       -4.8900    -1.8110     1.1730 C.3   1 <1>   0.1400 
 12 C       -3.7770    -3.6590    -0.0830 C.3   1 <1>   0.1400 
 13 F       -3.8490     3.3250    -1.8920 F     1 <1>  -0.1900 
 14 C       -6.2820    -2.3880     0.8140 C.3   1 <1>   0.4230 
 15 C       -5.1480    -4.2210    -0.4900 C.3   1 <1>   0.3430 
 16 N       -6.2270    -3.8790     0.5180 N.4   1 <1>  -0.9590 
 17 C       -6.9010    -1.6140    -0.3760 C.3   1 <1>   0.1200 
 18 C       -7.5880    -4.3480     0.0960 C.3   1 <1>   0.5180 
 19 O       -8.1630    -2.1310    -0.6880 O.3   1 <1>  -0.5600 
 20 C       -7.5400    -5.8370    -0.2650 C.3   1 <1>  -0.1950 
 21 C       -8.1710    -3.4860    -1.0470 C.3   1 <1>   0.1200 
 22 C       -8.6710    -6.7400     0.1200 C.3   1 <1>  -0.2000 
 23 C       -7.3300    -6.8950     0.7770 C.3   1 <1>  -0.2000 
 24 H       -1.4970     2.0950     1.6730 H     1 <1>   0.1500 
 25 H       -4.2160     0.8300    -2.2410 H     1 <1>   0.1500 
 26 H       -2.4240     3.8520     0.1670 H     1 <1>   0.1500 
 27 H       -4.5750    -2.1910     2.1290 H     1 <1>   0.0800 
 28 H       -4.9560    -0.7400     1.2600 H     1 <1>   0.0800 
 29 H       -3.0590    -3.8650    -0.8610 H     1 <1>   0.0800 
 30 H       -3.4270    -4.1380     0.8140 H     1 <1>   0.0800 
 31 H       -6.9280    -2.2230     1.6600 H     1 <1>   0.0800 
 32 H       -5.0670    -5.2900    -0.5960 H     1 <1>   0.0800 
 33 H       -5.4030    -3.8110    -1.4540 H     1 <1>   0.0800 
 34 H       -6.0030    -4.3750     1.3860 H     1 <1>   0.4500 
 35 H       -6.2770    -1.6690    -1.2520 H     1 <1>   0.0800 
 36 H       -7.0320    -0.5780    -0.1180 H     1 <1>   0.0800 
 37 H       -8.2550    -4.2440     0.9370 H     1 <1>   0.0800 
 38 H       -7.1390    -6.0130    -1.2500 H     1 <1>   0.1000 
 39 H       -9.1920    -3.7680    -1.2340 H     1 <1>   0.0800 
 40 H       -7.6110    -3.6080    -1.9570 H     1 <1>   0.0800 
 41 H       -9.4880    -6.3680     0.7160 H     1 <1>   0.1000 
 42 H       -8.9900    -7.5060    -0.5690 H     1 <1>   0.1000 
 43 H       -6.7500    -7.7700     0.5340 H     1 <1>   0.1000 
 44 H       -7.2640    -6.6420     1.8220 H     1 <1>   0.1000 
@<TRIPOS>BOND
  1   1   2  1   
  2   2   3  ar  
  3   2   4  ar  
  4   3   5  1   
  5   3   6  ar  
  6   4   7  ar  
  7   4  24  1   
  8   5   8  2   
  9   5   9  am  
 10   6  10  ar  
 11   6  25  1   
 12   7  10  ar  
 13   7  26  1   
 14   9  11  1   
 15   9  12  1   
 16  10  13  1   
 17  11  14  1   
 18  11  27  1   
 19  11  28  1   
 20  12  15  1   
 21  12  29  1   
 22  12  30  1   
 23  14  16  1   
 24  14  17  1   
 25  14  31  1   
 26  15  16  1   
 27  15  32  1   
 28  15  33  1   
 29  16  18  1   
 30  16  34  1   
 31  17  19  1   
 32  17  35  1   
 33  17  36  1   
 34  18  20  1   
 35  18  21  1   
 36  18  37  1   
 37  19  21  1   
 38  20  22  1   
 39  20  23  1   
 40  20  38  1   
 41  21  39  1   
 42  21  40  1   
 43  22  23  1   
 44  22  41  1   
 45  22  42  1   
 46  23  43  1   
 47  23  44  1   
@<TRIPOS>SUBSTRUCTURE
  1 ****   9 GROUP 4 **** **** 0

# MOE 2024.06 (io_trps.svl 2023.06)
