@<TRIPOS>MOLECULE
NONAME
57 59 1 0 0 
SMALL
USER_CHARGES


@<TRIPOS>ATOM
  1 O       -0.4310     2.8370     2.7210 O.2   1 <1>  -0.5700 
  2 C       -0.5150     3.1760     1.5640 C.2   1 <1>   0.5690 
  3 N       -1.7090     3.1650     0.8870 N.am  1 <1>  -0.6600 
  4 C        0.7730     3.6030     0.8870 C.3   1 <1>  -0.0990 
  5 C       -1.8370     3.4620    -0.5700 C.3   1 <1>   0.1400 
  6 C       -2.9740     2.8580     1.6160 C.3   1 <1>   0.1400 
  7 C        1.5310     2.3870     0.3460 C.3   1 <1>   0.0200 
  8 C       -3.1360     2.8770    -1.1230 C.3   1 <1>  -0.1600 
  9 C       -4.1350     3.6910     1.0640 C.3   1 <1>  -0.1600 
 10 C        2.8120     2.8210    -0.3480 C.2   1 <1>  -0.3320 
 11 C       -4.3760     3.5260    -0.4620 C.3   1 <1>   0.2800 
 12 N        3.9400     3.2320     0.2760 N.pl3 1 <1>   0.3140 
 13 C        3.0610     2.8740    -1.6740 C.2   1 <1>  -0.1500 
 14 O       -4.4530     4.8460    -0.9580 O.3   1 <1>  -0.5600 
 15 C       -5.7140     2.7440    -0.7390 C.3   1 <1>   0.2000 
 16 N        4.8980     3.5540    -0.6100 N.2   1 <1>  -0.7070 
 17 C        4.1900     3.3400     1.7210 C.3   1 <1>   0.0160 
 18 C        4.3670     3.3350    -1.7720 C.2   1 <1>   0.1390 
 19 C       -5.1250     5.0710    -2.1590 C.3   1 <1>   0.1200 
 20 O       -5.6110     1.9340    -1.8830 O.3   1 <1>  -0.6800 
 21 C       -6.9270     3.7100    -0.8990 C.3   1 <1>   0.3000 
 22 C       -6.6160     4.7190    -2.0250 C.3   1 <1>  -0.1600 
 23 N       -7.1170     4.5180     0.3300 N.am  1 <1>  -0.7300 
 24 C       -8.2380     2.9810    -1.2400 C.3   1 <1>  -0.2400 
 25 C       -7.6340     4.2860     1.5590 C.2   1 <1>   0.5690 
 26 O       -7.5260     5.1340     2.4040 O.2   1 <1>  -0.5700 
 27 C       -8.3100     2.9930     1.9400 C.3   1 <1>  -0.1790 
 28 H        0.5780     4.3040     0.0990 H     1 <1>   0.0800 
 29 H        1.3770     4.1080     1.6170 H     1 <1>   0.0800 
 30 H       -1.8300     4.5290    -0.7150 H     1 <1>   0.0800 
 31 H       -1.0060     3.0370    -1.1050 H     1 <1>   0.0800 
 32 H       -3.1900     1.8080     1.5140 H     1 <1>   0.0800 
 33 H       -2.8550     3.0720     2.6650 H     1 <1>   0.0800 
 34 H        0.9090     1.8630    -0.3580 H     1 <1>   0.0800 
 35 H        1.7560     1.7050     1.1480 H     1 <1>   0.0800 
 36 H       -3.1330     1.8160    -0.9410 H     1 <1>   0.0800 
 37 H       -3.1600     3.0110    -2.1880 H     1 <1>   0.0800 
 38 H       -3.9280     4.7220     1.2950 H     1 <1>   0.0800 
 39 H       -5.0110     3.4220     1.6210 H     1 <1>   0.0800 
 40 H        2.4190     2.6240    -2.4990 H     1 <1>   0.1500 
 41 H       -5.9040     2.0630     0.0700 H     1 <1>   0.0800 
 42 H        3.7360     2.5110     2.2280 H     1 <1>   0.0800 
 43 H        3.7770     4.2630     2.0800 H     1 <1>   0.0800 
 44 H        5.2500     3.3300     1.8930 H     1 <1>   0.0800 
 45 H        4.8890     3.4970    -2.7000 H     1 <1>   0.1500 
 46 H       -5.0080     6.1110    -2.4090 H     1 <1>   0.0800 
 47 H       -4.6560     4.4840    -2.9280 H     1 <1>   0.0800 
 48 H       -5.4000     2.4810    -2.6630 H     1 <1>   0.4000 
 49 H       -7.1890     5.6180    -1.8840 H     1 <1>   0.0800 
 50 H       -6.9230     4.3190    -2.9740 H     1 <1>   0.0800 
 51 H       -6.5820     5.3900     0.2850 H     1 <1>   0.3700 
 52 H       -8.1990     2.5810    -2.2380 H     1 <1>   0.0800 
 53 H       -9.0730     3.6560    -1.1830 H     1 <1>   0.0800 
 54 H       -8.4000     2.1460    -0.5870 H     1 <1>   0.0800 
 55 H       -7.7080     2.1550     1.6500 H     1 <1>   0.0800 
 56 H       -9.2750     2.9380     1.4720 H     1 <1>   0.0800 
 57 H       -8.4470     2.9620     3.0050 H     1 <1>   0.0800 
@<TRIPOS>BOND
  1   1   2  2   
  2   2   3  am  
  3   2   4  1   
  4   3   5  1   
  5   3   6  1   
  6   4   7  1   
  7   4  28  1   
  8   4  29  1   
  9   5   8  1   
 10   5  30  1   
 11   5  31  1   
 12   6   9  1   
 13   6  32  1   
 14   6  33  1   
 15   7  10  1   
 16   7  34  1   
 17   7  35  1   
 18   8  11  1   
 19   8  36  1   
 20   8  37  1   
 21   9  11  1   
 22   9  38  1   
 23   9  39  1   
 24  10  12  1   
 25  10  13  2   
 26  11  14  1   
 27  11  15  1   
 28  12  16  1   
 29  12  17  1   
 30  13  18  1   
 31  13  40  1   
 32  14  19  1   
 33  15  20  1   
 34  15  21  1   
 35  15  41  1   
 36  16  18  2   
 37  17  42  1   
 38  17  43  1   
 39  17  44  1   
 40  18  45  1   
 41  19  22  1   
 42  19  46  1   
 43  19  47  1   
 44  20  48  1   
 45  21  22  1   
 46  21  23  1   
 47  21  24  1   
 48  22  49  1   
 49  22  50  1   
 50  23  25  am  
 51  23  51  1   
 52  24  52  1   
 53  24  53  1   
 54  24  54  1   
 55  25  26  2   
 56  25  27  1   
 57  27  55  1   
 58  27  56  1   
 59  27  57  1   
@<TRIPOS>SUBSTRUCTURE
  1 ****   5 GROUP 4 **** **** 0

# MOE 2024.06 (io_trps.svl 2023.06)
