@<TRIPOS>MOLECULE
NONAME
52 54 1 0 0 
SMALL
USER_CHARGES


@<TRIPOS>ATOM
  1 O       -0.4790     0.5670    -0.1290 O.3   1 <1>  -0.3630 
  2 C        0.1020     1.7590    -0.4310 C.ar  1 <1>   0.0820 
  3 C       -1.4840     0.0030    -0.9330 C.3   1 <1>   0.1200 
  4 C        0.9980     2.3070     0.4900 C.ar  1 <1>  -0.1440 
  5 C       -0.1790     2.4380    -1.6150 C.ar  1 <1>  -0.1500 
  6 C       -1.9530    -1.2740    -0.2330 C.3   1 <1>   0.3430 
  7 C        1.5870     3.5410     0.2220 C.ar  1 <1>  -0.1440 
  8 C        1.3290     1.5700     1.7890 C.3   1 <1>  -0.0970 
  9 C        0.4180     3.6550    -1.8760 C.ar  1 <1>  -0.1500 
 10 N       -3.0180    -2.0070    -1.0050 N.4   1 <1>  -0.9590 
 11 C        1.2940     4.2030    -0.9600 C.ar  1 <1>  -0.1500 
 12 C        2.5550     4.2030     1.1950 C.3   1 <1>  -0.0970 
 13 C       -4.3850    -1.7650    -0.4540 C.3   1 <1>   0.4230 
 14 C       -2.6880    -3.4700    -1.0220 C.3   1 <1>   0.2630 
 15 C       -5.4640    -2.4910    -1.2570 C.3   1 <1>  -0.1600 
 16 C       -4.7980    -0.2980    -0.5400 C.3   1 <1>  -0.1600 
 17 C       -6.7570    -1.7100    -0.9920 C.3   1 <1>  -0.0800 
 18 C       -6.3310    -0.3120    -0.5190 C.3   1 <1>  -0.0800 
 19 C       -7.6210    -2.3040     0.1310 C.3   1 <1>  -0.1600 
 20 C       -6.9350    -0.1250     0.8800 C.3   1 <1>  -0.1600 
 21 C       -8.1050    -1.0950     0.9170 C.3   1 <1>   0.2000 
 22 O       -8.3970    -1.4490     2.2140 O.3   1 <1>  -0.6800 
 23 H       -2.2770     0.7230    -1.0190 H     1 <1>   0.0800 
 24 H       -1.0530    -0.2190    -1.8940 H     1 <1>   0.0800 
 25 H       -0.8510     2.0460    -2.3520 H     1 <1>   0.1500 
 26 H       -2.3200    -1.0230     0.7490 H     1 <1>   0.0800 
 27 H       -1.0930    -1.9120    -0.1140 H     1 <1>   0.0800 
 28 H        2.3800     1.6320     2.0020 H     1 <1>   0.0800 
 29 H        1.0820     0.5260     1.7350 H     1 <1>   0.0800 
 30 H        0.7820     2.0090     2.6030 H     1 <1>   0.0800 
 31 H        0.2040     4.1800    -2.7900 H     1 <1>   0.1500 
 32 H       -3.0150    -1.6700    -1.9770 H     1 <1>   0.4500 
 33 H        1.7480     5.1530    -1.1760 H     1 <1>   0.1500 
 34 H        2.7740     5.2120     0.8960 H     1 <1>   0.0800 
 35 H        3.4780     3.6520     1.2250 H     1 <1>   0.0800 
 36 H        2.1290     4.2340     2.1810 H     1 <1>   0.0800 
 37 H       -4.4420    -2.0840     0.5750 H     1 <1>   0.0800 
 38 H       -2.7180    -3.8730    -0.0220 H     1 <1>   0.0800 
 39 H       -1.7010    -3.6260    -1.4270 H     1 <1>   0.0800 
 40 H       -3.3940    -4.0100    -1.6320 H     1 <1>   0.0800 
 41 H       -5.2430    -2.4290    -2.3090 H     1 <1>   0.0800 
 42 H       -5.5610    -3.5240    -0.9730 H     1 <1>   0.0800 
 43 H       -4.3970     0.2910     0.2660 H     1 <1>   0.0800 
 44 H       -4.4860     0.1170    -1.4820 H     1 <1>   0.0800 
 45 H       -7.3470    -1.6330    -1.8920 H     1 <1>   0.0800 
 46 H       -6.7290     0.4400    -1.1820 H     1 <1>   0.0800 
 47 H       -7.0330    -2.9390     0.7700 H     1 <1>   0.0800 
 48 H       -8.4520    -2.8620    -0.2650 H     1 <1>   0.0800 
 49 H       -7.2680     0.8870     1.0330 H     1 <1>   0.0800 
 50 H       -6.2210    -0.3880     1.6410 H     1 <1>   0.0800 
 51 H       -8.9840    -0.6630     0.4650 H     1 <1>   0.0800 
 52 H       -7.6240    -1.8490     2.6510 H     1 <1>   0.4000 
@<TRIPOS>BOND
  1   1   2  1   
  2   1   3  1   
  3   2   4  ar  
  4   2   5  ar  
  5   3   6  1   
  6   3  23  1   
  7   3  24  1   
  8   4   7  ar  
  9   4   8  1   
 10   5   9  ar  
 11   5  25  1   
 12   6  10  1   
 13   6  26  1   
 14   6  27  1   
 15   7  11  ar  
 16   7  12  1   
 17   8  28  1   
 18   8  29  1   
 19   8  30  1   
 20   9  11  ar  
 21   9  31  1   
 22  10  13  1   
 23  10  14  1   
 24  10  32  1   
 25  11  33  1   
 26  12  34  1   
 27  12  35  1   
 28  12  36  1   
 29  13  15  1   
 30  13  16  1   
 31  13  37  1   
 32  14  38  1   
 33  14  39  1   
 34  14  40  1   
 35  15  17  1   
 36  15  41  1   
 37  15  42  1   
 38  16  18  1   
 39  16  43  1   
 40  16  44  1   
 41  17  18  1   
 42  17  19  1   
 43  17  45  1   
 44  18  20  1   
 45  18  46  1   
 46  19  21  1   
 47  19  47  1   
 48  19  48  1   
 49  20  21  1   
 50  20  49  1   
 51  20  50  1   
 52  21  22  1   
 53  21  51  1   
 54  22  52  1   
@<TRIPOS>SUBSTRUCTURE
  1 ****   3 GROUP 4 **** **** 0

# MOE 2024.06 (io_trps.svl 2023.06)
