@<TRIPOS>MOLECULE
NONAME
47 49 1 0 0 
SMALL
USER_CHARGES


@<TRIPOS>ATOM
  1 S       -0.5180     0.3740     2.1170 S.3   1 <1>  -0.0800 
  2 C        0.6110     0.2260     0.7970 C.2   1 <1>   0.1980 
  3 C       -0.6870    -1.3540     2.1260 C.2   1 <1>  -0.1100 
  4 N        0.8080    -0.9700     0.4090 N.2   1 <1>  -0.5650 
  5 C        1.2590     1.4960     0.2590 C.3   1 <1>   0.5230 
  6 C        0.0780    -1.9100     1.1590 C.2   1 <1>   0.1410 
  7 N        2.1870     1.1420    -0.8670 N.4   1 <1>  -0.9590 
  8 C        0.2100    -3.3370     0.8760 C.2   1 <1>   0.7160 
  9 C        3.3130     2.1090    -1.0220 C.3   1 <1>   0.2630 
 10 C        1.4450     0.9270    -2.1470 C.3   1 <1>   0.2630 
 11 O        1.3140    -3.8220     0.7050 O.2   1 <1>  -0.5700 
 12 N       -0.8840    -4.1740     0.7980 N.am  1 <1>  -0.6600 
 13 C       -2.3040    -3.7570     0.6590 C.3   1 <1>   0.1400 
 14 C       -0.7520    -5.6260     0.5040 C.3   1 <1>   0.1400 
 15 C       -3.0920    -5.0600     0.7680 C.3   1 <1>   0.2000 
 16 C       -2.1630    -6.0970     0.1300 C.3   1 <1>  -0.0800 
 17 O       -3.2540    -5.3460     2.1150 O.3   1 <1>  -0.6800 
 18 C       -2.4510    -7.5630     0.5040 C.3   1 <1>  -0.0170 
 19 C       -1.5220    -8.5060    -0.2450 C.ar  1 <1>  -0.1430 
 20 C       -1.7800    -8.9000    -1.5420 C.ar  1 <1>  -0.1500 
 21 C       -0.3730    -9.0130     0.3290 C.ar  1 <1>  -0.1500 
 22 C       -0.9000    -9.7540    -2.1860 C.ar  1 <1>   0.1600 
 23 C        0.4410    -9.8600    -0.4040 C.ar  1 <1>   0.1600 
 24 N        0.2050   -10.2420    -1.6480 N.ar  1 <1>  -0.6200 
 25 H       -1.3350    -1.7910     2.8640 H     1 <1>   0.1500 
 26 H        1.8130     1.9550     1.0610 H     1 <1>   0.0800 
 27 H        0.5020     2.1840    -0.0760 H     1 <1>   0.0800 
 28 H        2.5590     0.2110    -0.5920 H     1 <1>   0.4500 
 29 H        2.9390     3.0840    -1.2920 H     1 <1>   0.0800 
 30 H        3.9870     1.7740    -1.7940 H     1 <1>   0.0800 
 31 H        3.8670     2.1920    -0.1000 H     1 <1>   0.0800 
 32 H        0.9770     1.8420    -2.4730 H     1 <1>   0.0800 
 33 H        0.6830     0.1750    -2.0130 H     1 <1>   0.0800 
 34 H        2.1200     0.5910    -2.9180 H     1 <1>   0.0800 
 35 H       -2.6090    -3.0580     1.4160 H     1 <1>   0.0800 
 36 H       -2.4490    -3.3230    -0.3160 H     1 <1>   0.0800 
 37 H       -0.0570    -5.7980    -0.3030 H     1 <1>   0.0800 
 38 H       -0.3970    -6.1300     1.3860 H     1 <1>   0.0800 
 39 H       -4.0640    -5.0110     0.3080 H     1 <1>   0.0800 
 40 H       -2.2560    -6.0010    -0.9380 H     1 <1>   0.0800 
 41 H       -2.3820    -5.3050     2.5560 H     1 <1>   0.4000 
 42 H       -3.4720    -7.8000     0.2590 H     1 <1>   0.0800 
 43 H       -2.3340    -7.7120     1.5630 H     1 <1>   0.0800 
 44 H       -2.6560    -8.5530    -2.0580 H     1 <1>   0.1500 
 45 H       -0.1010    -8.7580     1.3370 H     1 <1>   0.1500 
 46 H       -1.1180   -10.0520    -3.1980 H     1 <1>   0.1500 
 47 H        1.3340   -10.2450     0.0590 H     1 <1>   0.1500 
@<TRIPOS>BOND
  1   1   2  1   
  2   1   3  1   
  3   2   4  2   
  4   2   5  1   
  5   3   6  2   
  6   3  25  1   
  7   4   6  1   
  8   5   7  1   
  9   5  26  1   
 10   5  27  1   
 11   6   8  1   
 12   7   9  1   
 13   7  10  1   
 14   7  28  1   
 15   8  11  2   
 16   8  12  am  
 17   9  29  1   
 18   9  30  1   
 19   9  31  1   
 20  10  32  1   
 21  10  33  1   
 22  10  34  1   
 23  12  13  1   
 24  12  14  1   
 25  13  15  1   
 26  13  35  1   
 27  13  36  1   
 28  14  16  1   
 29  14  37  1   
 30  14  38  1   
 31  15  16  1   
 32  15  17  1   
 33  15  39  1   
 34  16  18  1   
 35  16  40  1   
 36  17  41  1   
 37  18  19  1   
 38  18  42  1   
 39  18  43  1   
 40  19  20  ar  
 41  19  21  ar  
 42  20  22  ar  
 43  20  44  1   
 44  21  23  ar  
 45  21  45  1   
 46  22  24  ar  
 47  22  46  1   
 48  23  24  ar  
 49  23  47  1   
@<TRIPOS>SUBSTRUCTURE
  1 ****  12 GROUP 4 **** **** 0

# MOE 2024.06 (io_trps.svl 2023.06)
