@<TRIPOS>MOLECULE
NONAME
62 65 1 0 0 
SMALL
USER_CHARGES


@<TRIPOS>ATOM
  1 S        1.1450    -0.6690    -2.2830 S.o2  1 <1>   1.2040 
  2 O        2.3320    -0.2910    -3.0160 O.2   1 <1>  -0.6500 
  3 O       -0.0200    -1.1500    -2.9910 O.2   1 <1>  -0.6500 
  4 C        1.5960    -1.8470    -0.9880 C.ar  1 <1>  -0.0090 
  5 C        0.6360     0.7510    -1.3340 C.3   1 <1>  -0.1350 
  6 C        2.8900    -1.8990    -0.4850 C.ar  1 <1>  -0.1500 
  7 C        0.6530    -2.7100    -0.4440 C.ar  1 <1>  -0.1500 
  8 C        3.2370    -2.7870     0.5170 C.ar  1 <1>  -0.1500 
  9 C        0.9920    -3.6010     0.5580 C.ar  1 <1>  -0.1500 
 10 C        2.2900    -3.6520     1.0400 C.ar  1 <1>  -0.1430 
 11 C        2.6620    -4.6620     2.1170 C.3   1 <1>   0.2840 
 12 N        2.4530    -6.0540     1.6080 N.am  1 <1>  -0.6600 
 13 C        1.6610    -6.9220     2.3170 C.2   1 <1>   0.5690 
 14 C        3.0790    -6.3500     0.2830 C.3   1 <1>   0.1400 
 15 O        1.2620    -6.6320     3.4180 O.2   1 <1>  -0.5700 
 16 C        1.2010    -8.2770     1.8020 C.3   1 <1>  -0.0990 
 17 C        3.9280    -7.6510     0.2510 C.3   1 <1>   0.2800 
 18 C        1.8500    -8.8370     0.5380 C.3   1 <1>   0.1200 
 19 O        3.2370    -8.7950     0.6730 O.3   1 <1>  -0.5600 
 20 C        4.4320    -7.9470    -1.1670 C.3   1 <1>  -0.1600 
 21 C        5.1300    -7.5320     1.1980 C.3   1 <1>  -0.1600 
 22 C        5.2910    -9.2140    -1.1870 C.3   1 <1>   0.3430 
 23 C        5.9900    -8.7940     1.1580 C.3   1 <1>   0.3430 
 24 N        6.4300    -9.0940    -0.2360 N.4   1 <1>  -0.9590 
 25 C        7.5510    -8.2300    -0.6960 C.3   1 <1>   0.5230 
 26 C        8.8410    -8.8290    -0.1540 C.2   1 <1>   0.0060 
 27 N        8.8990   -10.0210     0.3620 N.2   1 <1>  -0.5650 
 28 N       10.0360    -8.1840    -0.1690 N.pl3 1 <1>   0.0480 
 29 C       10.1920   -10.1620     0.7050 C.2   1 <1>   0.0770 
 30 C       10.8950    -9.0540     0.3890 C.2   1 <1>  -0.3020 
 31 C       10.3890    -6.8420    -0.6730 C.3   1 <1>   0.0160 
 32 H        0.3370     1.5430    -1.9920 H     1 <1>   0.0800 
 33 H        1.4440     1.1020    -0.7230 H     1 <1>   0.0800 
 34 H       -0.1940     0.5010    -0.7020 H     1 <1>   0.0800 
 35 H        3.6390    -1.2360    -0.8880 H     1 <1>   0.1500 
 36 H       -0.3600    -2.6900    -0.8120 H     1 <1>   0.1500 
 37 H        4.2500    -2.8000     0.8830 H     1 <1>   0.1500 
 38 H        0.2440    -4.2630     0.9630 H     1 <1>   0.1500 
 39 H        2.0600    -4.4710     2.9880 H     1 <1>   0.0800 
 40 H        3.6920    -4.5450     2.4020 H     1 <1>   0.0800 
 41 H        3.7330    -5.5390     0.0150 H     1 <1>   0.0800 
 42 H        2.3120    -6.3710    -0.4710 H     1 <1>   0.0800 
 43 H        0.1400    -8.2190     1.6420 H     1 <1>   0.0800 
 44 H        1.3530    -8.9880     2.5930 H     1 <1>   0.0800 
 45 H        1.5370    -8.3200    -0.3510 H     1 <1>   0.0800 
 46 H        1.5710    -9.8710     0.4320 H     1 <1>   0.0800 
 47 H        4.9990    -7.1150    -1.5440 H     1 <1>   0.0800 
 48 H        3.5920    -8.0830    -1.8250 H     1 <1>   0.0800 
 49 H        4.7740    -7.3930     2.2050 H     1 <1>   0.0800 
 50 H        5.7230    -6.6720     0.9510 H     1 <1>   0.0800 
 51 H        5.6550    -9.4040    -2.1840 H     1 <1>   0.0800 
 52 H        4.6750   -10.0490    -0.8920 H     1 <1>   0.0800 
 53 H        5.4020    -9.6200     1.5280 H     1 <1>   0.0800 
 54 H        6.8490    -8.6860     1.8020 H     1 <1>   0.0800 
 55 H        6.9130   -10.0120    -0.1640 H     1 <1>   0.4500 
 56 H        7.4230    -7.2210    -0.3450 H     1 <1>   0.0800 
 57 H        7.5970    -8.2270    -1.7720 H     1 <1>   0.0800 
 58 H       10.5590   -11.0650     1.1670 H     1 <1>   0.1500 
 59 H       11.9420    -8.8510     0.5320 H     1 <1>   0.1500 
 60 H       10.0290    -6.7230    -1.6780 H     1 <1>   0.0800 
 61 H       11.4590    -6.7290    -0.6700 H     1 <1>   0.0800 
 62 H        9.9570    -6.0920    -0.0350 H     1 <1>   0.0800 
@<TRIPOS>BOND
  1   1   2  2   
  2   1   3  2   
  3   1   4  1   
  4   1   5  1   
  5   4   6  ar  
  6   4   7  ar  
  7   5  32  1   
  8   5  33  1   
  9   5  34  1   
 10   6   8  ar  
 11   6  35  1   
 12   7   9  ar  
 13   7  36  1   
 14   8  10  ar  
 15   8  37  1   
 16   9  10  ar  
 17   9  38  1   
 18  10  11  1   
 19  11  12  1   
 20  11  39  1   
 21  11  40  1   
 22  12  13  am  
 23  12  14  1   
 24  13  15  2   
 25  13  16  1   
 26  14  17  1   
 27  14  41  1   
 28  14  42  1   
 29  16  18  1   
 30  16  43  1   
 31  16  44  1   
 32  17  19  1   
 33  17  20  1   
 34  17  21  1   
 35  18  19  1   
 36  18  45  1   
 37  18  46  1   
 38  20  22  1   
 39  20  47  1   
 40  20  48  1   
 41  21  23  1   
 42  21  49  1   
 43  21  50  1   
 44  22  24  1   
 45  22  51  1   
 46  22  52  1   
 47  23  24  1   
 48  23  53  1   
 49  23  54  1   
 50  24  25  1   
 51  24  55  1   
 52  25  26  1   
 53  25  56  1   
 54  25  57  1   
 55  26  27  2   
 56  26  28  1   
 57  27  29  1   
 58  28  30  1   
 59  28  31  1   
 60  29  30  2   
 61  29  58  1   
 62  30  59  1   
 63  31  60  1   
 64  31  61  1   
 65  31  62  1   
@<TRIPOS>SUBSTRUCTURE
  1 ****  14 GROUP 4 **** **** 0

# MOE 2024.06 (io_trps.svl 2023.06)
