@<TRIPOS>MOLECULE
NONAME
42 44 1 0 0 
SMALL
USER_CHARGES


@<TRIPOS>ATOM
  1 O       -1.8570     1.8960    -2.9970 O.2   1 <1>  -0.5700 
  2 C       -2.3050     2.0060    -1.8750 C.2   1 <1>   0.6300 
  3 N       -2.9530     0.9640    -1.2620 N.am  1 <1>  -0.6600 
  4 C       -2.1270     3.3610    -1.1710 C.3   1 <1>   0.0320 
  5 C       -3.0680    -0.3690    -1.9510 C.3   1 <1>   0.1400 
  6 C       -3.5120     0.9980     0.1180 C.3   1 <1>   0.1400 
  7 C       -0.9310     3.3750    -0.2250 C.ar  1 <1>  -0.0320 
  8 C       -2.3430     4.6180    -1.9730 C.3   1 <1>  -0.2000 
  9 C       -3.3230     4.2410    -0.9130 C.3   1 <1>  -0.2000 
 10 C       -3.2480    -1.5620    -0.9870 C.3   1 <1>   0.2000 
 11 C       -2.7930    -0.0200     1.0160 C.3   1 <1>  -0.1600 
 12 C       -1.0890     3.4770     1.1490 C.ar  1 <1>  -0.1500 
 13 C        0.3480     3.2760    -0.7490 C.ar  1 <1>  -0.1500 
 14 O       -4.5870    -1.7130    -0.6610 O.3   1 <1>  -0.6800 
 15 C       -2.4500    -1.3570     0.3080 C.3   1 <1>  -0.1860 
 16 C        0.0160     3.4810     1.9840 C.ar  1 <1>  -0.1500 
 17 C        1.4530     3.2810     0.0850 C.ar  1 <1>  -0.1500 
 18 C       -2.6050    -2.5620     1.2160 C.2   1 <1>   0.9060 
 19 C        1.2930     3.3850     1.4560 C.ar  1 <1>  -0.1440 
 20 O       -1.5940    -3.1440     1.6140 O.co2 1 <1>  -0.9000 
 21 O       -3.7500    -2.9330     1.5130 O.co2 1 <1>  -0.9000 
 22 C        2.5000     3.3830     2.3760 C.3   1 <1>  -0.0970 
 23 H       -3.8850    -0.3460    -2.6490 H     1 <1>   0.0800 
 24 H       -2.1630    -0.5350    -2.5090 H     1 <1>   0.0800 
 25 H       -3.4410     1.9750     0.5530 H     1 <1>   0.0800 
 26 H       -4.5570     0.7440     0.0630 H     1 <1>   0.0800 
 27 H       -1.6840     5.4510    -1.8020 H     1 <1>   0.1000 
 28 H       -2.6230     4.5180    -3.0070 H     1 <1>   0.1000 
 29 H       -4.2930     3.8830    -1.2130 H     1 <1>   0.1000 
 30 H       -3.3600     4.8400    -0.0220 H     1 <1>   0.1000 
 31 H       -2.9400    -2.4740    -1.4690 H     1 <1>   0.0800 
 32 H       -1.8860     0.4150     1.3970 H     1 <1>   0.0800 
 33 H       -3.4290    -0.2180     1.8620 H     1 <1>   0.0800 
 34 H       -2.0710     3.5500     1.5780 H     1 <1>   0.1500 
 35 H        0.4790     3.1890    -1.8140 H     1 <1>   0.1500 
 36 H       -4.5940    -2.2500     0.1870 H     1 <1>   0.4000 
 37 H       -1.4140    -1.3160     0.0290 H     1 <1>   0.0800 
 38 H       -0.1240     3.5550     3.0480 H     1 <1>   0.1500 
 39 H        2.4360     3.1990    -0.3430 H     1 <1>   0.1500 
 40 H        2.3460     4.0620     3.1950 H     1 <1>   0.0800 
 41 H        3.3830     3.6880     1.8440 H     1 <1>   0.0800 
 42 H        2.6540     2.3940     2.7680 H     1 <1>   0.0800 
@<TRIPOS>BOND
  1   1   2  2   
  2   2   3  am  
  3   2   4  1   
  4   3   5  1   
  5   3   6  1   
  6   4   7  1   
  7   4   8  1   
  8   4   9  1   
  9   5  10  1   
 10   5  23  1   
 11   5  24  1   
 12   6  11  1   
 13   6  25  1   
 14   6  26  1   
 15   7  12  ar  
 16   7  13  ar  
 17   8   9  1   
 18   8  27  1   
 19   8  28  1   
 20   9  29  1   
 21   9  30  1   
 22  10  14  1   
 23  10  15  1   
 24  10  31  1   
 25  11  15  1   
 26  11  32  1   
 27  11  33  1   
 28  12  16  ar  
 29  12  34  1   
 30  13  17  ar  
 31  13  35  1   
 32  14  36  1   
 33  15  18  1   
 34  15  37  1   
 35  16  19  ar  
 36  16  38  1   
 37  17  19  ar  
 38  17  39  1   
 39  18  20  ar  
 40  18  21  ar  
 41  19  22  1   
 42  22  40  1   
 43  22  41  1   
 44  22  42  1   
@<TRIPOS>SUBSTRUCTURE
  1 ****   3 GROUP 4 **** **** 0

# MOE 2024.06 (io_trps.svl 2023.06)
