@<TRIPOS>MOLECULE
NONAME
46 49 1 0 0 
SMALL
USER_CHARGES


@<TRIPOS>ATOM
  1 O       -1.9660    -0.8330     2.1710 O.co2 1 <1>  -0.9000 
  2 C       -2.1640    -0.3040     1.0710 C.2   1 <1>   0.9060 
  3 O       -1.3620     0.4340     0.5030 O.co2 1 <1>  -0.9000 
  4 C       -3.4270    -0.7230     0.3180 C.3   1 <1>   0.2370 
  5 N       -3.4060    -2.1040    -0.3450 N.4   1 <1>  -0.9590 
  6 C       -2.7420    -3.1320     0.5470 C.3   1 <1>   0.4230 
  7 C       -2.7870    -2.0390    -1.6940 C.3   1 <1>   0.3430 
  8 C       -1.1980    -3.3200     0.3950 C.3   1 <1>   0.1200 
  9 C       -3.4950    -4.4800     0.3810 C.3   1 <1>   0.2090 
 10 C       -2.6500    -3.4500    -2.3060 C.3   1 <1>  -0.0800 
 11 O       -0.6980    -3.4180    -0.9180 O.3   1 <1>  -0.5600 
 12 N       -4.4830    -4.5790    -0.7950 N.pl3 1 <1>  -0.8380 
 13 C       -1.3780    -4.1880    -1.8450 C.3   1 <1>   0.1200 
 14 C       -3.9090    -4.3370    -2.1850 C.3   1 <1>   0.2090 
 15 C       -5.7490    -5.0590    -0.6070 C.ar  1 <1>   0.4610 
 16 N       -6.7150    -4.6220    -1.4340 N.ar  1 <1>  -0.1790 
 17 C       -6.1550    -5.9600     0.4510 C.ar  1 <1>   0.0000 
 18 C       -8.0620    -4.7820    -1.1920 C.ar  1 <1>   0.2110 
 19 C       -7.5280    -6.0680     0.7670 C.ar  1 <1>   0.0000 
 20 C       -5.2820    -6.8090     1.1610 C.ar  1 <1>  -0.1500 
 21 C       -8.4730    -5.4570    -0.0970 C.ar  1 <1>  -0.1500 
 22 C       -7.9420    -6.8260     1.8680 C.ar  1 <1>  -0.1500 
 23 C       -5.7060    -7.5750     2.2180 C.ar  1 <1>  -0.1500 
 24 C       -7.0430    -7.5640     2.5930 C.ar  1 <1>  -0.1500 
 25 H       -3.6200     0.0370    -0.4180 H     1 <1>   0.0800 
 26 H       -4.2190    -0.6910     1.0420 H     1 <1>   0.0800 
 27 H       -4.3630    -2.4440    -0.4500 H     1 <1>   0.4500 
 28 H       -2.8950    -2.8350     1.5720 H     1 <1>   0.0800 
 29 H       -3.3960    -1.4220    -2.3340 H     1 <1>   0.0800 
 30 H       -1.8150    -1.5720    -1.6260 H     1 <1>   0.0800 
 31 H       -0.8820    -4.1980     0.9300 H     1 <1>   0.0800 
 32 H       -0.6890    -2.4880     0.8500 H     1 <1>   0.0800 
 33 H       -4.0290    -4.6110     1.3060 H     1 <1>   0.0800 
 34 H       -2.7860    -5.2870     0.3270 H     1 <1>   0.0800 
 35 H       -2.5020    -3.2920    -3.3600 H     1 <1>   0.0800 
 36 H       -0.7110    -4.3170    -2.6810 H     1 <1>   0.0800 
 37 H       -1.5690    -5.1610    -1.4270 H     1 <1>   0.0800 
 38 H       -3.6770    -5.2980    -2.6180 H     1 <1>   0.0800 
 39 H       -4.6600    -3.8940    -2.8140 H     1 <1>   0.0800 
 40 H       -6.4350    -4.0580    -2.2300 H     1 <1>   0.4570 
 41 H       -8.7590    -4.3390    -1.8870 H     1 <1>   0.1500 
 42 H       -4.2510    -6.8860     0.8740 H     1 <1>   0.1500 
 43 H       -9.5200    -5.5730     0.1340 H     1 <1>   0.1500 
 44 H       -8.9840    -6.8470     2.1400 H     1 <1>   0.1500 
 45 H       -5.0160    -8.1990     2.7630 H     1 <1>   0.1500 
 46 H       -7.3650    -8.1520     3.4370 H     1 <1>   0.1500 
@<TRIPOS>BOND
  1   1   2  ar  
  2   2   3  ar  
  3   2   4  1   
  4   4   5  1   
  5   4  25  1   
  6   4  26  1   
  7   5   6  1   
  8   5   7  1   
  9   5  27  1   
 10   6   8  1   
 11   6   9  1   
 12   6  28  1   
 13   7  10  1   
 14   7  29  1   
 15   7  30  1   
 16   8  11  1   
 17   8  31  1   
 18   8  32  1   
 19   9  12  1   
 20   9  33  1   
 21   9  34  1   
 22  10  13  1   
 23  10  14  1   
 24  10  35  1   
 25  11  13  1   
 26  12  14  1   
 27  12  15  1   
 28  13  36  1   
 29  13  37  1   
 30  14  38  1   
 31  14  39  1   
 32  15  16  ar  
 33  15  17  ar  
 34  16  18  ar  
 35  16  40  1   
 36  17  19  ar  
 37  17  20  ar  
 38  18  21  ar  
 39  18  41  1   
 40  19  21  ar  
 41  19  22  ar  
 42  20  23  ar  
 43  20  42  1   
 44  21  43  1   
 45  22  24  ar  
 46  22  44  1   
 47  23  24  ar  
 48  23  45  1   
 49  24  46  1   
@<TRIPOS>SUBSTRUCTURE
  1 ****  12 GROUP 4 **** **** 0

# MOE 2024.06 (io_trps.svl 2023.06)
