@<TRIPOS>MOLECULE
NONAME
54 56 1 0 0 
SMALL
USER_CHARGES


@<TRIPOS>ATOM
  1 O        1.0810    -1.0490    -0.0290 O.3   1 <1>  -0.5600 
  2 C        0.5740    -2.2880     0.4160 C.3   1 <1>   0.4180 
  3 C        1.1360    -0.0040     0.9080 C.3   1 <1>   0.1200 
  4 C       -0.6270    -2.0850     1.3300 C.2   1 <1>  -0.2880 
  5 C        1.6980    -3.0640     1.1110 C.3   1 <1>  -0.1600 
  6 C        0.1500    -3.0460    -0.8490 C.3   1 <1>  -0.1600 
  7 C       -0.2730     0.3630     1.3920 C.3   1 <1>  -0.0220 
  8 C       -1.0360    -0.8930     1.7700 C.2   1 <1>  -0.2760 
  9 C        2.9240    -3.2590     0.2100 C.3   1 <1>   0.3430 
 10 C        1.3250    -3.6120    -1.6560 C.3   1 <1>   0.3430 
 11 C       -2.2560    -0.6720     2.6470 C.3   1 <1>  -0.1020 
 12 N        2.5940    -2.9800    -1.2230 N.4   1 <1>  -0.9590 
 13 C        3.7340    -3.2120    -2.1470 C.3   1 <1>   0.4860 
 14 C        4.8890    -2.3370    -1.7070 C.ar  1 <1>  -0.1430 
 15 C        5.8880    -2.8740    -0.9120 C.ar  1 <1>  -0.1500 
 16 C        4.9470    -0.9990    -2.0630 C.ar  1 <1>  -0.1500 
 17 C        6.9270    -2.0870    -0.4420 C.ar  1 <1>  -0.1430 
 18 C        5.9910    -0.2080    -1.6190 C.ar  1 <1>  -0.1500 
 19 C        6.9860    -0.7450    -0.8050 C.ar  1 <1>   0.0820 
 20 C        8.0030    -2.6800     0.4640 C.3   1 <1>   0.2630 
 21 O        8.0320    -0.0120    -0.3420 O.3   1 <1>  -0.3630 
 22 O        7.4810    -3.7650     1.1780 O.3   1 <1>  -0.5600 
 23 C        8.2080     1.3440    -0.6920 C.3   1 <1>   0.0400 
 24 C        8.3950    -4.3520     2.0480 C.3   1 <1>   0.0400 
 25 H        1.5980     0.8450     0.4350 H     1 <1>   0.0800 
 26 H        1.7470    -0.3140     1.7370 H     1 <1>   0.0800 
 27 H       -1.1280    -3.0010     1.5870 H     1 <1>   0.1500 
 28 H        1.3260    -4.0310     1.3970 H     1 <1>   0.0800 
 29 H        1.9880    -2.5700     2.0200 H     1 <1>   0.0800 
 30 H       -0.4400    -2.3920    -1.4660 H     1 <1>   0.0800 
 31 H       -0.4860    -3.8690    -0.5780 H     1 <1>   0.0800 
 32 H       -0.8010     0.8940     0.6200 H     1 <1>   0.0800 
 33 H       -0.1820     1.0140     2.2440 H     1 <1>   0.0800 
 34 H        3.3000    -4.2630     0.3210 H     1 <1>   0.0800 
 35 H        3.6990    -2.5790     0.5300 H     1 <1>   0.0800 
 36 H        1.1540    -3.4290    -2.7050 H     1 <1>   0.0800 
 37 H        1.3870    -4.6780    -1.5040 H     1 <1>   0.0800 
 38 H       -2.9560    -0.0230     2.1520 H     1 <1>   0.0800 
 39 H       -1.9680    -0.2230     3.5810 H     1 <1>   0.0800 
 40 H       -2.7480    -1.6050     2.8560 H     1 <1>   0.0800 
 41 H        2.4010    -1.9600    -1.2240 H     1 <1>   0.4500 
 42 H        3.4540    -2.9560    -3.1560 H     1 <1>   0.0800 
 43 H        4.0290    -4.2490    -2.1230 H     1 <1>   0.0800 
 44 H        5.8620    -3.9160    -0.6420 H     1 <1>   0.1500 
 45 H        4.1860    -0.5580    -2.6860 H     1 <1>   0.1500 
 46 H        6.0130     0.8240    -1.9140 H     1 <1>   0.1500 
 47 H        8.3440    -1.9450     1.1740 H     1 <1>   0.0800 
 48 H        8.8340    -3.0200    -0.1280 H     1 <1>   0.0800 
 49 H        9.1070     1.6960    -0.2200 H     1 <1>   0.0800 
 50 H        7.3650     1.9090    -0.3360 H     1 <1>   0.0800 
 51 H        8.3030     1.4200    -1.7600 H     1 <1>   0.0800 
 52 H        7.9070    -5.1710     2.5450 H     1 <1>   0.0800 
 53 H        8.7130    -3.6250     2.7750 H     1 <1>   0.0800 
 54 H        9.2370    -4.7200     1.4860 H     1 <1>   0.0800 
@<TRIPOS>BOND
  1   1   2  1   
  2   1   3  1   
  3   2   4  1   
  4   2   5  1   
  5   2   6  1   
  6   3   7  1   
  7   3  25  1   
  8   3  26  1   
  9   4   8  2   
 10   4  27  1   
 11   5   9  1   
 12   5  28  1   
 13   5  29  1   
 14   6  10  1   
 15   6  30  1   
 16   6  31  1   
 17   7   8  1   
 18   7  32  1   
 19   7  33  1   
 20   8  11  1   
 21   9  12  1   
 22   9  34  1   
 23   9  35  1   
 24  10  12  1   
 25  10  36  1   
 26  10  37  1   
 27  11  38  1   
 28  11  39  1   
 29  11  40  1   
 30  12  13  1   
 31  12  41  1   
 32  13  14  1   
 33  13  42  1   
 34  13  43  1   
 35  14  15  ar  
 36  14  16  ar  
 37  15  17  ar  
 38  15  44  1   
 39  16  18  ar  
 40  16  45  1   
 41  17  19  ar  
 42  17  20  1   
 43  18  19  ar  
 44  18  46  1   
 45  19  21  1   
 46  20  22  1   
 47  20  47  1   
 48  20  48  1   
 49  21  23  1   
 50  22  24  1   
 51  23  49  1   
 52  23  50  1   
 53  23  51  1   
 54  24  52  1   
 55  24  53  1   
 56  24  54  1   
@<TRIPOS>SUBSTRUCTURE
  1 ****   9 GROUP 4 **** **** 0

# MOE 2024.06 (io_trps.svl 2023.06)
