@<TRIPOS>MOLECULE
NONAME
30 31 1 0 0 
SMALL
USER_CHARGES


@<TRIPOS>ATOM
  1 F       -1.1340    -0.5930    -1.5060 F     1 <1>  -0.1900 
  2 C       -2.1200    -1.1080    -0.8040 C.ar  1 <1>   0.1900 
  3 C       -2.8130    -0.4050     0.1780 C.ar  1 <1>   0.3920 
  4 C       -2.4810    -2.4060    -1.0550 C.ar  1 <1>   0.1600 
  5 O       -2.5820     0.8770     0.5460 O.3   1 <1>  -0.3620 
  6 N       -3.7900    -0.9810     0.8450 N.ar  1 <1>  -0.6200 
  7 N       -3.4560    -2.9910    -0.3920 N.ar  1 <1>  -0.6200 
  8 C       -1.6190     1.7220    -0.0450 C.3   1 <1>   0.0400 
  9 C       -4.0580    -2.2350     0.5220 C.ar  1 <1>   0.7200 
 10 N       -5.0710    -2.7780     1.2300 N.pl3 1 <1>  -0.8690 
 11 C       -5.2020    -4.2390     1.4970 C.3   1 <1>   0.2090 
 12 C       -5.9810    -4.9550     0.3830 C.3   1 <1>   0.2000 
 13 O       -6.2250    -6.2740     0.7550 O.3   1 <1>  -0.5600 
 14 C       -7.3690    -4.3910     0.1040 C.3   1 <1>  -0.1600 
 15 C       -7.2710    -6.7920    -0.0010 C.3   1 <1>   0.1200 
 16 C       -8.1430    -5.6010    -0.3950 C.3   1 <1>  -0.1600 
 17 H       -1.9610    -2.9710    -1.8080 H     1 <1>   0.1500 
 18 H       -1.6800     2.6820     0.4360 H     1 <1>   0.0800 
 19 H       -1.8370     1.8270    -1.0930 H     1 <1>   0.0800 
 20 H       -0.6400     1.3020     0.1070 H     1 <1>   0.0800 
 21 H       -5.3680    -2.1610     1.9850 H     1 <1>   0.4000 
 22 H       -4.2230    -4.6790     1.5780 H     1 <1>   0.0800 
 23 H       -5.7180    -4.3770     2.4300 H     1 <1>   0.0800 
 24 H       -5.3950    -4.9780    -0.5200 H     1 <1>   0.0800 
 25 H       -7.8010    -4.0200     1.0160 H     1 <1>   0.0800 
 26 H       -7.3280    -3.5930    -0.6170 H     1 <1>   0.0800 
 27 H       -6.8510    -7.2710    -0.8680 H     1 <1>   0.0800 
 28 H       -7.8050    -7.5100     0.5970 H     1 <1>   0.0800 
 29 H       -8.2620    -5.5750    -1.4640 H     1 <1>   0.0800 
 30 H       -9.1140    -5.6640     0.0650 H     1 <1>   0.0800 
@<TRIPOS>BOND
  1   1   2  1   
  2   2   3  ar  
  3   2   4  ar  
  4   3   5  1   
  5   3   6  ar  
  6   4   7  ar  
  7   4  17  1   
  8   5   8  1   
  9   6   9  ar  
 10   7   9  ar  
 11   8  18  1   
 12   8  19  1   
 13   8  20  1   
 14   9  10  1   
 15  10  11  1   
 16  10  21  1   
 17  11  12  1   
 18  11  22  1   
 19  11  23  1   
 20  12  13  1   
 21  12  14  1   
 22  12  24  1   
 23  13  15  1   
 24  14  16  1   
 25  14  25  1   
 26  14  26  1   
 27  15  16  1   
 28  15  27  1   
 29  15  28  1   
 30  16  29  1   
 31  16  30  1   
@<TRIPOS>SUBSTRUCTURE
  1 ****   9 GROUP 4 **** **** 0

# MOE 2024.06 (io_trps.svl 2023.06)
