@<TRIPOS>MOLECULE
NONAME
42 43 1 0 0 
SMALL
USER_CHARGES


@<TRIPOS>ATOM
  1 O        2.3090    -0.6720     3.3550 O.2   1 <1>  -0.5700 
  2 C        1.8980    -1.1070     2.3040 C.2   1 <1>   0.5690 
  3 N        1.9190    -0.4020     1.1380 N.am  1 <1>  -0.4930 
  4 C        1.3240    -2.5160     2.2830 C.3   1 <1>   0.1810 
  5 C        2.3900     0.9060     0.8710 C.2   1 <1>   0.0630 
  6 O        0.9530    -2.8950     0.9630 O.3   1 <1>  -0.3630 
  7 C        2.3660     1.5410    -0.3210 C.2   1 <1>  -0.3320 
  8 C        2.9710     1.8200     1.7500 C.2   1 <1>   0.1390 
  9 C        0.4120    -4.1120     0.6890 C.ar  1 <1>   0.0830 
 10 N        2.9180     2.7670    -0.1170 N.pl3 1 <1>   0.3140 
 11 C        1.8430     1.0490    -1.6640 C.3   1 <1>  -0.0600 
 12 N        3.2890     2.9350     1.1650 N.2   1 <1>  -0.7070 
 13 C        0.1040    -4.4030    -0.6420 C.ar  1 <1>  -0.1430 
 14 C        0.1600    -5.0520     1.6850 C.ar  1 <1>  -0.1500 
 15 C        3.1230     3.8440    -1.1100 C.3   1 <1>   0.0960 
 16 C       -0.4730    -5.6310    -0.9600 C.ar  1 <1>  -0.1430 
 17 C        0.4040    -3.3560    -1.7160 C.3   1 <1>  -0.0970 
 18 C       -0.4020    -6.2700     1.3600 C.ar  1 <1>  -0.1500 
 19 C        4.4660     3.6830    -1.8340 C.3   1 <1>  -0.2400 
 20 C       -0.7180    -6.5550     0.0450 C.ar  1 <1>  -0.1500 
 21 C       -0.8570    -6.0100    -2.3840 C.3   1 <1>  -0.0970 
 22 H        1.5400    -0.9050     0.3350 H     1 <1>   0.3700 
 23 H        0.4510    -2.5520     2.9070 H     1 <1>   0.0800 
 24 H        2.0650    -3.2080     2.6400 H     1 <1>   0.0800 
 25 H        3.1400     1.6270     2.7960 H     1 <1>   0.1500 
 26 H        1.4560     0.0500    -1.5790 H     1 <1>   0.0800 
 27 H        2.6350     1.0440    -2.3910 H     1 <1>   0.0800 
 28 H        1.0520     1.6890    -2.0100 H     1 <1>   0.0800 
 29 H        0.3890    -4.8630     2.7150 H     1 <1>   0.1500 
 30 H        3.1020     4.7830    -0.5880 H     1 <1>   0.0800 
 31 H        2.3120     3.8280    -1.8130 H     1 <1>   0.0800 
 32 H        1.3630    -2.9050    -1.5370 H     1 <1>   0.0800 
 33 H       -0.3500    -2.5910    -1.6910 H     1 <1>   0.0800 
 34 H        0.4350    -3.7780    -2.7020 H     1 <1>   0.0800 
 35 H       -0.5970    -6.9980     2.1270 H     1 <1>   0.1500 
 36 H        5.2710     3.7140    -1.1200 H     1 <1>   0.0800 
 37 H        4.6010     4.4850    -2.5360 H     1 <1>   0.0800 
 38 H        4.5010     2.7490    -2.3660 H     1 <1>   0.0800 
 39 H       -1.1580    -7.5080    -0.1890 H     1 <1>   0.1500 
 40 H       -1.4840    -5.2490    -2.8130 H     1 <1>   0.0800 
 41 H       -1.3990    -6.9380    -2.4070 H     1 <1>   0.0800 
 42 H        0.0270    -6.1210    -2.9850 H     1 <1>   0.0800 
@<TRIPOS>BOND
  1   1   2  2   
  2   2   3  am  
  3   2   4  1   
  4   3   5  1   
  5   3  22  1   
  6   4   6  1   
  7   4  23  1   
  8   4  24  1   
  9   5   7  2   
 10   5   8  1   
 11   6   9  1   
 12   7  10  1   
 13   7  11  1   
 14   8  12  2   
 15   8  25  1   
 16   9  13  ar  
 17   9  14  ar  
 18  10  12  1   
 19  10  15  1   
 20  11  26  1   
 21  11  27  1   
 22  11  28  1   
 23  13  16  ar  
 24  13  17  1   
 25  14  18  ar  
 26  14  29  1   
 27  15  19  1   
 28  15  30  1   
 29  15  31  1   
 30  16  20  ar  
 31  16  21  1   
 32  17  32  1   
 33  17  33  1   
 34  17  34  1   
 35  18  20  ar  
 36  18  35  1   
 37  19  36  1   
 38  19  37  1   
 39  19  38  1   
 40  20  39  1   
 41  21  40  1   
 42  21  41  1   
 43  21  42  1   
@<TRIPOS>SUBSTRUCTURE
  1 ****   3 GROUP 4 **** **** 0

# MOE 2024.06 (io_trps.svl 2023.06)
