@<TRIPOS>MOLECULE
NONAME
47 50 1 0 0 
SMALL
USER_CHARGES


@<TRIPOS>ATOM
  1 O        1.8340    -0.6310    -3.1980 O.2   1 <1>  -0.5700 
  2 C        1.4360    -0.8600    -2.0780 C.2   1 <1>   0.5690 
  3 N        2.1780    -1.5400    -1.1440 N.am  1 <1>  -0.4770 
  4 C        0.0570    -0.3600    -1.6700 C.3   1 <1>   0.1810 
  5 C        1.5440    -2.0070     0.0380 C.ar  1 <1>   0.1170 
  6 C        3.6610    -1.6730    -1.3570 C.3   1 <1>   0.2010 
  7 O       -0.5980    -1.2530    -0.7790 O.3   1 <1>  -0.3630 
  8 C        0.1550    -1.8630     0.1740 C.ar  1 <1>   0.0830 
  9 C        2.2290    -2.6290     1.0810 C.ar  1 <1>  -0.1500 
 10 C        4.4330    -0.6270    -0.5510 C.2   1 <1>   0.5690 
 11 C       -0.5080    -2.3420     1.2890 C.ar  1 <1>  -0.1500 
 12 C        1.5700    -3.0920     2.2100 C.ar  1 <1>  -0.1440 
 13 O        4.9010    -0.9530     0.5170 O.2   1 <1>  -0.5700 
 14 N        4.5490     0.6600    -0.9880 N.am  1 <1>  -0.6600 
 15 C        0.1970    -2.9530     2.3090 C.ar  1 <1>  -0.1500 
 16 C        2.3540    -3.7570     3.3270 C.3   1 <1>  -0.0970 
 17 C        4.4290     1.7780    -0.0290 C.3   1 <1>   0.4010 
 18 C        4.5530     1.1480    -2.3880 C.3   1 <1>   0.1400 
 19 C        2.9870     1.8300     0.4960 C.2   1 <1>   0.1080 
 20 C        4.8320     3.0020    -0.8530 C.3   1 <1>  -0.1600 
 21 C        4.4200     2.6640    -2.2860 C.3   1 <1>  -0.1600 
 22 N        2.0350     2.5840     0.0540 N.2   1 <1>  -0.4100 
 23 C        2.5160     1.0190     1.5270 C.2   1 <1>  -0.1500 
 24 O        0.9800     2.2930     0.7600 O.3   1 <1>  -0.0190 
 25 C        1.2270     1.3640     1.6410 C.2   1 <1>  -0.0400 
 26 C        0.1270     0.8680     2.5530 C.3   1 <1>  -0.0600 
 27 H       -0.5640    -0.2430    -2.5370 H     1 <1>   0.0800 
 28 H        0.1570     0.5880    -1.1740 H     1 <1>   0.0800 
 29 H        3.9030    -1.5670    -2.3970 H     1 <1>   0.0800 
 30 H        3.9780    -2.6550    -1.0590 H     1 <1>   0.0800 
 31 H        3.2910    -2.7670     1.0320 H     1 <1>   0.1500 
 32 H       -1.5760    -2.2310     1.3550 H     1 <1>   0.1500 
 33 H       -0.3270    -3.3200     3.1750 H     1 <1>   0.1500 
 34 H        3.3420    -3.3380     3.3940 H     1 <1>   0.0800 
 35 H        2.4370    -4.8110     3.1360 H     1 <1>   0.0800 
 36 H        1.8620    -3.6120     4.2720 H     1 <1>   0.0800 
 37 H        5.1080     1.6370     0.7950 H     1 <1>   0.0800 
 38 H        3.7470     0.7350    -2.9620 H     1 <1>   0.0800 
 39 H        5.4920     0.8870    -2.8470 H     1 <1>   0.0800 
 40 H        5.9000     3.1140    -0.7990 H     1 <1>   0.0800 
 41 H        4.3700     3.9040    -0.4930 H     1 <1>   0.0800 
 42 H        3.3880     2.9320    -2.4410 H     1 <1>   0.0800 
 43 H        5.0230     3.1710    -3.0180 H     1 <1>   0.0800 
 44 H        3.0830     0.2860     2.0730 H     1 <1>   0.1500 
 45 H        0.4910     0.0650     3.1680 H     1 <1>   0.0800 
 46 H       -0.6980     0.5100     1.9640 H     1 <1>   0.0800 
 47 H       -0.2140     1.6690     3.1830 H     1 <1>   0.0800 
@<TRIPOS>BOND
  1   1   2  2   
  2   2   3  am  
  3   2   4  1   
  4   3   5  1   
  5   3   6  1   
  6   4   7  1   
  7   4  27  1   
  8   4  28  1   
  9   5   8  ar  
 10   5   9  ar  
 11   6  10  1   
 12   6  29  1   
 13   6  30  1   
 14   7   8  1   
 15   8  11  ar  
 16   9  12  ar  
 17   9  31  1   
 18  10  13  2   
 19  10  14  am  
 20  11  15  ar  
 21  11  32  1   
 22  12  15  ar  
 23  12  16  1   
 24  14  17  1   
 25  14  18  1   
 26  15  33  1   
 27  16  34  1   
 28  16  35  1   
 29  16  36  1   
 30  17  19  1   
 31  17  20  1   
 32  17  37  1   
 33  18  21  1   
 34  18  38  1   
 35  18  39  1   
 36  19  22  2   
 37  19  23  1   
 38  20  21  1   
 39  20  40  1   
 40  20  41  1   
 41  21  42  1   
 42  21  43  1   
 43  22  24  1   
 44  23  25  2   
 45  23  44  1   
 46  24  25  1   
 47  25  26  1   
 48  26  45  1   
 49  26  46  1   
 50  26  47  1   
@<TRIPOS>SUBSTRUCTURE
  1 ****   3 GROUP 4 **** **** 0

# MOE 2024.06 (io_trps.svl 2023.06)
