@<TRIPOS>MOLECULE
NONAME
46 49 1 0 0 
SMALL
USER_CHARGES


@<TRIPOS>ATOM
  1 S       -0.9600    -0.7800    -1.6620 S.3   1 <1>  -0.2420 
  2 C       -2.0110    -1.3980    -0.3860 C.2   1 <1>   0.6510 
  3 C       -1.1250     0.8840    -1.0700 C.2   1 <1>  -0.0490 
  4 N       -2.3160    -2.6510    -0.2660 N.2   1 <1>  -0.6210 
  5 N       -2.4290    -0.3570     0.3990 N.am  1 <1>  -0.2290 
  6 C       -1.9250     0.9020     0.0050 C.2   1 <1>  -0.0410 
  7 C       -3.1460    -2.9630     0.7790 C.2   1 <1>   0.0330 
  8 C       -3.2760    -0.6470     1.4410 C.2   1 <1>   0.6160 
  9 C       -3.6280    -2.0090     1.6190 C.2   1 <1>  -0.1360 
 10 C       -3.4940    -4.4430     0.9320 C.3   1 <1>   0.4810 
 11 O       -3.7040     0.2340     2.1670 O.2   1 <1>  -0.5700 
 12 N       -3.8100    -4.9980    -0.4140 N.4   1 <1>  -0.9590 
 13 C       -5.1530    -4.5380    -0.8810 C.3   1 <1>   0.3430 
 14 C       -3.8440    -6.4910    -0.3940 C.3   1 <1>   0.3430 
 15 C       -6.1180    -5.6560    -0.4860 C.3   1 <1>   0.2000 
 16 C       -5.2780    -6.9050    -0.7480 C.3   1 <1>  -0.0800 
 17 O       -6.3630    -5.5400     0.8890 O.3   1 <1>  -0.5600 
 18 C       -5.7280    -8.1890    -0.0250 C.3   1 <1>   0.0200 
 19 C       -7.7060    -5.6360     1.2610 C.3   1 <1>   0.0400 
 20 C       -4.7030    -9.2890    -0.2170 C.2   1 <1>  -0.0400 
 21 O       -4.2530    -9.5580    -1.4130 O.3   1 <1>  -0.0190 
 22 C       -4.0880   -10.1090     0.6490 C.2   1 <1>  -0.1500 
 23 N       -3.3600   -10.5000    -1.3930 N.2   1 <1>  -0.4100 
 24 C       -3.2450   -10.8600    -0.1650 C.2   1 <1>   0.1080 
 25 C       -2.3170   -11.9540     0.3170 C.3   1 <1>  -0.0590 
 26 H       -0.5950     1.6530    -1.6060 H     1 <1>   0.1500 
 27 H       -2.2120     1.7690     0.5810 H     1 <1>   0.1500 
 28 H       -4.2830    -2.2210     2.4440 H     1 <1>   0.1500 
 29 H       -4.3270    -4.5730     1.6040 H     1 <1>   0.0800 
 30 H       -2.6380    -4.9540     1.3400 H     1 <1>   0.0800 
 31 H       -3.0710    -4.6200    -1.0310 H     1 <1>   0.4500 
 32 H       -5.4410    -3.5960    -0.4450 H     1 <1>   0.0800 
 33 H       -5.1450    -4.4440    -1.9540 H     1 <1>   0.0800 
 34 H       -3.1480    -6.9080    -1.1050 H     1 <1>   0.0800 
 35 H       -3.5950    -6.8550     0.5890 H     1 <1>   0.0800 
 36 H       -7.0390    -5.6240    -1.0460 H     1 <1>   0.0800 
 37 H       -5.2950    -7.0990    -1.8070 H     1 <1>   0.0800 
 38 H       -6.6740    -8.5160    -0.4220 H     1 <1>   0.0800 
 39 H       -5.8490    -8.0170     1.0300 H     1 <1>   0.0800 
 40 H       -7.7670    -5.5650     2.3340 H     1 <1>   0.0800 
 41 H       -8.1030    -6.5850     0.9410 H     1 <1>   0.0800 
 42 H       -8.2610    -4.8270     0.8170 H     1 <1>   0.0800 
 43 H       -4.1890   -10.1980     1.7150 H     1 <1>   0.1500 
 44 H       -2.8860   -12.7310     0.7940 H     1 <1>   0.0800 
 45 H       -1.6080   -11.5520     1.0180 H     1 <1>   0.0800 
 46 H       -1.7830   -12.3760    -0.5150 H     1 <1>   0.0800 
@<TRIPOS>BOND
  1   1   2  1   
  2   1   3  1   
  3   2   4  2   
  4   2   5  1   
  5   3   6  2   
  6   3  26  1   
  7   4   7  1   
  8   5   6  1   
  9   5   8  am  
 10   6  27  1   
 11   7   9  2   
 12   7  10  1   
 13   8   9  1   
 14   8  11  2   
 15   9  28  1   
 16  10  12  1   
 17  10  29  1   
 18  10  30  1   
 19  12  13  1   
 20  12  14  1   
 21  12  31  1   
 22  13  15  1   
 23  13  32  1   
 24  13  33  1   
 25  14  16  1   
 26  14  34  1   
 27  14  35  1   
 28  15  16  1   
 29  15  17  1   
 30  15  36  1   
 31  16  18  1   
 32  16  37  1   
 33  17  19  1   
 34  18  20  1   
 35  18  38  1   
 36  18  39  1   
 37  19  40  1   
 38  19  41  1   
 39  19  42  1   
 40  20  21  1   
 41  20  22  2   
 42  21  23  1   
 43  22  24  1   
 44  22  43  1   
 45  23  24  2   
 46  24  25  1   
 47  25  44  1   
 48  25  45  1   
 49  25  46  1   
@<TRIPOS>SUBSTRUCTURE
  1 ****  12 GROUP 4 **** **** 0

# MOE 2024.06 (io_trps.svl 2023.06)
