@<TRIPOS>MOLECULE
NONAME
54 55 1 0 0 
SMALL
USER_CHARGES


@<TRIPOS>ATOM
  1 S       -0.3710     0.7400     1.3360 S.o2  1 <1>   1.5760 
  2 O       -0.6370     2.1490     1.5200 O.2   1 <1>  -0.6500 
  3 O       -0.2180    -0.1330     2.4780 O.2   1 <1>  -0.6500 
  4 N       -1.5780     0.0940     0.3540 N.am  1 <1>  -0.8490 
  5 N        0.9570     0.5790     0.3030 N.am  1 <1>  -0.8490 
  6 C       -1.3730    -1.3460     0.1130 C.3   1 <1>   0.1960 
  7 C       -2.9030     0.2960     0.9560 C.3   1 <1>   0.1960 
  8 C        2.2210     0.6180     1.0370 C.3   1 <1>   0.1960 
  9 C        0.9100     1.5550    -0.7850 C.3   1 <1>   0.1960 
 10 C       -2.5090    -1.9450    -0.7380 C.3   1 <1>   0.3440 
 11 C       -4.0240    -0.3290     0.0870 C.3   1 <1>   0.2000 
 12 C        2.7220    -0.8120     1.2150 C.3   1 <1>  -0.2400 
 13 C        1.7360     1.0540    -1.9690 C.3   1 <1>  -0.2400 
 14 O       -3.7480    -1.6920    -0.1290 O.3   1 <1>  -0.5600 
 15 C       -2.3260    -3.4500    -0.9040 C.ar  1 <1>  -0.1430 
 16 C       -5.4610    -0.1870     0.6760 C.3   1 <1>   0.0000 
 17 C       -2.7410    -4.3360     0.0800 C.ar  1 <1>  -0.1500 
 18 C       -1.7210    -3.9500    -2.0490 C.ar  1 <1>  -0.1500 
 19 C       -5.8240     1.2950     0.8880 C.3   1 <1>  -0.2400 
 20 C       -5.6130    -0.9220     2.0210 C.3   1 <1>  -0.2400 
 21 C       -6.4810    -0.7780    -0.3140 C.3   1 <1>  -0.2400 
 22 C       -2.5530    -5.6990    -0.0750 C.ar  1 <1>  -0.1500 
 23 C       -1.5320    -5.3120    -2.2070 C.ar  1 <1>  -0.1500 
 24 C       -1.9470    -6.1880    -1.2190 C.ar  1 <1>  -0.1500 
 25 H       -0.4410    -1.4990    -0.4010 H     1 <1>   0.0800 
 26 H       -1.3250    -1.8810     1.0470 H     1 <1>   0.0800 
 27 H       -2.9240    -0.1400     1.9400 H     1 <1>   0.0800 
 28 H       -3.0780     1.3530     1.0560 H     1 <1>   0.0800 
 29 H        2.9660     1.1770     0.4960 H     1 <1>   0.0800 
 30 H        2.0950     1.0920     1.9980 H     1 <1>   0.0800 
 31 H       -0.1080     1.6770    -1.1200 H     1 <1>   0.0800 
 32 H        1.2610     2.5160    -0.4440 H     1 <1>   0.0800 
 33 H       -2.5180    -1.4750    -1.7060 H     1 <1>   0.0800 
 34 H       -4.0090     0.1570    -0.8730 H     1 <1>   0.0800 
 35 H        2.8580    -1.2770     0.2560 H     1 <1>   0.0800 
 36 H        2.0230    -1.3870     1.7940 H     1 <1>   0.0800 
 37 H        3.6640    -0.8040     1.7310 H     1 <1>   0.0800 
 38 H        1.3780     0.0900    -2.2810 H     1 <1>   0.0800 
 39 H        2.7780     0.9840    -1.7200 H     1 <1>   0.0800 
 40 H        1.6320     1.7380    -2.7920 H     1 <1>   0.0800 
 41 H       -3.2170    -3.9640     0.9710 H     1 <1>   0.1500 
 42 H       -1.3930    -3.2820    -2.8260 H     1 <1>   0.1500 
 43 H       -6.8510     1.3890     1.1960 H     1 <1>   0.0800 
 44 H       -5.6960     1.8500    -0.0250 H     1 <1>   0.0800 
 45 H       -5.2140     1.7430     1.6510 H     1 <1>   0.0800 
 46 H       -6.6280    -0.8620     2.3710 H     1 <1>   0.0800 
 47 H       -4.9770    -0.4960     2.7750 H     1 <1>   0.0800 
 48 H       -5.3590    -1.9620     1.9100 H     1 <1>   0.0800 
 49 H       -7.4850    -0.6640     0.0550 H     1 <1>   0.0800 
 50 H       -6.2990    -1.8290    -0.4630 H     1 <1>   0.0800 
 51 H       -6.4120    -0.2880    -1.2690 H     1 <1>   0.0800 
 52 H       -2.8800    -6.3760     0.6940 H     1 <1>   0.1500 
 53 H       -1.0630    -5.6920    -3.0970 H     1 <1>   0.1500 
 54 H       -1.8010    -7.2470    -1.3410 H     1 <1>   0.1500 
@<TRIPOS>BOND
  1   1   2  2   
  2   1   3  2   
  3   1   4  am  
  4   1   5  am  
  5   4   6  1   
  6   4   7  1   
  7   5   8  1   
  8   5   9  1   
  9   6  10  1   
 10   6  25  1   
 11   6  26  1   
 12   7  11  1   
 13   7  27  1   
 14   7  28  1   
 15   8  12  1   
 16   8  29  1   
 17   8  30  1   
 18   9  13  1   
 19   9  31  1   
 20   9  32  1   
 21  10  14  1   
 22  10  15  1   
 23  10  33  1   
 24  11  14  1   
 25  11  16  1   
 26  11  34  1   
 27  12  35  1   
 28  12  36  1   
 29  12  37  1   
 30  13  38  1   
 31  13  39  1   
 32  13  40  1   
 33  15  17  ar  
 34  15  18  ar  
 35  16  19  1   
 36  16  20  1   
 37  16  21  1   
 38  17  22  ar  
 39  17  41  1   
 40  18  23  ar  
 41  18  42  1   
 42  19  43  1   
 43  19  44  1   
 44  19  45  1   
 45  20  46  1   
 46  20  47  1   
 47  20  48  1   
 48  21  49  1   
 49  21  50  1   
 50  21  51  1   
 51  22  24  ar  
 52  22  52  1   
 53  23  24  ar  
 54  23  53  1   
 55  24  54  1   
@<TRIPOS>SUBSTRUCTURE
  1 ****   6 GROUP 4 **** **** 0

# MOE 2024.06 (io_trps.svl 2023.06)
