@<TRIPOS>MOLECULE
NONAME
48 50 1 0 0 
SMALL
USER_CHARGES


@<TRIPOS>ATOM
  1 O       -0.0220     0.3520     0.1360 O.2   1 <1>  -0.5700 
  2 C        0.0280     1.5460     0.3500 C.2   1 <1>   0.5690 
  3 N       -1.1470     2.2810     0.3160 N.am  1 <1>  -0.6600 
  4 C        1.4280     2.1530     0.6800 C.3   1 <1>   0.3170 
  5 C       -1.2470     3.7770     0.3880 C.3   1 <1>   0.1400 
  6 C       -2.4430     1.5560     0.1090 C.3   1 <1>   0.1400 
  7 N        1.8090     3.1640    -0.3610 N.pl3 1 <1>   0.0480 
  8 C        1.4250     2.7760     2.0960 C.3   1 <1>  -0.2400 
  9 C        2.5430     1.0810     0.6690 C.3   1 <1>  -0.2400 
 10 C       -2.4010     4.2640    -0.4840 C.3   1 <1>  -0.1600 
 11 C       -3.6210     2.3500     0.6770 C.3   1 <1>  -0.1600 
 12 C        2.4600     4.3530    -0.1860 C.2   1 <1>  -0.3020 
 13 C        1.5680     3.0550    -1.7010 C.2   1 <1>  -0.3020 
 14 C       -3.7480     3.7500     0.0510 C.3   1 <1>   0.4180 
 15 C        2.6160     4.9770    -1.3820 C.2   1 <1>  -0.1500 
 16 C        2.0450     4.1480    -2.3500 C.2   1 <1>  -0.1500 
 17 O       -4.1630     4.5850     1.1030 O.3   1 <1>  -0.5600 
 18 C       -4.7930     3.7260    -1.0640 C.2   1 <1>  -0.2880 
 19 C       -4.8280     5.7750     0.7750 C.3   1 <1>   0.1200 
 20 C       -5.8890     4.4870    -1.0840 C.2   1 <1>  -0.2760 
 21 C       -6.1390     5.4800     0.0350 C.3   1 <1>  -0.0220 
 22 C       -6.9540     4.4380    -2.1650 C.3   1 <1>  -0.1020 
 23 H       -0.3460     4.2460     0.0460 H     1 <1>   0.0800 
 24 H       -1.4200     4.0740     1.4080 H     1 <1>   0.0800 
 25 H       -2.4040     0.5950     0.5940 H     1 <1>   0.0800 
 26 H       -2.5850     1.3900    -0.9450 H     1 <1>   0.0800 
 27 H        0.7860     3.6360     2.1450 H     1 <1>   0.0800 
 28 H        2.4170     3.0660     2.3910 H     1 <1>   0.0800 
 29 H        1.0660     2.0520     2.8060 H     1 <1>   0.0800 
 30 H        2.5860     0.6010    -0.2930 H     1 <1>   0.0800 
 31 H        2.3410     0.3260     1.4080 H     1 <1>   0.0800 
 32 H        3.5000     1.5210     0.8800 H     1 <1>   0.0800 
 33 H       -2.2400     3.9000    -1.4830 H     1 <1>   0.0800 
 34 H       -2.3970     5.3350    -0.5350 H     1 <1>   0.0800 
 35 H       -3.4750     2.4350     1.7390 H     1 <1>   0.0800 
 36 H       -4.5300     1.8000     0.5190 H     1 <1>   0.0800 
 37 H        2.7880     4.7050     0.7750 H     1 <1>   0.1500 
 38 H        1.0690     2.2020    -2.1270 H     1 <1>   0.1500 
 39 H        3.0860     5.9260    -1.5790 H     1 <1>   0.1500 
 40 H        2.0090     4.3590    -3.4050 H     1 <1>   0.1500 
 41 H       -4.5590     3.0150    -1.8350 H     1 <1>   0.1500 
 42 H       -4.1810     6.3750     0.1610 H     1 <1>   0.0800 
 43 H       -5.0260     6.3040     1.6900 H     1 <1>   0.0800 
 44 H       -6.5210     6.4030    -0.3630 H     1 <1>   0.0800 
 45 H       -6.8650     5.0830     0.7220 H     1 <1>   0.0800 
 46 H       -7.9060     4.1810    -1.7340 H     1 <1>   0.0800 
 47 H       -6.7050     3.6990    -2.9060 H     1 <1>   0.0800 
 48 H       -7.0370     5.3940    -2.6500 H     1 <1>   0.0800 
@<TRIPOS>BOND
  1   1   2  2   
  2   2   3  am  
  3   2   4  1   
  4   3   5  1   
  5   3   6  1   
  6   4   7  1   
  7   4   8  1   
  8   4   9  1   
  9   5  10  1   
 10   5  23  1   
 11   5  24  1   
 12   6  11  1   
 13   6  25  1   
 14   6  26  1   
 15   7  12  1   
 16   7  13  1   
 17   8  27  1   
 18   8  28  1   
 19   8  29  1   
 20   9  30  1   
 21   9  31  1   
 22   9  32  1   
 23  10  14  1   
 24  10  33  1   
 25  10  34  1   
 26  11  14  1   
 27  11  35  1   
 28  11  36  1   
 29  12  15  2   
 30  12  37  1   
 31  13  16  2   
 32  13  38  1   
 33  14  17  1   
 34  14  18  1   
 35  15  16  1   
 36  15  39  1   
 37  16  40  1   
 38  17  19  1   
 39  18  20  2   
 40  18  41  1   
 41  19  21  1   
 42  19  42  1   
 43  19  43  1   
 44  20  21  1   
 45  20  22  1   
 46  21  44  1   
 47  21  45  1   
 48  22  46  1   
 49  22  47  1   
 50  22  48  1   
@<TRIPOS>SUBSTRUCTURE
  1 ****   5 GROUP 4 **** **** 0

# MOE 2024.06 (io_trps.svl 2023.06)
