@<TRIPOS>MOLECULE
NONAME
48 49 1 0 0 
SMALL
USER_CHARGES


@<TRIPOS>ATOM
  1 O        1.1650    -0.0470     2.8010 O.2   1 <1>  -0.5700 
  2 C        1.2100    -0.6080     1.7340 C.2   1 <1>   0.5690 
  3 N        1.1690     0.0300     0.5340 N.am  1 <1>  -0.7300 
  4 C        1.3330    -2.1360     1.7130 C.3   1 <1>   0.1710 
  5 C        1.2020     1.4640     0.1860 C.3   1 <1>   0.3640 
  6 N        0.7900    -2.7890     0.4830 N.3   1 <1>  -0.8100 
  7 C        2.6440     1.8840    -0.0750 C.ar  1 <1>  -0.1430 
  8 C        0.5220     2.3570     1.2230 C.3   1 <1>  -0.2400 
  9 C       -0.6940    -2.7020     0.4570 C.3   1 <1>   0.2910 
 10 C        1.2300    -4.1910     0.4180 C.3   1 <1>   0.0300 
 11 C        3.6080     1.7810     0.9180 C.ar  1 <1>  -0.1500 
 12 C        3.0150     2.3750    -1.3190 C.ar  1 <1>  -0.1500 
 13 C       -1.2810    -3.1470    -0.8760 C.2   1 <1>   0.1080 
 14 C        4.9160     2.1580     0.6730 C.ar  1 <1>  -0.1500 
 15 C        4.3240     2.7530    -1.5640 C.ar  1 <1>  -0.1500 
 16 N       -2.3600    -3.8400    -0.9950 N.2   1 <1>  -0.4100 
 17 C       -0.7410    -2.8640    -2.1300 C.2   1 <1>  -0.1500 
 18 C        5.2830     2.6450    -0.5710 C.ar  1 <1>  -0.1430 
 19 O       -2.5410    -4.0170    -2.2720 O.3   1 <1>  -0.0190 
 20 C       -1.5990    -3.4510    -2.9760 C.2   1 <1>  -0.0100 
 21 C        6.7210     3.0590    -0.8410 C.3   1 <1>  -0.0170 
 22 C        6.9280     4.5410    -0.5070 C.3   1 <1>  -0.1600 
 23 C        8.3710     4.9830    -0.7720 C.3   1 <1>  -0.2400 
 24 H        1.2910    -0.5900    -0.2700 H     1 <1>   0.3700 
 25 H        0.8440    -2.5320     2.5850 H     1 <1>   0.0800 
 26 H        2.3810    -2.3610     1.7970 H     1 <1>   0.0800 
 27 H        0.6470     1.5740    -0.7300 H     1 <1>   0.0800 
 28 H        1.0860     2.3850     2.1370 H     1 <1>   0.0800 
 29 H       -0.4710     2.0010     1.4270 H     1 <1>   0.0800 
 30 H        0.4590     3.3600     0.8440 H     1 <1>   0.0800 
 31 H       -1.0040    -1.6860     0.6250 H     1 <1>   0.0800 
 32 H       -1.1100    -3.3070     1.2450 H     1 <1>   0.0800 
 33 H        2.3060    -4.2390     0.4160 H     1 <1>   0.0800 
 34 H        0.8750    -4.6550    -0.4870 H     1 <1>   0.0800 
 35 H        0.8560    -4.7470     1.2620 H     1 <1>   0.0800 
 36 H        3.3390     1.4030     1.8900 H     1 <1>   0.1500 
 37 H        2.2880     2.4680    -2.1060 H     1 <1>   0.1500 
 38 H        5.6470     2.0720     1.4570 H     1 <1>   0.1500 
 39 H        4.5940     3.1330    -2.5330 H     1 <1>   0.1500 
 40 H        0.1570    -2.3070    -2.3200 H     1 <1>   0.1500 
 41 H       -1.6210    -3.5190    -4.0490 H     1 <1>   0.1500 
 42 H        6.9570     2.8820    -1.8750 H     1 <1>   0.0800 
 43 H        7.3850     2.4560    -0.2470 H     1 <1>   0.0800 
 44 H        6.6860     4.7080     0.5280 H     1 <1>   0.0800 
 45 H        6.2560     5.1360    -1.1020 H     1 <1>   0.0800 
 46 H        9.0560     4.4150    -0.1680 H     1 <1>   0.0800 
 47 H        8.4850     6.0250    -0.5290 H     1 <1>   0.0800 
 48 H        8.6230     4.8450    -1.8090 H     1 <1>   0.0800 
@<TRIPOS>BOND
  1   1   2  2   
  2   2   3  am  
  3   2   4  1   
  4   3   5  1   
  5   3  24  1   
  6   4   6  1   
  7   4  25  1   
  8   4  26  1   
  9   5   7  1   
 10   5   8  1   
 11   5  27  1   
 12   6   9  1   
 13   6  10  1   
 14   7  11  ar  
 15   7  12  ar  
 16   8  28  1   
 17   8  29  1   
 18   8  30  1   
 19   9  13  1   
 20   9  31  1   
 21   9  32  1   
 22  10  33  1   
 23  10  34  1   
 24  10  35  1   
 25  11  14  ar  
 26  11  36  1   
 27  12  15  ar  
 28  12  37  1   
 29  13  16  2   
 30  13  17  1   
 31  14  18  ar  
 32  14  38  1   
 33  15  18  ar  
 34  15  39  1   
 35  16  19  1   
 36  17  20  2   
 37  17  40  1   
 38  18  21  1   
 39  19  20  1   
 40  20  41  1   
 41  21  22  1   
 42  21  42  1   
 43  21  43  1   
 44  22  23  1   
 45  22  44  1   
 46  22  45  1   
 47  23  46  1   
 48  23  47  1   
 49  23  48  1   
@<TRIPOS>SUBSTRUCTURE
  1 ****   3 GROUP 4 **** **** 0

# MOE 2024.06 (io_trps.svl 2023.06)
