@<TRIPOS>MOLECULE
NONAME
50 52 1 0 0 
SMALL
USER_CHARGES


@<TRIPOS>ATOM
  1 O        0.5860    -0.3120    -0.9840 O.2   1 <1>  -0.5700 
  2 C        1.7150    -0.0860    -0.6340 C.2   1 <1>   0.5690 
  3 N        2.2300     1.1440    -0.4820 N.am  1 <1>  -0.7300 
  4 C        2.7480    -1.1340    -0.3280 C.3   1 <1>  -0.0990 
  5 C        3.6620     1.1470    -0.1870 C.3   1 <1>   0.3000 
  6 C        3.8360    -0.2900     0.3680 C.3   1 <1>  -0.1860 
  7 C        4.3690     1.4330    -1.5270 C.3   1 <1>  -0.1600 
  8 C        3.9950     2.2450     0.8460 C.3   1 <1>  -0.1600 
  9 C        5.2540    -0.7770     0.2660 C.2   1 <1>   0.9060 
 10 C        5.8880     1.6130    -1.4170 C.3   1 <1>   0.3430 
 11 C        5.3410     2.9420     0.6090 C.3   1 <1>   0.3430 
 12 O        5.6570    -1.2930    -0.7740 O.co2 1 <1>  -0.9000 
 13 O        6.0420    -0.3910     1.1380 O.co2 1 <1>  -0.9000 
 14 N        6.2960     2.0170    -0.0430 N.4   1 <1>  -0.9590 
 15 C        7.7130     2.4340     0.0340 C.3   1 <1>   0.5240 
 16 C        7.8550     3.8610    -0.4600 C.2   1 <1>  -0.1810 
 17 C        7.9240     5.0210     0.2350 C.2   1 <1>  -0.3320 
 18 C        7.9410     4.2410    -1.7930 C.2   1 <1>   0.1390 
 19 N        8.0310     6.0160    -0.6790 N.pl3 1 <1>   0.3140 
 20 C        7.9050     5.2470     1.7410 C.3   1 <1>  -0.0600 
 21 N        8.0310     5.5240    -1.9300 N.2   1 <1>  -0.7070 
 22 C        8.1490     7.4710    -0.4360 C.3   1 <1>   0.0960 
 23 C        6.7640     8.1270    -0.3390 C.3   1 <1>  -0.1600 
 24 C        6.8780     9.6320    -0.0750 C.3   1 <1>  -0.2400 
 25 H        1.7050     1.9740    -0.7520 H     1 <1>   0.3700 
 26 H        3.1030    -1.5630    -1.2470 H     1 <1>   0.0800 
 27 H        2.3560    -1.9010     0.3150 H     1 <1>   0.0800 
 28 H        3.5950    -0.2890     1.4140 H     1 <1>   0.0800 
 29 H        3.9660     2.3350    -1.9510 H     1 <1>   0.0800 
 30 H        4.1770     0.6380    -2.2260 H     1 <1>   0.0800 
 31 H        4.0050     1.8300     1.8370 H     1 <1>   0.0800 
 32 H        3.2340     3.0040     0.8350 H     1 <1>   0.0800 
 33 H        6.2030     2.3510    -2.1350 H     1 <1>   0.0800 
 34 H        6.3710     0.6790    -1.6620 H     1 <1>   0.0800 
 35 H        5.7390     3.2820     1.5500 H     1 <1>   0.0800 
 36 H        5.2010     3.8010    -0.0270 H     1 <1>   0.0800 
 37 H        6.2750     1.1210     0.5090 H     1 <1>   0.4500 
 38 H        8.3260     1.7690    -0.5520 H     1 <1>   0.0800 
 39 H        8.0440     2.3780     1.0570 H     1 <1>   0.0800 
 40 H        7.9350     3.5680    -2.6340 H     1 <1>   0.1500 
 41 H        7.8180     4.3150     2.2700 H     1 <1>   0.0800 
 42 H        7.0770     5.8750     2.0160 H     1 <1>   0.0800 
 43 H        8.8180     5.7240     2.0540 H     1 <1>   0.0800 
 44 H        8.7000     7.9010    -1.2530 H     1 <1>   0.0800 
 45 H        8.7050     7.6290     0.4680 H     1 <1>   0.0800 
 46 H        6.2010     7.6720     0.4570 H     1 <1>   0.0800 
 47 H        6.2350     7.9700    -1.2640 H     1 <1>   0.0800 
 48 H        7.3880     9.8190     0.8530 H     1 <1>   0.0800 
 49 H        5.8970    10.0710    -0.0190 H     1 <1>   0.0800 
 50 H        7.4180    10.1140    -0.8720 H     1 <1>   0.0800 
@<TRIPOS>BOND
  1   1   2  2   
  2   2   3  am  
  3   2   4  1   
  4   3   5  1   
  5   3  25  1   
  6   4   6  1   
  7   4  26  1   
  8   4  27  1   
  9   5   6  1   
 10   5   7  1   
 11   5   8  1   
 12   6   9  1   
 13   6  28  1   
 14   7  10  1   
 15   7  29  1   
 16   7  30  1   
 17   8  11  1   
 18   8  31  1   
 19   8  32  1   
 20   9  12  ar  
 21   9  13  ar  
 22  10  14  1   
 23  10  33  1   
 24  10  34  1   
 25  11  14  1   
 26  11  35  1   
 27  11  36  1   
 28  14  15  1   
 29  14  37  1   
 30  15  16  1   
 31  15  38  1   
 32  15  39  1   
 33  16  17  2   
 34  16  18  1   
 35  17  19  1   
 36  17  20  1   
 37  18  21  2   
 38  18  40  1   
 39  19  21  1   
 40  19  22  1   
 41  20  41  1   
 42  20  42  1   
 43  20  43  1   
 44  22  23  1   
 45  22  44  1   
 46  22  45  1   
 47  23  24  1   
 48  23  46  1   
 49  23  47  1   
 50  24  48  1   
 51  24  49  1   
 52  24  50  1   
@<TRIPOS>SUBSTRUCTURE
  1 ****  11 GROUP 4 **** **** 0

# MOE 2024.06 (io_trps.svl 2023.06)
