@<TRIPOS>MOLECULE
NONAME
50 51 1 0 0 
SMALL
USER_CHARGES


@<TRIPOS>ATOM
  1 O        0.6130     0.6900     0.1080 O.3   1 <1>  -0.5600 
  2 C        0.3460     2.0510     0.1140 C.3   1 <1>   0.1200 
  3 C       -0.5160    -0.1230     0.2030 C.3   1 <1>   0.0400 
  4 C        1.6930     2.7740    -0.0100 C.3   1 <1>   0.3430 
  5 N        1.5560     4.2670    -0.0880 N.4   1 <1>  -0.9590 
  6 C        2.8590     4.8870    -0.5050 C.3   1 <1>   0.3430 
  7 C        1.0490     4.8670     1.1800 C.3   1 <1>   0.3430 
  8 C        2.9170     6.4050    -0.2370 C.3   1 <1>  -0.0800 
  9 C        0.6610     6.3290     0.9260 C.3   1 <1>  -0.1600 
 10 C        1.5080     7.0270    -0.1560 C.3   1 <1>  -0.1600 
 11 C        3.8030     7.0840    -1.2940 C.3   1 <1>   0.2090 
 12 N        4.0220     8.5070    -0.9400 N.pl3 1 <1>  -0.8690 
 13 C        5.0370     9.0120    -0.2030 C.ar  1 <1>   0.4100 
 14 N        5.8720     8.1460     0.3400 N.ar  1 <1>  -0.6200 
 15 C        5.1730    10.4130    -0.0340 C.ar  1 <1>  -0.1440 
 16 C        6.8710     8.6300     1.0460 C.ar  1 <1>   0.7710 
 17 C        6.2200    10.8570     0.7130 C.ar  1 <1>   0.2110 
 18 C        4.1540    11.3550    -0.6900 C.3   1 <1>  -0.0170 
 19 N        7.0640     9.9430     1.2470 N.ar  1 <1>  -0.1790 
 20 N        7.7130     7.7440     1.5720 N.pl3 1 <1>  -0.9000 
 21 C        4.3910    12.8490    -0.4390 C.3   1 <1>  -0.2400 
 22 H       -0.1450     2.2920     1.0400 H     1 <1>   0.0800 
 23 H       -0.2890     2.2750    -0.7260 H     1 <1>   0.0800 
 24 H       -0.1930    -1.1490     0.1880 H     1 <1>   0.0800 
 25 H       -1.1630     0.0610    -0.6380 H     1 <1>   0.0800 
 26 H       -1.0280     0.0790     1.1280 H     1 <1>   0.0800 
 27 H        2.1770     2.4140    -0.9030 H     1 <1>   0.0800 
 28 H        2.3070     2.5090     0.8350 H     1 <1>   0.0800 
 29 H        0.8670     4.4940    -0.8170 H     1 <1>   0.4500 
 30 H        3.0060     4.7060    -1.5580 H     1 <1>   0.0800 
 31 H        3.6730     4.4170     0.0230 H     1 <1>   0.0800 
 32 H        1.8240     4.8240     1.9290 H     1 <1>   0.0800 
 33 H        0.1920     4.3270     1.5490 H     1 <1>   0.0800 
 34 H        3.4040     6.5400     0.7130 H     1 <1>   0.0800 
 35 H        0.7640     6.8600     1.8570 H     1 <1>   0.0800 
 36 H       -0.3790     6.3830     0.6540 H     1 <1>   0.0800 
 37 H        1.0200     6.9300    -1.1110 H     1 <1>   0.0800 
 38 H        1.5680     8.0790     0.0710 H     1 <1>   0.0800 
 39 H        3.3420     7.0290    -2.2660 H     1 <1>   0.0800 
 40 H        4.7560     6.5820    -1.3540 H     1 <1>   0.0800 
 41 H        3.3500     9.1510    -1.3680 H     1 <1>   0.4000 
 42 H        6.4160    11.9000     0.9030 H     1 <1>   0.1500 
 43 H        3.1700    11.1070    -0.3300 H     1 <1>   0.0800 
 44 H        4.1620    11.1880    -1.7540 H     1 <1>   0.0800 
 45 H        7.8650    10.2130     1.8100 H     1 <1>   0.4570 
 46 H        8.5450     7.9120     2.1400 H     1 <1>   0.4000 
 47 H        7.5450     6.7520     1.3800 H     1 <1>   0.4000 
 48 H        4.3400    13.0780     0.6110 H     1 <1>   0.0800 
 49 H        3.6260    13.4220    -0.9370 H     1 <1>   0.0800 
 50 H        5.3420    13.1610    -0.8330 H     1 <1>   0.0800 
@<TRIPOS>BOND
  1   1   2  1   
  2   1   3  1   
  3   2   4  1   
  4   2  22  1   
  5   2  23  1   
  6   3  24  1   
  7   3  25  1   
  8   3  26  1   
  9   4   5  1   
 10   4  27  1   
 11   4  28  1   
 12   5   6  1   
 13   5   7  1   
 14   5  29  1   
 15   6   8  1   
 16   6  30  1   
 17   6  31  1   
 18   7   9  1   
 19   7  32  1   
 20   7  33  1   
 21   8  10  1   
 22   8  11  1   
 23   8  34  1   
 24   9  10  1   
 25   9  35  1   
 26   9  36  1   
 27  10  37  1   
 28  10  38  1   
 29  11  12  1   
 30  11  39  1   
 31  11  40  1   
 32  12  13  1   
 33  12  41  1   
 34  13  14  ar  
 35  13  15  ar  
 36  14  16  ar  
 37  15  17  ar  
 38  15  18  1   
 39  16  19  ar  
 40  16  20  1   
 41  17  19  ar  
 42  17  42  1   
 43  18  21  1   
 44  18  43  1   
 45  18  44  1   
 46  19  45  1   
 47  20  46  1   
 48  20  47  1   
 49  21  48  1   
 50  21  49  1   
 51  21  50  1   
@<TRIPOS>SUBSTRUCTURE
  1 ****   8 GROUP 4 **** **** 0

# MOE 2024.06 (io_trps.svl 2023.06)
