@<TRIPOS>MOLECULE
NONAME
50 52 1 0 0 
SMALL
USER_CHARGES


@<TRIPOS>ATOM
  1 O        3.1120     0.8440     1.9450 O.3   1 <1>  -0.6800 
  2 C        2.3710     0.5480     0.8130 C.3   1 <1>   0.2000 
  3 C        3.2640    -0.1530    -0.2710 C.3   1 <1>   0.0000 
  4 C        1.7810     1.8880     0.3360 C.3   1 <1>  -0.1600 
  5 C        3.8240     0.9050    -1.2460 C.3   1 <1>   0.3430 
  6 C        2.3740    -1.1250    -1.0840 C.3   1 <1>   0.1200 
  7 C        4.4210    -1.0200     0.3300 C.3   1 <1>  -0.0170 
  8 C        2.8530     2.8810    -0.1410 C.3   1 <1>   0.3430 
  9 N        4.1070     2.1710    -0.5210 N.4   1 <1>  -0.9590 
 10 O        1.4100    -0.4310    -1.7990 O.3   1 <1>  -0.6800 
 11 C        5.7750    -0.3270     0.5070 C.ar  1 <1>  -0.1430 
 12 C        5.1400     3.0110    -1.1820 C.3   1 <1>   0.4860 
 13 C        6.1480     0.1940     1.7360 C.ar  1 <1>  -0.1500 
 14 C        6.6720    -0.2510    -0.5510 C.ar  1 <1>  -0.1500 
 15 C        5.2820     4.3650    -0.5140 C.ar  1 <1>  -0.1430 
 16 C        7.3820     0.7990     1.9030 C.ar  1 <1>  -0.1500 
 17 C        7.9000     0.3700    -0.3920 C.ar  1 <1>  -0.1500 
 18 C        5.5640     4.4730     0.8480 C.ar  1 <1>   0.4100 
 19 C        5.1260     5.5180    -1.2540 C.ar  1 <1>  -0.1500 
 20 C        8.2540     0.8990     0.8350 C.ar  1 <1>  -0.1500 
 21 N        5.6780     5.6100     1.4980 N.ar  1 <1>  -0.6200 
 22 N        5.7190     3.3950     1.6550 N.pl3 1 <1>  -0.9000 
 23 C        5.2550     6.7170    -0.5820 C.ar  1 <1>  -0.1500 
 24 C        5.5260     6.7060     0.7740 C.ar  1 <1>   0.1600 
 25 H        2.5280     1.1180     2.6820 H     1 <1>   0.4000 
 26 H        1.5800    -0.1150     1.1240 H     1 <1>   0.0800 
 27 H        1.1030     1.7110    -0.4770 H     1 <1>   0.0800 
 28 H        1.1970     2.3390     1.1180 H     1 <1>   0.0800 
 29 H        3.1000     1.1060    -2.0180 H     1 <1>   0.0800 
 30 H        4.7120     0.5300    -1.7210 H     1 <1>   0.0800 
 31 H        1.8740    -1.8210    -0.4310 H     1 <1>   0.0800 
 32 H        2.9610    -1.6810    -1.7970 H     1 <1>   0.0800 
 33 H        4.1090    -1.4390     1.2720 H     1 <1>   0.0800 
 34 H        4.6070    -1.8670    -0.3070 H     1 <1>   0.0800 
 35 H        3.0750     3.5690     0.6610 H     1 <1>   0.0800 
 36 H        2.4740     3.4490    -0.9750 H     1 <1>   0.0800 
 37 H        4.5190     1.9010     0.3980 H     1 <1>   0.4500 
 38 H        0.8060    -1.0490    -2.2650 H     1 <1>   0.4000 
 39 H        6.0890     2.5010    -1.1480 H     1 <1>   0.0800 
 40 H        4.8740     3.1580    -2.2150 H     1 <1>   0.0800 
 41 H        5.4830     0.1220     2.5810 H     1 <1>   0.1500 
 42 H        6.4330    -0.6870    -1.5050 H     1 <1>   0.1500 
 43 H        7.6640     1.1850     2.8690 H     1 <1>   0.1500 
 44 H        8.5890     0.4260    -1.2170 H     1 <1>   0.1500 
 45 H        4.9130     5.5080    -2.3100 H     1 <1>   0.1500 
 46 H        9.2150     1.3700     0.9640 H     1 <1>   0.1500 
 47 H        5.8070     3.7110     2.6260 H     1 <1>   0.4000 
 48 H        6.5100     2.7790     1.4390 H     1 <1>   0.4000 
 49 H        5.1470     7.6530    -1.1020 H     1 <1>   0.1500 
 50 H        5.6240     7.6470     1.2900 H     1 <1>   0.1500 
@<TRIPOS>BOND
  1   1   2  1   
  2   1  25  1   
  3   2   3  1   
  4   2   4  1   
  5   2  26  1   
  6   3   5  1   
  7   3   6  1   
  8   3   7  1   
  9   4   8  1   
 10   4  27  1   
 11   4  28  1   
 12   5   9  1   
 13   5  29  1   
 14   5  30  1   
 15   6  10  1   
 16   6  31  1   
 17   6  32  1   
 18   7  11  1   
 19   7  33  1   
 20   7  34  1   
 21   8   9  1   
 22   8  35  1   
 23   8  36  1   
 24   9  12  1   
 25   9  37  1   
 26  10  38  1   
 27  11  13  ar  
 28  11  14  ar  
 29  12  15  1   
 30  12  39  1   
 31  12  40  1   
 32  13  16  ar  
 33  13  41  1   
 34  14  17  ar  
 35  14  42  1   
 36  15  18  ar  
 37  15  19  ar  
 38  16  20  ar  
 39  16  43  1   
 40  17  20  ar  
 41  17  44  1   
 42  18  21  ar  
 43  18  22  1   
 44  19  23  ar  
 45  19  45  1   
 46  20  46  1   
 47  21  24  ar  
 48  22  47  1   
 49  22  48  1   
 50  23  24  ar  
 51  23  49  1   
 52  24  50  1   
@<TRIPOS>SUBSTRUCTURE
  1 ****   9 GROUP 4 **** **** 0

# MOE 2024.06 (io_trps.svl 2023.06)
