@<TRIPOS>MOLECULE
NONAME
17 18 1 0 0 
SMALL
USER_CHARGES


@<TRIPOS>ATOM
  1 BR      -0.2140     0.2910    -0.4790 Br    1 <1>  -0.0580 
  2 C        1.6900     0.2160    -0.3090 C.2   1 <1>   0.4360 
  3 S        2.3540    -1.3580     0.0440 S.3   1 <1>  -0.0800 
  4 N        2.5130     1.1790    -0.4250 N.2   1 <1>  -0.5650 
  5 C        3.9210    -0.6110     0.0210 C.2   1 <1>  -0.1400 
  6 C        3.8230     0.7150    -0.2290 C.2   1 <1>   0.1410 
  7 C        5.1810    -1.4150     0.2620 C.3   1 <1>   0.0200 
  8 C        5.0010     1.5580    -0.2710 C.2   1 <1>   0.5950 
  9 C        6.3860    -0.6100    -0.2600 C.3   1 <1>  -0.1600 
 10 O        5.0310     2.7260    -0.5670 O.2   1 <1>  -0.5700 
 11 C        6.3200     0.8890     0.1190 C.3   1 <1>  -0.0990 
 12 H        5.1230    -2.3600    -0.2500 H     1 <1>   0.0800 
 13 H        5.2830    -1.6030     1.3170 H     1 <1>   0.0800 
 14 H        6.4050    -0.6860    -1.3340 H     1 <1>   0.0800 
 15 H        7.2990    -1.0430     0.1120 H     1 <1>   0.0800 
 16 H        6.4440     1.0000     1.1810 H     1 <1>   0.0800 
 17 H        7.1260     1.4140    -0.3610 H     1 <1>   0.0800 
@<TRIPOS>BOND
  1   1   2  1   
  2   2   3  1   
  3   2   4  2   
  4   3   5  1   
  5   4   6  1   
  6   5   6  2   
  7   5   7  1   
  8   6   8  1   
  9   7   9  1   
 10   7  12  1   
 11   7  13  1   
 12   8  10  2   
 13   8  11  1   
 14   9  11  1   
 15   9  14  1   
 16   9  15  1   
 17  11  16  1   
 18  11  17  1   
@<TRIPOS>SUBSTRUCTURE
  1 ****   6 GROUP 4 **** **** 0

# MOE 2024.06 (io_trps.svl 2023.06)
