@<TRIPOS>MOLECULE
NONAME
38 40 1 0 0 
SMALL
USER_CHARGES


@<TRIPOS>ATOM
  1 CL      -0.5390    -0.8870     2.1360 Cl    1 <1>  -0.1770 
  2 C        0.9020    -1.4300     1.2900 C.ar  1 <1>   0.1770 
  3 C        0.8960    -2.5440     0.4550 C.ar  1 <1>   0.4100 
  4 C        2.0790    -0.7540     1.4580 C.ar  1 <1>   0.1600 
  5 N        2.0100    -2.9310    -0.1440 N.ar  1 <1>  -0.6200 
  6 N       -0.2370    -3.2960     0.1970 N.pl3 1 <1>  -0.8380 
  7 N        3.1950    -1.1300     0.8560 N.ar  1 <1>  -0.6200 
  8 C        3.0870    -2.2030     0.0890 C.ar  1 <1>   0.4770 
  9 C       -1.3710    -2.6770    -0.5330 C.3   1 <1>   0.2090 
 10 C       -0.1290    -4.7750     0.1070 C.3   1 <1>   0.2090 
 11 C        4.3560    -2.6480    -0.5980 C.3   1 <1>  -0.0960 
 12 C       -2.6780    -3.2890    -0.0290 C.3   1 <1>  -0.1600 
 13 C       -1.4310    -5.4010     0.6060 C.3   1 <1>  -0.1600 
 14 C       -2.6680    -4.8220    -0.0940 C.3   1 <1>   0.4230 
 15 O       -2.5650    -5.1640    -1.4290 O.3   1 <1>  -0.6800 
 16 C       -3.9620    -5.4080     0.4930 C.ar  1 <1>  -0.1440 
 17 C       -4.8490    -6.1660    -0.2670 C.ar  1 <1>   0.1600 
 18 C       -4.2820    -5.1890     1.8230 C.ar  1 <1>  -0.1500 
 19 N       -5.9800    -6.6990     0.1760 N.ar  1 <1>  -0.6200 
 20 C       -5.4530    -5.7350     2.3010 C.ar  1 <1>  -0.1500 
 21 C       -6.2540    -6.4710     1.4480 C.ar  1 <1>   0.1600 
 22 H        2.1140     0.1100     2.0980 H     1 <1>   0.1500 
 23 H       -1.2530    -2.8530    -1.5890 H     1 <1>   0.0800 
 24 H       -1.3820    -1.6120    -0.3760 H     1 <1>   0.0800 
 25 H        0.6930    -5.1170     0.7140 H     1 <1>   0.0800 
 26 H        0.0700    -5.0590    -0.9120 H     1 <1>   0.0800 
 27 H        4.1330    -3.3440    -1.3860 H     1 <1>   0.0800 
 28 H        5.0010    -3.1200     0.1180 H     1 <1>   0.0800 
 29 H        4.8590    -1.7960    -1.0180 H     1 <1>   0.0800 
 30 H       -3.5070    -2.9100    -0.5990 H     1 <1>   0.0800 
 31 H       -2.8160    -2.9700     0.9870 H     1 <1>   0.0800 
 32 H       -1.4970    -5.2160     1.6620 H     1 <1>   0.0800 
 33 H       -1.4050    -6.4660     0.4700 H     1 <1>   0.0800 
 34 H       -1.7260    -4.8120    -1.7760 H     1 <1>   0.4000 
 35 H       -4.6270    -6.3530    -1.3030 H     1 <1>   0.1500 
 36 H       -3.6480    -4.6140     2.4750 H     1 <1>   0.1500 
 37 H       -5.7460    -5.5930     3.3250 H     1 <1>   0.1500 
 38 H       -7.1680    -6.8940     1.8300 H     1 <1>   0.1500 
@<TRIPOS>BOND
  1   1   2  1   
  2   2   3  ar  
  3   2   4  ar  
  4   3   5  ar  
  5   3   6  1   
  6   4   7  ar  
  7   4  22  1   
  8   5   8  ar  
  9   6   9  1   
 10   6  10  1   
 11   7   8  ar  
 12   8  11  1   
 13   9  12  1   
 14   9  23  1   
 15   9  24  1   
 16  10  13  1   
 17  10  25  1   
 18  10  26  1   
 19  11  27  1   
 20  11  28  1   
 21  11  29  1   
 22  12  14  1   
 23  12  30  1   
 24  12  31  1   
 25  13  14  1   
 26  13  32  1   
 27  13  33  1   
 28  14  15  1   
 29  14  16  1   
 30  15  34  1   
 31  16  17  ar  
 32  16  18  ar  
 33  17  19  ar  
 34  17  35  1   
 35  18  20  ar  
 36  18  36  1   
 37  19  21  ar  
 38  20  21  ar  
 39  20  37  1   
 40  21  38  1   
@<TRIPOS>SUBSTRUCTURE
  1 ****   6 GROUP 4 **** **** 0

# MOE 2024.06 (io_trps.svl 2023.06)
