@<TRIPOS>MOLECULE
NONAME
54 57 1 0 0 
SMALL
USER_CHARGES


@<TRIPOS>ATOM
  1 N        0.0050    -0.0330     1.2300 N.ar  1 <1>  -0.6200 
  2 C       -1.1910     0.3120     1.6900 C.ar  1 <1>   0.7200 
  3 C        0.4610     0.7700     0.3020 C.ar  1 <1>   0.1660 
  4 N       -1.9540     1.3310     1.3230 N.ar  1 <1>  -0.6200 
  5 N       -1.7010    -0.4770     2.6360 N.pl3 1 <1>  -0.9000 
  6 C       -0.2190     1.8580    -0.1560 C.ar  1 <1>  -0.1430 
  7 C        1.8040     0.6210    -0.3700 C.3   1 <1>   0.1440 
  8 C       -1.4550     2.1100     0.3890 C.ar  1 <1>   0.1600 
  9 C        0.5630     2.6000    -1.2100 C.3   1 <1>  -0.0170 
 10 C        2.8600     0.3690     0.7210 C.3   1 <1>   0.3430 
 11 C        1.7760    -0.5530    -1.3710 C.3   1 <1>  -0.1600 
 12 C        1.9740     1.9910    -1.0830 C.3   1 <1>  -0.1600 
 13 N        4.2090     0.0660     0.1420 N.4   1 <1>  -0.9590 
 14 C        3.1830    -0.8970    -1.8940 C.3   1 <1>  -0.1600 
 15 C        4.1820    -1.1250    -0.7570 C.3   1 <1>   0.3430 
 16 C        5.2380    -0.0770     1.2000 C.3   1 <1>   0.5240 
 17 C        6.5770    -0.0360     0.5070 C.2   1 <1>  -0.1810 
 18 C        7.4240    -1.1190     0.2930 C.2   1 <1>   0.1080 
 19 C        7.2120     1.0210    -0.0530 C.2   1 <1>  -0.3320 
 20 N        8.4830    -0.7770    -0.3590 N.2   1 <1>  -0.7070 
 21 C        7.2260    -2.5550     0.7310 C.3   1 <1>  -0.0590 
 22 N        8.3720     0.5450    -0.5680 N.pl3 1 <1>   0.3140 
 23 C        6.7980     2.4860    -0.1250 C.3   1 <1>  -0.0600 
 24 C        9.4420     1.2900    -1.2700 C.3   1 <1>   0.0960 
 25 C       10.4730     1.8460    -0.2790 C.3   1 <1>  -0.2400 
 26 H       -2.6970    -0.3490     2.8020 H     1 <1>   0.4000 
 27 H       -1.3630    -1.4330     2.6550 H     1 <1>   0.4000 
 28 H       -2.0390     2.9540     0.0620 H     1 <1>   0.1500 
 29 H        0.5680     3.6620    -1.0320 H     1 <1>   0.0800 
 30 H        0.1430     2.3970    -2.1810 H     1 <1>   0.0800 
 31 H        2.5310    -0.4650     1.3200 H     1 <1>   0.0800 
 32 H        2.9120     1.2340     1.3630 H     1 <1>   0.0800 
 33 H        1.1210    -0.3230    -2.1950 H     1 <1>   0.0800 
 34 H        1.3700    -1.4210    -0.8770 H     1 <1>   0.0800 
 35 H        2.4470     1.9110    -2.0460 H     1 <1>   0.0800 
 36 H        2.5630     2.6500    -0.4680 H     1 <1>   0.0800 
 37 H        4.5300     0.8560    -0.4310 H     1 <1>   0.4500 
 38 H        3.5490    -0.1170    -2.5370 H     1 <1>   0.0800 
 39 H        3.1270    -1.7930    -2.4890 H     1 <1>   0.0800 
 40 H        3.8920    -1.9990    -0.1960 H     1 <1>   0.0800 
 41 H        5.1630    -1.3000    -1.1730 H     1 <1>   0.0800 
 42 H        5.1120    -1.0010     1.7390 H     1 <1>   0.0800 
 43 H        5.1770     0.7440     1.8950 H     1 <1>   0.0800 
 44 H        6.2250    -2.7390     1.0670 H     1 <1>   0.0800 
 45 H        7.9110    -2.7780     1.5290 H     1 <1>   0.0800 
 46 H        7.4440    -3.2110    -0.0920 H     1 <1>   0.0800 
 47 H        5.8690     2.6540     0.3860 H     1 <1>   0.0800 
 48 H        6.6910     2.7940    -1.1500 H     1 <1>   0.0800 
 49 H        7.5490     3.1020     0.3400 H     1 <1>   0.0800 
 50 H        9.0000     2.0870    -1.8380 H     1 <1>   0.0800 
 51 H        9.9250     0.6140    -1.9520 H     1 <1>   0.0800 
 52 H       10.0100     2.5310     0.4080 H     1 <1>   0.0800 
 53 H       11.2490     2.3650    -0.8130 H     1 <1>   0.0800 
 54 H       10.9220     1.0390     0.2730 H     1 <1>   0.0800 
@<TRIPOS>BOND
  1   1   2  ar  
  2   1   3  ar  
  3   2   4  ar  
  4   2   5  1   
  5   3   6  ar  
  6   3   7  1   
  7   4   8  ar  
  8   5  26  1   
  9   5  27  1   
 10   6   8  ar  
 11   6   9  1   
 12   7  10  1   
 13   7  11  1   
 14   7  12  1   
 15   8  28  1   
 16   9  12  1   
 17   9  29  1   
 18   9  30  1   
 19  10  13  1   
 20  10  31  1   
 21  10  32  1   
 22  11  14  1   
 23  11  33  1   
 24  11  34  1   
 25  12  35  1   
 26  12  36  1   
 27  13  15  1   
 28  13  16  1   
 29  13  37  1   
 30  14  15  1   
 31  14  38  1   
 32  14  39  1   
 33  15  40  1   
 34  15  41  1   
 35  16  17  1   
 36  16  42  1   
 37  16  43  1   
 38  17  18  1   
 39  17  19  2   
 40  18  20  2   
 41  18  21  1   
 42  19  22  1   
 43  19  23  1   
 44  20  22  1   
 45  21  44  1   
 46  21  45  1   
 47  21  46  1   
 48  22  24  1   
 49  23  47  1   
 50  23  48  1   
 51  23  49  1   
 52  24  25  1   
 53  24  50  1   
 54  24  51  1   
 55  25  52  1   
 56  25  53  1   
 57  25  54  1   
@<TRIPOS>SUBSTRUCTURE
  1 ****  13 GROUP 4 **** **** 0

# MOE 2024.06 (io_trps.svl 2023.06)
