@<TRIPOS>MOLECULE
NONAME
58 62 1 0 0 
SMALL
USER_CHARGES


@<TRIPOS>ATOM
  1 O       -0.7780    -0.0280     0.1480 O.2   1 <1>  -0.5700 
  2 C       -1.7640     0.6580     0.3370 C.2   1 <1>   0.5440 
  3 N       -2.8980     0.0520     0.8270 N.am  1 <1>  -0.6600 
  4 C       -1.6930     2.0680     0.0660 C.ar  1 <1>   0.0860 
  5 C       -4.1360     0.7060     1.3050 C.3   1 <1>   0.1400 
  6 C       -3.0640    -1.4110     0.9150 C.3   1 <1>   0.1400 
  7 C       -0.6860     2.8530     0.5900 C.ar  1 <1>   0.1600 
  8 C       -2.5940     2.7400    -0.7380 C.ar  1 <1>   0.1600 
  9 C       -5.2500    -0.3010     1.0000 C.3   1 <1>  -0.0800 
 10 C       -4.5560    -1.6470     0.6600 C.3   1 <1>  -0.0800 
 11 N       -0.5940     4.1440     0.3820 N.ar  1 <1>  -0.6200 
 12 N       -2.5330     4.0290    -0.9670 N.ar  1 <1>  -0.6200 
 13 C       -6.2590     0.2140    -0.0550 C.3   1 <1>   0.4240 
 14 C       -4.7950    -2.1390    -0.7810 C.3   1 <1>  -0.1600 
 15 C       -1.5310     4.6940    -0.3910 C.ar  1 <1>   0.7200 
 16 O       -5.5590     0.6880    -1.1520 O.3   1 <1>  -0.6800 
 17 C       -7.1240     1.3510     0.5300 C.ar  1 <1>  -0.1430 
 18 C       -7.1010    -0.9640    -0.5740 C.3   1 <1>  -0.1600 
 19 C       -6.2790    -2.1170    -1.1950 C.3   1 <1>  -0.1600 
 20 N       -1.4570     6.0480    -0.6130 N.pl3 1 <1>  -0.8380 
 21 C       -8.0730     1.0730     1.5110 C.ar  1 <1>  -0.1500 
 22 C       -6.9820     2.6760     0.1230 C.ar  1 <1>  -0.1500 
 23 C       -2.4550     6.8090    -1.4280 C.3   1 <1>   0.2090 
 24 C       -0.3620     6.9190    -0.0820 C.3   1 <1>   0.2090 
 25 C       -8.8530     2.0760     2.0600 C.ar  1 <1>  -0.1500 
 26 C       -7.7590     3.6820     0.6710 C.ar  1 <1>  -0.1500 
 27 C       -2.9130     8.0760    -0.6830 C.3   1 <1>   0.1200 
 28 C       -0.9440     8.1780     0.5850 C.3   1 <1>   0.1200 
 29 C       -8.6970     3.3830     1.6400 C.ar  1 <1>  -0.1500 
 30 O       -1.8170     8.8520    -0.2800 O.3   1 <1>  -0.5600 
 31 H       -4.0600     0.8580     2.3680 H     1 <1>   0.0800 
 32 H       -4.3090     1.6570     0.8350 H     1 <1>   0.0800 
 33 H       -2.4400    -1.9190     0.1980 H     1 <1>   0.0800 
 34 H       -2.7950    -1.7310     1.9060 H     1 <1>   0.0800 
 35 H        0.0650     2.3830     1.2030 H     1 <1>   0.1500 
 36 H       -3.3900     2.1850    -1.2040 H     1 <1>   0.1500 
 37 H       -5.7970    -0.4480     1.9130 H     1 <1>   0.0800 
 38 H       -4.9070    -2.4120     1.3310 H     1 <1>   0.0800 
 39 H       -4.2260    -1.5280    -1.4610 H     1 <1>   0.0800 
 40 H       -4.4150    -3.1410    -0.8860 H     1 <1>   0.0800 
 41 H       -5.1030    -0.0750    -1.5490 H     1 <1>   0.4000 
 42 H       -7.6550    -1.3720     0.2510 H     1 <1>   0.0800 
 43 H       -7.8240    -0.5990    -1.2820 H     1 <1>   0.0800 
 44 H       -6.7370    -3.0490    -0.9120 H     1 <1>   0.0800 
 45 H       -6.3340    -2.0540    -2.2690 H     1 <1>   0.0800 
 46 H       -8.2180     0.0690     1.8660 H     1 <1>   0.1500 
 47 H       -6.2610     2.9470    -0.6300 H     1 <1>   0.1500 
 48 H       -2.0030     7.0920    -2.3620 H     1 <1>   0.0800 
 49 H       -3.3210     6.2120    -1.6510 H     1 <1>   0.0800 
 50 H        0.2430     6.3980     0.6390 H     1 <1>   0.0800 
 51 H        0.2770     7.2130    -0.8950 H     1 <1>   0.0800 
 52 H       -9.5830     1.8390     2.8140 H     1 <1>   0.1500 
 53 H       -7.6310     4.6970     0.3390 H     1 <1>   0.1500 
 54 H       -3.4840     7.8080     0.1880 H     1 <1>   0.0800 
 55 H       -3.5250     8.6820    -1.3270 H     1 <1>   0.0800 
 56 H       -0.1530     8.8560     0.8470 H     1 <1>   0.0800 
 57 H       -1.4820     7.9100     1.4780 H     1 <1>   0.0800 
 58 H       -9.3030     4.1640     2.0650 H     1 <1>   0.1500 
@<TRIPOS>BOND
  1   1   2  2   
  2   2   3  am  
  3   2   4  1   
  4   3   5  1   
  5   3   6  1   
  6   4   7  ar  
  7   4   8  ar  
  8   5   9  1   
  9   5  31  1   
 10   5  32  1   
 11   6  10  1   
 12   6  33  1   
 13   6  34  1   
 14   7  11  ar  
 15   7  35  1   
 16   8  12  ar  
 17   8  36  1   
 18   9  10  1   
 19   9  13  1   
 20   9  37  1   
 21  10  14  1   
 22  10  38  1   
 23  11  15  ar  
 24  12  15  ar  
 25  13  16  1   
 26  13  17  1   
 27  13  18  1   
 28  14  19  1   
 29  14  39  1   
 30  14  40  1   
 31  15  20  1   
 32  16  41  1   
 33  17  21  ar  
 34  17  22  ar  
 35  18  19  1   
 36  18  42  1   
 37  18  43  1   
 38  19  44  1   
 39  19  45  1   
 40  20  23  1   
 41  20  24  1   
 42  21  25  ar  
 43  21  46  1   
 44  22  26  ar  
 45  22  47  1   
 46  23  27  1   
 47  23  48  1   
 48  23  49  1   
 49  24  28  1   
 50  24  50  1   
 51  24  51  1   
 52  25  29  ar  
 53  25  52  1   
 54  26  29  ar  
 55  26  53  1   
 56  27  30  1   
 57  27  54  1   
 58  27  55  1   
 59  28  30  1   
 60  28  56  1   
 61  28  57  1   
 62  29  58  1   
@<TRIPOS>SUBSTRUCTURE
  1 ****   8 GROUP 4 **** **** 0

# MOE 2024.06 (io_trps.svl 2023.06)
