@<TRIPOS>MOLECULE
NONAME
49 51 1 0 0 
SMALL
USER_CHARGES


@<TRIPOS>ATOM
  1 S        0.8150    -0.0130    -0.2230 S.o2  1 <1>   1.3330 
  2 O        2.2130     0.1780     0.0940 O.2   1 <1>  -0.6500 
  3 O        0.4330    -0.3050    -1.5870 O.2   1 <1>  -0.6500 
  4 N        0.2080    -1.2500     0.7680 N.am  1 <1>  -0.8490 
  5 C       -0.0830     1.4350     0.3260 C.3   1 <1>  -0.0550 
  6 C        1.1750    -2.3370     0.9530 C.3   1 <1>   0.1160 
  7 C       -1.0710    -1.7950     0.3020 C.3   1 <1>   0.1160 
  8 C        0.2720     2.7000    -0.4810 C.3   1 <1>  -0.0800 
  9 C       -0.6220     3.9060    -0.2020 C.3   1 <1>   0.2000 
 10 C        1.7020     3.2130    -0.2360 C.3   1 <1>   0.1100 
 11 O       -0.8640     3.9840     1.1570 O.3   1 <1>  -0.6800 
 12 C        0.2860     5.0700    -0.5730 C.3   1 <1>   0.1100 
 13 N        1.6030     4.6700    -0.0520 N.3   1 <1>  -0.8100 
 14 C        2.7250     5.3980    -0.6580 C.3   1 <1>   0.2530 
 15 C        2.6190     6.8820    -0.3590 C.ar  1 <1>  -0.1440 
 16 C        2.4020     7.3420     0.9160 C.ar  1 <1>   0.1600 
 17 C        2.7360     7.8310    -1.3450 C.ar  1 <1>   0.1600 
 18 N        2.3060     8.6200     1.1940 N.ar  1 <1>  -0.6200 
 19 N        2.6440     9.1150    -1.1000 N.ar  1 <1>  -0.6200 
 20 C        2.4140     9.4780     0.1710 C.ar  1 <1>   0.6200 
 21 C        2.3040    10.9120     0.4480 C.ar  1 <1>   0.3100 
 22 N        1.2670    11.3880     1.1620 N.ar  1 <1>  -0.6200 
 23 C        3.2890    11.7710    -0.0480 C.ar  1 <1>  -0.1500 
 24 C        1.2270    12.6900     1.3760 C.ar  1 <1>   0.1600 
 25 C        3.2360    13.1280     0.1810 C.ar  1 <1>  -0.1500 
 26 C        2.1690    13.5920     0.9170 C.ar  1 <1>  -0.1500 
 27 H       -1.1340     1.2540     0.2250 H     1 <1>   0.0800 
 28 H        0.1190     1.6030     1.3660 H     1 <1>   0.0800 
 29 H        0.7660    -3.0940     1.6000 H     1 <1>   0.0800 
 30 H        2.0740    -1.9570     1.4090 H     1 <1>   0.0800 
 31 H        1.4280    -2.7780     0.0030 H     1 <1>   0.0800 
 32 H       -1.4480    -2.5120     1.0130 H     1 <1>   0.0800 
 33 H       -0.9500    -2.2790    -0.6530 H     1 <1>   0.0800 
 34 H       -1.7970    -1.0070     0.2010 H     1 <1>   0.0800 
 35 H        0.1850     2.4690    -1.5290 H     1 <1>   0.0800 
 36 H       -1.5600     3.8930    -0.7300 H     1 <1>   0.0800 
 37 H        2.3290     2.9610    -1.0760 H     1 <1>   0.0800 
 38 H        2.1290     2.7780     0.6530 H     1 <1>   0.0800 
 39 H       -0.0210     4.2680     1.5720 H     1 <1>   0.4000 
 40 H       -0.0530     5.9970    -0.1400 H     1 <1>   0.0800 
 41 H        0.3240     5.1690    -1.6450 H     1 <1>   0.0800 
 42 H        3.6490     5.0260    -0.2470 H     1 <1>   0.0800 
 43 H        2.7370     5.2300    -1.7220 H     1 <1>   0.0800 
 44 H        2.3010     6.6390     1.7270 H     1 <1>   0.1500 
 45 H        2.9100     7.5310    -2.3650 H     1 <1>   0.1500 
 46 H        4.1000    11.3580    -0.6200 H     1 <1>   0.1500 
 47 H        0.3960    13.0610     1.9510 H     1 <1>   0.1500 
 48 H        3.9920    13.7950    -0.1980 H     1 <1>   0.1500 
 49 H        2.0660    14.6390     1.1340 H     1 <1>   0.1500 
@<TRIPOS>BOND
  1   1   2  2   
  2   1   3  2   
  3   1   4  am  
  4   1   5  1   
  5   4   6  1   
  6   4   7  1   
  7   5   8  1   
  8   5  27  1   
  9   5  28  1   
 10   6  29  1   
 11   6  30  1   
 12   6  31  1   
 13   7  32  1   
 14   7  33  1   
 15   7  34  1   
 16   8   9  1   
 17   8  10  1   
 18   8  35  1   
 19   9  11  1   
 20   9  12  1   
 21   9  36  1   
 22  10  13  1   
 23  10  37  1   
 24  10  38  1   
 25  11  39  1   
 26  12  13  1   
 27  12  40  1   
 28  12  41  1   
 29  13  14  1   
 30  14  15  1   
 31  14  42  1   
 32  14  43  1   
 33  15  16  ar  
 34  15  17  ar  
 35  16  18  ar  
 36  16  44  1   
 37  17  19  ar  
 38  17  45  1   
 39  18  20  ar  
 40  19  20  ar  
 41  20  21  1   
 42  21  22  ar  
 43  21  23  ar  
 44  22  24  ar  
 45  23  25  ar  
 46  23  46  1   
 47  24  26  ar  
 48  24  47  1   
 49  25  26  ar  
 50  25  48  1   
 51  26  49  1   
@<TRIPOS>SUBSTRUCTURE
  1 ****  13 GROUP 4 **** **** 0

# MOE 2024.06 (io_trps.svl 2023.06)
