@<TRIPOS>MOLECULE
NONAME
43 45 1 0 0 
SMALL
USER_CHARGES


@<TRIPOS>ATOM
  1 N       -0.5540    -0.7740     0.1790 N.2   1 <1>  -0.5650 
  2 C        0.0890     0.2890     0.7420 C.ar  1 <1>   0.2270 
  3 C        0.0970    -0.9990    -0.9170 C.2   1 <1>   0.0060 
  4 C        1.1460     0.6880    -0.0530 C.ar  1 <1>  -0.1520 
  5 C       -0.1770     0.9630     1.9320 C.ar  1 <1>  -0.1500 
  6 N        1.1400    -0.1480    -1.1190 N.pl3 1 <1>   0.0330 
  7 C       -0.2740    -2.1090    -1.8950 C.3   1 <1>   0.5230 
  8 C        1.9630     1.7600     0.3100 C.ar  1 <1>  -0.1500 
  9 C        0.6250     2.0220     2.2970 C.ar  1 <1>  -0.1500 
 10 N       -1.2900    -2.9610    -1.2160 N.4   1 <1>  -0.9590 
 11 C        1.6970     2.4240     1.4880 C.ar  1 <1>  -0.1430 
 12 C       -0.6180    -3.9550    -0.3190 C.3   1 <1>   0.3430 
 13 C       -2.2810    -3.5810    -2.1320 C.3   1 <1>   0.3430 
 14 C        2.5510     3.5970     1.9340 C.3   1 <1>  -0.0970 
 15 C       -1.5090    -4.3770     0.8520 C.3   1 <1>   0.0960 
 16 C       -3.2410    -2.5130    -2.6400 C.3   1 <1>  -0.2400 
 17 N       -0.8940    -5.5440     1.4920 N.pl3 1 <1>   0.3140 
 18 N       -0.3890    -6.5480     0.7540 N.2   1 <1>  -0.7070 
 19 C       -0.7480    -5.7790     2.8090 C.2   1 <1>  -0.3020 
 20 C        0.0630    -7.4030     1.6220 C.2   1 <1>   0.1390 
 21 C       -0.1330    -6.9740     2.9290 C.2   1 <1>  -0.1500 
 22 H       -1.0020     0.6450     2.5410 H     1 <1>   0.1500 
 23 H        1.8040    -0.1030    -1.8980 H     1 <1>   0.2700 
 24 H        0.5920    -2.6910    -2.1620 H     1 <1>   0.0800 
 25 H       -0.6880    -1.6640    -2.7840 H     1 <1>   0.0800 
 26 H        2.7810     2.0560    -0.3240 H     1 <1>   0.1500 
 27 H        0.4300     2.5520     3.2130 H     1 <1>   0.1500 
 28 H       -1.7550    -2.2680    -0.5980 H     1 <1>   0.4500 
 29 H        0.2820    -3.5240     0.0910 H     1 <1>   0.0800 
 30 H       -0.3430    -4.8250    -0.8940 H     1 <1>   0.0800 
 31 H       -2.8470    -4.3310    -1.6020 H     1 <1>   0.0800 
 32 H       -1.7800    -4.0620    -2.9580 H     1 <1>   0.0800 
 33 H        3.3340     3.7960     1.2250 H     1 <1>   0.0800 
 34 H        2.9990     3.3820     2.8880 H     1 <1>   0.0800 
 35 H        1.9420     4.4780     2.0280 H     1 <1>   0.0800 
 36 H       -2.4830    -4.6690     0.5120 H     1 <1>   0.0800 
 37 H       -1.5890    -3.5820     1.5710 H     1 <1>   0.0800 
 38 H       -3.7310    -2.0190    -1.8190 H     1 <1>   0.0800 
 39 H       -4.0000    -2.9810    -3.2430 H     1 <1>   0.0800 
 40 H       -2.7420    -1.7850    -3.2530 H     1 <1>   0.0800 
 41 H       -1.0820    -5.1050     3.5770 H     1 <1>   0.1500 
 42 H        0.5340    -8.3350     1.3530 H     1 <1>   0.1500 
 43 H        0.1540    -7.5040     3.8200 H     1 <1>   0.1500 
@<TRIPOS>BOND
  1   1   2  1   
  2   1   3  2   
  3   2   4  ar  
  4   2   5  ar  
  5   3   6  1   
  6   3   7  1   
  7   4   6  1   
  8   4   8  ar  
  9   5   9  ar  
 10   5  22  1   
 11   6  23  1   
 12   7  10  1   
 13   7  24  1   
 14   7  25  1   
 15   8  11  ar  
 16   8  26  1   
 17   9  11  ar  
 18   9  27  1   
 19  10  12  1   
 20  10  13  1   
 21  10  28  1   
 22  11  14  1   
 23  12  15  1   
 24  12  29  1   
 25  12  30  1   
 26  13  16  1   
 27  13  31  1   
 28  13  32  1   
 29  14  33  1   
 30  14  34  1   
 31  14  35  1   
 32  15  17  1   
 33  15  36  1   
 34  15  37  1   
 35  16  38  1   
 36  16  39  1   
 37  16  40  1   
 38  17  18  1   
 39  17  19  1   
 40  18  20  2   
 41  19  21  2   
 42  19  41  1   
 43  20  21  1   
 44  20  42  1   
 45  21  43  1   
@<TRIPOS>SUBSTRUCTURE
  1 ****   1 GROUP 4 **** **** 0

# MOE 2024.06 (io_trps.svl 2023.06)
