@<TRIPOS>MOLECULE
NONAME
46 49 1 0 0 
SMALL
USER_CHARGES


@<TRIPOS>ATOM
  1 S        0.6070     0.1530     0.0670 S.3   1 <1>  -0.0800 
  2 C       -0.4960    -1.1660     0.2650 C.2   1 <1>  -0.1400 
  3 C       -0.7520     1.1090    -0.5360 C.2   1 <1>   0.1980 
  4 C       -1.7020    -0.7960    -0.1130 C.2   1 <1>   0.0460 
  5 C       -0.3530    -2.5710     0.7560 C.3   1 <1>   0.0200 
  6 N       -1.8720     0.4930    -0.5720 N.2   1 <1>  -0.5650 
  7 C       -0.4670     2.5380    -0.9400 C.3   1 <1>   0.0200 
  8 C       -2.6930    -1.9120     0.0410 C.3   1 <1>   0.0210 
  9 C       -1.8190    -3.0700     0.6140 C.3   1 <1>  -0.1600 
 10 C       -0.3570     3.4220     0.3000 C.3   1 <1>   0.2090 
 11 N       -0.0950     4.8310    -0.0910 N.pl3 1 <1>  -0.8690 
 12 C        1.1360     5.3460    -0.4290 C.ar  1 <1>   0.4100 
 13 N        2.1770     4.5340    -0.2480 N.ar  1 <1>  -0.6200 
 14 C        1.2460     6.6540    -0.9370 C.ar  1 <1>   0.0860 
 15 C        3.3600     5.0030    -0.5890 C.ar  1 <1>   0.1600 
 16 C        0.0830     7.4980    -1.0770 C.2   1 <1>   0.5440 
 17 C        2.5090     7.1080    -1.2930 C.ar  1 <1>  -0.1500 
 18 C        3.5800     6.2640    -1.1130 C.ar  1 <1>  -0.1500 
 19 O       -0.8980     7.1000    -1.6840 O.2   1 <1>  -0.5700 
 20 N        0.0490     8.7660    -0.5400 N.am  1 <1>  -0.6600 
 21 C       -1.1270     9.6530    -0.6880 C.3   1 <1>   0.1400 
 22 C        0.9280     9.2350     0.5550 C.3   1 <1>   0.1400 
 23 C       -0.8420    10.8400     0.2260 C.3   1 <1>  -0.1600 
 24 C        0.1080    10.2910     1.2860 C.3   1 <1>  -0.1600 
 25 H       -0.0210    -2.5870     1.7790 H     1 <1>   0.0800 
 26 H        0.3220    -3.1270     0.1290 H     1 <1>   0.0800 
 27 H       -1.2690     2.8910    -1.5620 H     1 <1>   0.0800 
 28 H        0.4500     2.5740    -1.4980 H     1 <1>   0.0800 
 29 H       -3.1140    -2.1670    -0.9150 H     1 <1>   0.0800 
 30 H       -3.4720    -1.6250     0.7250 H     1 <1>   0.0800 
 31 H       -2.1970    -3.3690     1.5760 H     1 <1>   0.0800 
 32 H       -1.8560    -3.9180    -0.0480 H     1 <1>   0.0800 
 33 H        0.4380     3.0670     0.9340 H     1 <1>   0.0800 
 34 H       -1.2760     3.3750     0.8600 H     1 <1>   0.0800 
 35 H       -0.8980     5.3330    -0.5020 H     1 <1>   0.4000 
 36 H        4.2020     4.3470    -0.4470 H     1 <1>   0.1500 
 37 H        2.6370     8.0950    -1.7020 H     1 <1>   0.1500 
 38 H        4.5770     6.5730    -1.3740 H     1 <1>   0.1500 
 39 H       -2.0080     9.1270    -0.3620 H     1 <1>   0.0800 
 40 H       -1.2470     9.9570    -1.7140 H     1 <1>   0.0800 
 41 H        1.8130     9.6800     0.1310 H     1 <1>   0.0800 
 42 H        1.2030     8.4270     1.2120 H     1 <1>   0.0800 
 43 H       -1.7450    11.2410     0.6500 H     1 <1>   0.0800 
 44 H       -0.3510    11.6090    -0.3450 H     1 <1>   0.0800 
 45 H        0.7300    11.0550     1.7170 H     1 <1>   0.0800 
 46 H       -0.4560     9.8140     2.0690 H     1 <1>   0.0800 
@<TRIPOS>BOND
  1   1   2  1   
  2   1   3  1   
  3   2   4  2   
  4   2   5  1   
  5   3   6  2   
  6   3   7  1   
  7   4   6  1   
  8   4   8  1   
  9   5   9  1   
 10   5  25  1   
 11   5  26  1   
 12   7  10  1   
 13   7  27  1   
 14   7  28  1   
 15   8   9  1   
 16   8  29  1   
 17   8  30  1   
 18   9  31  1   
 19   9  32  1   
 20  10  11  1   
 21  10  33  1   
 22  10  34  1   
 23  11  12  1   
 24  11  35  1   
 25  12  13  ar  
 26  12  14  ar  
 27  13  15  ar  
 28  14  16  1   
 29  14  17  ar  
 30  15  18  ar  
 31  15  36  1   
 32  16  19  2   
 33  16  20  am  
 34  17  18  ar  
 35  17  37  1   
 36  18  38  1   
 37  20  21  1   
 38  20  22  1   
 39  21  23  1   
 40  21  39  1   
 41  21  40  1   
 42  22  24  1   
 43  22  41  1   
 44  22  42  1   
 45  23  24  1   
 46  23  43  1   
 47  23  44  1   
 48  24  45  1   
 49  24  46  1   
@<TRIPOS>SUBSTRUCTURE
  1 ****  11 GROUP 4 **** **** 0

# MOE 2024.06 (io_trps.svl 2023.06)
