@<TRIPOS>MOLECULE
NONAME
41 43 1 0 0 
SMALL
USER_CHARGES


@<TRIPOS>ATOM
  1 O       -0.8070    -1.4860     0.3420 O.3   1 <1>  -0.5600 
  2 C        0.2340    -2.2180    -0.2430 C.3   1 <1>   0.2000 
  3 C       -0.4020    -0.3740     1.0780 C.3   1 <1>   0.1200 
  4 C        0.9350    -1.3220    -1.2780 C.3   1 <1>  -0.1600 
  5 C       -0.3270    -3.5020    -0.8870 C.3   1 <1>   0.2090 
  6 C        0.2720     0.6360     0.1410 C.3   1 <1>  -0.1600 
  7 C        1.4220    -0.0180    -0.6340 C.3   1 <1>  -0.1600 
  8 N       -0.7080    -4.5470     0.1190 N.pl3 1 <1>  -0.8380 
  9 C       -2.0620    -4.8060     0.2500 C.ar  1 <1>   0.4100 
 10 C        0.2340    -5.6900     0.2510 C.3   1 <1>   0.2090 
 11 N       -2.5140    -5.9180    -0.2630 N.ar  1 <1>  -0.6200 
 12 C       -2.9110    -3.8720     0.9120 C.ar  1 <1>   0.1600 
 13 C        1.5050    -5.2420     0.9660 C.3   1 <1>  -0.2400 
 14 C       -3.8500    -6.0970    -0.1130 C.ar  1 <1>   0.3100 
 15 N       -4.1900    -4.0070     1.0770 N.ar  1 <1>  -0.6200 
 16 C       -4.6830    -5.1570     0.5460 C.ar  1 <1>   0.3100 
 17 C       -4.4380    -7.2610    -0.6320 C.ar  1 <1>  -0.1500 
 18 C       -6.0550    -5.4240     0.6520 C.ar  1 <1>  -0.1500 
 19 C       -5.7840    -7.4990    -0.5150 C.ar  1 <1>  -0.1500 
 20 C       -6.6010    -6.5710     0.1350 C.ar  1 <1>  -0.1500 
 21 H        0.9280    -2.4910     0.5310 H     1 <1>   0.0800 
 22 H        0.2700    -0.7010     1.8530 H     1 <1>   0.0800 
 23 H       -1.2780     0.0560     1.5310 H     1 <1>   0.0800 
 24 H        0.2430    -1.0970    -2.0720 H     1 <1>   0.0800 
 25 H        1.7720    -1.8450    -1.7050 H     1 <1>   0.0800 
 26 H        0.4160    -3.9140    -1.5460 H     1 <1>   0.0800 
 27 H       -1.1800    -3.2440    -1.4910 H     1 <1>   0.0800 
 28 H        0.6410     1.4680     0.7140 H     1 <1>   0.0800 
 29 H       -0.4660     1.0110    -0.5470 H     1 <1>   0.0800 
 30 H        1.7900     0.6560    -1.3880 H     1 <1>   0.0800 
 31 H        2.2280    -0.2360     0.0450 H     1 <1>   0.0800 
 32 H        0.4640    -6.0890    -0.7220 H     1 <1>   0.0800 
 33 H       -0.2310    -6.4710     0.8290 H     1 <1>   0.0800 
 34 H       -2.4310    -2.9970     1.3040 H     1 <1>   0.1500 
 35 H        2.0600    -4.5510     0.3590 H     1 <1>   0.0800 
 36 H        2.1260    -6.0960     1.1590 H     1 <1>   0.0800 
 37 H        1.2530    -4.7820     1.9040 H     1 <1>   0.0800 
 38 H       -3.7940    -7.9630    -1.1290 H     1 <1>   0.1500 
 39 H       -6.6650    -4.6970     1.1560 H     1 <1>   0.1500 
 40 H       -6.2210    -8.3970    -0.9180 H     1 <1>   0.1500 
 41 H       -7.6570    -6.7660     0.2230 H     1 <1>   0.1500 
@<TRIPOS>BOND
  1   1   2  1   
  2   1   3  1   
  3   2   4  1   
  4   2   5  1   
  5   2  21  1   
  6   3   6  1   
  7   3  22  1   
  8   3  23  1   
  9   4   7  1   
 10   4  24  1   
 11   4  25  1   
 12   5   8  1   
 13   5  26  1   
 14   5  27  1   
 15   6   7  1   
 16   6  28  1   
 17   6  29  1   
 18   7  30  1   
 19   7  31  1   
 20   8   9  1   
 21   8  10  1   
 22   9  11  ar  
 23   9  12  ar  
 24  10  13  1   
 25  10  32  1   
 26  10  33  1   
 27  11  14  ar  
 28  12  15  ar  
 29  12  34  1   
 30  13  35  1   
 31  13  36  1   
 32  13  37  1   
 33  14  16  ar  
 34  14  17  ar  
 35  15  16  ar  
 36  16  18  ar  
 37  17  19  ar  
 38  17  38  1   
 39  18  20  ar  
 40  18  39  1   
 41  19  20  ar  
 42  19  40  1   
 43  20  41  1   
@<TRIPOS>SUBSTRUCTURE
  1 ****   9 GROUP 4 **** **** 0

# MOE 2024.06 (io_trps.svl 2023.06)
