@<TRIPOS>MOLECULE
NONAME
38 40 1 0 0 
SMALL
USER_CHARGES


@<TRIPOS>ATOM
  1 S        1.2110    -2.0020     2.6440 S.3   1 <1>  -0.0800 
  2 C        1.1410    -1.6530     0.9260 C.2   1 <1>  -0.0450 
  3 C        1.5140    -0.3200     2.9740 C.2   1 <1>   0.2280 
  4 C        1.3510    -0.3190     0.7890 C.2   1 <1>   0.0460 
  5 C        0.8900    -2.7400     0.0120 C.2   1 <1>   0.7150 
  6 N        1.5570     0.4160     1.9390 N.2   1 <1>  -0.5650 
  7 C        1.3890     0.4830    -0.4980 C.3   1 <1>  -0.0590 
  8 O        0.7800    -2.5580    -1.1840 O.2   1 <1>  -0.5700 
  9 N        0.7530    -4.0130     0.4770 N.am  1 <1>  -0.7300 
 10 C        0.5250    -5.2240    -0.3450 C.3   1 <1>   0.2200 
 11 C       -0.9130    -5.7110    -0.2240 C.3   1 <1>  -0.0800 
 12 C        1.2670    -6.3910     0.2910 C.3   1 <1>   0.1200 
 13 C       -0.8860    -6.5570     1.0550 C.3   1 <1>   0.1200 
 14 C       -2.0000    -4.6190    -0.2390 C.3   1 <1>  -0.0160 
 15 O        0.4590    -6.7920     1.3550 O.3   1 <1>  -0.5600 
 16 C       -3.3890    -5.2380    -0.2040 C.ar  1 <1>  -0.1440 
 17 C       -4.1200    -5.3360     0.9630 C.ar  1 <1>  -0.1500 
 18 C       -3.9890    -5.7360    -1.3420 C.ar  1 <1>  -0.1500 
 19 C       -5.3770    -5.9160     0.9360 C.ar  1 <1>   0.1600 
 20 C       -5.2530    -6.2980    -1.2600 C.ar  1 <1>   0.1600 
 21 N       -5.9600    -6.4020    -0.1470 N.ar  1 <1>  -0.6200 
 22 H        1.6380    -0.0300     4.0030 H     1 <1>   0.1500 
 23 H        1.2410    -0.1350    -1.3620 H     1 <1>   0.0800 
 24 H        2.3420     0.9720    -0.5870 H     1 <1>   0.0800 
 25 H        0.6200     1.2330    -0.4750 H     1 <1>   0.0800 
 26 H        0.8230    -4.1910     1.4810 H     1 <1>   0.3700 
 27 H        0.8250    -5.0580    -1.3660 H     1 <1>   0.0800 
 28 H       -1.1020    -6.3800    -1.0450 H     1 <1>   0.0800 
 29 H        2.2420    -6.1200     0.6550 H     1 <1>   0.0800 
 30 H        1.3450    -7.2160    -0.3950 H     1 <1>   0.0800 
 31 H       -1.3860    -7.5000     0.9190 H     1 <1>   0.0800 
 32 H       -1.3180    -6.0330     1.8900 H     1 <1>   0.0800 
 33 H       -1.8970    -4.0250    -1.1300 H     1 <1>   0.0800 
 34 H       -1.8840    -3.9600     0.6030 H     1 <1>   0.0800 
 35 H       -3.7270    -4.9660     1.8920 H     1 <1>   0.1500 
 36 H       -3.4870    -5.6930    -2.2910 H     1 <1>   0.1500 
 37 H       -5.9330    -5.9840     1.8560 H     1 <1>   0.1500 
 38 H       -5.7050    -6.6810    -2.1590 H     1 <1>   0.1500 
@<TRIPOS>BOND
  1   1   2  1   
  2   1   3  1   
  3   2   4  2   
  4   2   5  1   
  5   3   6  2   
  6   3  22  1   
  7   4   6  1   
  8   4   7  1   
  9   5   8  2   
 10   5   9  am  
 11   7  23  1   
 12   7  24  1   
 13   7  25  1   
 14   9  10  1   
 15   9  26  1   
 16  10  11  1   
 17  10  12  1   
 18  10  27  1   
 19  11  13  1   
 20  11  14  1   
 21  11  28  1   
 22  12  15  1   
 23  12  29  1   
 24  12  30  1   
 25  13  15  1   
 26  13  31  1   
 27  13  32  1   
 28  14  16  1   
 29  14  33  1   
 30  14  34  1   
 31  16  17  ar  
 32  16  18  ar  
 33  17  19  ar  
 34  17  35  1   
 35  18  20  ar  
 36  18  36  1   
 37  19  21  ar  
 38  19  37  1   
 39  20  21  ar  
 40  20  38  1   
@<TRIPOS>SUBSTRUCTURE
  1 ****  14 GROUP 4 **** **** 0

# MOE 2024.06 (io_trps.svl 2023.06)
