@<TRIPOS>MOLECULE
NONAME
57 59 1 0 0 
SMALL
USER_CHARGES


@<TRIPOS>ATOM
  1 O       -0.6870     0.1130    -1.0890 O.3   1 <1>  -0.3630 
  2 C       -0.4650     1.4260    -0.8280 C.ar  1 <1>   0.0820 
  3 C       -1.7580    -0.5790    -0.4980 C.3   1 <1>   0.1200 
  4 C        0.7040     1.9700    -1.3310 C.ar  1 <1>  -0.1500 
  5 C       -1.3360     2.2290    -0.0960 C.ar  1 <1>  -0.1500 
  6 C       -1.6410    -2.0420    -0.9350 C.3   1 <1>   0.3430 
  7 C        1.0200     3.2990    -1.1100 C.ar  1 <1>   0.0820 
  8 C       -1.0250     3.5590     0.1280 C.ar  1 <1>  -0.1500 
  9 N       -2.7280    -2.9170    -0.3830 N.4   1 <1>  -0.9590 
 10 O        2.1880     3.7450    -1.6370 O.3   1 <1>  -0.3630 
 11 C        0.1480     4.0970    -0.3750 C.ar  1 <1>  -0.1500 
 12 C       -2.6740    -4.2490    -1.0920 C.3   1 <1>   0.3430 
 13 C       -2.6160    -3.0550     1.0990 C.3   1 <1>   0.3430 
 14 C        2.6020     5.0830    -1.4760 C.3   1 <1>   0.0400 
 15 C       -3.3730    -5.4320    -0.3750 C.3   1 <1>   0.0000 
 16 C       -3.8110    -3.8290     1.6520 C.3   1 <1>  -0.1600 
 17 C       -4.3660    -4.8740     0.6760 C.3   1 <1>   0.2000 
 18 C       -4.2140    -6.1880    -1.4310 C.3   1 <1>   0.1200 
 19 C       -2.3180    -6.4400     0.1830 C.3   1 <1>  -0.0170 
 20 O       -4.9490    -5.8950     1.3970 O.3   1 <1>  -0.6800 
 21 O       -3.4470    -6.4170    -2.5660 O.3   1 <1>  -0.6800 
 22 C       -1.2470    -5.8600     1.0990 C.ar  1 <1>  -0.1440 
 23 C       -1.4010    -5.8970     2.4770 C.ar  1 <1>  -0.1500 
 24 C       -0.0920    -5.3030     0.5650 C.ar  1 <1>  -0.1500 
 25 C       -0.4440    -5.3370     3.3060 C.ar  1 <1>  -0.1500 
 26 C        0.8640    -4.7410     1.3920 C.ar  1 <1>  -0.1500 
 27 C        0.6850    -4.7510     2.7630 C.ar  1 <1>  -0.1500 
 28 H       -1.6660    -0.4770     0.5680 H     1 <1>   0.0800 
 29 H       -2.6740    -0.1410    -0.8530 H     1 <1>   0.0800 
 30 H        1.3800     1.3590    -1.8990 H     1 <1>   0.1500 
 31 H       -2.2550     1.8490     0.3050 H     1 <1>   0.1500 
 32 H       -0.6820    -2.4210    -0.6190 H     1 <1>   0.0800 
 33 H       -1.6740    -2.0700    -2.0120 H     1 <1>   0.0800 
 34 H       -1.6970     4.1820     0.6930 H     1 <1>   0.1500 
 35 H       -3.6370    -2.4850    -0.5960 H     1 <1>   0.4500 
 36 H        0.3630     5.1310    -0.1860 H     1 <1>   0.1500 
 37 H       -3.1200    -4.1300    -2.0660 H     1 <1>   0.0800 
 38 H       -1.6490    -4.5260    -1.2640 H     1 <1>   0.0800 
 39 H       -1.7010    -3.5670     1.3460 H     1 <1>   0.0800 
 40 H       -2.5790    -2.0870     1.5700 H     1 <1>   0.0800 
 41 H        3.5460     5.2020    -1.9770 H     1 <1>   0.0800 
 42 H        2.7170     5.2900    -0.4270 H     1 <1>   0.0800 
 43 H        1.8690     5.7320    -1.9210 H     1 <1>   0.0800 
 44 H       -4.5960    -3.1310     1.8820 H     1 <1>   0.0800 
 45 H       -3.5180    -4.2810     2.5820 H     1 <1>   0.0800 
 46 H       -5.1720    -4.3990     0.1400 H     1 <1>   0.0800 
 47 H       -5.0760    -5.6160    -1.7320 H     1 <1>   0.0800 
 48 H       -4.5500    -7.1380    -1.0460 H     1 <1>   0.0800 
 49 H       -2.8170    -7.2440     0.6950 H     1 <1>   0.0800 
 50 H       -1.8040    -6.9040    -0.6430 H     1 <1>   0.0800 
 51 H       -4.3140    -6.3140     2.0090 H     1 <1>   0.4000 
 52 H       -3.9140    -7.0170    -3.1880 H     1 <1>   0.4000 
 53 H       -2.2610    -6.3660     2.9210 H     1 <1>   0.1500 
 54 H        0.0830    -5.3110    -0.4970 H     1 <1>   0.1500 
 55 H       -0.5710    -5.3660     4.3750 H     1 <1>   0.1500 
 56 H        1.7570    -4.3070     0.9740 H     1 <1>   0.1500 
 57 H        1.4310    -4.3190     3.4090 H     1 <1>   0.1500 
@<TRIPOS>BOND
  1   1   2  1   
  2   1   3  1   
  3   2   4  ar  
  4   2   5  ar  
  5   3   6  1   
  6   3  28  1   
  7   3  29  1   
  8   4   7  ar  
  9   4  30  1   
 10   5   8  ar  
 11   5  31  1   
 12   6   9  1   
 13   6  32  1   
 14   6  33  1   
 15   7  10  1   
 16   7  11  ar  
 17   8  11  ar  
 18   8  34  1   
 19   9  12  1   
 20   9  13  1   
 21   9  35  1   
 22  10  14  1   
 23  11  36  1   
 24  12  15  1   
 25  12  37  1   
 26  12  38  1   
 27  13  16  1   
 28  13  39  1   
 29  13  40  1   
 30  14  41  1   
 31  14  42  1   
 32  14  43  1   
 33  15  17  1   
 34  15  18  1   
 35  15  19  1   
 36  16  17  1   
 37  16  44  1   
 38  16  45  1   
 39  17  20  1   
 40  17  46  1   
 41  18  21  1   
 42  18  47  1   
 43  18  48  1   
 44  19  22  1   
 45  19  49  1   
 46  19  50  1   
 47  20  51  1   
 48  21  52  1   
 49  22  23  ar  
 50  22  24  ar  
 51  23  25  ar  
 52  23  53  1   
 53  24  26  ar  
 54  24  54  1   
 55  25  27  ar  
 56  25  55  1   
 57  26  27  ar  
 58  26  56  1   
 59  27  57  1   
@<TRIPOS>SUBSTRUCTURE
  1 ****   6 GROUP 4 **** **** 0

# MOE 2024.06 (io_trps.svl 2023.06)
