@<TRIPOS>MOLECULE
NONAME
49 51 1 0 0 
SMALL
USER_CHARGES


@<TRIPOS>ATOM
  1 O       -0.5510     0.0950    -0.0470 O.2   1 <1>  -0.5700 
  2 C       -1.5520     0.7390    -0.3050 C.2   1 <1>   0.5440 
  3 N       -2.7610     0.0830    -0.3500 N.am  1 <1>  -0.6600 
  4 C       -1.4510     2.1690    -0.5380 C.ar  1 <1>   0.0860 
  5 C       -4.0850     0.7390    -0.2780 C.3   1 <1>   0.1400 
  6 C       -2.8870    -1.3720    -0.1230 C.3   1 <1>   0.1400 
  7 C       -0.7400     2.9850     0.3380 C.ar  1 <1>  -0.1500 
  8 C       -2.0550     2.7800    -1.6340 C.ar  1 <1>  -0.1500 
  9 C       -4.9930    -0.2720     0.4330 C.3   1 <1>  -0.0800 
 10 C       -4.3810    -1.6420     0.0840 C.3   1 <1>  -0.0800 
 11 C       -0.6430     4.3550     0.1530 C.ar  1 <1>  -0.1430 
 12 C       -1.9680     4.1450    -1.8310 C.ar  1 <1>  -0.1500 
 13 C       -6.5220    -0.1410     0.1520 C.3   1 <1>   0.2800 
 14 C       -5.0490    -2.2420    -1.1630 C.3   1 <1>  -0.1600 
 15 C       -1.2660     4.9430    -0.9420 C.ar  1 <1>  -0.1430 
 16 C        0.1490     5.1820     1.1560 C.3   1 <1>  -0.0970 
 17 O       -6.7370     0.4280    -1.0900 O.3   1 <1>  -0.6800 
 18 C       -7.1750    -1.5350     0.1120 C.3   1 <1>  -0.1600 
 19 C       -7.2460     0.7500     1.1860 C.3   1 <1>  -0.1600 
 20 C       -6.5550    -2.4790    -0.9410 C.3   1 <1>  -0.1600 
 21 C       -1.1930     6.4430    -1.1900 C.3   1 <1>  -0.0970 
 22 C       -6.7510     2.2050     1.2740 C.3   1 <1>  -0.2400 
 23 H       -4.0320     1.6690     0.2600 H     1 <1>   0.0800 
 24 H       -4.4160     0.9270    -1.2840 H     1 <1>   0.0800 
 25 H       -2.4900    -1.9150    -0.9640 H     1 <1>   0.0800 
 26 H       -2.3320    -1.6380     0.7610 H     1 <1>   0.0800 
 27 H       -0.2570     2.5170     1.1780 H     1 <1>   0.1500 
 28 H       -2.5950     2.1730    -2.3380 H     1 <1>   0.1500 
 29 H       -4.8390    -0.1410     1.4890 H     1 <1>   0.0800 
 30 H       -4.5040    -2.3310     0.9010 H     1 <1>   0.0800 
 31 H       -2.4510     4.5830    -2.6880 H     1 <1>   0.1500 
 32 H       -4.9200    -1.5570    -1.9850 H     1 <1>   0.0800 
 33 H       -4.5740    -3.1680    -1.4350 H     1 <1>   0.0800 
 34 H        0.5620     4.5590     1.9290 H     1 <1>   0.0800 
 35 H       -0.4900     5.9130     1.6180 H     1 <1>   0.0800 
 36 H        0.9590     5.6850     0.6610 H     1 <1>   0.0800 
 37 H       -7.6930     0.4390    -1.2760 H     1 <1>   0.4000 
 38 H       -7.0490    -1.9860     1.0810 H     1 <1>   0.0800 
 39 H       -8.2350    -1.4530    -0.0550 H     1 <1>   0.0800 
 40 H       -8.2980     0.7610     0.9610 H     1 <1>   0.0800 
 41 H       -7.1430     0.3020     2.1590 H     1 <1>   0.0800 
 42 H       -6.7170    -3.4960    -0.6300 H     1 <1>   0.0800 
 43 H       -7.0590    -2.3460    -1.8830 H     1 <1>   0.0800 
 44 H       -1.7350     6.7150    -2.0790 H     1 <1>   0.0800 
 45 H       -0.1690     6.7460    -1.3140 H     1 <1>   0.0800 
 46 H       -1.6200     6.9750    -0.3600 H     1 <1>   0.0800 
 47 H       -6.7820     2.6790     0.3090 H     1 <1>   0.0800 
 48 H       -5.7450     2.2460     1.6500 H     1 <1>   0.0800 
 49 H       -7.3790     2.7640     1.9450 H     1 <1>   0.0800 
@<TRIPOS>BOND
  1   1   2  2   
  2   2   3  am  
  3   2   4  1   
  4   3   5  1   
  5   3   6  1   
  6   4   7  ar  
  7   4   8  ar  
  8   5   9  1   
  9   5  23  1   
 10   5  24  1   
 11   6  10  1   
 12   6  25  1   
 13   6  26  1   
 14   7  11  ar  
 15   7  27  1   
 16   8  12  ar  
 17   8  28  1   
 18   9  10  1   
 19   9  13  1   
 20   9  29  1   
 21  10  14  1   
 22  10  30  1   
 23  11  15  ar  
 24  11  16  1   
 25  12  15  ar  
 26  12  31  1   
 27  13  17  1   
 28  13  18  1   
 29  13  19  1   
 30  14  20  1   
 31  14  32  1   
 32  14  33  1   
 33  15  21  1   
 34  16  34  1   
 35  16  35  1   
 36  16  36  1   
 37  17  37  1   
 38  18  20  1   
 39  18  38  1   
 40  18  39  1   
 41  19  22  1   
 42  19  40  1   
 43  19  41  1   
 44  20  42  1   
 45  20  43  1   
 46  21  44  1   
 47  21  45  1   
 48  21  46  1   
 49  22  47  1   
 50  22  48  1   
 51  22  49  1   
@<TRIPOS>SUBSTRUCTURE
  1 ****   5 GROUP 4 **** **** 0

# MOE 2024.06 (io_trps.svl 2023.06)
