@<TRIPOS>MOLECULE
NONAME
47 48 1 0 0 
SMALL
USER_CHARGES


@<TRIPOS>ATOM
  1 S        0.6820     0.2330    -1.5480 S.o2  1 <1>   1.3330 
  2 O       -0.1030     1.0310    -2.4620 O.2   1 <1>  -0.6500 
  3 O        1.0370    -1.1230    -1.9020 O.2   1 <1>  -0.6500 
  4 N       -0.1640     0.1800    -0.0750 N.am  1 <1>  -0.8490 
  5 C        2.1950     1.1090    -1.1460 C.3   1 <1>  -0.0550 
  6 C       -0.8980     1.4170     0.2170 C.3   1 <1>   0.1160 
  7 C       -1.0790    -0.9640    -0.0060 C.3   1 <1>   0.1160 
  8 C        3.1480     0.3340    -0.2100 C.3   1 <1>  -0.0800 
  9 C        4.5170     0.9730    -0.0200 C.3   1 <1>   0.2200 
 10 C        2.6500     0.1620     1.2320 C.3   1 <1>   0.1200 
 11 N        4.3880     2.4390     0.1540 N.am  1 <1>  -0.7300 
 12 C        4.9280     0.3600     1.3090 C.3   1 <1>   0.1200 
 13 O        3.7580     0.3450     2.0670 O.3   1 <1>  -0.5600 
 14 C        4.6580     3.3780    -0.7960 C.2   1 <1>   0.6160 
 15 O        5.0310     2.9960    -1.8860 O.2   1 <1>  -0.5700 
 16 C        4.4800     4.7910    -0.5150 C.2   1 <1>   0.0140 
 17 C        3.7450     5.2660     0.5390 C.2   1 <1>  -0.1360 
 18 C        5.0780     5.7700    -1.3640 C.2   1 <1>  -0.1500 
 19 C        3.5780     6.6490     0.7930 C.2   1 <1>   0.6160 
 20 C        4.9280     7.0990    -1.1300 C.2   1 <1>  -0.0410 
 21 O        2.9070     7.0300     1.7450 O.2   1 <1>  -0.5700 
 22 N        4.1860     7.5550    -0.0600 N.am  1 <1>  -0.4690 
 23 C        4.0480     9.0150     0.1690 C.3   1 <1>   0.1400 
 24 C        5.2100     9.5120     1.0280 C.3   1 <1>  -0.2400 
 25 H        2.7200     1.3050    -2.0620 H     1 <1>   0.0800 
 26 H        1.9490     2.0580    -0.7130 H     1 <1>   0.0800 
 27 H       -1.3400     1.3620     1.1980 H     1 <1>   0.0800 
 28 H       -1.6790     1.5730    -0.5100 H     1 <1>   0.0800 
 29 H       -0.2310     2.2610     0.1930 H     1 <1>   0.0800 
 30 H       -1.5910    -0.9770     0.9410 H     1 <1>   0.0800 
 31 H       -0.5270    -1.8850    -0.1010 H     1 <1>   0.0800 
 32 H       -1.8030    -0.9130    -0.8020 H     1 <1>   0.0800 
 33 H        3.3010    -0.6500    -0.6200 H     1 <1>   0.0800 
 34 H        5.2050     0.7360    -0.8150 H     1 <1>   0.0800 
 35 H        2.2440    -0.8210     1.3980 H     1 <1>   0.0800 
 36 H        1.9190     0.9050     1.4980 H     1 <1>   0.0800 
 37 H        4.1210     2.7130     1.1020 H     1 <1>   0.3700 
 38 H        5.6870     0.9280     1.8180 H     1 <1>   0.0800 
 39 H        5.2540    -0.6580     1.1800 H     1 <1>   0.0800 
 40 H        3.2470     4.6160     1.2300 H     1 <1>   0.1500 
 41 H        5.6580     5.4220    -2.2020 H     1 <1>   0.1500 
 42 H        5.3830     7.8370    -1.7710 H     1 <1>   0.1500 
 43 H        4.0440     9.5270    -0.7770 H     1 <1>   0.0800 
 44 H        3.1120     9.2230     0.6610 H     1 <1>   0.0800 
 45 H        6.1480     9.3240     0.5380 H     1 <1>   0.0800 
 46 H        5.1980     9.0180     1.9830 H     1 <1>   0.0800 
 47 H        5.1130    10.5700     1.1910 H     1 <1>   0.0800 
@<TRIPOS>BOND
  1   1   2  2   
  2   1   3  2   
  3   1   4  am  
  4   1   5  1   
  5   4   6  1   
  6   4   7  1   
  7   5   8  1   
  8   5  25  1   
  9   5  26  1   
 10   6  27  1   
 11   6  28  1   
 12   6  29  1   
 13   7  30  1   
 14   7  31  1   
 15   7  32  1   
 16   8   9  1   
 17   8  10  1   
 18   8  33  1   
 19   9  11  1   
 20   9  12  1   
 21   9  34  1   
 22  10  13  1   
 23  10  35  1   
 24  10  36  1   
 25  11  14  am  
 26  11  37  1   
 27  12  13  1   
 28  12  38  1   
 29  12  39  1   
 30  14  15  2   
 31  14  16  1   
 32  16  17  2   
 33  16  18  1   
 34  17  19  1   
 35  17  40  1   
 36  18  20  2   
 37  18  41  1   
 38  19  21  2   
 39  19  22  am  
 40  20  22  1   
 41  20  42  1   
 42  22  23  1   
 43  23  24  1   
 44  23  43  1   
 45  23  44  1   
 46  24  45  1   
 47  24  46  1   
 48  24  47  1   
@<TRIPOS>SUBSTRUCTURE
  1 ****  11 GROUP 4 **** **** 0

# MOE 2024.06 (io_trps.svl 2023.06)
