@<TRIPOS>MOLECULE
NONAME
46 48 1 0 0 
SMALL
USER_CHARGES


@<TRIPOS>ATOM
  1 O       -0.3710     0.1000    -2.0000 O.2   1 <1>  -0.5700 
  2 C       -1.2280     0.7820    -1.4910 C.2   1 <1>   0.5690 
  3 N       -2.2900     0.2170    -0.8390 N.am  1 <1>  -0.6600 
  4 C       -1.0830     2.2920    -1.6100 C.3   1 <1>  -0.0990 
  5 C       -3.4480     0.9120    -0.2250 C.3   1 <1>   0.1400 
  6 C       -2.4030    -1.2500    -0.6520 C.3   1 <1>   0.1400 
  7 C       -0.0320     2.8520    -0.6370 C.3   1 <1>  -0.0800 
  8 C       -4.4000    -0.2060     0.1980 C.3   1 <1>   0.2000 
  9 C       -3.5180    -1.4390     0.3760 C.3   1 <1>  -0.0800 
 10 C       -0.4010     2.7070     0.8370 C.3   1 <1>  -0.1600 
 11 C        0.1990     4.3530    -0.7980 C.3   1 <1>  -0.1600 
 12 O       -5.0490     0.0980     1.3830 O.3   1 <1>  -0.6800 
 13 C       -4.2840    -2.7610     0.2190 C.3   1 <1>   0.0210 
 14 C        0.5010     3.7090     1.5530 C.3   1 <1>  -0.1600 
 15 C        0.7930     4.8180     0.5350 C.3   1 <1>  -0.1600 
 16 C       -3.3420    -3.9450     0.3110 C.2   1 <1>   0.1080 
 17 N       -2.6560    -4.2160     1.3780 N.2   1 <1>  -0.7070 
 18 C       -3.0980    -4.8520    -0.7150 C.2   1 <1>  -0.1500 
 19 N       -1.9480    -5.3150     1.0570 N.pl3 1 <1>   0.3000 
 20 C       -2.1970    -5.7180    -0.2070 C.2   1 <1>  -0.3320 
 21 C       -1.5490    -6.9250    -0.8600 C.3   1 <1>  -0.0600 
 22 H       -0.7690     2.5060    -2.6160 H     1 <1>   0.0800 
 23 H       -2.0250     2.7810    -1.4600 H     1 <1>   0.0800 
 24 H       -3.1160     1.4690     0.6330 H     1 <1>   0.0800 
 25 H       -3.9240     1.5630    -0.9370 H     1 <1>   0.0800 
 26 H       -2.6610    -1.7020    -1.5940 H     1 <1>   0.0800 
 27 H       -1.4730    -1.6670    -0.3020 H     1 <1>   0.0800 
 28 H        0.9050     2.3440    -0.8040 H     1 <1>   0.0800 
 29 H       -5.1420    -0.3580    -0.5670 H     1 <1>   0.0800 
 30 H       -3.0550    -1.4150     1.3480 H     1 <1>   0.0800 
 31 H       -1.4270     2.9940     0.9870 H     1 <1>   0.0800 
 32 H       -0.2540     1.7020     1.1940 H     1 <1>   0.0800 
 33 H        0.8540     4.5680    -1.6250 H     1 <1>   0.0800 
 34 H       -0.7410     4.8540    -0.9570 H     1 <1>   0.0800 
 35 H       -4.4220     0.0510     2.1320 H     1 <1>   0.4000 
 36 H       -4.7950    -2.7840    -0.7260 H     1 <1>   0.0800 
 37 H       -5.0190    -2.8450     1.0000 H     1 <1>   0.0800 
 38 H        0.0320     4.0960     2.4420 H     1 <1>   0.0800 
 39 H        1.4230     3.2260     1.8280 H     1 <1>   0.0800 
 40 H        1.8580     4.9530     0.4410 H     1 <1>   0.0800 
 41 H        0.3500     5.7500     0.8390 H     1 <1>   0.0800 
 42 H       -3.5430    -4.8400    -1.6940 H     1 <1>   0.1500 
 43 H       -1.3040    -5.7620     1.7200 H     1 <1>   0.2700 
 44 H       -1.9100    -7.0380    -1.8670 H     1 <1>   0.0800 
 45 H       -1.7850    -7.8180    -0.3090 H     1 <1>   0.0800 
 46 H       -0.4810    -6.8020    -0.8920 H     1 <1>   0.0800 
@<TRIPOS>BOND
  1   1   2  2   
  2   2   3  am  
  3   2   4  1   
  4   3   5  1   
  5   3   6  1   
  6   4   7  1   
  7   4  22  1   
  8   4  23  1   
  9   5   8  1   
 10   5  24  1   
 11   5  25  1   
 12   6   9  1   
 13   6  26  1   
 14   6  27  1   
 15   7  10  1   
 16   7  11  1   
 17   7  28  1   
 18   8   9  1   
 19   8  12  1   
 20   8  29  1   
 21   9  13  1   
 22   9  30  1   
 23  10  14  1   
 24  10  31  1   
 25  10  32  1   
 26  11  15  1   
 27  11  33  1   
 28  11  34  1   
 29  12  35  1   
 30  13  16  1   
 31  13  36  1   
 32  13  37  1   
 33  14  15  1   
 34  14  38  1   
 35  14  39  1   
 36  15  40  1   
 37  15  41  1   
 38  16  17  2   
 39  16  18  1   
 40  17  19  1   
 41  18  20  2   
 42  18  42  1   
 43  19  20  1   
 44  19  43  1   
 45  20  21  1   
 46  21  44  1   
 47  21  45  1   
 48  21  46  1   
@<TRIPOS>SUBSTRUCTURE
  1 ****   6 GROUP 4 **** **** 0

# MOE 2024.06 (io_trps.svl 2023.06)
