@<TRIPOS>MOLECULE
NONAME
51 54 1 0 0 
SMALL
USER_CHARGES


@<TRIPOS>ATOM
  1 O       -1.7930     1.5580     0.0880 O.2   1 <1>  -0.5700 
  2 C       -1.1120     2.5450     0.3380 C.2   1 <1>   0.6160 
  3 N        0.1620     2.6890    -0.1840 N.am  1 <1>  -0.4770 
  4 C       -1.6540     3.5950     1.1440 C.2   1 <1>  -0.1240 
  5 C        0.8900     3.8840     0.0010 C.ar  1 <1>   0.1170 
  6 C        0.7760     1.5530    -0.9400 C.3   1 <1>   0.0600 
  7 C       -0.9600     4.7370     1.3580 C.2   1 <1>  -0.1780 
  8 C       -3.0250     3.3530     1.7420 C.3   1 <1>   0.4810 
  9 C        0.3320     4.9190     0.7790 C.ar  1 <1>   0.0280 
 10 C        2.1530     4.0910    -0.5640 C.ar  1 <1>  -0.1500 
 11 N       -4.0150     3.1050     0.6610 N.4   1 <1>  -0.9590 
 12 C        1.0490     6.1010     0.9700 C.ar  1 <1>  -0.1500 
 13 C        2.8450     5.2670    -0.3660 C.ar  1 <1>  -0.1500 
 14 C       -5.3060     2.5730     1.1880 C.3   1 <1>   0.3430 
 15 C       -4.2110     4.2780    -0.2350 C.3   1 <1>   0.3430 
 16 C        2.2920     6.2770     0.4050 C.ar  1 <1>  -0.1500 
 17 C       -6.2020     2.0870     0.0390 C.3   1 <1>   0.0000 
 18 C       -5.0800     3.8710    -1.4270 C.3   1 <1>  -0.1600 
 19 C       -7.5130     1.5390     0.6230 C.3   1 <1>   0.2000 
 20 C       -6.4120     3.2390    -0.9840 C.3   1 <1>  -0.1600 
 21 C       -5.6520     0.8310    -0.6640 C.3   1 <1>  -0.1600 
 22 O       -8.3930     2.5430     0.9690 O.3   1 <1>  -0.6800 
 23 C       -8.0960     0.6200    -0.4430 C.3   1 <1>  -0.1600 
 24 C       -6.8810     0.1030    -1.2290 C.3   1 <1>  -0.1600 
 25 H        1.7270     1.3020    -0.5050 H     1 <1>   0.0800 
 26 H        0.9170     1.8380    -1.9680 H     1 <1>   0.0800 
 27 H        0.1560     0.6750    -0.9120 H     1 <1>   0.0800 
 28 H       -1.3390     5.5430     1.9640 H     1 <1>   0.1500 
 29 H       -3.3270     4.2010     2.3330 H     1 <1>   0.0800 
 30 H       -2.9710     2.4890     2.3850 H     1 <1>   0.0800 
 31 H        2.6140     3.3340    -1.1690 H     1 <1>   0.1500 
 32 H       -3.5840     2.3490     0.0930 H     1 <1>   0.4500 
 33 H        0.6270     6.8900     1.5680 H     1 <1>   0.1500 
 34 H        3.8170     5.4070    -0.8090 H     1 <1>   0.1500 
 35 H       -5.1190     1.7510     1.8600 H     1 <1>   0.0800 
 36 H       -5.8260     3.3440     1.7330 H     1 <1>   0.0800 
 37 H       -4.6950     5.0740     0.3070 H     1 <1>   0.0800 
 38 H       -3.2590     4.6370    -0.5940 H     1 <1>   0.0800 
 39 H        2.8380     7.1920     0.5570 H     1 <1>   0.1500 
 40 H       -5.2850     4.7460    -2.0200 H     1 <1>   0.0800 
 41 H       -4.5280     3.1930    -2.0530 H     1 <1>   0.0800 
 42 H       -7.3080     0.9630     1.5120 H     1 <1>   0.0800 
 43 H       -6.9480     2.8900    -1.8490 H     1 <1>   0.0800 
 44 H       -7.0050     4.0170    -0.5340 H     1 <1>   0.0800 
 45 H       -4.9350     1.0420    -1.4370 H     1 <1>   0.0800 
 46 H       -5.1810     0.1860     0.0600 H     1 <1>   0.0800 
 47 H       -8.9800     2.7500     0.2150 H     1 <1>   0.4000 
 48 H       -8.6400    -0.1920     0.0080 H     1 <1>   0.0800 
 49 H       -8.7460     1.1620    -1.1090 H     1 <1>   0.0800 
 50 H       -6.7730    -0.9640    -1.1230 H     1 <1>   0.0800 
 51 H       -7.0020     0.3310    -2.2750 H     1 <1>   0.0800 
@<TRIPOS>BOND
  1   1   2  2   
  2   2   3  am  
  3   2   4  1   
  4   3   5  1   
  5   3   6  1   
  6   4   7  2   
  7   4   8  1   
  8   5   9  ar  
  9   5  10  ar  
 10   6  25  1   
 11   6  26  1   
 12   6  27  1   
 13   7   9  1   
 14   7  28  1   
 15   8  11  1   
 16   8  29  1   
 17   8  30  1   
 18   9  12  ar  
 19  10  13  ar  
 20  10  31  1   
 21  11  14  1   
 22  11  15  1   
 23  11  32  1   
 24  12  16  ar  
 25  12  33  1   
 26  13  16  ar  
 27  13  34  1   
 28  14  17  1   
 29  14  35  1   
 30  14  36  1   
 31  15  18  1   
 32  15  37  1   
 33  15  38  1   
 34  16  39  1   
 35  17  19  1   
 36  17  20  1   
 37  17  21  1   
 38  18  20  1   
 39  18  40  1   
 40  18  41  1   
 41  19  22  1   
 42  19  23  1   
 43  19  42  1   
 44  20  43  1   
 45  20  44  1   
 46  21  24  1   
 47  21  45  1   
 48  21  46  1   
 49  22  47  1   
 50  23  24  1   
 51  23  48  1   
 52  23  49  1   
 53  24  50  1   
 54  24  51  1   
@<TRIPOS>SUBSTRUCTURE
  1 ****  11 GROUP 4 **** **** 0

# MOE 2024.06 (io_trps.svl 2023.06)
