@<TRIPOS>MOLECULE
NONAME
22 22 1 0 0 
SMALL
USER_CHARGES


@<TRIPOS>ATOM
  1 N        0.3930     0.1490    -0.0190 N.ar  1 <1>  -0.6200 
  2 C        0.3950     1.4690    -0.1270 C.ar  1 <1>   0.1600 
  3 C        1.4280    -0.3690     0.6180 C.ar  1 <1>   0.1600 
  4 C        1.3800     2.3220     0.3660 C.ar  1 <1>  -0.1440 
  5 C        2.4680     0.3700     1.1500 C.ar  1 <1>  -0.1500 
  6 C        2.4520     1.7420     1.0250 C.ar  1 <1>  -0.1500 
  7 C        1.3230     3.8510     0.1920 C.3   1 <1>   0.3440 
  8 C        1.6430     4.5270     1.4890 C.1   1 <1>  -0.2000 
  9 C        2.3680     4.2710    -0.8490 C.3   1 <1>  -0.2400 
 10 C       -0.0520     4.3700    -0.2570 C.3   1 <1>  -0.2400 
 11 C        1.8960     5.0660     2.5200 C.1   1 <1>  -0.1770 
 12 H       -0.4500     1.8780    -0.6480 H     1 <1>   0.1500 
 13 H        1.4490    -1.4400     0.7220 H     1 <1>   0.1500 
 14 H        3.2780    -0.1240     1.6560 H     1 <1>   0.1500 
 15 H        3.2540     2.3340     1.4320 H     1 <1>   0.1500 
 16 H        3.3530     3.9820    -0.5280 H     1 <1>   0.0800 
 17 H        2.3550     5.3370    -0.9880 H     1 <1>   0.0800 
 18 H        2.1650     3.7950    -1.7910 H     1 <1>   0.0800 
 19 H       -0.8120     4.0530     0.4350 H     1 <1>   0.0800 
 20 H       -0.2960     4.0130    -1.2410 H     1 <1>   0.0800 
 21 H       -0.0520     5.4450    -0.2850 H     1 <1>   0.0800 
 22 H        2.1210     5.5500     3.4530 H     1 <1>   0.1770 
@<TRIPOS>BOND
  1   1   2  ar  
  2   1   3  ar  
  3   2   4  ar  
  4   2  12  1   
  5   3   5  ar  
  6   3  13  1   
  7   4   6  ar  
  8   4   7  1   
  9   5   6  ar  
 10   5  14  1   
 11   6  15  1   
 12   7   8  1   
 13   7   9  1   
 14   7  10  1   
 15   8  11  3   
 16   9  16  1   
 17   9  17  1   
 18   9  18  1   
 19  10  19  1   
 20  10  20  1   
 21  10  21  1   
 22  11  22  1   
@<TRIPOS>SUBSTRUCTURE
  1 ****   4 GROUP 4 **** **** 0

# MOE 2024.06 (io_trps.svl 2023.06)
