@<TRIPOS>MOLECULE
NONAME
40 42 1 0 0 
SMALL
USER_CHARGES


@<TRIPOS>ATOM
  1 F        2.3850     0.4760    -0.7600 F     1 <1>  -0.1900 
  2 C        1.8200     1.1910     0.1800 C.ar  1 <1>   0.1900 
  3 C        2.1640     2.5350     0.3820 C.ar  1 <1>   0.0830 
  4 C        0.8920     0.5290     0.9550 C.ar  1 <1>  -0.1500 
  5 O        3.0610     3.2070    -0.4020 O.3   1 <1>  -0.3630 
  6 C        1.5520     3.2310     1.4450 C.ar  1 <1>   0.0860 
  7 C        0.2780     1.2130     1.9840 C.ar  1 <1>  -0.1500 
  8 C        3.3430     2.8580    -1.7430 C.3   1 <1>   0.0400 
  9 C        1.8340     4.6190     1.7920 C.2   1 <1>   0.5440 
 10 C        0.6100     2.5340     2.2160 C.ar  1 <1>  -0.1500 
 11 O        1.0420     5.2520     2.4660 O.2   1 <1>  -0.5700 
 12 N        2.9970     5.2280     1.3860 N.am  1 <1>  -0.4940 
 13 C        3.5170     6.5190     1.6540 C.2   1 <1>  -0.0880 
 14 N        4.6100     7.0570     1.0460 N.pl3 1 <1>   0.3140 
 15 C        3.0670     7.4560     2.5210 C.2   1 <1>  -0.1500 
 16 N        4.8590     8.3120     1.5020 N.2   1 <1>  -0.7070 
 17 C        5.4080     6.4000    -0.0300 C.3   1 <1>   0.1760 
 18 C        3.9320     8.5320     2.3820 C.2   1 <1>   0.1390 
 19 C        6.8660     6.8530    -0.1280 C.3   1 <1>  -0.1600 
 20 C        4.8470     6.6880    -1.4220 C.3   1 <1>  -0.1600 
 21 C        7.2920     6.4530    -1.5420 C.3   1 <1>  -0.1600 
 22 C        6.0110     6.4370    -2.3880 C.3   1 <1>  -0.1600 
 23 H        0.6570    -0.5030     0.7590 H     1 <1>   0.1500 
 24 H       -0.4530     0.7200     2.6030 H     1 <1>   0.1500 
 25 H        3.8290     3.6920    -2.2150 H     1 <1>   0.0800 
 26 H        2.4220     2.6370    -2.2530 H     1 <1>   0.0800 
 27 H        4.0010     2.0070    -1.7540 H     1 <1>   0.0800 
 28 H        0.1220     3.0480     3.0290 H     1 <1>   0.1500 
 29 H        3.5220     4.6480     0.7260 H     1 <1>   0.3700 
 30 H        2.2210     7.3990     3.1810 H     1 <1>   0.1500 
 31 H        5.3990     5.3390     0.1380 H     1 <1>   0.0800 
 32 H        3.8490     9.4520     2.9360 H     1 <1>   0.1500 
 33 H        7.4810     6.3940     0.6250 H     1 <1>   0.0800 
 34 H        6.9280     7.9250    -0.0390 H     1 <1>   0.0800 
 35 H        4.5620     7.7260    -1.4790 H     1 <1>   0.0800 
 36 H        3.9950     6.0720    -1.6470 H     1 <1>   0.0800 
 37 H        7.7240     5.4670    -1.5250 H     1 <1>   0.0800 
 38 H        8.0190     7.1430    -1.9370 H     1 <1>   0.0800 
 39 H        6.0400     7.2030    -3.1450 H     1 <1>   0.0800 
 40 H        5.9030     5.4800    -2.8680 H     1 <1>   0.0800 
@<TRIPOS>BOND
  1   1   2  1   
  2   2   3  ar  
  3   2   4  ar  
  4   3   5  1   
  5   3   6  ar  
  6   4   7  ar  
  7   4  23  1   
  8   5   8  1   
  9   6   9  1   
 10   6  10  ar  
 11   7  10  ar  
 12   7  24  1   
 13   8  25  1   
 14   8  26  1   
 15   8  27  1   
 16   9  11  2   
 17   9  12  am  
 18  10  28  1   
 19  12  13  1   
 20  12  29  1   
 21  13  14  1   
 22  13  15  2   
 23  14  16  1   
 24  14  17  1   
 25  15  18  1   
 26  15  30  1   
 27  16  18  2   
 28  17  19  1   
 29  17  20  1   
 30  17  31  1   
 31  18  32  1   
 32  19  21  1   
 33  19  33  1   
 34  19  34  1   
 35  20  22  1   
 36  20  35  1   
 37  20  36  1   
 38  21  22  1   
 39  21  37  1   
 40  21  38  1   
 41  22  39  1   
 42  22  40  1   
@<TRIPOS>SUBSTRUCTURE
  1 ****  12 GROUP 4 **** **** 0

# MOE 2024.06 (io_trps.svl 2023.06)
