@<TRIPOS>MOLECULE
NONAME
41 42 1 0 0 
SMALL
USER_CHARGES


@<TRIPOS>ATOM
  1 S       -0.4640     0.2240     0.3880 S.o2  1 <1>   1.3330 
  2 O       -1.8620    -0.0470     0.1480 O.2   1 <1>  -0.6500 
  3 O        0.2110    -0.3680     1.5160 O.2   1 <1>  -0.6500 
  4 N        0.4040    -0.3300    -0.9360 N.am  1 <1>  -0.9140 
  5 C       -0.2010     1.9880     0.3750 C.3   1 <1>  -0.0550 
  6 C       -0.2100    -1.4690    -1.6130 C.3   1 <1>   0.1160 
  7 C        1.2670     2.3210     0.5820 C.3   1 <1>   0.2090 
  8 N        1.4460     3.7930     0.5540 N.pl3 1 <1>  -0.8690 
  9 C        2.6570     4.4170     0.3470 C.ar  1 <1>   0.4100 
 10 N        3.6440     3.6400    -0.0960 N.ar  1 <1>  -0.6200 
 11 C        2.8010     5.7930     0.6050 C.ar  1 <1>   0.0860 
 12 C        4.8160     4.2160    -0.2740 C.ar  1 <1>   0.1600 
 13 C        1.6810     6.5890     1.0510 C.2   1 <1>   0.5440 
 14 C        4.0540     6.3600     0.4160 C.ar  1 <1>  -0.1500 
 15 C        5.0750     5.5530    -0.0320 C.ar  1 <1>  -0.1500 
 16 O        0.9920     6.2150     1.9860 O.2   1 <1>  -0.5700 
 17 N        1.3580     7.7820     0.4400 N.am  1 <1>  -0.6600 
 18 C        1.7520     8.1440    -0.9410 C.3   1 <1>   0.1400 
 19 C        0.2330     8.6250     0.9030 C.3   1 <1>   0.1400 
 20 C        0.6270     9.0420    -1.4410 C.3   1 <1>  -0.1600 
 21 C        0.0610     9.6850    -0.1790 C.3   1 <1>  -0.1600 
 22 H        1.2820    -0.6520    -0.5260 H     1 <1>   0.4200 
 23 H       -0.7750     2.4370     1.1610 H     1 <1>   0.0800 
 24 H       -0.5240     2.3900    -0.5650 H     1 <1>   0.0800 
 25 H       -1.1510    -1.1760    -2.0500 H     1 <1>   0.0800 
 26 H       -0.3860    -2.2700    -0.9140 H     1 <1>   0.0800 
 27 H        0.4380    -1.8210    -2.3980 H     1 <1>   0.0800 
 28 H        1.8530     1.8700    -0.2020 H     1 <1>   0.0800 
 29 H        1.6100     1.9390     1.5290 H     1 <1>   0.0800 
 30 H        0.8240     4.3230     1.1860 H     1 <1>   0.4000 
 31 H        5.6170     3.5910    -0.6280 H     1 <1>   0.1500 
 32 H        4.2180     7.4040     0.6210 H     1 <1>   0.1500 
 33 H        6.0610     5.9490    -0.1940 H     1 <1>   0.1500 
 34 H        1.8610     7.2700    -1.5610 H     1 <1>   0.0800 
 35 H        2.6780     8.6920    -0.9120 H     1 <1>   0.0800 
 36 H        0.4560     9.0640     1.8610 H     1 <1>   0.0800 
 37 H       -0.6530     8.0180     0.9830 H     1 <1>   0.0800 
 38 H       -0.1250     8.4310    -1.9090 H     1 <1>   0.0800 
 39 H        0.9800     9.7690    -2.1510 H     1 <1>   0.0800 
 40 H        0.6430    10.5510     0.0850 H     1 <1>   0.0800 
 41 H       -0.9690     9.9760    -0.2910 H     1 <1>   0.0800 
@<TRIPOS>BOND
  1   1   2  2   
  2   1   3  2   
  3   1   4  am  
  4   1   5  1   
  5   4   6  1   
  6   4  22  1   
  7   5   7  1   
  8   5  23  1   
  9   5  24  1   
 10   6  25  1   
 11   6  26  1   
 12   6  27  1   
 13   7   8  1   
 14   7  28  1   
 15   7  29  1   
 16   8   9  1   
 17   8  30  1   
 18   9  10  ar  
 19   9  11  ar  
 20  10  12  ar  
 21  11  13  1   
 22  11  14  ar  
 23  12  15  ar  
 24  12  31  1   
 25  13  16  2   
 26  13  17  am  
 27  14  15  ar  
 28  14  32  1   
 29  15  33  1   
 30  17  18  1   
 31  17  19  1   
 32  18  20  1   
 33  18  34  1   
 34  18  35  1   
 35  19  21  1   
 36  19  36  1   
 37  19  37  1   
 38  20  21  1   
 39  20  38  1   
 40  20  39  1   
 41  21  40  1   
 42  21  41  1   
@<TRIPOS>SUBSTRUCTURE
  1 ****   8 GROUP 4 **** **** 0

# MOE 2024.06 (io_trps.svl 2023.06)
