@<TRIPOS>MOLECULE
NONAME
43 46 1 0 0 
SMALL
USER_CHARGES


@<TRIPOS>ATOM
  1 O       -0.4210     0.3750    -0.0730 O.2   1 <1>  -0.5700 
  2 C       -1.4730     0.9980    -0.0530 C.2   1 <1>   0.7160 
  3 N       -2.6350     0.2470    -0.1150 N.am  1 <1>  -0.6600 
  4 C       -1.4540     2.4620     0.0280 C.2   1 <1>   0.2030 
  5 C       -4.0140     0.7850    -0.2080 C.3   1 <1>   0.1400 
  6 C       -2.6430    -1.2340    -0.1280 C.3   1 <1>   0.1400 
  7 N       -2.4870     3.2990     0.1010 N.2   1 <1>  -0.7070 
  8 C       -0.2700     3.2140     0.0420 C.2   1 <1>  -0.1810 
  9 C       -4.9000    -0.4390    -0.4390 C.3   1 <1>   0.2000 
 10 C       -4.1040    -1.6270     0.0990 C.3   1 <1>  -0.0800 
 11 N       -1.9600     4.5380     0.1590 N.pl3 1 <1>   0.3000 
 12 C       -0.6200     4.4890     0.1230 C.2   1 <1>  -0.3320 
 13 C        1.2220     3.0330    -0.0010 C.3   1 <1>   0.0210 
 14 O       -6.1090    -0.3360     0.2300 O.3   1 <1>  -0.6800 
 15 C       -4.4950    -2.9570    -0.5620 C.3   1 <1>   0.0200 
 16 C        0.5340     5.4490     0.1530 C.3   1 <1>   0.0200 
 17 C        1.7460     4.4930     0.0180 C.3   1 <1>  -0.1600 
 18 C       -3.6280    -4.0950    -0.0600 C.2   1 <1>  -0.0400 
 19 O       -3.6590    -4.4340     1.2020 O.3   1 <1>  -0.0190 
 20 C       -2.7540    -4.9000    -0.6810 C.2   1 <1>  -0.1500 
 21 N       -2.8510    -5.4210     1.4580 N.2   1 <1>  -0.4100 
 22 C       -2.2910    -5.7230     0.3410 C.2   1 <1>   0.1080 
 23 C       -1.2700    -6.8250     0.1730 C.3   1 <1>  -0.0590 
 24 H       -4.2640     1.2790     0.7150 H     1 <1>   0.0800 
 25 H       -4.0940     1.4750    -1.0300 H     1 <1>   0.0800 
 26 H       -2.2930    -1.5740    -1.0870 H     1 <1>   0.0800 
 27 H       -2.0050    -1.6290     0.6450 H     1 <1>   0.0800 
 28 H       -5.1020    -0.5450    -1.4910 H     1 <1>   0.0800 
 29 H       -4.2480    -1.7020     1.1630 H     1 <1>   0.0800 
 30 H       -2.5330     5.3870     0.2230 H     1 <1>   0.2700 
 31 H        1.5530     2.4830     0.8630 H     1 <1>   0.0800 
 32 H        1.5150     2.5160    -0.8980 H     1 <1>   0.0800 
 33 H       -5.9560    -0.2180     1.1880 H     1 <1>   0.4000 
 34 H       -4.3910    -2.8800    -1.6300 H     1 <1>   0.0800 
 35 H       -5.5250    -3.1780    -0.3430 H     1 <1>   0.0800 
 36 H        0.4860     6.1390    -0.6710 H     1 <1>   0.0800 
 37 H        0.5620     5.9820     1.0870 H     1 <1>   0.0800 
 38 H        2.2670     4.6980    -0.9010 H     1 <1>   0.0800 
 39 H        2.4260     4.6320     0.8390 H     1 <1>   0.0800 
 40 H       -2.4550    -4.9310    -1.7120 H     1 <1>   0.1500 
 41 H       -1.6270    -7.5490    -0.5350 H     1 <1>   0.0800 
 42 H       -1.1010    -7.3150     1.1150 H     1 <1>   0.0800 
 43 H       -0.3420    -6.4130    -0.1760 H     1 <1>   0.0800 
@<TRIPOS>BOND
  1   1   2  2   
  2   2   3  am  
  3   2   4  1   
  4   3   5  1   
  5   3   6  1   
  6   4   7  2   
  7   4   8  1   
  8   5   9  1   
  9   5  24  1   
 10   5  25  1   
 11   6  10  1   
 12   6  26  1   
 13   6  27  1   
 14   7  11  1   
 15   8  12  2   
 16   8  13  1   
 17   9  10  1   
 18   9  14  1   
 19   9  28  1   
 20  10  15  1   
 21  10  29  1   
 22  11  12  1   
 23  11  30  1   
 24  12  16  1   
 25  13  17  1   
 26  13  31  1   
 27  13  32  1   
 28  14  33  1   
 29  15  18  1   
 30  15  34  1   
 31  15  35  1   
 32  16  17  1   
 33  16  36  1   
 34  16  37  1   
 35  17  38  1   
 36  17  39  1   
 37  18  19  1   
 38  18  20  2   
 39  19  21  1   
 40  20  22  1   
 41  20  40  1   
 42  21  22  2   
 43  22  23  1   
 44  23  41  1   
 45  23  42  1   
 46  23  43  1   
@<TRIPOS>SUBSTRUCTURE
  1 ****   3 GROUP 4 **** **** 0

# MOE 2024.06 (io_trps.svl 2023.06)
