@<TRIPOS>MOLECULE
NONAME
42 45 1 0 0 
SMALL
USER_CHARGES


@<TRIPOS>ATOM
  1 S       -0.2400     0.4070    -0.5560 S.3   1 <1>  -0.0800 
  2 C       -0.3060    -1.2380     0.0910 C.2   1 <1>   0.4620 
  3 C        1.4790     0.4520    -0.2400 C.ar  1 <1>   0.0400 
  4 N        0.8250    -1.6920     0.4900 N.2   1 <1>  -0.5650 
  5 N       -1.5150    -1.8860     0.1150 N.pl3 1 <1>  -0.8220 
  6 C        1.8360    -0.7620     0.3160 C.ar  1 <1>   0.2270 
  7 C        2.3710     1.4800    -0.4780 C.ar  1 <1>  -0.1500 
  8 C       -2.7430    -1.4420    -0.5890 C.3   1 <1>   0.2090 
  9 C       -1.6610    -3.2860     0.5580 C.3   1 <1>   0.2090 
 10 C        3.1690    -0.9540     0.6540 C.ar  1 <1>  -0.1500 
 11 C        3.6960     1.2680    -0.1360 C.ar  1 <1>  -0.1500 
 12 C       -3.6860    -2.6580    -0.5880 C.3   1 <1>   0.2000 
 13 C       -2.7550    -3.8520    -0.3470 C.3   1 <1>  -0.0800 
 14 C        4.0910     0.0570     0.4280 C.ar  1 <1>  -0.1500 
 15 O       -4.5960    -2.5730     0.4750 O.3   1 <1>  -0.5600 
 16 C       -3.4420    -5.1030     0.2300 C.3   1 <1>   0.0200 
 17 C       -5.7310    -1.8050     0.2290 C.3   1 <1>   0.0400 
 18 C       -2.5230    -6.3120     0.2900 C.2   1 <1>  -0.0400 
 19 O       -2.9570    -7.4040     0.8610 O.3   1 <1>  -0.0190 
 20 C       -1.2730    -6.5490    -0.1420 C.2   1 <1>  -0.1500 
 21 N       -2.0670    -8.3540     0.8380 N.2   1 <1>  -0.4100 
 22 C       -1.0410    -7.8670     0.2400 C.2   1 <1>   0.1080 
 23 C        0.2410    -8.6290    -0.0110 C.3   1 <1>  -0.0590 
 24 H        2.0400     2.4060    -0.9130 H     1 <1>   0.1500 
 25 H       -3.1800    -0.5960    -0.0890 H     1 <1>   0.0800 
 26 H       -2.4900    -1.1780    -1.6010 H     1 <1>   0.0800 
 27 H       -0.7360    -3.8260     0.4640 H     1 <1>   0.0800 
 28 H       -1.9780    -3.2920     1.5880 H     1 <1>   0.0800 
 29 H        3.4630    -1.8920     1.0880 H     1 <1>   0.1500 
 30 H        4.4260     2.0420    -0.3040 H     1 <1>   0.1500 
 31 H       -4.2310    -2.7570    -1.5110 H     1 <1>   0.0800 
 32 H       -2.3010    -4.1060    -1.2870 H     1 <1>   0.0800 
 33 H        5.1240    -0.0950     0.6900 H     1 <1>   0.1500 
 34 H       -4.2930    -5.3540    -0.3770 H     1 <1>   0.0800 
 35 H       -3.8010    -4.8960     1.2240 H     1 <1>   0.0800 
 36 H       -6.3400    -1.8170     1.1160 H     1 <1>   0.0800 
 37 H       -6.2810    -2.2350    -0.5900 H     1 <1>   0.0800 
 38 H       -5.4440    -0.7930     0.0040 H     1 <1>   0.0800 
 39 H       -0.5810    -5.9120    -0.6610 H     1 <1>   0.1500 
 40 H        1.0630    -8.1230     0.4610 H     1 <1>   0.0800 
 41 H        0.4230    -8.6980    -1.0670 H     1 <1>   0.0800 
 42 H        0.1620    -9.6210     0.3960 H     1 <1>   0.0800 
@<TRIPOS>BOND
  1   1   2  1   
  2   1   3  1   
  3   2   4  2   
  4   2   5  1   
  5   3   6  ar  
  6   3   7  ar  
  7   4   6  1   
  8   5   8  1   
  9   5   9  1   
 10   6  10  ar  
 11   7  11  ar  
 12   7  24  1   
 13   8  12  1   
 14   8  25  1   
 15   8  26  1   
 16   9  13  1   
 17   9  27  1   
 18   9  28  1   
 19  10  14  ar  
 20  10  29  1   
 21  11  14  ar  
 22  11  30  1   
 23  12  13  1   
 24  12  15  1   
 25  12  31  1   
 26  13  16  1   
 27  13  32  1   
 28  14  33  1   
 29  15  17  1   
 30  16  18  1   
 31  16  34  1   
 32  16  35  1   
 33  17  36  1   
 34  17  37  1   
 35  17  38  1   
 36  18  19  1   
 37  18  20  2   
 38  19  21  1   
 39  20  22  1   
 40  20  39  1   
 41  21  22  2   
 42  22  23  1   
 43  23  40  1   
 44  23  41  1   
 45  23  42  1   
@<TRIPOS>SUBSTRUCTURE
  1 ****   9 GROUP 4 **** **** 0

# MOE 2024.06 (io_trps.svl 2023.06)
