@<TRIPOS>MOLECULE
NONAME
54 57 1 0 0 
SMALL
USER_CHARGES


@<TRIPOS>ATOM
  1 S        0.5890    -0.2530     1.5770 S.3   1 <1>  -0.3320 
  2 C        0.3170    -1.7990     0.6980 C.ar  1 <1>   0.1020 
  3 C       -0.5400     1.0020     0.8280 C.3   1 <1>  -0.0100 
  4 C        1.0680    -2.8830     1.0900 C.ar  1 <1>  -0.1500 
  5 C       -0.6080    -1.9070    -0.3350 C.ar  1 <1>  -0.1500 
  6 C        0.9060    -4.1090     0.4530 C.ar  1 <1>   0.1170 
  7 C       -0.7740    -3.1190    -0.9720 C.ar  1 <1>  -0.1500 
  8 N        1.6490    -5.2220     0.8320 N.am  1 <1>  -0.5470 
  9 C       -0.0260    -4.2370    -0.5930 C.ar  1 <1>   0.0280 
 10 C        1.5120    -6.4410     0.2460 C.2   1 <1>   0.6160 
 11 C       -0.1690    -5.5130    -1.2280 C.2   1 <1>  -0.1780 
 12 O        2.1640    -7.3770     0.6660 O.2   1 <1>  -0.5700 
 13 C        0.5740    -6.5750    -0.8220 C.2   1 <1>  -0.1240 
 14 C        0.4670    -7.9450    -1.4630 C.3   1 <1>   0.4810 
 15 N       -0.0410    -8.9730    -0.5130 N.4   1 <1>  -0.9590 
 16 C       -0.3300   -10.2420    -1.2570 C.3   1 <1>   0.3430 
 17 C       -1.2040    -8.5220     0.3040 C.3   1 <1>   0.3430 
 18 C       -0.7500   -11.3920    -0.3410 C.3   1 <1>  -0.1060 
 19 C       -1.5910    -9.5970     1.3090 C.3   1 <1>  -0.1600 
 20 C       -1.3850   -12.4270    -1.2540 C.2   1 <1>   0.9060 
 21 C       -1.8850   -10.9020     0.5820 C.3   1 <1>   0.2000 
 22 C        0.4750   -12.0680     0.3480 C.3   1 <1>  -0.0650 
 23 O       -1.3140   -12.2610    -2.4760 O.co2 1 <1>  -0.9000 
 24 O       -1.9820   -13.3770    -0.7390 O.co2 1 <1>  -0.9000 
 25 O       -2.1840   -11.8610     1.5200 O.3   1 <1>  -0.6800 
 26 C        1.5540   -11.1530     0.9500 C.3   1 <1>  -0.1950 
 27 C        2.7090   -10.6620     0.1310 C.3   1 <1>  -0.2000 
 28 C        2.9180   -11.7210     1.1720 C.3   1 <1>  -0.2000 
 29 H       -0.3810     1.9310     1.3450 H     1 <1>   0.0800 
 30 H       -1.5510     0.6620     0.9600 H     1 <1>   0.0800 
 31 H       -0.2870     1.0980    -0.2130 H     1 <1>   0.0800 
 32 H        1.7780    -2.7750     1.8900 H     1 <1>   0.1500 
 33 H       -1.1930    -1.0620    -0.6420 H     1 <1>   0.1500 
 34 H       -1.4870    -3.2040    -1.7720 H     1 <1>   0.1500 
 35 H        2.3430    -5.1540     1.5780 H     1 <1>   0.3700 
 36 H       -0.8820    -5.5790    -2.0330 H     1 <1>   0.1500 
 37 H        1.4380    -8.2430    -1.8250 H     1 <1>   0.0800 
 38 H       -0.1990    -7.8830    -2.3080 H     1 <1>   0.0800 
 39 H        0.7360    -9.1850     0.1420 H     1 <1>   0.4500 
 40 H       -1.1270   -10.0620    -1.9620 H     1 <1>   0.0800 
 41 H        0.5330   -10.5550    -1.8230 H     1 <1>   0.0800 
 42 H       -0.9570    -7.6180     0.8370 H     1 <1>   0.0800 
 43 H       -2.0430    -8.3180    -0.3420 H     1 <1>   0.0800 
 44 H       -2.4780    -9.2830     1.8300 H     1 <1>   0.0800 
 45 H       -0.8120    -9.7280     2.0350 H     1 <1>   0.0800 
 46 H       -2.7770   -10.7690    -0.0110 H     1 <1>   0.0800 
 47 H        0.1320   -12.7430     1.1130 H     1 <1>   0.0800 
 48 H        0.9560   -12.6920    -0.3880 H     1 <1>   0.0800 
 49 H       -2.3000   -12.7140     1.0150 H     1 <1>   0.4000 
 50 H        1.1940   -10.5570     1.7680 H     1 <1>   0.1000 
 51 H        2.8050   -10.9580    -0.8990 H     1 <1>   0.1000 
 52 H        3.1570    -9.7040     0.3270 H     1 <1>   0.1000 
 53 H        3.4430   -11.4630     2.0760 H     1 <1>   0.1000 
 54 H        3.1280   -12.7280     0.8510 H     1 <1>   0.1000 
@<TRIPOS>BOND
  1   1   2  1   
  2   1   3  1   
  3   2   4  ar  
  4   2   5  ar  
  5   3  29  1   
  6   3  30  1   
  7   3  31  1   
  8   4   6  ar  
  9   4  32  1   
 10   5   7  ar  
 11   5  33  1   
 12   6   8  1   
 13   6   9  ar  
 14   7   9  ar  
 15   7  34  1   
 16   8  10  am  
 17   8  35  1   
 18   9  11  1   
 19  10  12  2   
 20  10  13  1   
 21  11  13  2   
 22  11  36  1   
 23  13  14  1   
 24  14  15  1   
 25  14  37  1   
 26  14  38  1   
 27  15  16  1   
 28  15  17  1   
 29  15  39  1   
 30  16  18  1   
 31  16  40  1   
 32  16  41  1   
 33  17  19  1   
 34  17  42  1   
 35  17  43  1   
 36  18  20  1   
 37  18  21  1   
 38  18  22  1   
 39  19  21  1   
 40  19  44  1   
 41  19  45  1   
 42  20  23  ar  
 43  20  24  ar  
 44  21  25  1   
 45  21  46  1   
 46  22  26  1   
 47  22  47  1   
 48  22  48  1   
 49  25  49  1   
 50  26  27  1   
 51  26  28  1   
 52  26  50  1   
 53  27  28  1   
 54  27  51  1   
 55  27  52  1   
 56  28  53  1   
 57  28  54  1   
@<TRIPOS>SUBSTRUCTURE
  1 ****  13 GROUP 4 **** **** 0

# MOE 2024.06 (io_trps.svl 2023.06)
