@<TRIPOS>MOLECULE
NONAME
45 47 1 0 0 
SMALL
USER_CHARGES


@<TRIPOS>ATOM
  1 CL       3.0660     0.9830    -2.0440 Cl    1 <1>  -0.1770 
  2 C        1.7850     2.0260    -1.4670 C.ar  1 <1>   0.1770 
  3 C        1.7620     2.5020    -0.1590 C.ar  1 <1>  -0.1440 
  4 C        0.7960     2.3590    -2.3750 C.ar  1 <1>  -0.1500 
  5 C        0.7110     3.3330     0.2130 C.ar  1 <1>  -0.1500 
  6 C        2.8290     2.1580     0.8810 C.3   1 <1>   0.3640 
  7 C       -0.2440     3.1840    -1.9860 C.ar  1 <1>  -0.1500 
  8 C       -0.2820     3.6700    -0.6920 C.ar  1 <1>  -0.1500 
  9 N        2.8170     0.6910     1.0980 N.am  1 <1>  -0.7300 
 10 C        4.2380     2.7130     0.5220 C.3   1 <1>   0.2610 
 11 C        3.9260    -0.0790     1.0690 C.2   1 <1>   0.5690 
 12 O        5.2780     1.9530     1.1300 O.3   1 <1>  -0.5600 
 13 C        4.3420     4.1850     0.9400 C.2   1 <1>   0.5690 
 14 O        3.8560    -1.2670     1.2490 O.2   1 <1>  -0.5700 
 15 C        5.2750     0.5840     0.7880 C.3   1 <1>   0.1810 
 16 O        3.4880     4.9720     0.6010 O.2   1 <1>  -0.5700 
 17 N        5.4140     4.5950     1.6660 N.am  1 <1>  -0.7300 
 18 C        5.6940     5.9790     2.0810 C.3   1 <1>   0.3200 
 19 C        6.2270     6.7370     0.8890 C.2   1 <1>  -0.3320 
 20 N        5.4980     6.9160    -0.2290 N.pl3 1 <1>   0.3000 
 21 C        7.4120     7.3510     0.6810 C.2   1 <1>  -0.1500 
 22 N        6.1730     7.6230    -1.1570 N.2   1 <1>  -0.7070 
 23 C        7.3220     7.8840    -0.6030 C.2   1 <1>   0.1080 
 24 C        8.4100     8.6810    -1.3120 C.3   1 <1>   0.3010 
 25 O        9.5160     8.8890    -0.4750 O.3   1 <1>  -0.5600 
 26 C       10.5390     9.6230    -1.0650 C.3   1 <1>   0.0400 
 27 H        0.8420     1.9740    -3.3780 H     1 <1>   0.1500 
 28 H        0.6570     3.7330     1.2110 H     1 <1>   0.1500 
 29 H        2.5430     2.6100     1.8160 H     1 <1>   0.0800 
 30 H       -1.0170     3.4490    -2.6870 H     1 <1>   0.1500 
 31 H       -1.0880     4.3170    -0.3870 H     1 <1>   0.1500 
 32 H        1.9130     0.2370     1.2310 H     1 <1>   0.3700 
 33 H        4.3920     2.6740    -0.5390 H     1 <1>   0.0800 
 34 H        5.5140     0.4880    -0.2560 H     1 <1>   0.0800 
 35 H        6.0380     0.0970     1.3680 H     1 <1>   0.0800 
 36 H        6.1540     3.9090     1.8430 H     1 <1>   0.3700 
 37 H        4.7880     6.4430     2.4350 H     1 <1>   0.0800 
 38 H        6.4170     5.9800     2.8780 H     1 <1>   0.0800 
 39 H        4.5460     6.5440    -0.3730 H     1 <1>   0.2700 
 40 H        8.2650     7.4390     1.3300 H     1 <1>   0.1500 
 41 H        8.0130     9.6370    -1.6040 H     1 <1>   0.0800 
 42 H        8.7340     8.1420    -2.1840 H     1 <1>   0.0800 
 43 H       11.3340     9.7250    -0.3470 H     1 <1>   0.0800 
 44 H       10.1690    10.5960    -1.3360 H     1 <1>   0.0800 
 45 H       10.9000     9.0970    -1.9320 H     1 <1>   0.0800 
@<TRIPOS>BOND
  1   1   2  1   
  2   2   3  ar  
  3   2   4  ar  
  4   3   5  ar  
  5   3   6  1   
  6   4   7  ar  
  7   4  27  1   
  8   5   8  ar  
  9   5  28  1   
 10   6   9  1   
 11   6  10  1   
 12   6  29  1   
 13   7   8  ar  
 14   7  30  1   
 15   8  31  1   
 16   9  11  am  
 17   9  32  1   
 18  10  12  1   
 19  10  13  1   
 20  10  33  1   
 21  11  14  2   
 22  11  15  1   
 23  12  15  1   
 24  13  16  2   
 25  13  17  am  
 26  15  34  1   
 27  15  35  1   
 28  17  18  1   
 29  17  36  1   
 30  18  19  1   
 31  18  37  1   
 32  18  38  1   
 33  19  20  1   
 34  19  21  2   
 35  20  22  1   
 36  20  39  1   
 37  21  23  1   
 38  21  40  1   
 39  22  23  2   
 40  23  24  1   
 41  24  25  1   
 42  24  41  1   
 43  24  42  1   
 44  25  26  1   
 45  26  43  1   
 46  26  44  1   
 47  26  45  1   
@<TRIPOS>SUBSTRUCTURE
  1 ****  13 GROUP 4 **** **** 0

# MOE 2024.06 (io_trps.svl 2023.06)
