@<TRIPOS>MOLECULE
NONAME
51 54 1 0 0 
SMALL
USER_CHARGES


@<TRIPOS>ATOM
  1 O        1.7000    -0.0830     0.6130 O.3   1 <1>  -0.5600 
  2 C        2.6220    -1.0040     0.0740 C.3   1 <1>   0.4240 
  3 C        0.3940    -0.1100     0.1130 C.3   1 <1>   0.1200 
  4 C        1.9760    -2.3720    -0.2170 C.ar  1 <1>  -0.1440 
  5 C        3.7110    -1.1480     1.1440 C.3   1 <1>  -0.1600 
  6 C        3.2360    -0.3710    -1.1920 C.3   1 <1>  -0.1600 
  7 C       -0.2520    -1.4460     0.4690 C.3   1 <1>  -0.0160 
  8 C        0.6180    -2.5840    -0.0270 C.ar  1 <1>  -0.1440 
  9 C        2.7470    -3.4310    -0.6760 C.ar  1 <1>  -0.1500 
 10 C        4.3220     0.1990     1.5460 C.3   1 <1>   0.3430 
 11 C        4.3280     0.6640    -0.8990 C.3   1 <1>   0.3430 
 12 C        0.0560    -3.8230    -0.2870 C.ar  1 <1>  -0.1500 
 13 C        2.2070    -4.6770    -0.9440 C.ar  1 <1>   0.0830 
 14 N        4.1460     1.2130     0.4690 N.4   1 <1>  -0.9590 
 15 C        0.8300    -4.8860    -0.7480 C.ar  1 <1>   0.0830 
 16 O        3.1260    -5.5850    -1.3860 O.3   1 <1>  -0.3630 
 17 C        4.8860     2.4860     0.6900 C.3   1 <1>   0.5240 
 18 O        0.2680    -6.1030    -1.0080 O.3   1 <1>  -0.3620 
 19 C        2.8250    -6.9380    -1.6430 C.3   1 <1>   0.0400 
 20 C        4.0650     3.6520     0.1470 C.2   1 <1>   0.0460 
 21 C       -1.1040    -6.3670    -0.8080 C.3   1 <1>   0.0400 
 22 N        3.5510     3.6340    -1.1020 N.2   1 <1>  -0.5650 
 23 C        3.7330     4.8000     0.7810 C.2   1 <1>  -0.3020 
 24 C        2.9310     4.7660    -1.2010 C.2   1 <1>   0.0360 
 25 N        3.0030     5.5240    -0.0880 N.pl3 1 <1>   0.0330 
 26 H        0.4160     0.0310    -0.9530 H     1 <1>   0.0800 
 27 H       -0.1520     0.7010     0.5640 H     1 <1>   0.0800 
 28 H        4.4960    -1.7840     0.7790 H     1 <1>   0.0800 
 29 H        3.2990    -1.6310     2.0130 H     1 <1>   0.0800 
 30 H        2.4680     0.0780    -1.7920 H     1 <1>   0.0800 
 31 H        3.6820    -1.1340    -1.8030 H     1 <1>   0.0800 
 32 H       -1.2260    -1.4980     0.0180 H     1 <1>   0.0800 
 33 H       -0.3700    -1.5160     1.5360 H     1 <1>   0.0800 
 34 H        3.8020    -3.3140    -0.8390 H     1 <1>   0.1500 
 35 H        5.3670     0.0640     1.7690 H     1 <1>   0.0800 
 36 H        3.8280     0.5510     2.4380 H     1 <1>   0.0800 
 37 H        4.2780     1.4500    -1.6360 H     1 <1>   0.0800 
 38 H        5.2970     0.1970    -0.9700 H     1 <1>   0.0800 
 39 H       -0.9970    -3.9400    -0.1220 H     1 <1>   0.1500 
 40 H        3.1430     1.4750     0.4930 H     1 <1>   0.4500 
 41 H        5.8410     2.4520     0.1930 H     1 <1>   0.0800 
 42 H        5.0490     2.6430     1.7430 H     1 <1>   0.0800 
 43 H        3.7340    -7.4350    -1.9300 H     1 <1>   0.0800 
 44 H        2.1120    -6.9890    -2.4460 H     1 <1>   0.0800 
 45 H        2.4300    -7.3840    -0.7480 H     1 <1>   0.0800 
 46 H       -1.2880    -7.3920    -1.0740 H     1 <1>   0.0800 
 47 H       -1.6810    -5.7170    -1.4410 H     1 <1>   0.0800 
 48 H       -1.3420    -6.2120     0.2300 H     1 <1>   0.0800 
 49 H        3.9660     5.1450     1.7740 H     1 <1>   0.1500 
 50 H        2.4000     5.0940    -2.0800 H     1 <1>   0.1500 
 51 H        2.5900     6.4530     0.0530 H     1 <1>   0.2700 
@<TRIPOS>BOND
  1   1   2  1   
  2   1   3  1   
  3   2   4  1   
  4   2   5  1   
  5   2   6  1   
  6   3   7  1   
  7   3  26  1   
  8   3  27  1   
  9   4   8  ar  
 10   4   9  ar  
 11   5  10  1   
 12   5  28  1   
 13   5  29  1   
 14   6  11  1   
 15   6  30  1   
 16   6  31  1   
 17   7   8  1   
 18   7  32  1   
 19   7  33  1   
 20   8  12  ar  
 21   9  13  ar  
 22   9  34  1   
 23  10  14  1   
 24  10  35  1   
 25  10  36  1   
 26  11  14  1   
 27  11  37  1   
 28  11  38  1   
 29  12  15  ar  
 30  12  39  1   
 31  13  15  ar  
 32  13  16  1   
 33  14  17  1   
 34  14  40  1   
 35  15  18  1   
 36  16  19  1   
 37  17  20  1   
 38  17  41  1   
 39  17  42  1   
 40  18  21  1   
 41  19  43  1   
 42  19  44  1   
 43  19  45  1   
 44  20  22  1   
 45  20  23  2   
 46  21  46  1   
 47  21  47  1   
 48  21  48  1   
 49  22  24  2   
 50  23  25  1   
 51  23  49  1   
 52  24  25  1   
 53  24  50  1   
 54  25  51  1   
@<TRIPOS>SUBSTRUCTURE
  1 ****   2 GROUP 4 **** **** 0

# MOE 2024.06 (io_trps.svl 2023.06)
