@<TRIPOS>MOLECULE
NONAME
42 43 1 0 0 
SMALL
USER_CHARGES


@<TRIPOS>ATOM
  1 F       -2.0730    -1.2430     1.2910 F     1 <1>  -0.1900 
  2 C       -2.2800    -0.0010     0.9440 C.ar  1 <1>   0.1900 
  3 C       -3.0560     0.2770    -0.1810 C.ar  1 <1>   0.0860 
  4 C       -1.7020     0.9820     1.7270 C.ar  1 <1>  -0.1500 
  5 C       -3.6730    -0.7540    -0.9840 C.2   1 <1>   0.5440 
  6 C       -3.2120     1.6220    -0.5160 C.ar  1 <1>  -0.1500 
  7 C       -1.8860     2.3080     1.3780 C.ar  1 <1>  -0.1500 
  8 O       -3.3560    -0.8480    -2.1550 O.2   1 <1>  -0.5700 
  9 N       -4.6440    -1.5930    -0.4830 N.am  1 <1>  -0.6600 
 10 C       -2.6370     2.6180     0.2550 C.ar  1 <1>   0.0830 
 11 C       -5.1610    -2.7380    -1.3090 C.3   1 <1>   0.1400 
 12 C       -5.2760    -1.4110     0.8650 C.3   1 <1>   0.1400 
 13 O       -2.7980     3.9060    -0.0790 O.3   1 <1>  -0.5320 
 14 C       -5.8800    -3.7680    -0.4270 C.3   1 <1>   0.2000 
 15 C       -6.7750    -1.7000     0.7630 C.3   1 <1>  -0.1600 
 16 O       -6.2860    -4.8720    -1.1580 O.3   1 <1>  -0.6800 
 17 C       -7.0700    -3.1870     0.3840 C.3   1 <1>  -0.1060 
 18 C       -7.1150    -4.0970     1.6250 C.2   1 <1>   0.9060 
 19 C       -8.4650    -3.2510    -0.3230 C.3   1 <1>  -0.1600 
 20 O       -6.8940    -3.6370     2.7520 O.co2 1 <1>  -0.9000 
 21 O       -7.3250    -5.3070     1.4490 O.co2 1 <1>  -0.9000 
 22 C       -8.5680    -2.6430    -1.7360 C.3   1 <1>  -0.1600 
 23 C      -10.0080    -2.7120    -2.2530 C.3   1 <1>  -0.2400 
 24 H       -1.1180     0.7100     2.5890 H     1 <1>   0.1500 
 25 H       -3.7900     1.8680    -1.3890 H     1 <1>   0.1500 
 26 H       -1.4510     3.1000     1.9620 H     1 <1>   0.1500 
 27 H       -5.8340    -2.3530    -2.0520 H     1 <1>   0.0800 
 28 H       -4.3360    -3.2170    -1.8060 H     1 <1>   0.0800 
 29 H       -4.8230    -2.0850     1.5750 H     1 <1>   0.0800 
 30 H       -5.1350    -0.4050     1.2170 H     1 <1>   0.0800 
 31 H       -3.3010     4.0340    -0.9040 H     1 <1>   0.4500 
 32 H       -5.1390    -4.1370     0.2640 H     1 <1>   0.0800 
 33 H       -7.2490    -1.4580     1.6980 H     1 <1>   0.0800 
 34 H       -7.1780    -1.0210     0.0380 H     1 <1>   0.0800 
 35 H       -6.7590    -5.4490    -0.5050 H     1 <1>   0.4000 
 36 H       -8.7670    -4.2830    -0.3930 H     1 <1>   0.0800 
 37 H       -9.1830    -2.7720     0.3200 H     1 <1>   0.0800 
 38 H       -8.2480    -1.6180    -1.7410 H     1 <1>   0.0800 
 39 H       -7.9360    -3.1940    -2.4100 H     1 <1>   0.0800 
 40 H      -10.6640    -2.1530    -1.6100 H     1 <1>   0.0800 
 41 H      -10.3410    -3.7350    -2.2870 H     1 <1>   0.0800 
 42 H      -10.0620    -2.3000    -3.2450 H     1 <1>   0.0800 
@<TRIPOS>BOND
  1   1   2  1   
  2   2   3  ar  
  3   2   4  ar  
  4   3   5  1   
  5   3   6  ar  
  6   4   7  ar  
  7   4  24  1   
  8   5   8  2   
  9   5   9  am  
 10   6  10  ar  
 11   6  25  1   
 12   7  10  ar  
 13   7  26  1   
 14   9  11  1   
 15   9  12  1   
 16  10  13  1   
 17  11  14  1   
 18  11  27  1   
 19  11  28  1   
 20  12  15  1   
 21  12  29  1   
 22  12  30  1   
 23  13  31  1   
 24  14  16  1   
 25  14  17  1   
 26  14  32  1   
 27  15  17  1   
 28  15  33  1   
 29  15  34  1   
 30  16  35  1   
 31  17  18  1   
 32  17  19  1   
 33  18  20  ar  
 34  18  21  ar  
 35  19  22  1   
 36  19  36  1   
 37  19  37  1   
 38  22  23  1   
 39  22  38  1   
 40  22  39  1   
 41  23  40  1   
 42  23  41  1   
 43  23  42  1   
@<TRIPOS>SUBSTRUCTURE
  1 ****   9 GROUP 4 **** **** 0

# MOE 2024.06 (io_trps.svl 2023.06)
