@<TRIPOS>MOLECULE
NONAME
42 45 1 0 0 
SMALL
USER_CHARGES


@<TRIPOS>ATOM
  1 S       -0.1000     0.3200     1.6770 S.3   1 <1>  -0.0800 
  2 C        1.1530    -0.7780     1.0500 C.2   1 <1>  -0.0450 
  3 C        0.7670     1.7520     1.1370 C.2   1 <1>  -0.1100 
  4 C        2.1280    -0.0270     0.4750 C.2   1 <1>   0.0620 
  5 C        1.0100    -2.1920     1.2310 C.2   1 <1>   0.7150 
  6 C        1.9130     1.3890     0.5340 C.2   1 <1>   0.0620 
  7 O        3.2270    -0.5290    -0.1270 O.3   1 <1>  -0.3420 
  8 O        1.9100    -2.8390     1.7400 O.2   1 <1>  -0.5700 
  9 N       -0.1280    -2.8650     0.8350 N.am  1 <1>  -0.6600 
 10 O        2.8200     2.2580     0.0140 O.3   1 <1>  -0.3420 
 11 C        4.0300     0.3570    -0.8840 C.3   1 <1>   0.1200 
 12 C       -1.0890    -2.3490    -0.1760 C.3   1 <1>   0.1400 
 13 C       -0.2510    -4.3420     0.9470 C.3   1 <1>   0.1400 
 14 C        4.1170     1.7300    -0.1990 C.3   1 <1>   0.1200 
 15 C       -2.0530    -3.5080    -0.4240 C.3   1 <1>   0.2000 
 16 C       -1.1940    -4.7530    -0.1900 C.3   1 <1>  -0.0800 
 17 O       -3.0550    -3.4490     0.5330 O.3   1 <1>  -0.6800 
 18 C       -1.9810    -6.0470     0.0900 C.3   1 <1>   0.0200 
 19 C       -1.0920    -7.2760     0.1810 C.2   1 <1>  -0.0400 
 20 O       -1.6240    -8.4080     0.5590 O.3   1 <1>  -0.0190 
 21 C        0.2120    -7.4980    -0.0550 C.2   1 <1>  -0.1500 
 22 N       -0.7490    -9.3710     0.5930 N.2   1 <1>  -0.4100 
 23 C        0.3670    -8.8520     0.2280 C.2   1 <1>   0.1080 
 24 C        1.6680    -9.6170     0.1240 C.3   1 <1>  -0.0590 
 25 H        0.3340     2.7150     1.3300 H     1 <1>   0.1500 
 26 H        5.0060    -0.0830    -0.9800 H     1 <1>   0.0800 
 27 H        3.5910     0.4550    -1.8610 H     1 <1>   0.0800 
 28 H       -1.6130    -1.4750     0.1710 H     1 <1>   0.0800 
 29 H       -0.5540    -2.1140    -1.0800 H     1 <1>   0.0800 
 30 H        0.7090    -4.8220     0.8550 H     1 <1>   0.0800 
 31 H       -0.6750    -4.5850     1.9070 H     1 <1>   0.0800 
 32 H        4.6610     2.4280    -0.8100 H     1 <1>   0.0800 
 33 H        4.6050     1.6420     0.7560 H     1 <1>   0.0800 
 34 H       -2.5090    -3.4780    -1.3990 H     1 <1>   0.0800 
 35 H       -0.5960    -4.9030    -1.0720 H     1 <1>   0.0800 
 36 H       -2.6500    -3.2880     1.4090 H     1 <1>   0.4000 
 37 H       -2.7000    -6.2050    -0.6940 H     1 <1>   0.0800 
 38 H       -2.5250    -5.9550     1.0140 H     1 <1>   0.0800 
 39 H        0.9880    -6.8330    -0.3840 H     1 <1>   0.1500 
 40 H        2.4160    -9.1490     0.7360 H     1 <1>   0.0800 
 41 H        2.0010    -9.6320    -0.8970 H     1 <1>   0.0800 
 42 H        1.5260   -10.6280     0.4590 H     1 <1>   0.0800 
@<TRIPOS>BOND
  1   1   2  1   
  2   1   3  1   
  3   2   4  2   
  4   2   5  1   
  5   3   6  2   
  6   3  25  1   
  7   4   6  1   
  8   4   7  1   
  9   5   8  2   
 10   5   9  am  
 11   6  10  1   
 12   7  11  1   
 13   9  12  1   
 14   9  13  1   
 15  10  14  1   
 16  11  14  1   
 17  11  26  1   
 18  11  27  1   
 19  12  15  1   
 20  12  28  1   
 21  12  29  1   
 22  13  16  1   
 23  13  30  1   
 24  13  31  1   
 25  14  32  1   
 26  14  33  1   
 27  15  16  1   
 28  15  17  1   
 29  15  34  1   
 30  16  18  1   
 31  16  35  1   
 32  17  36  1   
 33  18  19  1   
 34  18  37  1   
 35  18  38  1   
 36  19  20  1   
 37  19  21  2   
 38  20  22  1   
 39  21  23  1   
 40  21  39  1   
 41  22  23  2   
 42  23  24  1   
 43  24  40  1   
 44  24  41  1   
 45  24  42  1   
@<TRIPOS>SUBSTRUCTURE
  1 ****   9 GROUP 4 **** **** 0

# MOE 2024.06 (io_trps.svl 2023.06)
