@<TRIPOS>MOLECULE
NONAME
54 57 1 0 0 
SMALL
USER_CHARGES


@<TRIPOS>ATOM
  1 O       -1.1490     0.1650    -1.4070 O.2   1 <1>  -0.5700 
  2 C       -1.8070     0.6100    -0.4860 C.2   1 <1>   0.5440 
  3 N       -1.2920     1.6580     0.2500 N.am  1 <1>  -0.6600 
  4 C       -3.1020     0.0380    -0.2060 C.ar  1 <1>   0.0860 
  5 C        0.1480     2.0500     0.1620 C.3   1 <1>   0.1400 
  6 C       -2.1340     2.6830     0.9370 C.3   1 <1>   0.1400 
  7 C       -3.9640    -0.2960    -1.2460 C.ar  1 <1>   0.1600 
  8 C       -3.5540    -0.2150     1.0860 C.ar  1 <1>  -0.1500 
  9 C        0.2870     3.4840    -0.3730 C.3   1 <1>   0.1200 
 10 C       -1.8550     4.0860     0.3680 C.3   1 <1>   0.1200 
 11 N       -5.1760    -0.8080    -1.1190 N.ar  1 <1>  -0.6200 
 12 C       -4.8080    -0.7550     1.2370 C.ar  1 <1>  -0.1500 
 13 O       -0.4850     4.3700     0.3900 O.3   1 <1>  -0.5600 
 14 C       -5.5930    -1.0450     0.1210 C.ar  1 <1>   0.4100 
 15 N       -6.8470    -1.5980     0.2700 N.pl3 1 <1>  -0.8380 
 16 C       -7.0720    -2.7230     1.2410 C.3   1 <1>   0.2090 
 17 C       -7.8250    -1.5350    -0.8670 C.3   1 <1>   0.2090 
 18 C       -7.9470    -3.8540     0.6670 C.3   1 <1>   0.2090 
 19 C       -9.2410    -1.9840    -0.4550 C.3   1 <1>   0.2090 
 20 N       -9.2680    -3.3540     0.1570 N.pl3 1 <1>  -0.8380 
 21 C      -10.2830    -4.2450    -0.1260 C.ar  1 <1>   0.4100 
 22 N       -9.9660    -5.5190    -0.2540 N.ar  1 <1>  -0.6200 
 23 C      -11.5940    -3.8290    -0.2690 C.ar  1 <1>  -0.1500 
 24 C      -10.9650    -6.3320    -0.5390 C.ar  1 <1>   0.4700 
 25 C      -12.5500    -4.7650    -0.5640 C.ar  1 <1>   0.1670 
 26 N      -12.2430    -6.0390    -0.7080 N.ar  1 <1>  -0.6200 
 27 C      -14.0090    -4.3740    -0.7360 C.3   1 <1>  -0.0170 
 28 C      -14.8390    -4.7350     0.5020 C.3   1 <1>  -0.2400 
 29 H        0.6900     1.3760    -0.4790 H     1 <1>   0.0800 
 30 H        0.5890     1.9960     1.1410 H     1 <1>   0.0800 
 31 H       -1.9090     2.6790     1.9890 H     1 <1>   0.0800 
 32 H       -3.1790     2.4630     0.8150 H     1 <1>   0.0800 
 33 H       -3.6170    -0.1230    -2.2510 H     1 <1>   0.1500 
 34 H       -2.9310     0.0060     1.9340 H     1 <1>   0.1500 
 35 H       -0.0360     3.5350    -1.3990 H     1 <1>   0.0800 
 36 H        1.3110     3.8050    -0.3150 H     1 <1>   0.0800 
 37 H       -2.3540     4.8330     0.9580 H     1 <1>   0.0800 
 38 H       -2.2040     4.1580    -0.6480 H     1 <1>   0.0800 
 39 H       -5.2000    -0.9530     2.2150 H     1 <1>   0.1500 
 40 H       -7.5510    -2.3320     2.1210 H     1 <1>   0.0800 
 41 H       -6.1250    -3.1420     1.5340 H     1 <1>   0.0800 
 42 H       -7.4780    -2.1670    -1.6670 H     1 <1>   0.0800 
 43 H       -7.8670    -0.5270    -1.2400 H     1 <1>   0.0800 
 44 H       -8.1200    -4.5900     1.4330 H     1 <1>   0.0800 
 45 H       -7.4180    -4.3340    -0.1380 H     1 <1>   0.0800 
 46 H       -9.8720    -1.9660    -1.3270 H     1 <1>   0.0800 
 47 H       -9.6310    -1.2770     0.2560 H     1 <1>   0.0800 
 48 H      -11.8460    -2.7970    -0.1400 H     1 <1>   0.1500 
 49 H      -10.7050    -7.3710    -0.6490 H     1 <1>   0.1500 
 50 H      -14.4050    -4.8840    -1.5960 H     1 <1>   0.0800 
 51 H      -14.0830    -3.3170    -0.9180 H     1 <1>   0.0800 
 52 H      -14.7940    -5.7960     0.6760 H     1 <1>   0.0800 
 53 H      -15.8660    -4.4520     0.3570 H     1 <1>   0.0800 
 54 H      -14.4550    -4.2280     1.3690 H     1 <1>   0.0800 
@<TRIPOS>BOND
  1   1   2  2   
  2   2   3  am  
  3   2   4  1   
  4   3   5  1   
  5   3   6  1   
  6   4   7  ar  
  7   4   8  ar  
  8   5   9  1   
  9   5  29  1   
 10   5  30  1   
 11   6  10  1   
 12   6  31  1   
 13   6  32  1   
 14   7  11  ar  
 15   7  33  1   
 16   8  12  ar  
 17   8  34  1   
 18   9  13  1   
 19   9  35  1   
 20   9  36  1   
 21  10  13  1   
 22  10  37  1   
 23  10  38  1   
 24  11  14  ar  
 25  12  14  ar  
 26  12  39  1   
 27  14  15  1   
 28  15  16  1   
 29  15  17  1   
 30  16  18  1   
 31  16  40  1   
 32  16  41  1   
 33  17  19  1   
 34  17  42  1   
 35  17  43  1   
 36  18  20  1   
 37  18  44  1   
 38  18  45  1   
 39  19  20  1   
 40  19  46  1   
 41  19  47  1   
 42  20  21  1   
 43  21  22  ar  
 44  21  23  ar  
 45  22  24  ar  
 46  23  25  ar  
 47  23  48  1   
 48  24  26  ar  
 49  24  49  1   
 50  25  26  ar  
 51  25  27  1   
 52  27  28  1   
 53  27  50  1   
 54  27  51  1   
 55  28  52  1   
 56  28  53  1   
 57  28  54  1   
@<TRIPOS>SUBSTRUCTURE
  1 ****  15 GROUP 4 **** **** 0

# MOE 2024.06 (io_trps.svl 2023.06)
