@<TRIPOS>MOLECULE
NONAME
37 40 1 0 0 
SMALL
USER_CHARGES


@<TRIPOS>ATOM
  1 O       -0.5680     2.5360     3.0490 O.2   1 <1>  -0.5700 
  2 C       -1.0360     2.7220     1.9410 C.2   1 <1>   0.7800 
  3 O       -0.5490     3.6350     1.1000 O.3   1 <1>  -0.2330 
  4 N       -2.1060     2.0760     1.3950 N.am  1 <1>  -0.4770 
  5 C       -1.3050     3.5800    -0.0140 C.ar  1 <1>   0.0830 
  6 C       -2.2820     2.6190     0.1350 C.ar  1 <1>   0.1170 
  7 C       -2.8010     0.9130     2.0170 C.3   1 <1>   0.2010 
  8 C       -1.1830     4.3360    -1.1650 C.ar  1 <1>  -0.1500 
  9 C       -3.1810     2.3840    -0.8950 C.ar  1 <1>  -0.1500 
 10 C       -2.9540    -0.2900     1.0840 C.2   1 <1>   0.5690 
 11 C       -2.0830     4.1020    -2.1930 C.ar  1 <1>  -0.1500 
 12 C       -3.0740     3.1320    -2.0570 C.ar  1 <1>  -0.1500 
 13 O       -1.9510    -0.8930     0.7720 O.2   1 <1>  -0.5700 
 14 N       -4.1890    -0.6740     0.6450 N.am  1 <1>  -0.6600 
 15 C       -5.4940    -0.0220     0.9490 C.3   1 <1>   0.2350 
 16 C       -4.4140    -1.8770    -0.2060 C.3   1 <1>   0.2350 
 17 C       -6.4560    -0.5240    -0.1060 C.3   1 <1>  -0.2420 
 18 C       -5.8020    -1.6960    -0.8000 C.3   1 <1>  -0.2420 
 19 C       -7.8940    -0.2360     0.3310 C.2   1 <1>   0.9470 
 20 C       -6.1330    -0.4500    -1.5790 C.3   1 <1>  -0.2000 
 21 C       -6.3820    -3.0380    -1.2510 C.2   1 <1>   0.9470 
 22 O       -8.6090     0.4880    -0.3740 O.co2 1 <1>  -0.9000 
 23 O       -8.2460    -0.5660     1.4720 O.co2 1 <1>  -0.9000 
 24 O       -6.7090    -3.1950    -2.4350 O.co2 1 <1>  -0.9000 
 25 O       -6.3670    -3.9890    -0.4570 O.co2 1 <1>  -0.9000 
 26 H       -2.2330     0.5850     2.8680 H     1 <1>   0.0800 
 27 H       -3.7570     1.2360     2.3780 H     1 <1>   0.0800 
 28 H       -0.4090     5.0780    -1.2500 H     1 <1>   0.1500 
 29 H       -3.9440     1.6350    -0.7980 H     1 <1>   0.1500 
 30 H       -2.0170     4.6720    -3.1040 H     1 <1>   0.1500 
 31 H       -3.7680     2.9580    -2.8630 H     1 <1>   0.1500 
 32 H       -5.8270    -0.3340     1.9250 H     1 <1>   0.0800 
 33 H       -5.4290     1.0500     0.9090 H     1 <1>   0.0800 
 34 H       -3.6700    -1.9520    -0.9790 H     1 <1>   0.0800 
 35 H       -4.3820    -2.7590     0.4130 H     1 <1>   0.0800 
 36 H       -5.3340     0.1700    -1.9350 H     1 <1>   0.1000 
 37 H       -6.9530    -0.5030    -2.2760 H     1 <1>   0.1000 
@<TRIPOS>BOND
  1   1   2  2   
  2   2   3  1   
  3   2   4  am  
  4   3   5  1   
  5   4   6  1   
  6   4   7  1   
  7   5   6  ar  
  8   5   8  ar  
  9   6   9  ar  
 10   7  10  1   
 11   7  26  1   
 12   7  27  1   
 13   8  11  ar  
 14   8  28  1   
 15   9  12  ar  
 16   9  29  1   
 17  10  13  2   
 18  10  14  am  
 19  11  12  ar  
 20  11  30  1   
 21  12  31  1   
 22  14  15  1   
 23  14  16  1   
 24  15  17  1   
 25  15  32  1   
 26  15  33  1   
 27  16  18  1   
 28  16  34  1   
 29  16  35  1   
 30  17  18  1   
 31  17  19  1   
 32  17  20  1   
 33  18  20  1   
 34  18  21  1   
 35  19  22  ar  
 36  19  23  ar  
 37  20  36  1   
 38  20  37  1   
 39  21  24  ar  
 40  21  25  ar  
@<TRIPOS>SUBSTRUCTURE
  1 ****  14 GROUP 4 **** **** 0

# MOE 2024.06 (io_trps.svl 2023.06)
