@<TRIPOS>MOLECULE
NONAME
50 53 1 0 0 
SMALL
USER_CHARGES


@<TRIPOS>ATOM
  1 F       -2.4100    -2.9850    -3.7680 F     1 <1>  -0.1900 
  2 C       -2.7730    -2.9360    -2.5140 C.ar  1 <1>   0.1900 
  3 C       -3.2410    -4.0780    -1.9090 C.ar  1 <1>  -0.1500 
  4 C       -2.6710    -1.7260    -1.8450 C.ar  1 <1>  -0.1500 
  5 C       -3.6350    -4.0400    -0.5660 C.ar  1 <1>   0.0860 
  6 C       -3.0540    -1.6740    -0.5220 C.ar  1 <1>  -0.1500 
  7 C       -4.1390    -5.1990     0.1290 C.2   1 <1>   0.4690 
  8 C       -3.5340    -2.8160     0.1220 C.ar  1 <1>   0.1000 
  9 O       -4.2310    -6.2770    -0.4540 O.2   1 <1>  -0.5700 
 10 C       -4.5300    -5.0610     1.4950 C.2   1 <1>   0.0290 
 11 N       -3.9180    -2.7590     1.4560 N.pl3 1 <1>  -0.6000 
 12 C       -5.0330    -6.2180     2.1640 C.2   1 <1>   0.6160 
 13 C       -4.3950    -3.8500     2.1170 C.2   1 <1>  -0.0500 
 14 O       -4.3200    -6.8110     2.9530 O.2   1 <1>  -0.5700 
 15 N       -6.2970    -6.7080     1.9200 N.am  1 <1>  -0.6600 
 16 C       -6.5130    -8.1780     1.8590 C.3   1 <1>   0.1400 
 17 C       -7.4020    -5.9190     1.3020 C.3   1 <1>   0.1400 
 18 C       -6.5810    -8.5890     0.3690 C.3   1 <1>   0.4230 
 19 C       -7.6020    -6.3510    -0.1590 C.3   1 <1>  -0.1600 
 20 N       -6.6380   -10.0720     0.1360 N.4   1 <1>  -0.9590 
 21 C       -7.7780    -7.8910    -0.3140 C.3   1 <1>  -0.1060 
 22 C       -6.5590   -10.3990    -1.3090 C.3   1 <1>   0.3430 
 23 C       -5.6930   -10.8780     0.9530 C.3   1 <1>   0.2630 
 24 C       -9.0750    -8.3690     0.3690 C.2   1 <1>   0.9060 
 25 C       -7.7880    -8.2310    -1.8240 C.3   1 <1>  -0.1600 
 26 C       -7.7180    -9.7470    -2.0650 C.3   1 <1>  -0.1600 
 27 O       -9.1470    -9.5460     0.7610 O.co2 1 <1>  -0.9000 
 28 O      -10.0020    -7.5790     0.5350 O.co2 1 <1>  -0.9000 
 29 H       -3.3010    -4.9950    -2.4660 H     1 <1>   0.1500 
 30 H       -2.2980    -0.8590    -2.3610 H     1 <1>   0.1500 
 31 H       -2.9830    -0.7480     0.0190 H     1 <1>   0.1500 
 32 H       -3.8130    -1.8620     1.9490 H     1 <1>   0.4000 
 33 H       -4.6650    -3.7370     3.1560 H     1 <1>   0.1500 
 34 H       -5.6970    -8.6770     2.3480 H     1 <1>   0.0800 
 35 H       -7.4230    -8.4280     2.3770 H     1 <1>   0.0800 
 36 H       -8.3100    -6.0950     1.8570 H     1 <1>   0.0800 
 37 H       -7.1900    -4.8650     1.3500 H     1 <1>   0.0800 
 38 H       -5.6790    -8.2210    -0.0900 H     1 <1>   0.0800 
 39 H       -8.4740    -5.8510    -0.5460 H     1 <1>   0.0800 
 40 H       -6.7660    -6.0100    -0.7400 H     1 <1>   0.0800 
 41 H       -7.6300   -10.2790     0.4340 H     1 <1>   0.4500 
 42 H       -5.6230   -10.0420    -1.7070 H     1 <1>   0.0800 
 43 H       -6.6060   -11.4660    -1.4440 H     1 <1>   0.0800 
 44 H       -4.6770   -10.5870     0.7430 H     1 <1>   0.0800 
 45 H       -5.8130   -11.9250     0.7310 H     1 <1>   0.0800 
 46 H       -5.8900   -10.7310     2.0020 H     1 <1>   0.0800 
 47 H       -8.6850    -7.8360    -2.2730 H     1 <1>   0.0800 
 48 H       -6.9450    -7.7650    -2.3060 H     1 <1>   0.0800 
 49 H       -7.6040    -9.9350    -3.1180 H     1 <1>   0.0800 
 50 H       -8.6420   -10.2080    -1.7580 H     1 <1>   0.0800 
@<TRIPOS>BOND
  1   1   2  1   
  2   2   3  ar  
  3   2   4  ar  
  4   3   5  ar  
  5   3  29  1   
  6   4   6  ar  
  7   4  30  1   
  8   5   7  1   
  9   5   8  ar  
 10   6   8  ar  
 11   6  31  1   
 12   7   9  2   
 13   7  10  1   
 14   8  11  1   
 15  10  12  1   
 16  10  13  2   
 17  11  13  1   
 18  11  32  1   
 19  12  14  2   
 20  12  15  am  
 21  13  33  1   
 22  15  16  1   
 23  15  17  1   
 24  16  18  1   
 25  16  34  1   
 26  16  35  1   
 27  17  19  1   
 28  17  36  1   
 29  17  37  1   
 30  18  20  1   
 31  18  21  1   
 32  18  38  1   
 33  19  21  1   
 34  19  39  1   
 35  19  40  1   
 36  20  22  1   
 37  20  23  1   
 38  20  41  1   
 39  21  24  1   
 40  21  25  1   
 41  22  26  1   
 42  22  42  1   
 43  22  43  1   
 44  23  44  1   
 45  23  45  1   
 46  23  46  1   
 47  24  27  ar  
 48  24  28  ar  
 49  25  26  1   
 50  25  47  1   
 51  25  48  1   
 52  26  49  1   
 53  26  50  1   
@<TRIPOS>SUBSTRUCTURE
  1 ****   9 GROUP 4 **** **** 0

# MOE 2024.06 (io_trps.svl 2023.06)
