@<TRIPOS>MOLECULE
NONAME
55 57 1 0 0 
SMALL
USER_CHARGES


@<TRIPOS>ATOM
  1 CL      -3.0710     3.1610     1.0500 Cl    1 <1>  -0.1770 
  2 C       -2.6580     1.4610     1.0510 C.ar  1 <1>   0.1770 
  3 C       -1.3300     1.0550     1.1200 C.ar  1 <1>   0.0830 
  4 C       -3.6920     0.5470     0.9760 C.ar  1 <1>  -0.1500 
  5 O       -0.3710     2.0180     1.1890 O.3   1 <1>  -0.3630 
  6 C       -1.0570    -0.3100     1.1180 C.ar  1 <1>  -0.1500 
  7 C       -3.4120    -0.8120     0.9630 C.ar  1 <1>  -0.1430 
  8 C        1.0130     1.7430     1.2440 C.3   1 <1>   0.1200 
  9 C       -2.0900    -1.2320     1.0400 C.ar  1 <1>  -0.1500 
 10 C       -4.5390    -1.8230     0.8630 C.3   1 <1>   0.4870 
 11 C        1.5370     1.4570    -0.1690 C.3   1 <1>  -0.1600 
 12 N       -5.0740    -1.8010    -0.5320 N.4   1 <1>  -0.9590 
 13 C        3.0420     1.1690    -0.1550 C.3   1 <1>  -0.2400 
 14 C       -6.3910    -2.4700    -0.7320 C.3   1 <1>   0.4230 
 15 C       -4.0580    -2.3220    -1.5030 C.3   1 <1>   0.2630 
 16 C       -6.4530    -3.9180    -0.2500 C.3   1 <1>  -0.1600 
 17 C       -7.5310    -1.7770     0.0070 C.3   1 <1>  -0.1600 
 18 C       -7.9560    -4.2090    -0.1370 C.3   1 <1>  -0.0800 
 19 C       -8.6390    -2.8370     0.0730 C.3   1 <1>  -0.0800 
 20 C       -8.2930    -5.2800     0.9220 C.3   1 <1>   0.1400 
 21 C       -9.4850    -2.7570     1.3570 C.3   1 <1>  -0.0990 
 22 N       -9.7290    -5.2080     1.2790 N.am  1 <1>  -0.6600 
 23 C      -10.3340    -4.0020     1.5070 C.2   1 <1>   0.5690 
 24 C      -10.4490    -6.5020     1.4340 C.3   1 <1>   0.0600 
 25 O      -11.4930    -3.8840     1.8180 O.2   1 <1>  -0.5700 
 26 H       -4.7000     0.9210     0.9350 H     1 <1>   0.1500 
 27 H       -0.0480    -0.6730     1.1770 H     1 <1>   0.1500 
 28 H        1.4920     2.6230     1.6370 H     1 <1>   0.0800 
 29 H        1.1910     0.9290     1.9230 H     1 <1>   0.0800 
 30 H       -1.8430    -2.2810     1.0450 H     1 <1>   0.1500 
 31 H       -5.3080    -1.5560     1.5690 H     1 <1>   0.0800 
 32 H       -4.1770    -2.8070     1.1110 H     1 <1>   0.0800 
 33 H        1.0230     0.6130    -0.5910 H     1 <1>   0.0800 
 34 H        1.3490     2.3160    -0.7910 H     1 <1>   0.0800 
 35 H       -5.2090    -0.8050    -0.7550 H     1 <1>   0.4500 
 36 H        3.2560     0.3050     0.4490 H     1 <1>   0.0800 
 37 H        3.5830     2.0120     0.2400 H     1 <1>   0.0800 
 38 H        3.3900     0.9810    -1.1560 H     1 <1>   0.0800 
 39 H       -6.6370    -2.4610    -1.7830 H     1 <1>   0.0800 
 40 H       -3.8410    -3.3580    -1.3010 H     1 <1>   0.0800 
 41 H       -3.1430    -1.7560    -1.4280 H     1 <1>   0.0800 
 42 H       -4.4270    -2.2370    -2.5130 H     1 <1>   0.0800 
 43 H       -5.9830    -4.5920    -0.9440 H     1 <1>   0.0800 
 44 H       -6.0030    -4.0220     0.7200 H     1 <1>   0.0800 
 45 H       -7.2420    -1.5040     1.0040 H     1 <1>   0.0800 
 46 H       -7.8700    -0.9020    -0.5200 H     1 <1>   0.0800 
 47 H       -8.2930    -4.5930    -1.0870 H     1 <1>   0.0800 
 48 H       -9.3100    -2.6860    -0.7590 H     1 <1>   0.0800 
 49 H       -7.7190    -5.1210     1.8190 H     1 <1>   0.0800 
 50 H       -8.0560    -6.2590     0.5390 H     1 <1>   0.0800 
 51 H      -10.1240    -1.8930     1.3280 H     1 <1>   0.0800 
 52 H       -8.8610    -2.6850     2.2280 H     1 <1>   0.0800 
 53 H       -9.9730    -7.0960     2.1950 H     1 <1>   0.0800 
 54 H      -10.4390    -7.0390     0.5020 H     1 <1>   0.0800 
 55 H      -11.4730    -6.3330     1.7220 H     1 <1>   0.0800 
@<TRIPOS>BOND
  1   1   2  1   
  2   2   3  ar  
  3   2   4  ar  
  4   3   5  1   
  5   3   6  ar  
  6   4   7  ar  
  7   4  26  1   
  8   5   8  1   
  9   6   9  ar  
 10   6  27  1   
 11   7   9  ar  
 12   7  10  1   
 13   8  11  1   
 14   8  28  1   
 15   8  29  1   
 16   9  30  1   
 17  10  12  1   
 18  10  31  1   
 19  10  32  1   
 20  11  13  1   
 21  11  33  1   
 22  11  34  1   
 23  12  14  1   
 24  12  15  1   
 25  12  35  1   
 26  13  36  1   
 27  13  37  1   
 28  13  38  1   
 29  14  16  1   
 30  14  17  1   
 31  14  39  1   
 32  15  40  1   
 33  15  41  1   
 34  15  42  1   
 35  16  18  1   
 36  16  43  1   
 37  16  44  1   
 38  17  19  1   
 39  17  45  1   
 40  17  46  1   
 41  18  19  1   
 42  18  20  1   
 43  18  47  1   
 44  19  21  1   
 45  19  48  1   
 46  20  22  1   
 47  20  49  1   
 48  20  50  1   
 49  21  23  1   
 50  21  51  1   
 51  21  52  1   
 52  22  23  am  
 53  22  24  1   
 54  23  25  2   
 55  24  53  1   
 56  24  54  1   
 57  24  55  1   
@<TRIPOS>SUBSTRUCTURE
  1 ****  10 GROUP 4 **** **** 0

# MOE 2024.06 (io_trps.svl 2023.06)
