@<TRIPOS>MOLECULE
NONAME
39 40 1 0 0 
SMALL
USER_CHARGES


@<TRIPOS>ATOM
  1 O        1.3730     0.0080    -2.6730 O.2   1 <1>  -0.5700 
  2 C        1.1830    -0.7060    -1.7150 C.2   1 <1>   0.5690 
  3 N        1.4480    -0.3430    -0.4350 N.am  1 <1>  -0.4930 
  4 C        0.6220    -2.1120    -1.9390 C.3   1 <1>   0.1710 
  5 C        1.9510     0.8360     0.1010 C.2   1 <1>   0.3520 
  6 N       -0.0480    -2.7080    -0.7360 N.3   1 <1>  -0.8100 
  7 N        2.0580     0.9600     1.3850 N.2   1 <1>  -0.7070 
  8 C        2.3840     1.9720    -0.5790 C.2   1 <1>  -0.1500 
  9 C       -0.2450    -4.1840    -0.8620 C.3   1 <1>   0.3330 
 10 C       -1.3480    -2.0290    -0.5310 C.3   1 <1>   0.0300 
 11 N        2.5700     2.1950     1.5660 N.pl3 1 <1>   0.3140 
 12 C        2.7740     2.8230     0.3920 C.2   1 <1>  -0.3020 
 13 C       -1.0920    -4.7780     0.2780 C.ar  1 <1>   0.1670 
 14 C        1.1070    -4.9080    -0.8850 C.3   1 <1>  -0.2400 
 15 C        2.8440     2.7180     2.9090 C.3   1 <1>   0.0160 
 16 N       -2.1330    -5.5260    -0.0750 N.ar  1 <1>  -0.6200 
 17 C       -0.7430    -4.5260     1.5990 C.ar  1 <1>  -0.1500 
 18 C       -2.8420    -6.0340     0.9200 C.ar  1 <1>   0.1600 
 19 C       -1.4910    -5.0610     2.6250 C.ar  1 <1>  -0.1500 
 20 C       -2.5710    -5.8370     2.2630 C.ar  1 <1>  -0.1500 
 21 H        1.1800    -1.0300     0.2700 H     1 <1>   0.3700 
 22 H        1.4590    -2.7100    -2.2400 H     1 <1>   0.0800 
 23 H       -0.0670    -2.0820    -2.7640 H     1 <1>   0.0800 
 24 H        2.3900     2.1020    -1.6460 H     1 <1>   0.1500 
 25 H       -0.7610    -4.3870    -1.7870 H     1 <1>   0.0800 
 26 H       -1.2240    -0.9590    -0.5160 H     1 <1>   0.0800 
 27 H       -1.7830    -2.3140     0.4110 H     1 <1>   0.0800 
 28 H       -2.0360    -2.2860    -1.3190 H     1 <1>   0.0800 
 29 H        3.1750     3.8160     0.3120 H     1 <1>   0.1500 
 30 H        1.7260    -4.5750    -0.0720 H     1 <1>   0.0800 
 31 H        1.6190    -4.7620    -1.8160 H     1 <1>   0.0800 
 32 H        0.9440    -5.9660    -0.7760 H     1 <1>   0.0800 
 33 H        3.5760     2.0920     3.3830 H     1 <1>   0.0800 
 34 H        1.9340     2.7040     3.4790 H     1 <1>   0.0800 
 35 H        3.2150     3.7230     2.8360 H     1 <1>   0.0800 
 36 H        0.1100    -3.9080     1.8150 H     1 <1>   0.1500 
 37 H       -3.6890    -6.6420     0.6510 H     1 <1>   0.1500 
 38 H       -1.2430    -4.8810     3.6560 H     1 <1>   0.1500 
 39 H       -3.1970    -6.2860     3.0120 H     1 <1>   0.1500 
@<TRIPOS>BOND
  1   1   2  2   
  2   2   3  am  
  3   2   4  1   
  4   3   5  1   
  5   3  21  1   
  6   4   6  1   
  7   4  22  1   
  8   4  23  1   
  9   5   7  2   
 10   5   8  1   
 11   6   9  1   
 12   6  10  1   
 13   7  11  1   
 14   8  12  2   
 15   8  24  1   
 16   9  13  1   
 17   9  14  1   
 18   9  25  1   
 19  10  26  1   
 20  10  27  1   
 21  10  28  1   
 22  11  12  1   
 23  11  15  1   
 24  12  29  1   
 25  13  16  ar  
 26  13  17  ar  
 27  14  30  1   
 28  14  31  1   
 29  14  32  1   
 30  15  33  1   
 31  15  34  1   
 32  15  35  1   
 33  16  18  ar  
 34  17  19  ar  
 35  17  36  1   
 36  18  20  ar  
 37  18  37  1   
 38  19  20  ar  
 39  19  38  1   
 40  20  39  1   
@<TRIPOS>SUBSTRUCTURE
  1 ****   6 GROUP 4 **** **** 0

# MOE 2024.06 (io_trps.svl 2023.06)
