@<TRIPOS>MOLECULE
NONAME
49 51 1 0 0 
SMALL
USER_CHARGES


@<TRIPOS>ATOM
  1 O       -0.9610     0.2060    -0.7680 O.2   1 <1>  -0.5700 
  2 C       -1.7030     0.8360    -0.0350 C.2   1 <1>   0.6160 
  3 N       -2.7520     0.1680     0.5580 N.am  1 <1>  -0.6600 
  4 C       -1.4860     2.2500     0.1750 C.2   1 <1>   0.0140 
  5 C       -2.7660    -1.3270     0.6420 C.3   1 <1>   0.1400 
  6 C       -4.1280     0.7490     0.6100 C.3   1 <1>   0.1400 
  7 C       -1.7960     2.8860     1.3540 C.2   1 <1>  -0.0410 
  8 C       -0.9160     3.0510    -0.8660 C.2   1 <1>  -0.1500 
  9 C       -3.7510    -1.9240    -0.3770 C.3   1 <1>   0.3440 
 10 C       -5.0560     0.0510    -0.4150 C.3   1 <1>   0.2000 
 11 N       -1.5960     4.2330     1.5210 N.am  1 <1>  -0.5390 
 12 C       -0.7170     4.3850    -0.6860 C.2   1 <1>  -0.1360 
 13 O       -5.0170    -1.3390    -0.2120 O.3   1 <1>  -0.5600 
 14 C       -3.8570    -3.4360    -0.1990 C.ar  1 <1>  -0.1430 
 15 C       -6.5380     0.5320    -0.3840 C.3   1 <1>   0.0000 
 16 C       -1.0660     5.0180     0.5370 C.2   1 <1>   0.6160 
 17 C       -3.0020    -4.2680    -0.9070 C.ar  1 <1>  -0.1500 
 18 C       -4.7820    -4.0030     0.6680 C.ar  1 <1>  -0.1500 
 19 C       -6.6310     2.0490    -0.6350 C.3   1 <1>  -0.2400 
 20 C       -7.2240     0.2170     0.9600 C.3   1 <1>  -0.2400 
 21 C       -7.3270    -0.1720    -1.5030 C.3   1 <1>  -0.2400 
 22 O       -0.9210     6.2090     0.7510 O.2   1 <1>  -0.5700 
 23 C       -3.0680    -5.6420    -0.7510 C.ar  1 <1>  -0.1500 
 24 C       -4.8510    -5.3760     0.8250 C.ar  1 <1>  -0.1500 
 25 C       -3.9930    -6.1970     0.1150 C.ar  1 <1>  -0.1500 
 26 H       -1.7830    -1.7260     0.4610 H     1 <1>   0.0800 
 27 H       -3.0620    -1.6260     1.6320 H     1 <1>   0.0800 
 28 H       -4.5220     0.6260     1.6020 H     1 <1>   0.0800 
 29 H       -4.0920     1.8000     0.3920 H     1 <1>   0.0800 
 30 H       -2.2040     2.3370     2.1870 H     1 <1>   0.1500 
 31 H       -0.6490     2.5620    -1.7880 H     1 <1>   0.1500 
 32 H       -3.4120    -1.7070    -1.3760 H     1 <1>   0.0800 
 33 H       -4.6690     0.2410    -1.4020 H     1 <1>   0.0800 
 34 H       -1.8080     4.7320     2.3880 H     1 <1>   0.3700 
 35 H       -0.2930     5.0140    -1.4450 H     1 <1>   0.1500 
 36 H       -2.2760    -3.8500    -1.5840 H     1 <1>   0.1500 
 37 H       -5.4560    -3.3720     1.2220 H     1 <1>   0.1500 
 38 H       -7.6600     2.3530    -0.7150 H     1 <1>   0.0800 
 39 H       -6.1320     2.3120    -1.5510 H     1 <1>   0.0800 
 40 H       -6.1900     2.6080     0.1710 H     1 <1>   0.0800 
 41 H       -8.2610     0.5020     0.9290 H     1 <1>   0.0800 
 42 H       -6.7590     0.7450     1.7710 H     1 <1>   0.0800 
 43 H       -7.1750    -0.8380     1.1670 H     1 <1>   0.0800 
 44 H       -8.3490     0.1640    -1.5230 H     1 <1>   0.0800 
 45 H       -7.3310    -1.2380    -1.3500 H     1 <1>   0.0800 
 46 H       -6.8850     0.0270    -2.4630 H     1 <1>   0.0800 
 47 H       -2.4010    -6.2790    -1.3050 H     1 <1>   0.1500 
 48 H       -5.5730    -5.8040     1.4980 H     1 <1>   0.1500 
 49 H       -4.0460    -7.2650     0.2370 H     1 <1>   0.1500 
@<TRIPOS>BOND
  1   1   2  2   
  2   2   3  am  
  3   2   4  1   
  4   3   5  1   
  5   3   6  1   
  6   4   7  2   
  7   4   8  1   
  8   5   9  1   
  9   5  26  1   
 10   5  27  1   
 11   6  10  1   
 12   6  28  1   
 13   6  29  1   
 14   7  11  1   
 15   7  30  1   
 16   8  12  2   
 17   8  31  1   
 18   9  13  1   
 19   9  14  1   
 20   9  32  1   
 21  10  13  1   
 22  10  15  1   
 23  10  33  1   
 24  11  16  am  
 25  11  34  1   
 26  12  16  1   
 27  12  35  1   
 28  14  17  ar  
 29  14  18  ar  
 30  15  19  1   
 31  15  20  1   
 32  15  21  1   
 33  16  22  2   
 34  17  23  ar  
 35  17  36  1   
 36  18  24  ar  
 37  18  37  1   
 38  19  38  1   
 39  19  39  1   
 40  19  40  1   
 41  20  41  1   
 42  20  42  1   
 43  20  43  1   
 44  21  44  1   
 45  21  45  1   
 46  21  46  1   
 47  23  25  ar  
 48  23  47  1   
 49  24  25  ar  
 50  24  48  1   
 51  25  49  1   
@<TRIPOS>SUBSTRUCTURE
  1 ****   3 GROUP 4 **** **** 0

# MOE 2024.06 (io_trps.svl 2023.06)
