@<TRIPOS>MOLECULE
NONAME
56 58 1 0 0 
SMALL
USER_CHARGES


@<TRIPOS>ATOM
  1 O        2.1640    -0.4390     2.4820 O.2   1 <1>  -0.5700 
  2 C        1.9220    -0.7440     1.3370 C.2   1 <1>   0.5690 
  3 N        1.7030     0.1980     0.3600 N.am  1 <1>  -0.6600 
  4 C        1.8660    -2.2260     1.0300 C.3   1 <1>  -0.0990 
  5 C        1.8390     1.6470     0.6690 C.3   1 <1>   0.1400 
  6 C        1.3680    -0.1120    -1.0620 C.3   1 <1>   0.0600 
  7 C        0.4400    -2.7580     1.1970 C.3   1 <1>   0.0200 
  8 C        3.2200     2.1390     0.2350 C.3   1 <1>  -0.1600 
  9 C        0.3690    -4.2080     0.7670 C.2   1 <1>   0.0060 
 10 C        3.4470     3.5960     0.6450 C.3   1 <1>   0.0210 
 11 N        0.0660    -4.5820    -0.4260 N.2   1 <1>  -0.5650 
 12 N        0.6320    -5.2350     1.6150 N.pl3 1 <1>   0.0330 
 13 C        4.8260     4.0530     0.2040 C.2   1 <1>  -0.1810 
 14 C        0.1290    -5.9430    -0.3790 C.ar  1 <1>   0.2270 
 15 C        0.4810    -6.3670     0.8860 C.ar  1 <1>  -0.1520 
 16 C        5.1540     4.7060    -0.9840 C.2   1 <1>   0.1080 
 17 C        6.0010     3.9190     0.8580 C.2   1 <1>  -0.3320 
 18 C       -0.1030    -6.8810    -1.3810 C.ar  1 <1>  -0.1500 
 19 C        0.6110    -7.7240     1.1820 C.ar  1 <1>  -0.1500 
 20 N        6.4200     4.9650    -1.0690 N.2   1 <1>  -0.7070 
 21 C        4.1860     5.0940    -2.0780 C.3   1 <1>  -0.0590 
 22 N        6.9430     4.4780     0.0700 N.pl3 1 <1>   0.3000 
 23 C        6.3110     3.2810     2.2010 C.3   1 <1>  -0.0600 
 24 C        0.0210    -8.2280    -1.1060 C.ar  1 <1>  -0.1440 
 25 C        0.3820    -8.6520     0.1880 C.ar  1 <1>  -0.1440 
 26 C       -0.2370    -9.2350    -2.2180 C.3   1 <1>  -0.0970 
 27 C        0.5240   -10.1330     0.5110 C.3   1 <1>  -0.0970 
 28 H        2.5210    -2.7420     1.7070 H     1 <1>   0.0800 
 29 H        2.2230    -2.4170     0.0350 H     1 <1>   0.0800 
 30 H        1.7160     1.8070     1.7280 H     1 <1>   0.0800 
 31 H        1.0670     2.2010     0.1640 H     1 <1>   0.0800 
 32 H        0.8910    -1.0720    -1.1520 H     1 <1>   0.0800 
 33 H        2.2670    -0.1120    -1.6530 H     1 <1>   0.0800 
 34 H        0.6940     0.6300    -1.4520 H     1 <1>   0.0800 
 35 H       -0.2360    -2.1850     0.5870 H     1 <1>   0.0800 
 36 H        0.1250    -2.6560     2.2210 H     1 <1>   0.0800 
 37 H        3.3220     2.0520    -0.8320 H     1 <1>   0.0800 
 38 H        3.9740     1.5280     0.7010 H     1 <1>   0.0800 
 39 H        3.3690     3.6900     1.7140 H     1 <1>   0.0800 
 40 H        2.6980     4.2300     0.2050 H     1 <1>   0.0800 
 41 H        0.8920    -5.1760     2.6020 H     1 <1>   0.2700 
 42 H       -0.3760    -6.5160    -2.3530 H     1 <1>   0.1500 
 43 H        0.8870    -8.0240     2.1770 H     1 <1>   0.1500 
 44 H        3.5400     4.2680    -2.3090 H     1 <1>   0.0800 
 45 H        4.7300     5.3670    -2.9630 H     1 <1>   0.0800 
 46 H        3.5970     5.9320    -1.7580 H     1 <1>   0.0800 
 47 H        7.9450     4.5410     0.2780 H     1 <1>   0.2700 
 48 H        5.4230     2.8600     2.6360 H     1 <1>   0.0800 
 49 H        6.7070     4.0170     2.8780 H     1 <1>   0.0800 
 50 H        7.0330     2.4930     2.0790 H     1 <1>   0.0800 
 51 H       -0.5000    -8.7360    -3.1330 H     1 <1>   0.0800 
 52 H       -1.0470    -9.8860    -1.9450 H     1 <1>   0.0800 
 53 H        0.6450    -9.8220    -2.3970 H     1 <1>   0.0800 
 54 H        0.8040   -10.2780     1.5380 H     1 <1>   0.0800 
 55 H        1.2830   -10.5740    -0.1100 H     1 <1>   0.0800 
 56 H       -0.4090   -10.6380     0.3410 H     1 <1>   0.0800 
@<TRIPOS>BOND
  1   1   2  2   
  2   2   3  am  
  3   2   4  1   
  4   3   5  1   
  5   3   6  1   
  6   4   7  1   
  7   4  28  1   
  8   4  29  1   
  9   5   8  1   
 10   5  30  1   
 11   5  31  1   
 12   6  32  1   
 13   6  33  1   
 14   6  34  1   
 15   7   9  1   
 16   7  35  1   
 17   7  36  1   
 18   8  10  1   
 19   8  37  1   
 20   8  38  1   
 21   9  11  2   
 22   9  12  1   
 23  10  13  1   
 24  10  39  1   
 25  10  40  1   
 26  11  14  1   
 27  12  15  1   
 28  12  41  1   
 29  13  16  1   
 30  13  17  2   
 31  14  15  ar  
 32  14  18  ar  
 33  15  19  ar  
 34  16  20  2   
 35  16  21  1   
 36  17  22  1   
 37  17  23  1   
 38  18  24  ar  
 39  18  42  1   
 40  19  25  ar  
 41  19  43  1   
 42  20  22  1   
 43  21  44  1   
 44  21  45  1   
 45  21  46  1   
 46  22  47  1   
 47  23  48  1   
 48  23  49  1   
 49  23  50  1   
 50  24  25  ar  
 51  24  26  1   
 52  25  27  1   
 53  26  51  1   
 54  26  52  1   
 55  26  53  1   
 56  27  54  1   
 57  27  55  1   
 58  27  56  1   
@<TRIPOS>SUBSTRUCTURE
  1 ****   4 GROUP 4 **** **** 0

# MOE 2024.06 (io_trps.svl 2023.06)
