@<TRIPOS>MOLECULE
NONAME
54 57 1 0 0 
SMALL
USER_CHARGES


@<TRIPOS>ATOM
  1 O        0.2170     1.8190     1.5820 O.2   1 <1>  -0.5700 
  2 C        0.2850     2.7770     0.8330 C.2   1 <1>   0.5440 
  3 N       -0.8790     3.4340     0.4820 N.am  1 <1>  -0.6600 
  4 C        1.5800     3.1860     0.3300 C.ar  1 <1>   0.0860 
  5 C       -2.1720     3.1640     1.1790 C.3   1 <1>   0.1400 
  6 C       -1.0170     4.2850    -0.7320 C.3   1 <1>   0.1400 
  7 C        2.0270     4.5050     0.4330 C.ar  1 <1>  -0.1500 
  8 C        2.4370     2.2670    -0.2760 C.ar  1 <1>  -0.1500 
  9 C       -3.1570     2.4390     0.2410 C.3   1 <1>   0.0000 
 10 C       -1.9860     3.6260    -1.7200 C.3   1 <1>  -0.1600 
 11 C        3.2610     4.8870    -0.0550 C.ar  1 <1>  -0.1500 
 12 C        3.6710     2.6460    -0.7660 C.ar  1 <1>  -0.1500 
 13 C       -4.4860     2.1620     0.9720 C.3   1 <1>   0.2000 
 14 C       -3.3320     3.2690    -1.0630 C.3   1 <1>  -0.1600 
 15 C       -2.6970     1.0040    -0.0770 C.3   1 <1>  -0.1600 
 16 C        4.1050     3.9630    -0.6580 C.ar  1 <1>   0.1000 
 17 O       -5.3510     3.2400     0.9530 O.3   1 <1>  -0.6800 
 18 C       -5.1220     0.9610     0.2740 C.3   1 <1>  -0.1600 
 19 C       -3.9690     0.2220    -0.4190 C.3   1 <1>  -0.1600 
 20 N        5.3380     4.3660    -1.1360 N.pl3 1 <1>  -0.8690 
 21 C        6.5500     3.5770    -0.8450 C.3   1 <1>   0.3530 
 22 C        7.6250     4.5410    -0.3790 C.ar  1 <1>  -0.1440 
 23 C        8.5250     5.1130    -1.2560 C.ar  1 <1>  -0.1500 
 24 C        7.7490     4.9030     0.9480 C.ar  1 <1>  -0.1500 
 25 C        9.4830     5.9900    -0.7760 C.ar  1 <1>   0.1600 
 26 C        8.7450     5.7890     1.3240 C.ar  1 <1>   0.1600 
 27 N        9.6150     6.3410     0.4940 N.ar  1 <1>  -0.6200 
 28 H       -2.0060     2.5760     2.0650 H     1 <1>   0.0800 
 29 H       -2.6010     4.1010     1.4890 H     1 <1>   0.0800 
 30 H       -1.3940     5.2500    -0.4390 H     1 <1>   0.0800 
 31 H       -0.0670     4.4280    -1.2150 H     1 <1>   0.0800 
 32 H        1.3910     5.2310     0.9080 H     1 <1>   0.1500 
 33 H        2.1160     1.2420    -0.3580 H     1 <1>   0.1500 
 34 H       -2.1580     4.2990    -2.5410 H     1 <1>   0.0800 
 35 H       -1.5210     2.7450    -2.1250 H     1 <1>   0.0800 
 36 H        3.5810     5.9090     0.0340 H     1 <1>   0.1500 
 37 H        4.3030     1.9200    -1.2420 H     1 <1>   0.1500 
 38 H       -4.2910     1.9110     2.0020 H     1 <1>   0.0800 
 39 H       -3.9470     2.7390    -1.7700 H     1 <1>   0.0800 
 40 H       -3.8260     4.1960    -0.8300 H     1 <1>   0.0800 
 41 H       -1.9670     0.9520    -0.8640 H     1 <1>   0.0800 
 42 H       -2.2540     0.5720     0.8050 H     1 <1>   0.0800 
 43 H       -5.5860     3.4490     0.0310 H     1 <1>   0.4000 
 44 H       -5.6020     0.3260     0.9970 H     1 <1>   0.0800 
 45 H       -5.8420     1.2740    -0.4610 H     1 <1>   0.0800 
 46 H       -3.8930    -0.7980    -0.0830 H     1 <1>   0.0800 
 47 H       -4.1240     0.2250    -1.4850 H     1 <1>   0.0800 
 48 H        5.5450     5.3650    -1.0350 H     1 <1>   0.4000 
 49 H        6.3480     2.8490    -0.0780 H     1 <1>   0.0800 
 50 H        6.8650     3.0630    -1.7370 H     1 <1>   0.0800 
 51 H        8.4880     4.8880    -2.3060 H     1 <1>   0.1500 
 52 H        7.0800     4.5050     1.6890 H     1 <1>   0.1500 
 53 H       10.1770     6.4270    -1.4730 H     1 <1>   0.1500 
 54 H        8.8290     6.0600     2.3630 H     1 <1>   0.1500 
@<TRIPOS>BOND
  1   1   2  2   
  2   2   3  am  
  3   2   4  1   
  4   3   5  1   
  5   3   6  1   
  6   4   7  ar  
  7   4   8  ar  
  8   5   9  1   
  9   5  28  1   
 10   5  29  1   
 11   6  10  1   
 12   6  30  1   
 13   6  31  1   
 14   7  11  ar  
 15   7  32  1   
 16   8  12  ar  
 17   8  33  1   
 18   9  13  1   
 19   9  14  1   
 20   9  15  1   
 21  10  14  1   
 22  10  34  1   
 23  10  35  1   
 24  11  16  ar  
 25  11  36  1   
 26  12  16  ar  
 27  12  37  1   
 28  13  17  1   
 29  13  18  1   
 30  13  38  1   
 31  14  39  1   
 32  14  40  1   
 33  15  19  1   
 34  15  41  1   
 35  15  42  1   
 36  16  20  1   
 37  17  43  1   
 38  18  19  1   
 39  18  44  1   
 40  18  45  1   
 41  19  46  1   
 42  19  47  1   
 43  20  21  1   
 44  20  48  1   
 45  21  22  1   
 46  21  49  1   
 47  21  50  1   
 48  22  23  ar  
 49  22  24  ar  
 50  23  25  ar  
 51  23  51  1   
 52  24  26  ar  
 53  24  52  1   
 54  25  27  ar  
 55  25  53  1   
 56  26  27  ar  
 57  26  54  1   
@<TRIPOS>SUBSTRUCTURE
  1 ****   4 GROUP 4 **** **** 0

# MOE 2024.06 (io_trps.svl 2023.06)
