@<TRIPOS>MOLECULE
NONAME
40 41 1 0 0 
SMALL
USER_CHARGES


@<TRIPOS>ATOM
  1 CL      -2.3870     1.1450     3.5350 Cl    1 <1>  -0.1770 
  2 C       -2.9480     1.7030     1.9780 C.ar  1 <1>   0.1770 
  3 C       -2.1210     2.4940     1.2030 C.ar  1 <1>  -0.1500 
  4 C       -4.2100     1.3420     1.5460 C.ar  1 <1>  -0.1500 
  5 C       -2.5540     2.9480    -0.0350 C.ar  1 <1>  -0.1440 
  6 C       -4.6470     1.7850     0.3100 C.ar  1 <1>  -0.1500 
  7 C       -3.8260     2.5850    -0.4780 C.ar  1 <1>   0.0820 
  8 C       -1.6360     3.8410    -0.8690 C.3   1 <1>   0.2540 
  9 O       -4.2610     2.9910    -1.6930 O.3   1 <1>  -0.3630 
 10 N       -1.0800     4.9200    -0.0240 N.3   1 <1>  -0.8100 
 11 C       -5.4380     3.8020    -1.7530 C.3   1 <1>   0.0140 
 12 C       -2.1420     5.9250     0.2640 C.3   1 <1>   0.1900 
 13 C        0.1470     5.4740    -0.6100 C.3   1 <1>   0.0300 
 14 C       -5.2070     5.2220    -1.2560 C.2   1 <1>   0.9060 
 15 C       -2.1230     7.2660    -0.5160 C.3   1 <1>   0.2000 
 16 C       -2.1690     6.2670     1.7510 C.3   1 <1>  -0.0550 
 17 O       -5.4970     5.5300    -0.0960 O.co2 1 <1>  -0.9000 
 18 O       -4.7000     6.0580    -2.0140 O.co2 1 <1>  -0.9000 
 19 O       -2.4030     7.1280    -1.8650 O.3   1 <1>  -0.6800 
 20 C       -3.1590     8.1380     0.1640 C.3   1 <1>  -0.0550 
 21 S       -2.7380     7.9520     1.8760 S.o2  1 <1>   1.0900 
 22 O       -3.8920     8.0640     2.7390 O.2   1 <1>  -0.6500 
 23 O       -1.5780     8.7800     2.1320 O.2   1 <1>  -0.6500 
 24 H       -1.1470     2.7640     1.5690 H     1 <1>   0.1500 
 25 H       -4.8360     0.7290     2.1660 H     1 <1>   0.1500 
 26 H       -5.6210     1.5080    -0.0470 H     1 <1>   0.1500 
 27 H       -2.1610     4.2700    -1.7070 H     1 <1>   0.0800 
 28 H       -0.8380     3.2310    -1.2540 H     1 <1>   0.0800 
 29 H       -5.7420     3.8520    -2.7790 H     1 <1>   0.0800 
 30 H       -6.2170     3.3490    -1.1740 H     1 <1>   0.0800 
 31 H       -3.0980     5.4790     0.0760 H     1 <1>   0.0800 
 32 H        0.8910     4.7010    -0.6930 H     1 <1>   0.0800 
 33 H        0.5380     6.2530     0.0210 H     1 <1>   0.0800 
 34 H       -0.0490     5.8720    -1.5920 H     1 <1>   0.0800 
 35 H       -1.1610     7.7400    -0.4290 H     1 <1>   0.0800 
 36 H       -1.1870     6.1760     2.1720 H     1 <1>   0.0800 
 37 H       -2.8430     5.5990     2.2510 H     1 <1>   0.0800 
 38 H       -3.3290     6.7160    -1.9770 H     1 <1>   0.4000 
 39 H       -4.1430     7.7490    -0.0230 H     1 <1>   0.0800 
 40 H       -3.0900     9.1580    -0.1570 H     1 <1>   0.0800 
@<TRIPOS>BOND
  1   1   2  1   
  2   2   3  ar  
  3   2   4  ar  
  4   3   5  ar  
  5   3  24  1   
  6   4   6  ar  
  7   4  25  1   
  8   5   7  ar  
  9   5   8  1   
 10   6   7  ar  
 11   6  26  1   
 12   7   9  1   
 13   8  10  1   
 14   8  27  1   
 15   8  28  1   
 16   9  11  1   
 17  10  12  1   
 18  10  13  1   
 19  11  14  1   
 20  11  29  1   
 21  11  30  1   
 22  12  15  1   
 23  12  16  1   
 24  12  31  1   
 25  13  32  1   
 26  13  33  1   
 27  13  34  1   
 28  14  17  ar  
 29  14  18  ar  
 30  15  19  1   
 31  15  20  1   
 32  15  35  1   
 33  16  21  1   
 34  16  36  1   
 35  16  37  1   
 36  19  38  1   
 37  20  21  1   
 38  20  39  1   
 39  20  40  1   
 40  21  22  2   
 41  21  23  2   
@<TRIPOS>SUBSTRUCTURE
  1 ****  12 GROUP 4 **** **** 0

# MOE 2024.06 (io_trps.svl 2023.06)
