@<TRIPOS>MOLECULE
NONAME
57 59 1 0 0 
SMALL
USER_CHARGES


@<TRIPOS>ATOM
  1 O        4.0940    -2.5320    -0.5130 O.2   1 <1>  -0.5700 
  2 C        3.4090    -1.8700     0.2330 C.2   1 <1>   0.5690 
  3 N        4.0130    -1.1120     1.2100 N.am  1 <1>  -0.6600 
  4 C        1.8880    -1.8660     0.0300 C.3   1 <1>  -0.0190 
  5 C        5.4510    -1.3580     1.5180 C.3   1 <1>   0.1400 
  6 C        3.4100     0.0770     1.8670 C.3   1 <1>   0.1400 
  7 C        1.3470    -3.2620    -0.3440 C.3   1 <1>  -0.1600 
  8 C        1.4760    -0.8360    -1.0410 C.3   1 <1>  -0.1600 
  9 C        6.3450    -0.7670     0.4140 C.3   1 <1>   0.3430 
 10 C        4.2420     1.3360     1.5880 C.3   1 <1>  -0.1600 
 11 C       -0.1750    -3.2410    -0.5430 C.3   1 <1>  -0.1600 
 12 C       -0.0450    -0.8100    -1.2430 C.3   1 <1>  -0.1600 
 13 N        6.3110     0.7370     0.3190 N.4   1 <1>  -0.9590 
 14 C        4.9390     1.3330     0.2220 C.3   1 <1>   0.3430 
 15 C       -0.5800    -2.2030    -1.5960 C.3   1 <1>  -0.1600 
 16 C        7.1310     1.1800    -0.8290 C.3   1 <1>   0.5230 
 17 C        7.4910     2.6220    -0.5640 C.2   1 <1>  -0.3320 
 18 N        8.5450     3.0270     0.2040 N.pl3 1 <1>   0.0480 
 19 C        6.8470     3.7180    -1.0400 C.2   1 <1>  -0.1500 
 20 C        8.5330     4.3770     0.2120 C.2   1 <1>  -0.3020 
 21 C        9.5700     2.1940     0.8660 C.3   1 <1>   0.0160 
 22 C        7.4930     4.8630    -0.5430 C.2   1 <1>  -0.0860 
 23 C        7.0830     6.2160    -0.8160 C.2   1 <1>   0.5950 
 24 O        6.0840     6.4840    -1.4340 O.2   1 <1>  -0.5700 
 25 C        7.9280     7.3590    -0.3010 C.3   1 <1>  -0.1790 
 26 H        1.4230    -1.6020     0.9610 H     1 <1>   0.0800 
 27 H        5.6140    -2.4230     1.5580 H     1 <1>   0.0800 
 28 H        5.7110    -0.9550     2.4810 H     1 <1>   0.0800 
 29 H        3.3380    -0.0950     2.9290 H     1 <1>   0.0800 
 30 H        2.4130     0.2400     1.4990 H     1 <1>   0.0800 
 31 H        1.5980    -3.9660     0.4300 H     1 <1>   0.0800 
 32 H        1.8140    -3.5990    -1.2540 H     1 <1>   0.0800 
 33 H        1.9500    -1.0910    -1.9740 H     1 <1>   0.0800 
 34 H        1.8110     0.1460    -0.7610 H     1 <1>   0.0800 
 35 H        6.0320    -1.1950    -0.5250 H     1 <1>   0.0800 
 36 H        7.3570    -1.0880     0.5920 H     1 <1>   0.0800 
 37 H        4.9560     1.4950     2.3760 H     1 <1>   0.0800 
 38 H        3.5670     2.1740     1.6180 H     1 <1>   0.0800 
 39 H       -0.6570    -3.0100     0.3920 H     1 <1>   0.0800 
 40 H       -0.5100    -4.2170    -0.8530 H     1 <1>   0.0800 
 41 H       -0.2940    -0.1210    -2.0330 H     1 <1>   0.0800 
 42 H       -0.5230    -0.4640    -0.3430 H     1 <1>   0.0800 
 43 H        6.7510     1.1550     1.1440 H     1 <1>   0.4500 
 44 H        5.0210     2.3570    -0.1060 H     1 <1>   0.0800 
 45 H        4.3450     0.7990    -0.5020 H     1 <1>   0.0800 
 46 H       -1.6540    -2.1690    -1.6740 H     1 <1>   0.0800 
 47 H       -0.1920    -2.5020    -2.5560 H     1 <1>   0.0800 
 48 H        6.5700     1.0930    -1.7450 H     1 <1>   0.0800 
 49 H        8.0290     0.5910    -0.9140 H     1 <1>   0.0800 
 50 H        5.9870     3.7740    -1.6900 H     1 <1>   0.1500 
 51 H        9.2670     4.9540     0.7480 H     1 <1>   0.1500 
 52 H        9.1140     1.5920     1.6290 H     1 <1>   0.0800 
 53 H       10.3110     2.8300     1.3170 H     1 <1>   0.0800 
 54 H       10.0490     1.5660     0.1370 H     1 <1>   0.0800 
 55 H        8.9430     7.2390    -0.6310 H     1 <1>   0.0800 
 56 H        7.8980     7.3770     0.7720 H     1 <1>   0.0800 
 57 H        7.5480     8.2920    -0.6770 H     1 <1>   0.0800 
@<TRIPOS>BOND
  1   1   2  2   
  2   2   3  am  
  3   2   4  1   
  4   3   5  1   
  5   3   6  1   
  6   4   7  1   
  7   4   8  1   
  8   4  26  1   
  9   5   9  1   
 10   5  27  1   
 11   5  28  1   
 12   6  10  1   
 13   6  29  1   
 14   6  30  1   
 15   7  11  1   
 16   7  31  1   
 17   7  32  1   
 18   8  12  1   
 19   8  33  1   
 20   8  34  1   
 21   9  13  1   
 22   9  35  1   
 23   9  36  1   
 24  10  14  1   
 25  10  37  1   
 26  10  38  1   
 27  11  15  1   
 28  11  39  1   
 29  11  40  1   
 30  12  15  1   
 31  12  41  1   
 32  12  42  1   
 33  13  14  1   
 34  13  16  1   
 35  13  43  1   
 36  14  44  1   
 37  14  45  1   
 38  15  46  1   
 39  15  47  1   
 40  16  17  1   
 41  16  48  1   
 42  16  49  1   
 43  17  18  1   
 44  17  19  2   
 45  18  20  1   
 46  18  21  1   
 47  19  22  1   
 48  19  50  1   
 49  20  22  2   
 50  20  51  1   
 51  21  52  1   
 52  21  53  1   
 53  21  54  1   
 54  22  23  1   
 55  23  24  2   
 56  23  25  1   
 57  25  55  1   
 58  25  56  1   
 59  25  57  1   
@<TRIPOS>SUBSTRUCTURE
  1 ****  14 GROUP 4 **** **** 0

# MOE 2024.06 (io_trps.svl 2023.06)
