@<TRIPOS>MOLECULE
NONAME
50 52 1 0 0 
SMALL
USER_CHARGES


@<TRIPOS>ATOM
  1 S       -0.3180    -0.4470    -1.5110 S.3   1 <1>  -0.0800 
  2 C        0.7330    -1.2030    -0.3370 C.2   1 <1>   0.1980 
  3 C       -1.5910    -1.5270    -1.0240 C.2   1 <1>  -0.1100 
  4 N        0.1850    -2.1420     0.3240 N.2   1 <1>  -0.5650 
  5 C        2.1470    -0.6810    -0.2300 C.3   1 <1>  -0.0600 
  6 C       -1.1340    -2.3390    -0.0530 C.2   1 <1>   0.0460 
  7 C       -1.8550    -3.4540     0.7050 C.3   1 <1>   0.5240 
  8 N       -3.2770    -3.6710     0.2970 N.4   1 <1>  -0.9590 
  9 C       -3.4060    -4.2450    -1.0810 C.3   1 <1>   0.3430 
 10 C       -4.1720    -2.5190     0.5850 C.3   1 <1>   0.3430 
 11 C       -4.8320    -4.7590    -1.3670 C.3   1 <1>   0.1400 
 12 C       -5.4410    -3.0030     1.2970 C.3   1 <1>  -0.1600 
 13 N       -5.6040    -5.0390    -0.1160 N.am  1 <1>  -0.6600 
 14 C       -6.3600    -3.9020     0.4580 C.3   1 <1>   0.1400 
 15 C       -5.3190    -6.1470     0.6430 C.2   1 <1>   0.6160 
 16 O       -4.2660    -6.1110     1.2600 O.2   1 <1>  -0.5700 
 17 C       -6.2290    -7.2480     0.7830 C.2   1 <1>   0.0290 
 18 C       -6.8060    -7.8260    -0.3930 C.2   1 <1>   0.6160 
 19 C       -6.5530    -7.7710     2.0080 C.2   1 <1>  -0.1500 
 20 O       -6.4580    -7.4720    -1.5160 O.2   1 <1>  -0.5700 
 21 N       -7.7570    -8.8380    -0.2580 N.am  1 <1>  -0.4690 
 22 C       -7.4730    -8.8300     2.1060 C.2   1 <1>  -0.1500 
 23 C       -8.0620    -9.3470     0.9920 C.2   1 <1>  -0.0290 
 24 C       -8.3980    -9.3980    -1.4890 C.3   1 <1>   0.0600 
 25 C       -9.0540   -10.4950     1.1200 C.3   1 <1>  -0.1020 
 26 H       -2.5310    -1.4170    -1.5300 H     1 <1>   0.1500 
 27 H        2.1340     0.3590     0.0380 H     1 <1>   0.0800 
 28 H        2.6520    -0.7970    -1.1710 H     1 <1>   0.0800 
 29 H        2.6830    -1.2290     0.5230 H     1 <1>   0.0800 
 30 H       -1.8190    -3.2190     1.7560 H     1 <1>   0.0800 
 31 H       -1.3010    -4.3670     0.5650 H     1 <1>   0.0800 
 32 H       -3.6300    -4.4520     0.8920 H     1 <1>   0.4500 
 33 H       -2.7330    -5.0820    -1.1720 H     1 <1>   0.0800 
 34 H       -3.1240    -3.5220    -1.8280 H     1 <1>   0.0800 
 35 H       -4.4310    -2.0080    -0.3280 H     1 <1>   0.0800 
 36 H       -3.6630    -1.8180     1.2280 H     1 <1>   0.0800 
 37 H       -4.7640    -5.6580    -1.9570 H     1 <1>   0.0800 
 38 H       -5.3630    -4.0360    -1.9610 H     1 <1>   0.0800 
 39 H       -6.0090    -2.1380     1.5900 H     1 <1>   0.0800 
 40 H       -5.1710    -3.5130     2.2050 H     1 <1>   0.0800 
 41 H       -6.8150    -3.3360    -0.3390 H     1 <1>   0.0800 
 42 H       -7.1550    -4.2830     1.0790 H     1 <1>   0.0800 
 43 H       -6.1140    -7.3840     2.9120 H     1 <1>   0.1500 
 44 H       -7.6950    -9.2160     3.0860 H     1 <1>   0.1500 
 45 H       -8.2760    -8.7370    -2.3280 H     1 <1>   0.0800 
 46 H       -9.4520    -9.5320    -1.3320 H     1 <1>   0.0800 
 47 H       -7.9470   -10.3450    -1.7280 H     1 <1>   0.0800 
 48 H       -8.7300   -11.3350     0.5330 H     1 <1>   0.0800 
 49 H      -10.0290   -10.1840     0.7890 H     1 <1>   0.0800 
 50 H       -9.1370   -10.8160     2.1420 H     1 <1>   0.0800 
@<TRIPOS>BOND
  1   1   2  1   
  2   1   3  1   
  3   2   4  2   
  4   2   5  1   
  5   3   6  2   
  6   3  26  1   
  7   4   6  1   
  8   5  27  1   
  9   5  28  1   
 10   5  29  1   
 11   6   7  1   
 12   7   8  1   
 13   7  30  1   
 14   7  31  1   
 15   8   9  1   
 16   8  10  1   
 17   8  32  1   
 18   9  11  1   
 19   9  33  1   
 20   9  34  1   
 21  10  12  1   
 22  10  35  1   
 23  10  36  1   
 24  11  13  1   
 25  11  37  1   
 26  11  38  1   
 27  12  14  1   
 28  12  39  1   
 29  12  40  1   
 30  13  14  1   
 31  13  15  am  
 32  14  41  1   
 33  14  42  1   
 34  15  16  2   
 35  15  17  1   
 36  17  18  1   
 37  17  19  2   
 38  18  20  2   
 39  18  21  am  
 40  19  22  1   
 41  19  43  1   
 42  21  23  1   
 43  21  24  1   
 44  22  23  2   
 45  22  44  1   
 46  23  25  1   
 47  24  45  1   
 48  24  46  1   
 49  24  47  1   
 50  25  48  1   
 51  25  49  1   
 52  25  50  1   
@<TRIPOS>SUBSTRUCTURE
  1 ****  13 GROUP 4 **** **** 0

# MOE 2024.06 (io_trps.svl 2023.06)
