@<TRIPOS>MOLECULE
NONAME
58 62 1 0 0 
SMALL
USER_CHARGES


@<TRIPOS>ATOM
  1 O        2.2200     1.3170     4.0160 O.2   1 <1>  -0.5740 
  2 C        2.8180     1.1520     2.9790 C.2   1 <1>   0.6870 
  3 N        3.8710     1.9680     2.5940 N.am  1 <1>  -0.4410 
  4 N        2.4410     0.1210     2.1660 N.am  1 <1>  -0.4940 
  5 C        4.5020     1.6810     1.3930 C.2   1 <1>   0.4210 
  6 C        4.3190     3.1070     3.4460 C.3   1 <1>   0.0530 
  7 C        3.0530    -0.1770     0.9820 C.2   1 <1>   0.7000 
  8 N        5.5530     2.3280     0.8270 N.pl3 1 <1>  -0.7030 
  9 C        4.1510     0.6540     0.5860 C.2   1 <1>   0.2710 
 10 O        2.6520    -1.1200     0.3280 O.2   1 <1>  -0.5740 
 11 C        5.8690     1.7110    -0.3050 C.cat 1 <1>   1.0690 
 12 N        5.0410     0.6790    -0.5040 N.pl3 1 <1>  -0.7670 
 13 N        6.9020     2.0690    -1.0810 N.pl3 1 <1>  -0.5960 
 14 C        4.9530    -0.2500    -1.6640 C.3   1 <1>   0.2680 
 15 C        7.1990     3.5080    -1.3520 C.3   1 <1>   0.2420 
 16 C        8.0690     1.1670    -1.2030 C.3   1 <1>   0.1610 
 17 C        8.6060     3.9480    -0.8580 C.3   1 <1>  -0.0870 
 18 C        6.9600     3.7780    -2.8480 C.3   1 <1>  -0.1660 
 19 C        9.1690     1.5680    -0.2030 C.3   1 <1>  -0.1660 
 20 C        9.1310     3.0390     0.2820 C.3   1 <1>   0.4190 
 21 C        9.6130     4.0870    -2.0250 C.3   1 <1>  -0.1660 
 22 C        7.5990     5.1040    -3.2760 C.3   1 <1>  -0.1660 
 23 O        8.2220     3.1090     1.3260 O.3   1 <1>  -0.6830 
 24 C       10.4420     3.5290     0.9290 C.ar  1 <1>  -0.1500 
 25 C        9.1260     5.0910    -3.0840 C.3   1 <1>  -0.1660 
 26 C       10.5650     4.8640     1.3110 C.ar  1 <1>  -0.1560 
 27 C       11.5200     2.6840     1.1870 C.ar  1 <1>  -0.1560 
 28 C       11.7200     5.3400     1.9060 C.ar  1 <1>  -0.1560 
 29 C       12.6760     3.1580     1.7820 C.ar  1 <1>  -0.1560 
 30 C       12.7800     4.4870     2.1400 C.ar  1 <1>  -0.1560 
 31 H        1.6620    -0.4580     2.4750 H     1 <1>   0.3650 
 32 H        5.2430     2.8530     3.9360 H     1 <1>   0.0730 
 33 H        3.5820     3.3340     4.1980 H     1 <1>   0.0730 
 34 H        4.4650     3.9860     2.8420 H     1 <1>   0.0730 
 35 H        6.2200     2.9870     1.2450 H     1 <1>   0.4450 
 36 H        3.9490    -0.2560    -2.0540 H     1 <1>   0.0730 
 37 H        5.2070    -1.2490    -1.3540 H     1 <1>   0.0730 
 38 H        5.6240     0.0560    -2.4490 H     1 <1>   0.0730 
 39 H        6.4880     4.1130    -0.8140 H     1 <1>   0.0730 
 40 H        7.7820     0.1440    -1.0300 H     1 <1>   0.0730 
 41 H        8.4510     1.2330    -2.2080 H     1 <1>   0.0730 
 42 H        8.4860     4.9410    -0.4680 H     1 <1>   0.0730 
 43 H        7.3840     2.9910    -3.4470 H     1 <1>   0.0730 
 44 H        5.9020     3.8160    -3.0430 H     1 <1>   0.0730 
 45 H       10.0970     1.3970    -0.7160 H     1 <1>   0.0730 
 46 H        9.1560     0.9070     0.6450 H     1 <1>   0.0730 
 47 H       10.5710     4.4130    -1.6580 H     1 <1>   0.0730 
 48 H        9.7630     3.1340    -2.4990 H     1 <1>   0.0730 
 49 H        7.3710     5.3070    -4.3090 H     1 <1>   0.0730 
 50 H        7.1760     5.9020    -2.6900 H     1 <1>   0.0730 
 51 H        8.7710     3.2740     2.1250 H     1 <1>   0.3950 
 52 H        9.4440     6.0820    -2.8110 H     1 <1>   0.0730 
 53 H        9.6020     4.8540    -4.0210 H     1 <1>   0.0730 
 54 H        9.7630     5.5620     1.1580 H     1 <1>   0.1440 
 55 H       11.4980     1.6390     0.9430 H     1 <1>   0.1440 
 56 H       11.7950     6.3760     2.1870 H     1 <1>   0.1440 
 57 H       13.4990     2.4890     1.9680 H     1 <1>   0.1440 
 58 H       13.6800     4.8560     2.6010 H     1 <1>   0.1440 
@<TRIPOS>BOND
  1   1   2  2   
  2   2   3  am  
  3   2   4  am  
  4   3   5  1   
  5   3   6  1   
  6   4   7  am  
  7   4  31  1   
  8   5   8  1   
  9   5   9  2   
 10   6  32  1   
 11   6  33  1   
 12   6  34  1   
 13   7   9  1   
 14   7  10  2   
 15   8  11  ar  
 16   8  35  1   
 17   9  12  1   
 18  11  12  ar  
 19  11  13  ar  
 20  12  14  1   
 21  13  15  1   
 22  13  16  1   
 23  14  36  1   
 24  14  37  1   
 25  14  38  1   
 26  15  17  1   
 27  15  18  1   
 28  15  39  1   
 29  16  19  1   
 30  16  40  1   
 31  16  41  1   
 32  17  20  1   
 33  17  21  1   
 34  17  42  1   
 35  18  22  1   
 36  18  43  1   
 37  18  44  1   
 38  19  20  1   
 39  19  45  1   
 40  19  46  1   
 41  20  23  1   
 42  20  24  1   
 43  21  25  1   
 44  21  47  1   
 45  21  48  1   
 46  22  25  1   
 47  22  49  1   
 48  22  50  1   
 49  23  51  1   
 50  24  26  ar  
 51  24  27  ar  
 52  25  52  1   
 53  25  53  1   
 54  26  28  ar  
 55  26  54  1   
 56  27  29  ar  
 57  27  55  1   
 58  28  30  ar  
 59  28  56  1   
 60  29  30  ar  
 61  29  57  1   
 62  30  58  1   
@<TRIPOS>SUBSTRUCTURE
  1 ****  13 GROUP 4 **** **** 0

# MOE 2024.06 (io_trps.svl 2023.06)
