@<TRIPOS>MOLECULE
NONAME
54 57 1 0 0 
SMALL
USER_CHARGES


@<TRIPOS>ATOM
  1 O        0.4140     0.3510    -0.4830 O.3   1 <1>  -0.5600 
  2 C        1.6960    -0.2150    -0.4560 C.3   1 <1>   0.3440 
  3 C        0.3760     1.7340    -0.6760 C.3   1 <1>   0.2950 
  4 C        1.5910    -1.7190    -0.2510 C.ar  1 <1>  -0.1440 
  5 C        2.5140     0.4010     0.7030 C.3   1 <1>   0.3430 
  6 C       -1.0940     2.1510    -0.7150 C.3   1 <1>  -0.1950 
  7 C        1.1240     2.4500     0.4730 C.3   1 <1>   0.3430 
  8 C        0.5980    -2.2710     0.5470 C.ar  1 <1>  -0.1500 
  9 C        2.5160    -2.5590    -0.8560 C.ar  1 <1>  -0.1500 
 10 N        2.5200     1.9120     0.6920 N.4   1 <1>  -0.9590 
 11 C       -1.9010     2.0190    -1.9670 C.3   1 <1>  -0.2000 
 12 C       -1.5310     3.3810    -1.4500 C.3   1 <1>  -0.2000 
 13 C        0.5380    -3.6390     0.7460 C.ar  1 <1>  -0.1500 
 14 C        2.4550    -3.9280    -0.6570 C.ar  1 <1>  -0.1500 
 15 C        3.1350     2.4740     1.9240 C.3   1 <1>   0.4860 
 16 C        1.4670    -4.4680     0.1450 C.ar  1 <1>  -0.1500 
 17 C        3.3040     3.9670     1.7280 C.ar  1 <1>  -0.1440 
 18 C        4.3200     4.4510     0.9180 C.ar  1 <1>  -0.1500 
 19 C        2.4450     4.8620     2.3500 C.ar  1 <1>  -0.1500 
 20 C        4.4780     5.8120     0.7160 C.ar  1 <1>   0.0820 
 21 C        2.5970     6.2240     2.1520 C.ar  1 <1>  -0.1500 
 22 O        5.4990     6.1900    -0.0900 O.3   1 <1>  -0.3620 
 23 C        3.6070     6.7020     1.3370 C.ar  1 <1>  -0.1500 
 24 C        5.8550     7.5520    -0.2270 C.3   1 <1>   0.1200 
 25 C        7.1210     7.6420    -1.0790 C.3   1 <1>   0.1200 
 26 O        7.4490     8.9770    -1.2740 O.3   1 <1>  -0.6800 
 27 H        2.1690    -0.0150    -1.4020 H     1 <1>   0.0800 
 28 H        0.8370     1.9580    -1.6230 H     1 <1>   0.0800 
 29 H        3.5220     0.0250     0.6540 H     1 <1>   0.0800 
 30 H        2.0810     0.0470     1.6240 H     1 <1>   0.0800 
 31 H       -1.6050     1.9280     0.2070 H     1 <1>   0.1000 
 32 H        0.5430     2.3240     1.3710 H     1 <1>   0.0800 
 33 H        1.1660     3.5060     0.2580 H     1 <1>   0.0800 
 34 H       -0.1410    -1.6440     1.0160 H     1 <1>   0.1500 
 35 H        3.2920    -2.1660    -1.4900 H     1 <1>   0.1500 
 36 H        3.0980     2.2420    -0.0920 H     1 <1>   0.4500 
 37 H       -1.4250     1.6520    -2.8610 H     1 <1>   0.1000 
 38 H       -2.9240     1.6920    -1.8880 H     1 <1>   0.1000 
 39 H       -2.3150     3.9920    -1.0350 H     1 <1>   0.1000 
 40 H       -0.8290     3.9560    -2.0280 H     1 <1>   0.1000 
 41 H       -0.2360    -4.0610     1.3640 H     1 <1>   0.1500 
 42 H        3.1730    -4.5770    -1.1300 H     1 <1>   0.1500 
 43 H        2.5090     2.2800     2.7800 H     1 <1>   0.0800 
 44 H        4.1010     2.0280     2.0970 H     1 <1>   0.0800 
 45 H        1.4190    -5.5330     0.2990 H     1 <1>   0.1500 
 46 H        5.0160     3.7890     0.4320 H     1 <1>   0.1500 
 47 H        1.6550     4.5190     2.9970 H     1 <1>   0.1500 
 48 H        1.9300     6.9180     2.6370 H     1 <1>   0.1500 
 49 H        3.7010     7.7640     1.2010 H     1 <1>   0.1500 
 50 H        5.0400     8.0650    -0.7050 H     1 <1>   0.0800 
 51 H        6.0420     7.9550     0.7530 H     1 <1>   0.0800 
 52 H        6.9760     7.1850    -2.0420 H     1 <1>   0.0800 
 53 H        7.9460     7.1730    -0.5700 H     1 <1>   0.0800 
 54 H        6.8290     9.4050    -1.8960 H     1 <1>   0.4000 
@<TRIPOS>BOND
  1   1   2  1   
  2   1   3  1   
  3   2   4  1   
  4   2   5  1   
  5   2  27  1   
  6   3   6  1   
  7   3   7  1   
  8   3  28  1   
  9   4   8  ar  
 10   4   9  ar  
 11   5  10  1   
 12   5  29  1   
 13   5  30  1   
 14   6  11  1   
 15   6  12  1   
 16   6  31  1   
 17   7  10  1   
 18   7  32  1   
 19   7  33  1   
 20   8  13  ar  
 21   8  34  1   
 22   9  14  ar  
 23   9  35  1   
 24  10  15  1   
 25  10  36  1   
 26  11  12  1   
 27  11  37  1   
 28  11  38  1   
 29  12  39  1   
 30  12  40  1   
 31  13  16  ar  
 32  13  41  1   
 33  14  16  ar  
 34  14  42  1   
 35  15  17  1   
 36  15  43  1   
 37  15  44  1   
 38  16  45  1   
 39  17  18  ar  
 40  17  19  ar  
 41  18  20  ar  
 42  18  46  1   
 43  19  21  ar  
 44  19  47  1   
 45  20  22  1   
 46  20  23  ar  
 47  21  23  ar  
 48  21  48  1   
 49  22  24  1   
 50  23  49  1   
 51  24  25  1   
 52  24  50  1   
 53  24  51  1   
 54  25  26  1   
 55  25  52  1   
 56  25  53  1   
 57  26  54  1   
@<TRIPOS>SUBSTRUCTURE
  1 ****  10 GROUP 4 **** **** 0

# MOE 2024.06 (io_trps.svl 2023.06)
