@<TRIPOS>MOLECULE
NONAME
55 57 1 0 0 
SMALL
USER_CHARGES


@<TRIPOS>ATOM
  1 O       -1.1360     1.1160    -1.4420 O.2   1 <1>  -0.5700 
  2 C       -1.1260     2.2870    -1.1370 C.2   1 <1>   0.5690 
  3 N       -2.0500     2.8570    -0.3030 N.am  1 <1>  -0.5090 
  4 C       -0.0460     3.1760    -1.7450 C.3   1 <1>   0.1810 
  5 C       -2.1460     4.3440    -0.1530 C.3   1 <1>   0.3640 
  6 C       -3.1030     2.0750     0.3890 C.3   1 <1>   0.0490 
  7 O        0.2110     4.3010    -0.9450 O.3   1 <1>  -0.5600 
  8 C       -3.4330     4.8340    -0.8190 C.ar  1 <1>  -0.1440 
  9 C       -0.9240     5.1250    -0.7120 C.3   1 <1>   0.2610 
 10 C       -3.1700     2.1370     1.8830 C.3   1 <1>  -0.2000 
 11 C       -2.7220     0.8820     1.2060 C.3   1 <1>  -0.2000 
 12 C       -4.2290     5.7730    -0.1760 C.ar  1 <1>   0.1600 
 13 C       -3.8380     4.3690    -2.0590 C.ar  1 <1>  -0.1500 
 14 C       -0.5670     6.2620     0.2510 C.2   1 <1>   0.5690 
 15 N       -5.3650     6.2590    -0.6510 N.ar  1 <1>  -0.6200 
 16 C       -5.0160     4.8700    -2.5690 C.ar  1 <1>  -0.1500 
 17 O       -1.4450     7.0040     0.6240 O.2   1 <1>  -0.5700 
 18 N        0.7250     6.3840     0.6620 N.am  1 <1>  -0.7300 
 19 C       -5.7310     5.7990    -1.8340 C.ar  1 <1>   0.1600 
 20 C        1.3510     7.3980     1.5210 C.3   1 <1>   0.3000 
 21 C        1.1250     8.8190     0.9560 C.3   1 <1>  -0.1600 
 22 C        0.7510     7.2820     2.9250 C.3   1 <1>  -0.2400 
 23 C        2.8360     7.0390     1.5920 C.3   1 <1>  -0.2400 
 24 C        1.6210     9.0790    -0.4890 C.3   1 <1>  -0.0800 
 25 C        2.9940     9.7670    -0.5060 C.3   1 <1>  -0.2400 
 26 C        0.6170     9.9600    -1.2430 C.3   1 <1>  -0.2400 
 27 H       -0.3460     3.5040    -2.7230 H     1 <1>   0.0800 
 28 H        0.8680     2.6160    -1.8280 H     1 <1>   0.0800 
 29 H       -2.2140     4.5490     0.9020 H     1 <1>   0.0800 
 30 H       -4.0240     2.0340    -0.1700 H     1 <1>   0.1000 
 31 H       -1.1890     5.5730    -1.6520 H     1 <1>   0.0800 
 32 H       -2.4350     2.6950     2.4340 H     1 <1>   0.1000 
 33 H       -4.1350     2.1370     2.3590 H     1 <1>   0.1000 
 34 H       -3.3800     0.0310     1.2050 H     1 <1>   0.1000 
 35 H       -1.6840     0.6000     1.2460 H     1 <1>   0.1000 
 36 H       -3.9180     6.1510     0.7850 H     1 <1>   0.1500 
 37 H       -3.2720     3.6390    -2.6120 H     1 <1>   0.1500 
 38 H       -5.3820     4.5440    -3.5250 H     1 <1>   0.1500 
 39 H        1.3770     5.6870     0.2940 H     1 <1>   0.3700 
 40 H       -6.6520     6.1830    -2.2400 H     1 <1>   0.1500 
 41 H        0.0700     9.0190     1.0070 H     1 <1>   0.0800 
 42 H        1.5830     9.5320     1.6180 H     1 <1>   0.0800 
 43 H        1.2500     7.9560     3.5970 H     1 <1>   0.0800 
 44 H        0.8600     6.2810     3.3020 H     1 <1>   0.0800 
 45 H       -0.2930     7.5380     2.9140 H     1 <1>   0.0800 
 46 H        3.3660     7.7780     2.1640 H     1 <1>   0.0800 
 47 H        3.2670     6.9950     0.6090 H     1 <1>   0.0800 
 48 H        2.9710     6.0850     2.0700 H     1 <1>   0.0800 
 49 H        1.6950     8.1470    -1.0240 H     1 <1>   0.0800 
 50 H        2.9400    10.7290    -0.0270 H     1 <1>   0.0800 
 51 H        3.3230     9.9120    -1.5200 H     1 <1>   0.0800 
 52 H        3.7330     9.1770     0.0010 H     1 <1>   0.0800 
 53 H        0.4960    10.9070    -0.7470 H     1 <1>   0.0800 
 54 H       -0.3420     9.4730    -1.2890 H     1 <1>   0.0800 
 55 H        0.9520    10.1380    -2.2490 H     1 <1>   0.0800 
@<TRIPOS>BOND
  1   1   2  2   
  2   2   3  am  
  3   2   4  1   
  4   3   5  1   
  5   3   6  1   
  6   4   7  1   
  7   4  27  1   
  8   4  28  1   
  9   5   8  1   
 10   5   9  1   
 11   5  29  1   
 12   6  10  1   
 13   6  11  1   
 14   6  30  1   
 15   7   9  1   
 16   8  12  ar  
 17   8  13  ar  
 18   9  14  1   
 19   9  31  1   
 20  10  11  1   
 21  10  32  1   
 22  10  33  1   
 23  11  34  1   
 24  11  35  1   
 25  12  15  ar  
 26  12  36  1   
 27  13  16  ar  
 28  13  37  1   
 29  14  17  2   
 30  14  18  am  
 31  15  19  ar  
 32  16  19  ar  
 33  16  38  1   
 34  18  20  1   
 35  18  39  1   
 36  19  40  1   
 37  20  21  1   
 38  20  22  1   
 39  20  23  1   
 40  21  24  1   
 41  21  41  1   
 42  21  42  1   
 43  22  43  1   
 44  22  44  1   
 45  22  45  1   
 46  23  46  1   
 47  23  47  1   
 48  23  48  1   
 49  24  25  1   
 50  24  26  1   
 51  24  49  1   
 52  25  50  1   
 53  25  51  1   
 54  25  52  1   
 55  26  53  1   
 56  26  54  1   
 57  26  55  1   
@<TRIPOS>SUBSTRUCTURE
  1 ****   9 GROUP 4 **** **** 0

# MOE 2024.06 (io_trps.svl 2023.06)
