@<TRIPOS>MOLECULE
NONAME
46 47 1 0 0 
SMALL
USER_CHARGES


@<TRIPOS>ATOM
  1 S        1.0450     0.0770    -0.4680 S.o2  1 <1>   1.3330 
  2 O        2.3170     0.5730     0.0080 O.2   1 <1>  -0.6500 
  3 O        0.8320    -0.0990    -1.8840 O.2   1 <1>  -0.6500 
  4 N        0.6530    -1.3550     0.3490 N.am  1 <1>  -0.8490 
  5 C       -0.1810     1.2410     0.1240 C.3   1 <1>  -0.0550 
  6 C        1.8350    -2.1720     0.6500 C.3   1 <1>   0.1160 
  7 C       -0.3450    -2.1730    -0.3510 C.3   1 <1>   0.1160 
  8 C       -0.0360     2.6320    -0.5350 C.3   1 <1>  -0.0800 
  9 C       -1.0410     3.6870    -0.0690 C.3   1 <1>   0.2000 
 10 C        1.3370     3.2840    -0.3000 C.3   1 <1>   0.3430 
 11 O       -1.1520     3.6400     1.3190 O.3   1 <1>  -0.6800 
 12 C       -0.3480     4.9960    -0.4560 C.3   1 <1>   0.3430 
 13 N        1.1020     4.7520    -0.2170 N.4   1 <1>  -0.9590 
 14 C        1.5170     5.3260     1.0930 C.3   1 <1>   0.5240 
 15 C        1.7360     6.8220     0.8910 C.2   1 <1>   0.1080 
 16 N        2.0080     7.3430    -0.2740 N.2   1 <1>  -0.7070 
 17 C        1.6720     7.7850     1.8910 C.2   1 <1>  -0.1500 
 18 N        2.1390     8.6660    -0.0410 N.pl3 1 <1>   0.3140 
 19 C        1.9340     8.9490     1.2600 C.2   1 <1>  -0.3020 
 20 C        2.4730     9.6330    -1.1080 C.3   1 <1>   0.0960 
 21 C        3.9840     9.8840    -1.1720 C.3   1 <1>  -0.2400 
 22 H       -1.1590     0.8540    -0.0840 H     1 <1>   0.0800 
 23 H       -0.0800     1.3260     1.1890 H     1 <1>   0.0800 
 24 H        1.5490    -3.0590     1.1890 H     1 <1>   0.0800 
 25 H        2.5240    -1.6150     1.2640 H     1 <1>   0.0800 
 26 H        2.3370    -2.4580    -0.2600 H     1 <1>   0.0800 
 27 H       -0.6170    -3.0230     0.2530 H     1 <1>   0.0800 
 28 H        0.0480    -2.5250    -1.2920 H     1 <1>   0.0800 
 29 H       -1.2330    -1.5960    -0.5420 H     1 <1>   0.0800 
 30 H       -0.1500     2.5100    -1.5990 H     1 <1>   0.0800 
 31 H       -2.0200     3.5910    -0.5080 H     1 <1>   0.0800 
 32 H        2.0170     3.0410    -1.1020 H     1 <1>   0.0800 
 33 H        1.7580     2.9250     0.6260 H     1 <1>   0.0800 
 34 H       -1.8700     3.0320     1.6000 H     1 <1>   0.4000 
 35 H       -0.7230     5.8310     0.1150 H     1 <1>   0.0800 
 36 H       -0.5080     5.1870    -1.5040 H     1 <1>   0.0800 
 37 H        1.6550     5.3140    -0.8920 H     1 <1>   0.4500 
 38 H        0.7650     5.1480     1.8440 H     1 <1>   0.0800 
 39 H        2.4460     4.8850     1.4120 H     1 <1>   0.0800 
 40 H        1.4630     7.6300     2.9360 H     1 <1>   0.1500 
 41 H        1.9900     9.9460     1.6590 H     1 <1>   0.1500 
 42 H        2.1280     9.2350    -2.0450 H     1 <1>   0.0800 
 43 H        1.9520    10.5520    -0.9140 H     1 <1>   0.0800 
 44 H        4.5050     8.9640    -1.3740 H     1 <1>   0.0800 
 45 H        4.3370    10.2960    -0.2420 H     1 <1>   0.0800 
 46 H        4.2060    10.5810    -1.9600 H     1 <1>   0.0800 
@<TRIPOS>BOND
  1   1   2  2   
  2   1   3  2   
  3   1   4  am  
  4   1   5  1   
  5   4   6  1   
  6   4   7  1   
  7   5   8  1   
  8   5  22  1   
  9   5  23  1   
 10   6  24  1   
 11   6  25  1   
 12   6  26  1   
 13   7  27  1   
 14   7  28  1   
 15   7  29  1   
 16   8   9  1   
 17   8  10  1   
 18   8  30  1   
 19   9  11  1   
 20   9  12  1   
 21   9  31  1   
 22  10  13  1   
 23  10  32  1   
 24  10  33  1   
 25  11  34  1   
 26  12  13  1   
 27  12  35  1   
 28  12  36  1   
 29  13  14  1   
 30  13  37  1   
 31  14  15  1   
 32  14  38  1   
 33  14  39  1   
 34  15  16  2   
 35  15  17  1   
 36  16  18  1   
 37  17  19  2   
 38  17  40  1   
 39  18  19  1   
 40  18  20  1   
 41  19  41  1   
 42  20  21  1   
 43  20  42  1   
 44  20  43  1   
 45  21  44  1   
 46  21  45  1   
 47  21  46  1   
@<TRIPOS>SUBSTRUCTURE
  1 ****  10 GROUP 4 **** **** 0

# MOE 2024.06 (io_trps.svl 2023.06)
