@<TRIPOS>MOLECULE
NONAME
55 58 1 0 0 
SMALL
USER_CHARGES


@<TRIPOS>ATOM
  1 O        0.6460    -0.1880    -0.9400 O.2   1 <1>  -0.5700 
  2 C        1.2270    -1.1710    -0.5500 C.2   1 <1>   0.5690 
  3 N        0.7010    -2.0510     0.3550 N.am  1 <1>  -0.6600 
  4 C        2.6160    -1.4550    -1.0780 C.3   1 <1>  -0.0990 
  5 C        1.5020    -3.1880     0.8690 C.3   1 <1>   0.1400 
  6 C       -0.6510    -1.8660     0.9490 C.3   1 <1>   0.0600 
  7 C        2.7610    -2.9500    -1.4120 C.3   1 <1>  -0.0800 
  8 C        2.2880    -3.8770    -0.2690 C.3   1 <1>  -0.0800 
  9 C        4.2100    -3.3390    -1.7420 C.3   1 <1>  -0.1600 
 10 C        3.5460    -4.5990     0.2320 C.3   1 <1>  -0.1600 
 11 C        4.4790    -4.6310    -0.9770 C.3   1 <1>   0.4230 
 12 N        5.9330    -4.8480    -0.6810 N.4   1 <1>  -0.9590 
 13 C        6.5100    -4.2250     0.5590 C.3   1 <1>   0.4860 
 14 C        6.2390    -6.3100    -0.6950 C.3   1 <1>   0.2630 
 15 C        6.5730    -2.7150     0.4260 C.ar  1 <1>  -0.1440 
 16 C        5.7960    -1.9050     1.2420 C.ar  1 <1>  -0.1500 
 17 C        7.4020    -2.1260    -0.5190 C.ar  1 <1>  -0.1500 
 18 C        5.8190    -0.5300     1.0920 C.ar  1 <1>  -0.1500 
 19 C        7.4220    -0.7510    -0.6670 C.ar  1 <1>  -0.1500 
 20 C        6.6270     0.0560     0.1310 C.ar  1 <1>  -0.1440 
 21 C        6.6480     1.5710    -0.0520 C.3   1 <1>   0.2390 
 22 N        8.0100     2.1130     0.1360 N.pl3 1 <1>   0.3140 
 23 N        8.7560     2.5470    -0.9000 N.2   1 <1>  -0.7070 
 24 C        8.6700     2.2580     1.3040 C.2   1 <1>  -0.3020 
 25 C        9.8660     2.9530    -0.3650 C.2   1 <1>   0.1390 
 26 C        9.8730     2.7980     1.0160 C.2   1 <1>  -0.1500 
 27 H        2.7890    -0.8610    -1.9570 H     1 <1>   0.0800 
 28 H        3.3210    -1.1590    -0.3250 H     1 <1>   0.0800 
 29 H        2.1770    -2.7990     1.6120 H     1 <1>   0.0800 
 30 H        0.8580    -3.9050     1.3490 H     1 <1>   0.0800 
 31 H       -1.2580    -2.7310     0.7490 H     1 <1>   0.0800 
 32 H       -1.1360    -1.0030     0.5270 H     1 <1>   0.0800 
 33 H       -0.5670    -1.7270     2.0130 H     1 <1>   0.0800 
 34 H        2.1400    -3.1480    -2.2720 H     1 <1>   0.0800 
 35 H        1.6350    -4.6140    -0.7070 H     1 <1>   0.0800 
 36 H        4.8680    -2.5480    -1.4440 H     1 <1>   0.0800 
 37 H        4.3220    -3.4950    -2.8010 H     1 <1>   0.0800 
 38 H        3.3100    -5.5900     0.5780 H     1 <1>   0.0800 
 39 H        3.9630    -4.0280     1.0360 H     1 <1>   0.0800 
 40 H        4.1360    -5.4300    -1.6160 H     1 <1>   0.0800 
 41 H        6.4360    -4.4040    -1.4600 H     1 <1>   0.4500 
 42 H        5.9290    -4.4980     1.4230 H     1 <1>   0.0800 
 43 H        7.5140    -4.5870     0.7110 H     1 <1>   0.0800 
 44 H        5.7240    -6.8090     0.1100 H     1 <1>   0.0800 
 45 H        7.2990    -6.4750    -0.5830 H     1 <1>   0.0800 
 46 H        5.9240    -6.7490    -1.6280 H     1 <1>   0.0800 
 47 H        5.1630    -2.3250     2.0040 H     1 <1>   0.1500 
 48 H        8.0420    -2.7180    -1.1500 H     1 <1>   0.1500 
 49 H        5.2040     0.0830     1.7310 H     1 <1>   0.1500 
 50 H        8.0680    -0.3010    -1.4070 H     1 <1>   0.1500 
 51 H        5.9940     2.0510     0.6520 H     1 <1>   0.0800 
 52 H        6.3210     1.8210    -1.0440 H     1 <1>   0.0800 
 53 H        8.2560     1.9710     2.2530 H     1 <1>   0.1500 
 54 H       10.6840     3.3640    -0.9350 H     1 <1>   0.1500 
 55 H       10.6770     3.0600     1.6800 H     1 <1>   0.1500 
@<TRIPOS>BOND
  1   1   2  2   
  2   2   3  am  
  3   2   4  1   
  4   3   5  1   
  5   3   6  1   
  6   4   7  1   
  7   4  27  1   
  8   4  28  1   
  9   5   8  1   
 10   5  29  1   
 11   5  30  1   
 12   6  31  1   
 13   6  32  1   
 14   6  33  1   
 15   7   8  1   
 16   7   9  1   
 17   7  34  1   
 18   8  10  1   
 19   8  35  1   
 20   9  11  1   
 21   9  36  1   
 22   9  37  1   
 23  10  11  1   
 24  10  38  1   
 25  10  39  1   
 26  11  12  1   
 27  11  40  1   
 28  12  13  1   
 29  12  14  1   
 30  12  41  1   
 31  13  15  1   
 32  13  42  1   
 33  13  43  1   
 34  14  44  1   
 35  14  45  1   
 36  14  46  1   
 37  15  16  ar  
 38  15  17  ar  
 39  16  18  ar  
 40  16  47  1   
 41  17  19  ar  
 42  17  48  1   
 43  18  20  ar  
 44  18  49  1   
 45  19  20  ar  
 46  19  50  1   
 47  20  21  1   
 48  21  22  1   
 49  21  51  1   
 50  21  52  1   
 51  22  23  1   
 52  22  24  1   
 53  23  25  2   
 54  24  26  2   
 55  24  53  1   
 56  25  26  1   
 57  25  54  1   
 58  26  55  1   
@<TRIPOS>SUBSTRUCTURE
  1 ****  16 GROUP 4 **** **** 0

# MOE 2024.06 (io_trps.svl 2023.06)
