@<TRIPOS>MOLECULE
NONAME
49 52 1 0 0 
SMALL
USER_CHARGES


@<TRIPOS>ATOM
  1 O       -0.2340    -0.3490    -0.0470 O.2   1 <1>  -0.5700 
  2 C       -1.2160     0.3430    -0.2370 C.2   1 <1>   0.7160 
  3 N       -2.3430    -0.2740    -0.6710 N.am  1 <1>  -0.7300 
  4 C       -1.2030     1.7580    -0.0070 C.2   1 <1>  -0.0860 
  5 C       -2.5860    -1.7370    -0.6660 C.3   1 <1>   0.3210 
  6 C       -2.3320     2.5880     0.0490 C.2   1 <1>   0.3720 
  7 C       -0.1770     2.6220     0.2360 C.2   1 <1>   0.0870 
  8 C       -4.0480    -2.0810    -0.3790 C.2   1 <1>   0.3350 
  9 N       -2.0100     3.8040     0.3120 N.2   1 <1>  -0.4100 
 10 N       -3.6560     2.1650    -0.1320 N.pl3 1 <1>  -0.8210 
 11 O       -0.7100     3.8040     0.4220 O.3   1 <1>  -0.0190 
 12 C        1.2560     2.4820     0.3130 C.ar  1 <1>   0.0530 
 13 N       -4.9930    -1.2430    -0.1900 N.2   1 <1>  -0.4100 
 14 N       -4.4490    -3.3450    -0.3060 N.2   1 <1>  -0.5650 
 15 C       -4.4480     2.0910     1.1280 C.3   1 <1>   0.2090 
 16 C       -4.4410     2.9240    -1.1430 C.3   1 <1>   0.2090 
 17 C        1.9710     1.6590    -0.5580 C.ar  1 <1>  -0.1500 
 18 C        1.9870     3.1940     1.2640 C.ar  1 <1>  -0.1500 
 19 O       -6.0770    -1.9260     0.0200 O.3   1 <1>  -0.0190 
 20 C       -5.6840    -3.1720    -0.0630 C.2   1 <1>   0.2980 
 21 C       -5.6900     2.9410     0.8980 C.3   1 <1>  -0.1600 
 22 C       -5.8650     2.9490    -0.6120 C.3   1 <1>  -0.1600 
 23 C        3.3470     1.5410    -0.4810 C.ar  1 <1>  -0.1500 
 24 C        3.3620     3.0840     1.3480 C.ar  1 <1>  -0.1500 
 25 C       -6.7030    -4.2710     0.1310 C.3   1 <1>  -0.0600 
 26 C        4.0560     2.2570     0.4790 C.ar  1 <1>   0.0830 
 27 O        5.4010     2.2000     0.6250 O.3   1 <1>  -0.3630 
 28 C        6.1930     1.3570    -0.1800 C.3   1 <1>   0.0400 
 29 H       -3.1950     0.3100    -0.6570 H     1 <1>   0.3700 
 30 H       -1.9670    -2.2050     0.0790 H     1 <1>   0.0800 
 31 H       -2.3170    -2.1390    -1.6270 H     1 <1>   0.0800 
 32 H       -3.8850     2.4500     1.9740 H     1 <1>   0.0800 
 33 H       -4.7290     1.0660     1.3010 H     1 <1>   0.0800 
 34 H       -4.3910     2.4380    -2.1020 H     1 <1>   0.0800 
 35 H       -4.0650     3.9300    -1.2340 H     1 <1>   0.0800 
 36 H        1.4410     1.1020    -1.3090 H     1 <1>   0.1500 
 37 H        1.4680     3.8410     1.9490 H     1 <1>   0.1500 
 38 H       -5.4980     3.9390     1.2520 H     1 <1>   0.0800 
 39 H       -6.5470     2.5420     1.4110 H     1 <1>   0.0800 
 40 H       -6.3730     2.0550    -0.9290 H     1 <1>   0.0800 
 41 H       -6.4080     3.8100    -0.9600 H     1 <1>   0.0800 
 42 H        3.8480     0.8910    -1.1720 H     1 <1>   0.1500 
 43 H        3.9100     3.6380     2.0880 H     1 <1>   0.1500 
 44 H       -6.2300    -5.2310     0.0340 H     1 <1>   0.0800 
 45 H       -7.4760    -4.1850    -0.6100 H     1 <1>   0.0800 
 46 H       -7.1400    -4.1930     1.1090 H     1 <1>   0.0800 
 47 H        7.2180     1.4700     0.1260 H     1 <1>   0.0800 
 48 H        6.0840     1.6530    -1.2080 H     1 <1>   0.0800 
 49 H        5.8780     0.3390    -0.0350 H     1 <1>   0.0800 
@<TRIPOS>BOND
  1   1   2  2   
  2   2   3  am  
  3   2   4  1   
  4   3   5  1   
  5   3  29  1   
  6   4   6  1   
  7   4   7  2   
  8   5   8  1   
  9   5  30  1   
 10   5  31  1   
 11   6   9  2   
 12   6  10  1   
 13   7  11  1   
 14   7  12  1   
 15   8  13  2   
 16   8  14  1   
 17   9  11  1   
 18  10  15  1   
 19  10  16  1   
 20  12  17  ar  
 21  12  18  ar  
 22  13  19  1   
 23  14  20  2   
 24  15  21  1   
 25  15  32  1   
 26  15  33  1   
 27  16  22  1   
 28  16  34  1   
 29  16  35  1   
 30  17  23  ar  
 31  17  36  1   
 32  18  24  ar  
 33  18  37  1   
 34  19  20  1   
 35  20  25  1   
 36  21  22  1   
 37  21  38  1   
 38  21  39  1   
 39  22  40  1   
 40  22  41  1   
 41  23  26  ar  
 42  23  42  1   
 43  24  26  ar  
 44  24  43  1   
 45  25  44  1   
 46  25  45  1   
 47  25  46  1   
 48  26  27  1   
 49  27  28  1   
 50  28  47  1   
 51  28  48  1   
 52  28  49  1   
@<TRIPOS>SUBSTRUCTURE
  1 ****   2 GROUP 4 **** **** 0

# MOE 2024.06 (io_trps.svl 2023.06)
