@<TRIPOS>MOLECULE
NONAME
51 53 1 0 0 
SMALL
USER_CHARGES


@<TRIPOS>ATOM
  1 O        1.3290     1.8770     0.2610 O.2   1 <1>  -0.5700 
  2 C        0.1510     2.0200     0.5400 C.2   1 <1>   0.8410 
  3 N       -0.7570     1.1320     0.0310 N.2   1 <1>  -0.6610 
  4 N       -0.2560     3.0850     1.3300 N.am  1 <1>  -0.4690 
  5 C       -1.9950     1.3090     0.3210 C.2   1 <1>   0.3760 
  6 C       -1.5850     3.2590     1.6230 C.2   1 <1>  -0.0410 
  7 C        0.7430     4.0700     1.8530 C.3   1 <1>   0.2010 
  8 C       -2.4710     2.3690     1.1230 C.2   1 <1>  -0.1360 
  9 C        0.6950     5.4010     1.0970 C.2   1 <1>   0.5690 
 10 O        0.2600     6.3560     1.6950 O.2   1 <1>  -0.5700 
 11 N        1.1210     5.5410    -0.2070 N.am  1 <1>  -0.6600 
 12 C        1.9820     4.5440    -0.9240 C.3   1 <1>   0.1400 
 13 C        0.5510     6.6370    -1.0440 C.3   1 <1>   0.1400 
 14 C        3.0890     5.2050    -1.7630 C.3   1 <1>   0.3430 
 15 C        1.4770     7.8580    -1.0390 C.3   1 <1>  -0.1600 
 16 N        3.5400     6.4860    -1.1270 N.4   1 <1>  -0.9590 
 17 C        2.8280     7.6500    -1.7250 C.3   1 <1>   0.3430 
 18 C        5.0320     6.6220    -1.1590 C.3   1 <1>   0.3430 
 19 C        5.5420     7.6910    -0.1890 C.3   1 <1>   0.1200 
 20 O        6.9430     7.7140    -0.2970 O.3   1 <1>  -0.3630 
 21 C        7.6920     8.5620     0.4510 C.ar  1 <1>   0.0820 
 22 C        9.0620     8.5350     0.2380 C.ar  1 <1>  -0.1500 
 23 C        7.1630     9.4370     1.3970 C.ar  1 <1>  -0.1500 
 24 C        9.9000     9.3680     0.9570 C.ar  1 <1>  -0.1500 
 25 C        8.0040    10.2700     2.1150 C.ar  1 <1>  -0.1500 
 26 C        9.3710    10.2370     1.8960 C.ar  1 <1>  -0.1500 
 27 H       -2.7230     0.6170    -0.0650 H     1 <1>   0.0600 
 28 H       -1.8770     4.0970     2.2390 H     1 <1>   0.1500 
 29 H        1.7360     3.6630     1.8210 H     1 <1>   0.0800 
 30 H        0.5170     4.2620     2.8870 H     1 <1>   0.0800 
 31 H       -3.5270     2.4390     1.3110 H     1 <1>   0.1500 
 32 H        1.3730     3.9120    -1.5490 H     1 <1>   0.0800 
 33 H        2.4750     3.9150    -0.2070 H     1 <1>   0.0800 
 34 H       -0.4080     6.9260    -0.6430 H     1 <1>   0.0800 
 35 H        0.3830     6.2880    -2.0490 H     1 <1>   0.0800 
 36 H        2.7190     5.3960    -2.7570 H     1 <1>   0.0800 
 37 H        3.9110     4.5140    -1.8500 H     1 <1>   0.0800 
 38 H        1.6260     8.1870    -0.0250 H     1 <1>   0.0800 
 39 H        0.9710     8.6590    -1.5480 H     1 <1>   0.0800 
 40 H        3.2090     6.4290    -0.1490 H     1 <1>   0.4500 
 41 H        3.4130     8.5460    -1.6020 H     1 <1>   0.0800 
 42 H        2.6860     7.4910    -2.7830 H     1 <1>   0.0800 
 43 H        5.3530     6.8690    -2.1580 H     1 <1>   0.0800 
 44 H        5.4810     5.6830    -0.8800 H     1 <1>   0.0800 
 45 H        5.2900     7.4390     0.8260 H     1 <1>   0.0800 
 46 H        5.1760     8.6680    -0.4480 H     1 <1>   0.0800 
 47 H        9.4710     7.8590    -0.4910 H     1 <1>   0.1500 
 48 H        6.1110     9.4910     1.5950 H     1 <1>   0.1500 
 49 H       10.9630     9.3420     0.7870 H     1 <1>   0.1500 
 50 H        7.5980    10.9470     2.8470 H     1 <1>   0.1500 
 51 H       10.0230    10.8850     2.4550 H     1 <1>   0.1500 
@<TRIPOS>BOND
  1   1   2  2   
  2   2   3  1   
  3   2   4  am  
  4   3   5  2   
  5   4   6  1   
  6   4   7  1   
  7   5   8  1   
  8   5  27  1   
  9   6   8  2   
 10   6  28  1   
 11   7   9  1   
 12   7  29  1   
 13   7  30  1   
 14   8  31  1   
 15   9  10  2   
 16   9  11  am  
 17  11  12  1   
 18  11  13  1   
 19  12  14  1   
 20  12  32  1   
 21  12  33  1   
 22  13  15  1   
 23  13  34  1   
 24  13  35  1   
 25  14  16  1   
 26  14  36  1   
 27  14  37  1   
 28  15  17  1   
 29  15  38  1   
 30  15  39  1   
 31  16  17  1   
 32  16  18  1   
 33  16  40  1   
 34  17  41  1   
 35  17  42  1   
 36  18  19  1   
 37  18  43  1   
 38  18  44  1   
 39  19  20  1   
 40  19  45  1   
 41  19  46  1   
 42  20  21  1   
 43  21  22  ar  
 44  21  23  ar  
 45  22  24  ar  
 46  22  47  1   
 47  23  25  ar  
 48  23  48  1   
 49  24  26  ar  
 50  24  49  1   
 51  25  26  ar  
 52  25  50  1   
 53  26  51  1   
@<TRIPOS>SUBSTRUCTURE
  1 ****  16 GROUP 4 **** **** 0

# MOE 2024.06 (io_trps.svl 2023.06)
