@<TRIPOS>MOLECULE
NONAME
50 52 1 0 0 
SMALL
USER_CHARGES


@<TRIPOS>ATOM
  1 O       -0.7640    -2.6660     1.4110 O.co2 1 <1>  -0.9000 
  2 C        0.1980    -3.2950     1.8860 C.2   1 <1>   1.0330 
  3 O        0.0130    -3.9410     2.9290 O.co2 1 <1>  -0.9000 
  4 C        1.3650    -3.4960     1.0910 C.2   1 <1>  -0.2330 
  5 C        1.8800    -4.7630     0.8350 C.2   1 <1>   0.3720 
  6 C        2.1090    -2.6800     0.3010 C.2   1 <1>   0.0870 
  7 N        2.7960    -4.7290    -0.0600 N.2   1 <1>  -0.4100 
  8 N        1.4220    -5.9210     1.4460 N.pl3 1 <1>  -0.8520 
  9 O        2.9380    -3.4620    -0.3580 O.3   1 <1>  -0.0190 
 10 C        2.1190    -1.2530     0.0670 C.ar  1 <1>   0.0530 
 11 C        0.4770    -6.7790     0.6750 C.3   1 <1>   0.2090 
 12 C        1.4270    -0.3600     0.8880 C.ar  1 <1>  -0.1500 
 13 C        2.8350    -0.7040    -1.0000 C.ar  1 <1>  -0.1500 
 14 C       -0.9280    -6.1300     0.6370 C.3   1 <1>   0.1900 
 15 C        1.4410     1.0040     0.6590 C.ar  1 <1>  -0.1500 
 16 C        2.8560     0.6570    -1.2360 C.ar  1 <1>  -0.1500 
 17 N       -2.1170    -7.0250     0.5110 N.3   1 <1>  -0.8100 
 18 C       -0.9840    -5.0780    -0.5050 C.3   1 <1>   0.3430 
 19 C        2.1610     1.5250    -0.4120 C.ar  1 <1>   0.0830 
 20 C       -3.3290    -6.2120     0.8330 C.3   1 <1>   0.1100 
 21 C       -2.0770    -8.2070     1.3880 C.3   1 <1>   0.0300 
 22 N       -2.3750    -4.5830    -0.8170 N.4   1 <1>  -0.9590 
 23 O        2.2290     2.8450    -0.7080 O.3   1 <1>  -0.3620 
 24 C       -3.2290    -4.7220     0.4030 C.3   1 <1>   0.3430 
 25 C       -2.3130    -3.1600    -1.2580 C.3   1 <1>   0.2630 
 26 C        1.5520     3.8070     0.0700 C.3   1 <1>   0.0400 
 27 H        0.9700    -5.6190     2.3340 H     1 <1>   0.4000 
 28 H        0.4450    -7.7300     1.1710 H     1 <1>   0.0800 
 29 H        0.8550    -6.9330    -0.3210 H     1 <1>   0.0800 
 30 H        0.8640    -0.7330     1.7240 H     1 <1>   0.1500 
 31 H        3.3870    -1.3530    -1.6560 H     1 <1>   0.1500 
 32 H       -1.0340    -5.6240     1.5800 H     1 <1>   0.0800 
 33 H        0.8890     1.6400     1.3230 H     1 <1>   0.1500 
 34 H        3.4140     1.0590    -2.0620 H     1 <1>   0.1500 
 35 H       -0.5570    -5.5120    -1.3910 H     1 <1>   0.0800 
 36 H       -0.3680    -4.2420    -0.2440 H     1 <1>   0.0800 
 37 H       -3.5110    -6.2280     1.8960 H     1 <1>   0.0800 
 38 H       -4.1810    -6.6620     0.3550 H     1 <1>   0.0800 
 39 H       -1.3240    -8.8980     1.0500 H     1 <1>   0.0800 
 40 H       -3.0240    -8.7190     1.3590 H     1 <1>   0.0800 
 41 H       -1.8650    -7.9190     2.4050 H     1 <1>   0.0800 
 42 H       -2.7590    -5.2090    -1.5340 H     1 <1>   0.4500 
 43 H       -2.7830    -4.1540     1.2070 H     1 <1>   0.0800 
 44 H       -4.2150    -4.3270     0.2270 H     1 <1>   0.0800 
 45 H       -1.9250    -2.5410    -0.4640 H     1 <1>   0.0800 
 46 H       -3.2950    -2.8040    -1.5190 H     1 <1>   0.0800 
 47 H       -1.6660    -3.0600    -2.1140 H     1 <1>   0.0800 
 48 H        1.7470     4.7760    -0.3530 H     1 <1>   0.0800 
 49 H        1.9250     3.7660     1.0780 H     1 <1>   0.0800 
 50 H        0.4970     3.6000     0.0400 H     1 <1>   0.0800 
@<TRIPOS>BOND
  1   1   2  ar  
  2   2   3  ar  
  3   2   4  1   
  4   4   5  1   
  5   4   6  2   
  6   5   7  2   
  7   5   8  1   
  8   6   9  1   
  9   6  10  1   
 10   7   9  1   
 11   8  11  1   
 12   8  27  1   
 13  10  12  ar  
 14  10  13  ar  
 15  11  14  1   
 16  11  28  1   
 17  11  29  1   
 18  12  15  ar  
 19  12  30  1   
 20  13  16  ar  
 21  13  31  1   
 22  14  17  1   
 23  14  18  1   
 24  14  32  1   
 25  15  19  ar  
 26  15  33  1   
 27  16  19  ar  
 28  16  34  1   
 29  17  20  1   
 30  17  21  1   
 31  18  22  1   
 32  18  35  1   
 33  18  36  1   
 34  19  23  1   
 35  20  24  1   
 36  20  37  1   
 37  20  38  1   
 38  21  39  1   
 39  21  40  1   
 40  21  41  1   
 41  22  24  1   
 42  22  25  1   
 43  22  42  1   
 44  23  26  1   
 45  24  43  1   
 46  24  44  1   
 47  25  45  1   
 48  25  46  1   
 49  25  47  1   
 50  26  48  1   
 51  26  49  1   
 52  26  50  1   
@<TRIPOS>SUBSTRUCTURE
  1 ****   4 GROUP 4 **** **** 0

# MOE 2024.06 (io_trps.svl 2023.06)
