@<TRIPOS>MOLECULE
NONAME
34 35 1 0 0 
SMALL
USER_CHARGES


@<TRIPOS>ATOM
  1 O        0.1600     0.2810    -1.4780 O.2   1 <1>  -0.5700 
  2 C        0.5940    -0.2530    -0.4820 C.2   1 <1>   0.5690 
  3 N        1.5420     0.3160     0.3170 N.am  1 <1>  -0.4930 
  4 C        0.0790    -1.6460    -0.1220 C.3   1 <1>   0.2610 
  5 C        2.1940     1.5670     0.1910 C.2   1 <1>   0.0630 
  6 O        0.3970    -1.9340     1.2350 O.3   1 <1>  -0.2170 
  7 C        0.7950    -2.7530    -0.8980 C.3   1 <1>  -0.0990 
  8 C        2.0120     2.5670    -0.7660 C.2   1 <1>   0.1390 
  9 C        3.1540     2.0480     1.0050 C.2   1 <1>  -0.3020 
 10 N        1.3390    -2.8520     1.3360 N.2   1 <1>  -0.5130 
 11 C        1.6000    -3.3460     0.2150 C.2   1 <1>   0.3280 
 12 N        2.7950     3.5880    -0.5680 N.2   1 <1>  -0.7070 
 13 N        3.5030     3.2660     0.5340 N.pl3 1 <1>   0.3140 
 14 C        2.6110    -4.4310    -0.0760 C.3   1 <1>  -0.1790 
 15 C        4.5050     4.1790     1.1050 C.3   1 <1>   0.1570 
 16 C        5.7770     4.1470     0.2860 C.2   1 <1>   0.5690 
 17 O        6.8330     4.1170     0.8720 O.2   1 <1>  -0.5700 
 18 N        5.7040     4.1720    -1.0720 N.am  1 <1>  -0.7300 
 19 C        6.8500     4.1530    -2.0120 C.3   1 <1>   0.0600 
 20 H        1.8070    -0.2490     1.1310 H     1 <1>   0.3700 
 21 H       -0.9880    -1.6950    -0.2390 H     1 <1>   0.0800 
 22 H        1.4150    -2.3620    -1.6850 H     1 <1>   0.0800 
 23 H        0.0940    -3.4650    -1.2920 H     1 <1>   0.0800 
 24 H        1.3060     2.5040    -1.5770 H     1 <1>   0.1500 
 25 H        3.6000     1.6020     1.8740 H     1 <1>   0.1500 
 26 H        2.1200    -5.2820    -0.5110 H     1 <1>   0.0800 
 27 H        3.0890    -4.7360     0.8370 H     1 <1>   0.0800 
 28 H        3.3580    -4.0650    -0.7550 H     1 <1>   0.0800 
 29 H        4.7180     3.8840     2.1140 H     1 <1>   0.0800 
 30 H        4.1070     5.1740     1.1040 H     1 <1>   0.0800 
 31 H        4.7610     4.1120    -1.4910 H     1 <1>   0.3700 
 32 H        7.7800     4.1870    -1.4680 H     1 <1>   0.0800 
 33 H        6.7980     5.0050    -2.6670 H     1 <1>   0.0800 
 34 H        6.8230     3.2510    -2.5990 H     1 <1>   0.0800 
@<TRIPOS>BOND
  1   1   2  2   
  2   2   3  am  
  3   2   4  1   
  4   3   5  1   
  5   3  20  1   
  6   4   6  1   
  7   4   7  1   
  8   4  21  1   
  9   5   8  1   
 10   5   9  2   
 11   6  10  1   
 12   7  11  1   
 13   7  22  1   
 14   7  23  1   
 15   8  12  2   
 16   8  24  1   
 17   9  13  1   
 18   9  25  1   
 19  10  11  2   
 20  11  14  1   
 21  12  13  1   
 22  13  15  1   
 23  14  26  1   
 24  14  27  1   
 25  14  28  1   
 26  15  16  1   
 27  15  29  1   
 28  15  30  1   
 29  16  17  2   
 30  16  18  am  
 31  18  19  1   
 32  18  31  1   
 33  19  32  1   
 34  19  33  1   
 35  19  34  1   
@<TRIPOS>SUBSTRUCTURE
  1 ****   5 GROUP 4 **** **** 0

# MOE 2024.06 (io_trps.svl 2023.06)
