@<TRIPOS>MOLECULE
NONAME
53 56 1 0 0 
SMALL
USER_CHARGES


@<TRIPOS>ATOM
  1 S       -0.4030     0.0550     1.0170 S.3   1 <1>  -0.0800 
  2 C        0.8840    -0.9730     0.4250 C.2   1 <1>  -0.0450 
  3 C        0.4820     1.4680     0.5020 C.2   1 <1>   0.1980 
  4 C        1.8400    -0.1560    -0.0750 C.2   1 <1>   0.0460 
  5 C        0.7850    -2.4030     0.5660 C.2   1 <1>   0.7150 
  6 N        1.6040     1.2010    -0.0390 N.2   1 <1>  -0.5650 
  7 C       -0.1720     2.8250     0.7510 C.3   1 <1>   0.1000 
  8 C        3.1630    -0.5820    -0.6780 C.3   1 <1>  -0.0590 
  9 O        1.7410    -3.0330     0.9770 O.2   1 <1>  -0.5700 
 10 N       -0.3530    -3.1000     0.2190 N.am  1 <1>  -0.6600 
 11 C       -1.2570     3.1010    -0.2990 C.3   1 <1>  -0.2400 
 12 C        0.8580     3.9640     0.7490 C.3   1 <1>  -0.2400 
 13 C       -1.3660    -2.6170    -0.7590 C.3   1 <1>   0.1400 
 14 C       -0.4580    -4.5760     0.3690 C.3   1 <1>   0.1400 
 15 C       -2.3360    -3.7850    -0.9240 C.3   1 <1>   0.2000 
 16 C       -1.4590    -5.0230    -0.7040 C.3   1 <1>  -0.0800 
 17 O       -3.2860    -3.6990     0.0840 O.3   1 <1>  -0.6800 
 18 C       -2.2360    -6.3080    -0.3460 C.3   1 <1>  -0.0170 
 19 C       -1.4190    -7.6020    -0.2450 C.ar  1 <1>  -0.1430 
 20 C       -2.0190    -8.7700     0.2900 C.ar  1 <1>   0.0000 
 21 C       -0.1200    -7.7110    -0.6580 C.ar  1 <1>  -0.1500 
 22 C       -1.2280    -9.9420     0.3850 C.ar  1 <1>   0.3100 
 23 C       -3.3620    -8.8470     0.7310 C.ar  1 <1>  -0.1500 
 24 C        0.5710    -8.9210    -0.5250 C.ar  1 <1>   0.1600 
 25 N        0.0620   -10.0000    -0.0250 N.ar  1 <1>  -0.6200 
 26 C       -1.7970   -11.1080     0.9230 C.ar  1 <1>  -0.1500 
 27 C       -3.8870   -10.0010     1.2480 C.ar  1 <1>  -0.1500 
 28 C       -3.0960   -11.1470     1.3490 C.ar  1 <1>  -0.1500 
 29 H       -0.6330     2.7960     1.7230 H     1 <1>   0.0800 
 30 H        3.2610    -1.6520    -0.6870 H     1 <1>   0.0800 
 31 H        3.9690    -0.1670    -0.1000 H     1 <1>   0.0800 
 32 H        3.2360    -0.2160    -1.6850 H     1 <1>   0.0800 
 33 H       -0.8220     3.1160    -1.2840 H     1 <1>   0.0800 
 34 H       -1.7280     4.0490    -0.1130 H     1 <1>   0.0800 
 35 H       -2.0090     2.3330    -0.2690 H     1 <1>   0.0800 
 36 H        1.3360     4.0340    -0.2130 H     1 <1>   0.0800 
 37 H        1.6150     3.7730     1.4890 H     1 <1>   0.0800 
 38 H        0.3860     4.9030     0.9730 H     1 <1>   0.0800 
 39 H       -1.8800    -1.7360    -0.4170 H     1 <1>   0.0800 
 40 H       -0.8780    -2.4090    -1.6960 H     1 <1>   0.0800 
 41 H        0.5000    -5.0500     0.2390 H     1 <1>   0.0800 
 42 H       -0.8280    -4.8010     1.3550 H     1 <1>   0.0800 
 43 H       -2.8450    -3.7830    -1.8730 H     1 <1>   0.0800 
 44 H       -0.9200    -5.1870    -1.6200 H     1 <1>   0.0800 
 45 H       -2.8320    -3.5210     0.9330 H     1 <1>   0.4000 
 46 H       -3.0070    -6.4570    -1.0830 H     1 <1>   0.0800 
 47 H       -2.7220    -6.1470     0.6000 H     1 <1>   0.0800 
 48 H        0.4240    -6.8970    -1.0960 H     1 <1>   0.1500 
 49 H       -3.9960    -7.9840     0.6600 H     1 <1>   0.1500 
 50 H        1.5940    -8.9550    -0.8600 H     1 <1>   0.1500 
 51 H       -1.1690   -11.9780     0.9870 H     1 <1>   0.1500 
 52 H       -4.9100   -10.0410     1.5810 H     1 <1>   0.1500 
 53 H       -3.5190   -12.0490     1.7580 H     1 <1>   0.1500 
@<TRIPOS>BOND
  1   1   2  1   
  2   1   3  1   
  3   2   4  2   
  4   2   5  1   
  5   3   6  2   
  6   3   7  1   
  7   4   6  1   
  8   4   8  1   
  9   5   9  2   
 10   5  10  am  
 11   7  11  1   
 12   7  12  1   
 13   7  29  1   
 14   8  30  1   
 15   8  31  1   
 16   8  32  1   
 17  10  13  1   
 18  10  14  1   
 19  11  33  1   
 20  11  34  1   
 21  11  35  1   
 22  12  36  1   
 23  12  37  1   
 24  12  38  1   
 25  13  15  1   
 26  13  39  1   
 27  13  40  1   
 28  14  16  1   
 29  14  41  1   
 30  14  42  1   
 31  15  16  1   
 32  15  17  1   
 33  15  43  1   
 34  16  18  1   
 35  16  44  1   
 36  17  45  1   
 37  18  19  1   
 38  18  46  1   
 39  18  47  1   
 40  19  20  ar  
 41  19  21  ar  
 42  20  22  ar  
 43  20  23  ar  
 44  21  24  ar  
 45  21  48  1   
 46  22  25  ar  
 47  22  26  ar  
 48  23  27  ar  
 49  23  49  1   
 50  24  25  ar  
 51  24  50  1   
 52  26  28  ar  
 53  26  51  1   
 54  27  28  ar  
 55  27  52  1   
 56  28  53  1   
@<TRIPOS>SUBSTRUCTURE
  1 ****  14 GROUP 4 **** **** 0

# MOE 2024.06 (io_trps.svl 2023.06)
