@<TRIPOS>MOLECULE
NONAME
54 57 1 0 0 
SMALL
USER_CHARGES


@<TRIPOS>ATOM
  1 CL      -0.6560     0.9270    -1.7630 Cl    1 <1>  -0.1770 
  2 C       -0.4000     1.7460    -0.2390 C.ar  1 <1>   0.1770 
  3 C       -1.4510     2.3950     0.4100 C.ar  1 <1>   0.0540 
  4 C        0.8840     1.7350     0.2750 C.ar  1 <1>  -0.1500 
  5 C       -2.8040     2.4050    -0.1000 C.2   1 <1>   0.4620 
  6 C       -1.1460     3.0560     1.6020 C.ar  1 <1>  -0.1500 
  7 C        1.1550     2.3900     1.4620 C.ar  1 <1>  -0.1500 
  8 N       -3.4860     1.3820    -0.4730 N.2   1 <1>  -0.4100 
  9 N       -3.5060     3.5360    -0.2020 N.2   1 <1>  -0.5650 
 10 C        0.1360     3.0540     2.1230 C.ar  1 <1>  -0.1500 
 11 O       -4.6550     1.8000    -0.8430 O.3   1 <1>  -0.0190 
 12 C       -4.6040     3.0930    -0.6550 C.2   1 <1>   0.2980 
 13 C       -5.8250     3.9300    -0.9860 C.3   1 <1>   0.0200 
 14 C       -6.9760     3.6520    -0.0090 C.3   1 <1>  -0.1600 
 15 C       -8.2240     4.4990    -0.3300 C.3   1 <1>  -0.0990 
 16 C       -9.4070     4.2340     0.5970 C.2   1 <1>   0.5690 
 17 O       -9.2040     3.6490     1.6360 O.2   1 <1>  -0.5700 
 18 N      -10.6630     4.6570     0.2450 N.am  1 <1>  -0.6600 
 19 C      -11.8410     4.2940     1.0990 C.3   1 <1>   0.1400 
 20 C      -10.9560     5.4520    -0.9870 C.3   1 <1>   0.1400 
 21 C      -13.0870     3.9550     0.2420 C.3   1 <1>   0.0000 
 22 C      -12.3150     6.1530    -0.8880 C.3   1 <1>  -0.1600 
 23 C      -14.2720     3.4800     1.1100 C.3   1 <1>   0.2000 
 24 C      -13.4780     5.1760    -0.6300 C.3   1 <1>  -0.1600 
 25 C      -12.8200     2.6900    -0.5990 C.3   1 <1>  -0.1600 
 26 O      -14.3940     4.1880     2.2930 O.3   1 <1>  -0.6800 
 27 C      -14.0420     1.9960     1.4030 C.3   1 <1>  -0.1600 
 28 C      -13.0330     1.5110     0.3550 C.3   1 <1>  -0.1600 
 29 H        1.6640     1.2190    -0.2560 H     1 <1>   0.1500 
 30 H       -1.9310     3.5770     2.1230 H     1 <1>   0.1500 
 31 H        2.1520     2.3860     1.8690 H     1 <1>   0.1500 
 32 H        0.3420     3.5690     3.0460 H     1 <1>   0.1500 
 33 H       -5.5530     4.9690    -0.9370 H     1 <1>   0.0800 
 34 H       -6.1300     3.7080    -1.9920 H     1 <1>   0.0800 
 35 H       -6.6470     3.8680     0.9940 H     1 <1>   0.0800 
 36 H       -7.2380     2.6080    -0.0480 H     1 <1>   0.0800 
 37 H       -8.5270     4.2890    -1.3390 H     1 <1>   0.0800 
 38 H       -7.9750     5.5410    -0.2570 H     1 <1>   0.0800 
 39 H      -11.5940     3.4570     1.7280 H     1 <1>   0.0800 
 40 H      -12.0600     5.1300     1.7400 H     1 <1>   0.0800 
 41 H      -10.1890     6.1940    -1.1300 H     1 <1>   0.0800 
 42 H      -10.9570     4.7920    -1.8370 H     1 <1>   0.0800 
 43 H      -12.2650     6.8680    -0.0850 H     1 <1>   0.0800 
 44 H      -12.5030     6.7050    -1.7920 H     1 <1>   0.0800 
 45 H      -15.1910     3.5960     0.5600 H     1 <1>   0.0800 
 46 H      -13.8790     4.8420    -1.5710 H     1 <1>   0.0800 
 47 H      -14.2600     5.7300    -0.1380 H     1 <1>   0.0800 
 48 H      -13.5450     2.6160    -1.3910 H     1 <1>   0.0800 
 49 H      -11.8380     2.6660    -1.0370 H     1 <1>   0.0800 
 50 H      -13.6520     3.9740     2.8890 H     1 <1>   0.4000 
 51 H      -13.6420     1.8430     2.3900 H     1 <1>   0.0800 
 52 H      -14.9700     1.4600     1.3090 H     1 <1>   0.0800 
 53 H      -12.1010     1.2640     0.8370 H     1 <1>   0.0800 
 54 H      -13.3900     0.6420    -0.1710 H     1 <1>   0.0800 
@<TRIPOS>BOND
  1   1   2  1   
  2   2   3  ar  
  3   2   4  ar  
  4   3   5  1   
  5   3   6  ar  
  6   4   7  ar  
  7   4  29  1   
  8   5   8  2   
  9   5   9  1   
 10   6  10  ar  
 11   6  30  1   
 12   7  10  ar  
 13   7  31  1   
 14   8  11  1   
 15   9  12  2   
 16  10  32  1   
 17  11  12  1   
 18  12  13  1   
 19  13  14  1   
 20  13  33  1   
 21  13  34  1   
 22  14  15  1   
 23  14  35  1   
 24  14  36  1   
 25  15  16  1   
 26  15  37  1   
 27  15  38  1   
 28  16  17  2   
 29  16  18  am  
 30  18  19  1   
 31  18  20  1   
 32  19  21  1   
 33  19  39  1   
 34  19  40  1   
 35  20  22  1   
 36  20  41  1   
 37  20  42  1   
 38  21  23  1   
 39  21  24  1   
 40  21  25  1   
 41  22  24  1   
 42  22  43  1   
 43  22  44  1   
 44  23  26  1   
 45  23  27  1   
 46  23  45  1   
 47  24  46  1   
 48  24  47  1   
 49  25  28  1   
 50  25  48  1   
 51  25  49  1   
 52  26  50  1   
 53  27  28  1   
 54  27  51  1   
 55  27  52  1   
 56  28  53  1   
 57  28  54  1   
@<TRIPOS>SUBSTRUCTURE
  1 ****  14 GROUP 4 **** **** 0

# MOE 2024.06 (io_trps.svl 2023.06)
