@<TRIPOS>MOLECULE
NONAME
56 58 1 0 0 
SMALL
USER_CHARGES


@<TRIPOS>ATOM
  1 O       -1.5590    -0.2230     1.6850 O.2   1 <1>  -0.5700 
  2 C       -1.7950     0.7150     0.9430 C.2   1 <1>   0.5440 
  3 N       -2.5300     0.4490    -0.1920 N.am  1 <1>  -0.6600 
  4 C       -1.3510     2.0570     1.2830 C.ar  1 <1>   0.0860 
  5 C       -2.6490    -0.9490    -0.6780 C.3   1 <1>   0.1400 
  6 C       -3.6970     1.2860    -0.5700 C.3   1 <1>   0.1400 
  7 C       -1.0120     2.9870     0.3020 C.ar  1 <1>  -0.1500 
  8 C       -1.2420     2.4630     2.6130 C.ar  1 <1>  -0.1500 
  9 C       -3.8660    -1.6020     0.0120 C.3   1 <1>   0.4230 
 10 C       -4.9470     0.7060     0.1120 C.3   1 <1>  -0.1600 
 11 C       -0.6060     4.2710     0.6180 C.ar  1 <1>   0.0820 
 12 C       -0.8330     3.7410     2.9470 C.ar  1 <1>  -0.1500 
 13 N       -4.0000    -3.0970    -0.2220 N.4   1 <1>  -0.9590 
 14 C       -5.1990    -0.8080    -0.1690 C.3   1 <1>   0.0000 
 15 O       -0.3190     5.0850    -0.4290 O.3   1 <1>  -0.3620 
 16 C       -0.5170     4.6500     1.9540 C.ar  1 <1>  -0.1500 
 17 C       -5.3220    -3.6540     0.2050 C.3   1 <1>   0.3430 
 18 C       -3.6890    -3.5190    -1.6260 C.3   1 <1>   0.2630 
 19 C       -6.2080    -1.3420     0.8910 C.3   1 <1>  -0.1600 
 20 C       -5.8680    -0.9650    -1.5670 C.3   1 <1>   0.1200 
 21 C        0.2150     6.3820    -0.2820 C.3   1 <1>   0.2000 
 22 C       -5.9550    -2.8070     1.3130 C.3   1 <1>  -0.1600 
 23 O       -4.9760    -0.7870    -2.6110 O.3   1 <1>  -0.6800 
 24 C       -0.0400     7.1200    -1.5940 C.3   1 <1>  -0.2400 
 25 C        1.7140     6.2720     0.0040 C.3   1 <1>  -0.2400 
 26 H       -2.7410    -0.9390    -1.7470 H     1 <1>   0.0800 
 27 H       -1.7540    -1.4880    -0.4220 H     1 <1>   0.0800 
 28 H       -3.5530     2.3040    -0.2510 H     1 <1>   0.0800 
 29 H       -3.8080     1.2890    -1.6410 H     1 <1>   0.0800 
 30 H       -1.0620     2.7080    -0.7350 H     1 <1>   0.1500 
 31 H       -1.4820     1.7610     3.3940 H     1 <1>   0.1500 
 32 H       -3.6400    -1.4960     1.0610 H     1 <1>   0.0800 
 33 H       -4.8120     0.8650     1.1680 H     1 <1>   0.0800 
 34 H       -5.8040     1.2870    -0.1780 H     1 <1>   0.0800 
 35 H       -0.7600     4.0280     3.9820 H     1 <1>   0.1500 
 36 H       -3.2860    -3.5150     0.3910 H     1 <1>   0.4500 
 37 H       -0.2040     5.6360     2.2400 H     1 <1>   0.1500 
 38 H       -5.9950    -3.6720    -0.6360 H     1 <1>   0.0800 
 39 H       -5.1970    -4.6690     0.5480 H     1 <1>   0.0800 
 40 H       -4.3850    -3.0720    -2.3160 H     1 <1>   0.0800 
 41 H       -3.7530    -4.5910    -1.7180 H     1 <1>   0.0800 
 42 H       -2.6920    -3.2140    -1.9010 H     1 <1>   0.0800 
 43 H       -6.1680    -0.7490     1.7900 H     1 <1>   0.0800 
 44 H       -7.2150    -1.2450     0.5190 H     1 <1>   0.0800 
 45 H       -6.6540    -0.2370    -1.6800 H     1 <1>   0.0800 
 46 H       -6.3050    -1.9400    -1.6840 H     1 <1>   0.0800 
 47 H       -0.3050     6.8880     0.5120 H     1 <1>   0.0800 
 48 H       -6.8870    -3.2540     1.6110 H     1 <1>   0.0800 
 49 H       -5.3080    -2.8310     2.1740 H     1 <1>   0.0800 
 50 H       -5.4530    -0.5840    -3.4460 H     1 <1>   0.4000 
 51 H        0.4430     6.6120    -2.4100 H     1 <1>   0.0800 
 52 H        0.3450     8.1210    -1.5350 H     1 <1>   0.0800 
 53 H       -1.0970     7.1720    -1.7840 H     1 <1>   0.0800 
 54 H        2.2080     5.7500    -0.7960 H     1 <1>   0.0800 
 55 H        1.8890     5.7480     0.9260 H     1 <1>   0.0800 
 56 H        2.1440     7.2540     0.0890 H     1 <1>   0.0800 
@<TRIPOS>BOND
  1   1   2  2   
  2   2   3  am  
  3   2   4  1   
  4   3   5  1   
  5   3   6  1   
  6   4   7  ar  
  7   4   8  ar  
  8   5   9  1   
  9   5  26  1   
 10   5  27  1   
 11   6  10  1   
 12   6  28  1   
 13   6  29  1   
 14   7  11  ar  
 15   7  30  1   
 16   8  12  ar  
 17   8  31  1   
 18   9  13  1   
 19   9  14  1   
 20   9  32  1   
 21  10  14  1   
 22  10  33  1   
 23  10  34  1   
 24  11  15  1   
 25  11  16  ar  
 26  12  16  ar  
 27  12  35  1   
 28  13  17  1   
 29  13  18  1   
 30  13  36  1   
 31  14  19  1   
 32  14  20  1   
 33  15  21  1   
 34  16  37  1   
 35  17  22  1   
 36  17  38  1   
 37  17  39  1   
 38  18  40  1   
 39  18  41  1   
 40  18  42  1   
 41  19  22  1   
 42  19  43  1   
 43  19  44  1   
 44  20  23  1   
 45  20  45  1   
 46  20  46  1   
 47  21  24  1   
 48  21  25  1   
 49  21  47  1   
 50  22  48  1   
 51  22  49  1   
 52  23  50  1   
 53  24  51  1   
 54  24  52  1   
 55  24  53  1   
 56  25  54  1   
 57  25  55  1   
 58  25  56  1   
@<TRIPOS>SUBSTRUCTURE
  1 ****   3 GROUP 4 **** **** 0

# MOE 2024.06 (io_trps.svl 2023.06)
