@<TRIPOS>MOLECULE
NONAME
43 44 1 0 0 
SMALL
USER_CHARGES


@<TRIPOS>ATOM
  1 S        0.1780     0.1030    -0.9590 S.3   1 <1>  -0.3320 
  2 C       -1.3780    -0.5000    -0.2940 C.ar  1 <1>   0.4120 
  3 C        0.3860     1.8380    -0.3590 C.3   1 <1>   0.0700 
  4 N       -1.7320    -1.6850    -0.7600 N.ar  1 <1>  -0.6200 
  5 C       -2.1030     0.2500     0.6230 C.ar  1 <1>  -0.1500 
  6 C        1.7040     2.3740    -0.9170 C.3   1 <1>   0.1400 
  7 C       -2.8770    -2.1500    -0.2880 C.ar  1 <1>   0.1600 
  8 C       -3.2930    -0.2530     1.1020 C.ar  1 <1>  -0.1500 
  9 N        1.8290     3.8300    -0.6570 N.am  1 <1>  -0.7300 
 10 C       -3.6820    -1.4880     0.6260 C.ar  1 <1>  -0.1500 
 11 C        1.9710     4.3960     0.5710 C.2   1 <1>   0.5690 
 12 O        1.9170     3.7390     1.5820 O.2   1 <1>  -0.5700 
 13 C        2.1930     5.9020     0.6790 C.3   1 <1>  -0.0190 
 14 C        1.0380     6.7060     0.0490 C.3   1 <1>  -0.1600 
 15 C        3.5630     6.3270     0.0960 C.3   1 <1>  -0.1600 
 16 C        1.1840     8.2230     0.2980 C.3   1 <1>   0.2000 
 17 C        3.6290     7.8120    -0.3140 C.3   1 <1>  -0.1600 
 18 O        0.6490     8.8930    -0.8170 O.3   1 <1>  -0.5600 
 19 C        2.6570     8.6660     0.5030 C.3   1 <1>   0.2000 
 20 C       -0.7330     9.0710    -0.7930 C.3   1 <1>   0.0400 
 21 O        2.7970     9.9770     0.0990 O.3   1 <1>  -0.6800 
 22 H       -0.4530     2.4030    -0.7220 H     1 <1>   0.0800 
 23 H        0.4060     1.8110     0.7150 H     1 <1>   0.0800 
 24 H       -1.7570     1.2030     0.9670 H     1 <1>   0.1500 
 25 H        1.7450     2.2000    -1.9780 H     1 <1>   0.0800 
 26 H        2.5260     1.8570    -0.4500 H     1 <1>   0.0800 
 27 H       -3.1920    -3.1140    -0.6500 H     1 <1>   0.1500 
 28 H       -3.8910     0.2900     1.8140 H     1 <1>   0.1500 
 29 H        1.8930     4.4250    -1.4850 H     1 <1>   0.3700 
 30 H       -4.5990    -1.9380     0.9590 H     1 <1>   0.1500 
 31 H        2.2020     6.1340     1.7310 H     1 <1>   0.0800 
 32 H        0.1030     6.3700     0.4610 H     1 <1>   0.0800 
 33 H        1.0280     6.5220    -1.0110 H     1 <1>   0.0800 
 34 H        4.3180     6.1300     0.8390 H     1 <1>   0.0800 
 35 H        3.8070     5.7310    -0.7660 H     1 <1>   0.0800 
 36 H        0.6320     8.5100     1.1770 H     1 <1>   0.0800 
 37 H        3.3670     7.9000    -1.3550 H     1 <1>   0.0800 
 38 H        4.6340     8.1780    -0.1870 H     1 <1>   0.0800 
 39 H        2.9230     8.6110     1.5450 H     1 <1>   0.0800 
 40 H       -1.0190     9.5880    -1.6920 H     1 <1>   0.0800 
 41 H       -1.0000     9.6660     0.0640 H     1 <1>   0.0800 
 42 H       -1.2200     8.1130    -0.7570 H     1 <1>   0.0800 
 43 H        2.1380    10.1080    -0.6200 H     1 <1>   0.4000 
@<TRIPOS>BOND
  1   1   2  1   
  2   1   3  1   
  3   2   4  ar  
  4   2   5  ar  
  5   3   6  1   
  6   3  22  1   
  7   3  23  1   
  8   4   7  ar  
  9   5   8  ar  
 10   5  24  1   
 11   6   9  1   
 12   6  25  1   
 13   6  26  1   
 14   7  10  ar  
 15   7  27  1   
 16   8  10  ar  
 17   8  28  1   
 18   9  11  am  
 19   9  29  1   
 20  10  30  1   
 21  11  12  2   
 22  11  13  1   
 23  13  14  1   
 24  13  15  1   
 25  13  31  1   
 26  14  16  1   
 27  14  32  1   
 28  14  33  1   
 29  15  17  1   
 30  15  34  1   
 31  15  35  1   
 32  16  18  1   
 33  16  19  1   
 34  16  36  1   
 35  17  19  1   
 36  17  37  1   
 37  17  38  1   
 38  18  20  1   
 39  19  21  1   
 40  19  39  1   
 41  20  40  1   
 42  20  41  1   
 43  20  42  1   
 44  21  43  1   
@<TRIPOS>SUBSTRUCTURE
  1 ****   9 GROUP 4 **** **** 0

# MOE 2024.06 (io_trps.svl 2023.06)
