@<TRIPOS>MOLECULE
NONAME
51 53 1 0 0 
SMALL
USER_CHARGES


@<TRIPOS>ATOM
  1 F       -0.0020    -0.8580    -0.2230 F     1 <1>  -0.1900 
  2 C       -0.2330    -2.1320    -0.0470 C.ar  1 <1>   0.1900 
  3 C       -1.0650    -2.5220     0.9840 C.ar  1 <1>  -0.1500 
  4 C        0.3640    -3.0410    -0.8980 C.ar  1 <1>  -0.1500 
  5 C       -1.3070    -3.8740     1.1660 C.ar  1 <1>  -0.1500 
  6 C        0.1150    -4.3900    -0.7060 C.ar  1 <1>  -0.1500 
  7 C       -0.7190    -4.8100     0.3240 C.ar  1 <1>  -0.1430 
  8 C       -0.9860    -6.2940     0.5210 C.3   1 <1>  -0.0160 
  9 C       -2.1040    -6.7610    -0.4110 C.3   1 <1>   0.1400 
 10 N       -2.3660    -8.2020    -0.1990 N.am  1 <1>  -0.7300 
 11 C       -1.9430    -9.2170    -0.9960 C.2   1 <1>   0.5690 
 12 O       -1.2630    -9.0230    -1.9760 O.2   1 <1>  -0.5700 
 13 C       -2.3380   -10.6520    -0.6280 C.3   1 <1>   0.1710 
 14 N       -3.6050   -10.7700     0.1540 N.3   1 <1>  -0.8100 
 15 C       -4.7910   -10.3900    -0.6300 C.3   1 <1>   0.1100 
 16 C       -3.8500   -12.1470     0.6270 C.3   1 <1>   0.1100 
 17 C       -5.9510   -11.0590     0.0960 C.3   1 <1>   0.2000 
 18 C       -5.3630   -12.4090     0.5010 C.3   1 <1>  -0.0800 
 19 O       -6.1930   -10.3340     1.2470 O.3   1 <1>  -0.6800 
 20 C       -5.6760   -13.4870    -0.5540 C.3   1 <1>   0.0210 
 21 C       -5.0490   -14.8240    -0.2070 C.2   1 <1>   0.1080 
 22 N       -5.3150   -15.4650     0.8880 N.2   1 <1>  -0.7070 
 23 C       -4.1350   -15.5060    -1.0040 C.2   1 <1>  -0.1500 
 24 N       -4.5750   -16.5870     0.8170 N.pl3 1 <1>   0.3000 
 25 C       -3.8490   -16.6340    -0.3200 C.2   1 <1>  -0.3320 
 26 C       -2.9160   -17.7730    -0.6890 C.3   1 <1>  -0.0600 
 27 H       -1.5110    -1.7830     1.6260 H     1 <1>   0.1500 
 28 H        1.0060    -2.7000    -1.6890 H     1 <1>   0.1500 
 29 H       -1.9540    -4.1920     1.9650 H     1 <1>   0.1500 
 30 H        0.5710    -5.1130    -1.3610 H     1 <1>   0.1500 
 31 H       -1.2640    -6.4810     1.5430 H     1 <1>   0.0800 
 32 H       -0.0910    -6.8500     0.3070 H     1 <1>   0.0800 
 33 H       -1.8110    -6.5940    -1.4340 H     1 <1>   0.0800 
 34 H       -3.0030    -6.2010    -0.2210 H     1 <1>   0.0800 
 35 H       -2.9730    -8.4690     0.5840 H     1 <1>   0.3700 
 36 H       -1.5320   -11.0630    -0.0470 H     1 <1>   0.0800 
 37 H       -2.4140   -11.2260    -1.5340 H     1 <1>   0.0800 
 38 H       -4.9150    -9.3220    -0.6800 H     1 <1>   0.0800 
 39 H       -4.7180   -10.7850    -1.6290 H     1 <1>   0.0800 
 40 H       -3.2880   -12.8590     0.0460 H     1 <1>   0.0800 
 41 H       -3.5420   -12.2310     1.6550 H     1 <1>   0.0800 
 42 H       -6.8590   -11.1170    -0.4790 H     1 <1>   0.0800 
 43 H       -5.7690   -12.7380     1.4430 H     1 <1>   0.0800 
 44 H       -5.3250   -10.2110     1.6850 H     1 <1>   0.4000 
 45 H       -5.3260   -13.1750    -1.5210 H     1 <1>   0.0800 
 46 H       -6.7400   -13.6250    -0.6140 H     1 <1>   0.0800 
 47 H       -3.7570   -15.1830    -1.9580 H     1 <1>   0.1500 
 48 H       -4.5910   -17.3000     1.5560 H     1 <1>   0.2700 
 49 H       -2.4530   -17.5790    -1.6400 H     1 <1>   0.0800 
 50 H       -3.4650   -18.6960    -0.7590 H     1 <1>   0.0800 
 51 H       -2.1450   -17.8790     0.0530 H     1 <1>   0.0800 
@<TRIPOS>BOND
  1   1   2  1   
  2   2   3  ar  
  3   2   4  ar  
  4   3   5  ar  
  5   3  27  1   
  6   4   6  ar  
  7   4  28  1   
  8   5   7  ar  
  9   5  29  1   
 10   6   7  ar  
 11   6  30  1   
 12   7   8  1   
 13   8   9  1   
 14   8  31  1   
 15   8  32  1   
 16   9  10  1   
 17   9  33  1   
 18   9  34  1   
 19  10  11  am  
 20  10  35  1   
 21  11  12  2   
 22  11  13  1   
 23  13  14  1   
 24  13  36  1   
 25  13  37  1   
 26  14  15  1   
 27  14  16  1   
 28  15  17  1   
 29  15  38  1   
 30  15  39  1   
 31  16  18  1   
 32  16  40  1   
 33  16  41  1   
 34  17  18  1   
 35  17  19  1   
 36  17  42  1   
 37  18  20  1   
 38  18  43  1   
 39  19  44  1   
 40  20  21  1   
 41  20  45  1   
 42  20  46  1   
 43  21  22  2   
 44  21  23  1   
 45  22  24  1   
 46  23  25  2   
 47  23  47  1   
 48  24  25  1   
 49  24  48  1   
 50  25  26  1   
 51  26  49  1   
 52  26  50  1   
 53  26  51  1   
@<TRIPOS>SUBSTRUCTURE
  1 ****  13 GROUP 4 **** **** 0

# MOE 2024.06 (io_trps.svl 2023.06)
