@<TRIPOS>MOLECULE
NONAME
55 57 1 0 0 
SMALL
USER_CHARGES


@<TRIPOS>ATOM
  1 F        0.3660    -3.2450    -3.0320 F     1 <1>  -0.1900 
  2 C       -0.5370    -3.6400    -2.1710 C.ar  1 <1>   0.1900 
  3 C       -0.5130    -3.2360    -0.8320 C.ar  1 <1>   0.0820 
  4 C       -1.5220    -4.4780    -2.6540 C.ar  1 <1>  -0.1500 
  5 O        0.4030    -2.4160    -0.2380 O.3   1 <1>  -0.3630 
  6 C       -1.5170    -3.7070    -0.0010 C.ar  1 <1>  -0.1500 
  7 C       -2.5090    -4.9280    -1.7970 C.ar  1 <1>  -0.1500 
  8 C        1.5240    -1.8970    -0.9170 C.3   1 <1>   0.0400 
  9 C       -2.5340    -4.5560    -0.4500 C.ar  1 <1>   0.0530 
 10 C       -3.5630    -5.0170     0.4570 C.2   1 <1>   0.0870 
 11 O       -3.7290    -4.4280     1.6170 O.3   1 <1>  -0.0190 
 12 C       -4.4910    -6.0060     0.3930 C.2   1 <1>  -0.2330 
 13 N       -4.6950    -4.9540     2.3230 N.2   1 <1>  -0.4100 
 14 C       -5.1740    -5.9120     1.6090 C.2   1 <1>   0.3720 
 15 C       -4.7330    -6.9630    -0.6300 C.2   1 <1>   1.0330 
 16 N       -6.2390    -6.7310     2.0400 N.pl3 1 <1>  -0.8210 
 17 O       -5.7680    -6.9390    -1.3230 O.co2 1 <1>  -0.9000 
 18 O       -3.9520    -7.9000    -0.8500 O.co2 1 <1>  -0.9000 
 19 C       -7.4880    -6.5670     1.2420 C.3   1 <1>   0.2090 
 20 C       -6.4850    -6.7200     3.5120 C.3   1 <1>   0.1290 
 21 C       -8.2050    -7.9140     1.0090 C.3   1 <1>  -0.0800 
 22 C       -7.2360    -9.1060     0.8550 C.3   1 <1>   0.3430 
 23 C       -9.2000    -7.7980    -0.1710 C.3   1 <1>  -0.1600 
 24 N       -6.8390    -9.3160    -0.5630 N.4   1 <1>  -0.9590 
 25 C       -9.3120    -9.1210    -0.9410 C.3   1 <1>  -0.1600 
 26 C       -7.9540    -9.5590    -1.5120 C.3   1 <1>   0.3430 
 27 C       -5.6880   -10.2570    -0.7900 C.3   1 <1>   0.3430 
 28 C       -4.7530   -10.5090     0.4140 C.3   1 <1>   0.1200 
 29 O       -5.3860   -11.2830     1.3900 O.3   1 <1>  -0.6800 
 30 H       -1.5170    -4.7760    -3.6870 H     1 <1>   0.1500 
 31 H       -1.5020    -3.4020     1.0290 H     1 <1>   0.1500 
 32 H       -3.2700    -5.5780    -2.1910 H     1 <1>   0.1500 
 33 H        2.0980    -1.3140    -0.2180 H     1 <1>   0.0800 
 34 H        1.1860    -1.2700    -1.7220 H     1 <1>   0.0800 
 35 H        2.1200    -2.7140    -1.2850 H     1 <1>   0.0800 
 36 H       -7.2500    -6.1060     0.3010 H     1 <1>   0.0800 
 37 H       -8.1530    -5.8890     1.7480 H     1 <1>   0.0800 
 38 H       -5.5580    -6.8850     4.0340 H     1 <1>   0.0800 
 39 H       -7.1740    -7.5010     3.7810 H     1 <1>   0.0800 
 40 H       -6.8870    -5.7680     3.8130 H     1 <1>   0.0800 
 41 H       -8.7710    -8.1140     1.9000 H     1 <1>   0.0800 
 42 H       -7.7130   -10.0020     1.2140 H     1 <1>   0.0800 
 43 H       -6.3630    -8.9400     1.4630 H     1 <1>   0.0800 
 44 H       -8.8610    -7.0460    -0.8660 H     1 <1>   0.0800 
 45 H      -10.1660    -7.4930     0.1920 H     1 <1>   0.0800 
 46 H       -6.4420    -8.3850    -0.8500 H     1 <1>   0.4500 
 47 H      -10.0100    -9.0120    -1.7520 H     1 <1>   0.0800 
 48 H       -9.6910    -9.8920    -0.2930 H     1 <1>   0.0800 
 49 H       -8.0020   -10.6060    -1.7620 H     1 <1>   0.0800 
 50 H       -7.7530    -9.0060    -2.4160 H     1 <1>   0.0800 
 51 H       -5.0850    -9.8490    -1.5860 H     1 <1>   0.0800 
 52 H       -6.0590   -11.2110    -1.1200 H     1 <1>   0.0800 
 53 H       -4.4340    -9.5800     0.8550 H     1 <1>   0.0800 
 54 H       -3.8820   -11.0440     0.0800 H     1 <1>   0.0800 
 55 H       -4.7720   -11.4450     2.1360 H     1 <1>   0.4000 
@<TRIPOS>BOND
  1   1   2  1   
  2   2   3  ar  
  3   2   4  ar  
  4   3   5  1   
  5   3   6  ar  
  6   4   7  ar  
  7   4  30  1   
  8   5   8  1   
  9   6   9  ar  
 10   6  31  1   
 11   7   9  ar  
 12   7  32  1   
 13   8  33  1   
 14   8  34  1   
 15   8  35  1   
 16   9  10  1   
 17  10  11  1   
 18  10  12  2   
 19  11  13  1   
 20  12  14  1   
 21  12  15  1   
 22  13  14  2   
 23  14  16  1   
 24  15  17  ar  
 25  15  18  ar  
 26  16  19  1   
 27  16  20  1   
 28  19  21  1   
 29  19  36  1   
 30  19  37  1   
 31  20  38  1   
 32  20  39  1   
 33  20  40  1   
 34  21  22  1   
 35  21  23  1   
 36  21  41  1   
 37  22  24  1   
 38  22  42  1   
 39  22  43  1   
 40  23  25  1   
 41  23  44  1   
 42  23  45  1   
 43  24  26  1   
 44  24  27  1   
 45  24  46  1   
 46  25  26  1   
 47  25  47  1   
 48  25  48  1   
 49  26  49  1   
 50  26  50  1   
 51  27  28  1   
 52  27  51  1   
 53  27  52  1   
 54  28  29  1   
 55  28  53  1   
 56  28  54  1   
 57  29  55  1   
@<TRIPOS>SUBSTRUCTURE
  1 ****  12 GROUP 4 **** **** 0

# MOE 2024.06 (io_trps.svl 2023.06)
