@<TRIPOS>MOLECULE
NONAME
57 61 1 0 0 
SMALL
USER_CHARGES


@<TRIPOS>ATOM
  1 O        0.1510     0.7570    -0.1260 O.2   1 <1>  -0.5700 
  2 C       -0.5160     1.7530    -0.2870 C.2   1 <1>   0.5690 
  3 N       -1.8810     1.7240    -0.1780 N.am  1 <1>  -0.6600 
  4 C        0.2010     3.0520    -0.6050 C.3   1 <1>  -0.0990 
  5 C       -2.7920     2.8980    -0.3660 C.3   1 <1>   0.1400 
  6 C       -2.5750     0.4340     0.1310 C.3   1 <1>   0.1400 
  7 C        1.7180     2.8720    -0.7560 C.3   1 <1>   0.0960 
  8 C       -3.6290     3.1680     0.9070 C.3   1 <1>   0.1440 
  9 C       -4.0020     0.6500     0.6630 C.3   1 <1>  -0.1600 
 10 N        2.3880     4.1770    -0.9170 N.pl3 1 <1>   0.3140 
 11 C       -4.8170     4.0220     0.4930 C.ar  1 <1>   0.1660 
 12 C       -4.0590     1.8550     1.6140 C.3   1 <1>  -0.1600 
 13 C       -2.8840     4.1110     1.8880 C.3   1 <1>  -0.1600 
 14 N        1.9830     5.0940    -1.8180 N.2   1 <1>  -0.7070 
 15 C        3.4460     4.6230    -0.2110 C.2   1 <1>  -0.3020 
 16 N       -5.8740     3.5910    -0.1520 N.ar  1 <1>  -0.6200 
 17 C       -4.6550     5.3220     0.8600 C.ar  1 <1>  -0.1440 
 18 C       -3.3430     5.5450     1.5700 C.3   1 <1>  -0.0170 
 19 C        2.7980     6.0930    -1.6640 C.2   1 <1>   0.1390 
 20 C        3.7380     5.8580    -0.6680 C.2   1 <1>  -0.1810 
 21 C       -6.8100     4.5100    -0.4250 C.ar  1 <1>   0.6200 
 22 C       -5.6550     6.2040     0.5430 C.ar  1 <1>   0.1600 
 23 C        4.8370     6.7970    -0.2170 C.3   1 <1>  -0.0590 
 24 N       -6.7320     5.8080    -0.0960 N.ar  1 <1>  -0.6200 
 25 C       -8.0030     4.0620    -1.1330 C.ar  1 <1>   0.0000 
 26 C       -8.4530     2.7410    -1.0500 C.ar  1 <1>  -0.1500 
 27 C       -8.7540     4.9320    -1.9310 C.ar  1 <1>  -0.1500 
 28 C       -9.5830     2.3110    -1.7210 C.ar  1 <1>  -0.1500 
 29 C       -9.8860     4.5090    -2.6050 C.ar  1 <1>  -0.1500 
 30 C      -10.3030     3.1960    -2.5020 C.ar  1 <1>  -0.1500 
 31 H        0.0090     3.7500     0.1880 H     1 <1>   0.0800 
 32 H       -0.1910     3.4440    -1.5250 H     1 <1>   0.0800 
 33 H       -3.4580     2.6690    -1.1810 H     1 <1>   0.0800 
 34 H       -2.2540     3.7850    -0.6420 H     1 <1>   0.0800 
 35 H       -2.0020    -0.0920     0.8760 H     1 <1>   0.0800 
 36 H       -2.6020    -0.1770    -0.7550 H     1 <1>   0.0800 
 37 H        1.9340     2.2690    -1.6190 H     1 <1>   0.0800 
 38 H        2.1220     2.3860     0.1130 H     1 <1>   0.0800 
 39 H       -4.3260    -0.2390     1.1750 H     1 <1>   0.0800 
 40 H       -4.6750     0.8080    -0.1620 H     1 <1>   0.0800 
 41 H       -5.0500     1.9610     2.0200 H     1 <1>   0.0800 
 42 H       -3.3920     1.6500     2.4330 H     1 <1>   0.0800 
 43 H       -1.8160     4.0040     1.8290 H     1 <1>   0.0800 
 44 H       -3.1890     3.8900     2.8970 H     1 <1>   0.0800 
 45 H        3.9230     4.0470     0.5600 H     1 <1>   0.1500 
 46 H       -2.6490     6.0310     0.9070 H     1 <1>   0.0800 
 47 H       -3.4670     6.1300     2.4660 H     1 <1>   0.0800 
 48 H        2.7420     6.9970    -2.2480 H     1 <1>   0.1500 
 49 H       -5.5730     7.2430     0.8140 H     1 <1>   0.1500 
 50 H        5.4090     6.3460     0.5740 H     1 <1>   0.0800 
 51 H        4.4100     7.7150     0.1430 H     1 <1>   0.0800 
 52 H        5.4940     7.0140    -1.0400 H     1 <1>   0.0800 
 53 H       -7.9080     2.0360    -0.4460 H     1 <1>   0.1500 
 54 H       -8.4460     5.9580    -2.0240 H     1 <1>   0.1500 
 55 H       -9.9020     1.2870    -1.6360 H     1 <1>   0.1500 
 56 H      -10.4420     5.2040    -3.2100 H     1 <1>   0.1500 
 57 H      -11.1830     2.8640    -3.0250 H     1 <1>   0.1500 
@<TRIPOS>BOND
  1   1   2  2   
  2   2   3  am  
  3   2   4  1   
  4   3   5  1   
  5   3   6  1   
  6   4   7  1   
  7   4  31  1   
  8   4  32  1   
  9   5   8  1   
 10   5  33  1   
 11   5  34  1   
 12   6   9  1   
 13   6  35  1   
 14   6  36  1   
 15   7  10  1   
 16   7  37  1   
 17   7  38  1   
 18   8  11  1   
 19   8  12  1   
 20   8  13  1   
 21   9  12  1   
 22   9  39  1   
 23   9  40  1   
 24  10  14  1   
 25  10  15  1   
 26  11  16  ar  
 27  11  17  ar  
 28  12  41  1   
 29  12  42  1   
 30  13  18  1   
 31  13  43  1   
 32  13  44  1   
 33  14  19  2   
 34  15  20  2   
 35  15  45  1   
 36  16  21  ar  
 37  17  18  1   
 38  17  22  ar  
 39  18  46  1   
 40  18  47  1   
 41  19  20  1   
 42  19  48  1   
 43  20  23  1   
 44  21  24  ar  
 45  21  25  1   
 46  22  24  ar  
 47  22  49  1   
 48  23  50  1   
 49  23  51  1   
 50  23  52  1   
 51  25  26  ar  
 52  25  27  ar  
 53  26  28  ar  
 54  26  53  1   
 55  27  29  ar  
 56  27  54  1   
 57  28  30  ar  
 58  28  55  1   
 59  29  30  ar  
 60  29  56  1   
 61  30  57  1   
@<TRIPOS>SUBSTRUCTURE
  1 ****   5 GROUP 4 **** **** 0

# MOE 2024.06 (io_trps.svl 2023.06)
