@<TRIPOS>MOLECULE
NONAME
36 38 1 0 0 
SMALL
USER_CHARGES


@<TRIPOS>ATOM
  1 O       -0.7610     0.4000     0.3650 O.2   1 <1>  -0.5700 
  2 C       -1.8450     0.9250     0.1660 C.2   1 <1>   0.7160 
  3 N       -2.9150     0.0850    -0.0860 N.am  1 <1>  -0.6600 
  4 C       -1.9410     2.3810     0.2030 C.2   1 <1>   0.2030 
  5 C       -4.3000     0.4960    -0.4310 C.3   1 <1>   0.1400 
  6 C       -2.8040    -1.3940    -0.0460 C.3   1 <1>   0.1400 
  7 N       -2.9970     3.1320     0.0490 N.2   1 <1>  -0.4100 
  8 C       -0.8570     3.2200     0.4220 C.2   1 <1>  -0.1500 
  9 C       -5.0240    -0.8050    -0.7800 C.3   1 <1>   0.2000 
 10 C       -4.2450    -1.9050    -0.0640 C.3   1 <1>  -0.0800 
 11 O       -2.6820     4.4000     0.1510 O.3   1 <1>  -0.0190 
 12 C       -1.3890     4.4430     0.3760 C.2   1 <1>  -0.0100 
 13 O       -6.3400    -0.7920    -0.3500 O.3   1 <1>  -0.6800 
 14 C       -4.4020    -3.2850    -0.7210 C.3   1 <1>   0.0210 
 15 C       -3.5080    -4.3120    -0.0560 C.2   1 <1>   0.1080 
 16 N       -3.5940    -4.6100     1.2040 N.2   1 <1>  -0.7070 
 17 C       -2.5050    -5.0300    -0.6980 C.2   1 <1>  -0.1500 
 18 N       -2.6390    -5.5390     1.4000 N.pl3 1 <1>   0.3000 
 19 C       -1.9640    -5.8090     0.2620 C.2   1 <1>  -0.3320 
 20 C       -0.8280    -6.8090     0.1620 C.3   1 <1>  -0.0600 
 21 H       -4.7530     0.9720     0.4220 H     1 <1>   0.0800 
 22 H       -4.2990     1.1660    -1.2740 H     1 <1>   0.0800 
 23 H       -2.2640    -1.7290    -0.9160 H     1 <1>   0.0800 
 24 H       -2.2860    -1.7220     0.8400 H     1 <1>   0.0800 
 25 H        0.1580     2.9050     0.5870 H     1 <1>   0.1500 
 26 H       -5.0170    -0.9470    -1.8470 H     1 <1>   0.0800 
 27 H       -4.5670    -1.9680     0.9610 H     1 <1>   0.0800 
 28 H       -0.9220     5.4040     0.4930 H     1 <1>   0.1500 
 29 H       -6.3770    -0.7720     0.6260 H     1 <1>   0.4000 
 30 H       -4.1590    -3.2260    -1.7670 H     1 <1>   0.0800 
 31 H       -5.4240    -3.6090    -0.6330 H     1 <1>   0.0800 
 32 H       -2.2380    -4.9600    -1.7380 H     1 <1>   0.1500 
 33 H       -2.4740    -5.9680     2.3180 H     1 <1>   0.2700 
 34 H       -0.4540    -6.8450    -0.8460 H     1 <1>   0.0800 
 35 H       -1.1710    -7.7910     0.4350 H     1 <1>   0.0800 
 36 H       -0.0220    -6.5240     0.8160 H     1 <1>   0.0800 
@<TRIPOS>BOND
  1   1   2  2   
  2   2   3  am  
  3   2   4  1   
  4   3   5  1   
  5   3   6  1   
  6   4   7  2   
  7   4   8  1   
  8   5   9  1   
  9   5  21  1   
 10   5  22  1   
 11   6  10  1   
 12   6  23  1   
 13   6  24  1   
 14   7  11  1   
 15   8  12  2   
 16   8  25  1   
 17   9  10  1   
 18   9  13  1   
 19   9  26  1   
 20  10  14  1   
 21  10  27  1   
 22  11  12  1   
 23  12  28  1   
 24  13  29  1   
 25  14  15  1   
 26  14  30  1   
 27  14  31  1   
 28  15  16  2   
 29  15  17  1   
 30  16  18  1   
 31  17  19  2   
 32  17  32  1   
 33  18  19  1   
 34  18  33  1   
 35  19  20  1   
 36  20  34  1   
 37  20  35  1   
 38  20  36  1   
@<TRIPOS>SUBSTRUCTURE
  1 ****   6 GROUP 4 **** **** 0

# MOE 2024.06 (io_trps.svl 2023.06)
