@<TRIPOS>MOLECULE
NONAME
38 40 1 0 0 
SMALL
USER_CHARGES


@<TRIPOS>ATOM
  1 S        0.5380    -0.0030    -1.3450 S.o2  1 <1>   1.5000 
  2 O        0.0430     0.4350    -2.6280 O.2   1 <1>  -0.6500 
  3 O        1.6530    -0.9280    -1.3030 O.2   1 <1>  -0.6500 
  4 N        1.1530     1.3850    -0.5840 N.am  1 <1>  -0.8490 
  5 C       -0.8360    -0.5240    -0.2910 C.2   1 <1>  -0.0220 
  6 C        1.6210     1.1990     0.8180 C.3   1 <1>   0.2760 
  7 C        1.9290     2.2400    -1.5050 C.3   1 <1>   0.1960 
  8 S       -0.5490    -1.8320     0.8560 S.3   1 <1>  -0.0800 
  9 C       -2.1050    -0.0840    -0.1560 C.2   1 <1>  -0.1500 
 10 C        1.6640     2.5320     1.5850 C.3   1 <1>   0.1200 
 11 C        2.9720     0.4460     0.9820 C.3   1 <1>   0.3430 
 12 C        3.2370     2.8350    -0.9600 C.3   1 <1>  -0.0800 
 13 C       -2.1870    -1.7350     1.4750 C.2   1 <1>  -0.1100 
 14 C       -2.8720    -0.7690     0.8400 C.2   1 <1>  -0.1500 
 15 O        2.8830     3.1820     1.3930 O.3   1 <1>  -0.5600 
 16 N        3.8430     0.4460    -0.2420 N.4   1 <1>  -0.9590 
 17 C        3.0160     3.8390     0.1790 C.3   1 <1>   0.1200 
 18 C        4.3370     1.8050    -0.6360 C.3   1 <1>   0.3430 
 19 C        4.9720    -0.5150    -0.0850 C.3   1 <1>   0.2630 
 20 H        0.8780     0.6200     1.3350 H     1 <1>   0.0800 
 21 H        2.1760     1.6860    -2.3960 H     1 <1>   0.0800 
 22 H        1.2850     3.0450    -1.8230 H     1 <1>   0.0800 
 23 H       -2.5460     0.7130    -0.7330 H     1 <1>   0.1500 
 24 H        1.5860     2.3360     2.6400 H     1 <1>   0.0800 
 25 H        0.8500     3.1790     1.3040 H     1 <1>   0.0800 
 26 H        2.7420    -0.5750     1.2380 H     1 <1>   0.0800 
 27 H        3.5100     0.8690     1.8140 H     1 <1>   0.0800 
 28 H        3.6310     3.4290    -1.7650 H     1 <1>   0.0800 
 29 H       -2.4680    -2.4210     2.2560 H     1 <1>   0.1500 
 30 H       -3.8990    -0.5040     1.0280 H     1 <1>   0.1500 
 31 H        3.2260     0.0740    -0.9930 H     1 <1>   0.4500 
 32 H        2.1510     4.4590     0.0090 H     1 <1>   0.0800 
 33 H        3.8750     4.4830     0.2700 H     1 <1>   0.0800 
 34 H        4.9600     2.2010     0.1500 H     1 <1>   0.0800 
 35 H        4.9550     1.6960    -1.5120 H     1 <1>   0.0800 
 36 H        5.6200    -0.2050     0.7180 H     1 <1>   0.0800 
 37 H        5.5470    -0.5670    -0.9950 H     1 <1>   0.0800 
 38 H        4.5930    -1.5000     0.1340 H     1 <1>   0.0800 
@<TRIPOS>BOND
  1   1   2  2   
  2   1   3  2   
  3   1   4  am  
  4   1   5  1   
  5   4   6  1   
  6   4   7  1   
  7   5   8  1   
  8   5   9  2   
  9   6  10  1   
 10   6  11  1   
 11   6  20  1   
 12   7  12  1   
 13   7  21  1   
 14   7  22  1   
 15   8  13  1   
 16   9  14  1   
 17   9  23  1   
 18  10  15  1   
 19  10  24  1   
 20  10  25  1   
 21  11  16  1   
 22  11  26  1   
 23  11  27  1   
 24  12  17  1   
 25  12  18  1   
 26  12  28  1   
 27  13  14  2   
 28  13  29  1   
 29  14  30  1   
 30  15  17  1   
 31  16  18  1   
 32  16  19  1   
 33  16  31  1   
 34  17  32  1   
 35  17  33  1   
 36  18  34  1   
 37  18  35  1   
 38  19  36  1   
 39  19  37  1   
 40  19  38  1   
@<TRIPOS>SUBSTRUCTURE
  1 ****   4 GROUP 4 **** **** 0

# MOE 2024.06 (io_trps.svl 2023.06)
