@<TRIPOS>MOLECULE
NONAME
53 55 1 0 0 
SMALL
USER_CHARGES


@<TRIPOS>ATOM
  1 O       -0.4150    -0.0980     1.0390 O.3   1 <1>  -0.5600 
  2 C       -1.7750     0.1900     0.9080 C.3   1 <1>   0.1200 
  3 C        0.3540     1.0550     0.9730 C.3   1 <1>   0.1200 
  4 C       -1.9180     1.7130     0.7500 C.3   1 <1>   0.1900 
  5 C       -0.5130     2.0840     0.2560 C.3   1 <1>   0.2890 
  6 N       -3.0390     2.1190    -0.1600 N.3   1 <1>  -0.8100 
  7 N       -0.0970     3.4820     0.5820 N.pl3 1 <1>  -0.8690 
  8 C       -3.1780     3.5940    -0.2690 C.3   1 <1>   0.1100 
  9 C       -4.3330     1.5180     0.2680 C.3   1 <1>   0.1100 
 10 C        0.7170     4.3450    -0.0330 C.ar  1 <1>   0.7710 
 11 C       -4.3450     4.0150    -1.1910 C.3   1 <1>   0.3430 
 12 C       -5.5050     1.9120    -0.6570 C.3   1 <1>   0.3430 
 13 N        0.7540     5.5470     0.4890 N.ar  1 <1>  -0.6200 
 14 N        1.4390     3.9870    -1.1090 N.ar  1 <1>  -0.1790 
 15 N       -5.6480     3.4020    -0.7660 N.4   1 <1>  -0.9590 
 16 C        1.5360     6.4470    -0.0810 C.ar  1 <1>   0.4100 
 17 C        2.2800     4.8680    -1.7000 C.ar  1 <1>   0.2110 
 18 C       -6.7520     3.7700    -1.7040 C.3   1 <1>   0.2630 
 19 N        1.5080     7.6900     0.4630 N.pl3 1 <1>  -0.8380 
 20 C        2.3560     6.1260    -1.1950 C.ar  1 <1>  -0.1430 
 21 C        1.4670     7.8940     1.9400 C.3   1 <1>   0.1290 
 22 C        1.1940     8.9170    -0.3210 C.3   1 <1>   0.1290 
 23 C        3.3350     7.1330    -1.7960 C.3   1 <1>  -0.0970 
 24 H       -2.1220    -0.3280     0.0310 H     1 <1>   0.0800 
 25 H       -2.2850    -0.1730     1.7830 H     1 <1>   0.0800 
 26 H        0.5690     1.3590     1.9830 H     1 <1>   0.0800 
 27 H        1.2640     0.8310     0.4460 H     1 <1>   0.0800 
 28 H       -2.0750     2.1270     1.7310 H     1 <1>   0.0800 
 29 H       -0.4580     1.9020    -0.8040 H     1 <1>   0.0800 
 30 H       -0.5040     3.8560     1.4470 H     1 <1>   0.4000 
 31 H       -3.3240     4.0240     0.7080 H     1 <1>   0.0800 
 32 H       -2.2780     4.0120    -0.6800 H     1 <1>   0.0800 
 33 H       -4.2620     0.4450     0.2520 H     1 <1>   0.0800 
 34 H       -4.5610     1.8160     1.2780 H     1 <1>   0.0800 
 35 H       -4.1120     3.7040    -2.1960 H     1 <1>   0.0800 
 36 H       -4.4290     5.0900    -1.1880 H     1 <1>   0.0800 
 37 H       -6.4170     1.4830    -0.2740 H     1 <1>   0.0800 
 38 H       -5.3250     1.4910    -1.6320 H     1 <1>   0.0800 
 39 H        1.3510     3.0290    -1.4290 H     1 <1>   0.4570 
 40 H       -5.8730     3.7640     0.1710 H     1 <1>   0.4500 
 41 H        2.8680     4.5430    -2.5430 H     1 <1>   0.1500 
 42 H       -6.5420     3.4020    -2.6950 H     1 <1>   0.0800 
 43 H       -6.8630     4.8420    -1.7510 H     1 <1>   0.0800 
 44 H       -7.6850     3.3450    -1.3700 H     1 <1>   0.0800 
 45 H        2.1160     8.7070     2.2170 H     1 <1>   0.0800 
 46 H        1.7940     7.0050     2.4520 H     1 <1>   0.0800 
 47 H        0.4610     8.1220     2.2500 H     1 <1>   0.0800 
 48 H        0.3690     9.4410     0.1320 H     1 <1>   0.0800 
 49 H        0.9160     8.6610    -1.3280 H     1 <1>   0.0800 
 50 H        2.0510     9.5680    -0.3430 H     1 <1>   0.0800 
 51 H        4.0690     6.6470    -2.4140 H     1 <1>   0.0800 
 52 H        3.8580     7.6540    -1.0110 H     1 <1>   0.0800 
 53 H        2.8130     7.8540    -2.3990 H     1 <1>   0.0800 
@<TRIPOS>BOND
  1   1   2  1   
  2   1   3  1   
  3   2   4  1   
  4   2  24  1   
  5   2  25  1   
  6   3   5  1   
  7   3  26  1   
  8   3  27  1   
  9   4   5  1   
 10   4   6  1   
 11   4  28  1   
 12   5   7  1   
 13   5  29  1   
 14   6   8  1   
 15   6   9  1   
 16   7  10  1   
 17   7  30  1   
 18   8  11  1   
 19   8  31  1   
 20   8  32  1   
 21   9  12  1   
 22   9  33  1   
 23   9  34  1   
 24  10  13  ar  
 25  10  14  ar  
 26  11  15  1   
 27  11  35  1   
 28  11  36  1   
 29  12  15  1   
 30  12  37  1   
 31  12  38  1   
 32  13  16  ar  
 33  14  17  ar  
 34  14  39  1   
 35  15  18  1   
 36  15  40  1   
 37  16  19  1   
 38  16  20  ar  
 39  17  20  ar  
 40  17  41  1   
 41  18  42  1   
 42  18  43  1   
 43  18  44  1   
 44  19  21  1   
 45  19  22  1   
 46  20  23  1   
 47  21  45  1   
 48  21  46  1   
 49  21  47  1   
 50  22  48  1   
 51  22  49  1   
 52  22  50  1   
 53  23  51  1   
 54  23  52  1   
 55  23  53  1   
@<TRIPOS>SUBSTRUCTURE
  1 ****   7 GROUP 4 **** **** 0

# MOE 2024.06 (io_trps.svl 2023.06)
