@<TRIPOS>MOLECULE
NONAME
34 36 1 0 0 
SMALL
USER_CHARGES


@<TRIPOS>ATOM
  1 F        1.1330    -2.1810     2.2070 F     1 <1>  -0.1900 
  2 C        1.7400    -2.0220     1.0610 C.ar  1 <1>   0.1900 
  3 C        1.0860    -2.3670    -0.1120 C.ar  1 <1>  -0.1440 
  4 C        3.0240    -1.5010     1.0820 C.ar  1 <1>  -0.1500 
  5 C        1.7950    -2.1580    -1.2860 C.ar  1 <1>   0.1900 
  6 C       -0.3270    -2.9570    -0.1070 C.3   1 <1>   0.0440 
  7 C        3.6990    -1.3090    -0.1130 C.ar  1 <1>  -0.1500 
  8 F        1.2420    -2.4510    -2.4340 F     1 <1>  -0.1900 
  9 C        3.0800    -1.6400    -1.3080 C.ar  1 <1>  -0.1500 
 10 C       -0.3690    -4.4720     0.0640 C.2   1 <1>   0.5690 
 11 O        0.6670    -5.0990     0.0340 O.2   1 <1>  -0.5700 
 12 N       -1.5740    -5.0820     0.2460 N.am  1 <1>  -0.6600 
 13 C       -2.9130    -4.4290     0.2100 C.3   1 <1>   0.2350 
 14 C       -1.7400    -6.5560     0.3940 C.3   1 <1>   0.2350 
 15 C       -3.8870    -5.5220    -0.1830 C.3   1 <1>  -0.2420 
 16 C       -3.1660    -6.8430    -0.0490 C.3   1 <1>  -0.2420 
 17 C       -5.3210    -5.0770     0.1170 C.2   1 <1>   0.9470 
 18 C       -3.6420    -6.3770    -1.4010 C.3   1 <1>  -0.2000 
 19 C       -3.6500    -8.1890     0.4960 C.2   1 <1>   0.9470 
 20 O       -5.5660    -4.5650     1.2180 O.co2 1 <1>  -0.9000 
 21 O       -6.1600    -5.0580    -0.7940 O.co2 1 <1>  -0.9000 
 22 O       -3.5380    -8.4180     1.7080 O.co2 1 <1>  -0.9000 
 23 O       -3.9970    -9.0790    -0.2940 O.co2 1 <1>  -0.9000 
 24 H        3.4830    -1.2530     2.0220 H     1 <1>   0.1500 
 25 H       -0.8250    -2.7140    -1.0270 H     1 <1>   0.0800 
 26 H       -0.8940    -2.5120     0.6890 H     1 <1>   0.0800 
 27 H        4.6980    -0.9070    -0.1130 H     1 <1>   0.1500 
 28 H        3.5830    -1.5020    -2.2480 H     1 <1>   0.1500 
 29 H       -3.1520    -4.0590     1.1930 H     1 <1>   0.0800 
 30 H       -2.9530    -3.6270    -0.5040 H     1 <1>   0.0800 
 31 H       -1.0320    -7.0920    -0.2130 H     1 <1>   0.0800 
 32 H       -1.6090    -6.8250     1.4290 H     1 <1>   0.0800 
 33 H       -2.9260    -6.0640    -2.1370 H     1 <1>   0.1000 
 34 H       -4.4850    -6.8890    -1.8360 H     1 <1>   0.1000 
@<TRIPOS>BOND
  1   1   2  1   
  2   2   3  ar  
  3   2   4  ar  
  4   3   5  ar  
  5   3   6  1   
  6   4   7  ar  
  7   4  24  1   
  8   5   8  1   
  9   5   9  ar  
 10   6  10  1   
 11   6  25  1   
 12   6  26  1   
 13   7   9  ar  
 14   7  27  1   
 15   9  28  1   
 16  10  11  2   
 17  10  12  am  
 18  12  13  1   
 19  12  14  1   
 20  13  15  1   
 21  13  29  1   
 22  13  30  1   
 23  14  16  1   
 24  14  31  1   
 25  14  32  1   
 26  15  16  1   
 27  15  17  1   
 28  15  18  1   
 29  16  18  1   
 30  16  19  1   
 31  17  20  ar  
 32  17  21  ar  
 33  18  33  1   
 34  18  34  1   
 35  19  22  ar  
 36  19  23  ar  
@<TRIPOS>SUBSTRUCTURE
  1 ****  12 GROUP 4 **** **** 0

# MOE 2024.06 (io_trps.svl 2023.06)
