@<TRIPOS>MOLECULE
NONAME
40 41 1 0 0 
SMALL
USER_CHARGES


@<TRIPOS>ATOM
  1 F        1.5650     1.5940     0.6260 F     1 <1>  -0.3400 
  2 C        1.0670     2.2550    -0.4150 C.3   1 <1>   1.1640 
  3 F       -0.0140     1.5730    -0.7900 F     1 <1>  -0.3400 
  4 F        1.9420     2.1080    -1.4050 F     1 <1>  -0.3400 
  5 C        0.7630     3.7500    -0.0910 C.ar  1 <1>   0.1660 
  6 N        1.7830     4.5740     0.1860 N.ar  1 <1>  -0.6200 
  7 C       -0.5560     4.2010    -0.0890 C.ar  1 <1>  -0.1500 
  8 C        1.4830     5.8320     0.4590 C.ar  1 <1>   0.1600 
  9 C       -0.8440     5.5210     0.1890 C.ar  1 <1>  -0.1500 
 10 C        0.2060     6.3840     0.4620 C.ar  1 <1>   0.0860 
 11 C       -0.0090     7.7860     0.7390 C.2   1 <1>   0.5440 
 12 O       -0.9610     8.1300     1.4090 O.2   1 <1>  -0.5700 
 13 N        0.8650     8.7220     0.2340 N.am  1 <1>  -0.4940 
 14 C        0.8600    10.1300     0.3800 C.2   1 <1>  -0.0880 
 15 N        1.9620    10.8720     0.6790 N.pl3 1 <1>   0.3140 
 16 C       -0.1610    11.0110     0.2480 C.2   1 <1>  -0.1810 
 17 N        1.6770    12.1910     0.7340 N.2   1 <1>  -0.7070 
 18 C        3.3110    10.3670     0.9990 C.3   1 <1>   0.0960 
 19 C        0.4070    12.2590     0.4810 C.2   1 <1>   0.1390 
 20 C       -1.6190    10.7550    -0.0830 C.3   1 <1>  -0.0590 
 21 C        4.0750     9.9720    -0.2740 C.3   1 <1>  -0.1600 
 22 C        5.4370     9.3540     0.0670 C.3   1 <1>  -0.1600 
 23 C        6.1790     8.9290    -1.2030 C.3   1 <1>  -0.2400 
 24 H       -1.3710     3.5310    -0.3020 H     1 <1>   0.1500 
 25 H        2.3140     6.4720     0.7020 H     1 <1>   0.1500 
 26 H       -1.8590     5.8840     0.1970 H     1 <1>   0.1500 
 27 H        1.5920     8.3600    -0.3820 H     1 <1>   0.3700 
 28 H        3.2060     9.5230     1.6550 H     1 <1>   0.0800 
 29 H        3.8430    11.1400     1.5230 H     1 <1>   0.0800 
 30 H       -0.1380    13.1870     0.4550 H     1 <1>   0.1500 
 31 H       -1.7250     9.8220    -0.6050 H     1 <1>   0.0800 
 32 H       -2.0050    11.5430    -0.7030 H     1 <1>   0.0800 
 33 H       -2.1920    10.7080     0.8260 H     1 <1>   0.0800 
 34 H        4.2220    10.8520    -0.8780 H     1 <1>   0.0800 
 35 H        3.4990     9.2640    -0.8410 H     1 <1>   0.0800 
 36 H        5.3020     8.4930     0.7000 H     1 <1>   0.0800 
 37 H        6.0360    10.0710     0.6030 H     1 <1>   0.0800 
 38 H        5.6150     8.1890    -1.7430 H     1 <1>   0.0800 
 39 H        7.1350     8.5080    -0.9470 H     1 <1>   0.0800 
 40 H        6.3420     9.7770    -1.8460 H     1 <1>   0.0800 
@<TRIPOS>BOND
  1   1   2  1   
  2   2   3  1   
  3   2   4  1   
  4   2   5  1   
  5   5   6  ar  
  6   5   7  ar  
  7   6   8  ar  
  8   7   9  ar  
  9   7  24  1   
 10   8  10  ar  
 11   8  25  1   
 12   9  10  ar  
 13   9  26  1   
 14  10  11  1   
 15  11  12  2   
 16  11  13  am  
 17  13  14  1   
 18  13  27  1   
 19  14  15  1   
 20  14  16  2   
 21  15  17  1   
 22  15  18  1   
 23  16  19  1   
 24  16  20  1   
 25  17  19  2   
 26  18  21  1   
 27  18  28  1   
 28  18  29  1   
 29  19  30  1   
 30  20  31  1   
 31  20  32  1   
 32  20  33  1   
 33  21  22  1   
 34  21  34  1   
 35  21  35  1   
 36  22  23  1   
 37  22  36  1   
 38  22  37  1   
 39  23  38  1   
 40  23  39  1   
 41  23  40  1   
@<TRIPOS>SUBSTRUCTURE
  1 ****  10 GROUP 4 **** **** 0

# MOE 2024.06 (io_trps.svl 2023.06)
