@<TRIPOS>MOLECULE
NONAME
49 52 1 0 0 
SMALL
USER_CHARGES


@<TRIPOS>ATOM
  1 O       -1.6040    -0.6500     0.6330 O.3   1 <1>  -0.3630 
  2 C       -2.2920     0.4490     0.2180 C.ar  1 <1>   0.0830 
  3 C       -0.4180    -0.5160     1.3930 C.3   1 <1>   0.0400 
  4 C       -3.2910     0.2620    -0.7390 C.ar  1 <1>  -0.1440 
  5 C       -2.0410     1.7270     0.7150 C.ar  1 <1>  -0.1500 
  6 C       -4.0320     1.3430    -1.1980 C.ar  1 <1>  -0.1500 
  7 C       -3.5760    -1.1240    -1.2780 C.3   1 <1>   0.4870 
  8 C       -2.7900     2.7890     0.2490 C.ar  1 <1>  -0.1440 
  9 C       -3.7690     2.6010    -0.6930 C.ar  1 <1>  -0.1440 
 10 N       -3.9850    -1.9880    -0.1440 N.4   1 <1>  -0.9590 
 11 C       -2.6830     4.2400     0.6480 C.3   1 <1>  -0.0170 
 12 C       -4.4450     3.9030    -1.0480 C.3   1 <1>  -0.0170 
 13 C       -4.0130    -3.4310    -0.5390 C.3   1 <1>   0.3430 
 14 C       -5.2590    -1.5290     0.4760 C.3   1 <1>   0.3430 
 15 C       -3.5320     4.9650    -0.4110 C.3   1 <1>  -0.1600 
 16 C       -4.3480    -4.3520     0.6490 C.3   1 <1>   0.1000 
 17 C       -5.5730    -2.3920     1.7010 C.3   1 <1>  -0.1600 
 18 C       -4.4970    -5.7760     0.1380 C.2   1 <1>   0.0060 
 19 C       -5.6360    -3.8880     1.3510 C.3   1 <1>  -0.1600 
 20 N       -4.5640    -6.0740    -1.1200 N.2   1 <1>  -0.5650 
 21 N       -4.5710    -6.8550     0.9510 N.pl3 1 <1>   0.0330 
 22 C       -4.6890    -7.4160    -1.1310 C.2   1 <1>   0.0770 
 23 C       -4.6950    -7.9090     0.1260 C.2   1 <1>  -0.3020 
 24 H        0.0190    -1.4910     1.5150 H     1 <1>   0.0800 
 25 H       -0.6610    -0.1040     2.3570 H     1 <1>   0.0800 
 26 H        0.2670     0.1250     0.8650 H     1 <1>   0.0800 
 27 H       -1.2840     1.9150     1.4530 H     1 <1>   0.1500 
 28 H       -4.8030     1.2250    -1.9390 H     1 <1>   0.1500 
 29 H       -2.6790    -1.5120    -1.7320 H     1 <1>   0.0800 
 30 H       -4.3540    -1.0870    -2.0230 H     1 <1>   0.0800 
 31 H       -3.2300    -1.8360     0.5460 H     1 <1>   0.4500 
 32 H       -1.6630     4.5820     0.6360 H     1 <1>   0.0800 
 33 H       -3.1040     4.3760     1.6290 H     1 <1>   0.0800 
 34 H       -5.4250     3.9340    -0.6070 H     1 <1>   0.0800 
 35 H       -4.5180     4.0360    -2.1130 H     1 <1>   0.0800 
 36 H       -3.0620    -3.7260    -0.9490 H     1 <1>   0.0800 
 37 H       -4.7600    -3.5800    -1.3020 H     1 <1>   0.0800 
 38 H       -6.0630    -1.6120    -0.2380 H     1 <1>   0.0800 
 39 H       -5.1750    -0.4960     0.7750 H     1 <1>   0.0800 
 40 H       -2.8760     5.3570    -1.1700 H     1 <1>   0.0800 
 41 H       -4.0960     5.7750     0.0150 H     1 <1>   0.0800 
 42 H       -3.5250    -4.3230     1.3410 H     1 <1>   0.0800 
 43 H       -6.5190    -2.0830     2.1100 H     1 <1>   0.0800 
 44 H       -4.8260    -2.2190     2.4570 H     1 <1>   0.0800 
 45 H       -5.7940    -4.4630     2.2470 H     1 <1>   0.0800 
 46 H       -6.4750    -4.0650     0.6980 H     1 <1>   0.0800 
 47 H       -4.5420    -6.8770     1.9750 H     1 <1>   0.2700 
 48 H       -4.7700    -7.9660    -2.0550 H     1 <1>   0.1500 
 49 H       -4.7790    -8.9260     0.4650 H     1 <1>   0.1500 
@<TRIPOS>BOND
  1   1   2  1   
  2   1   3  1   
  3   2   4  ar  
  4   2   5  ar  
  5   3  24  1   
  6   3  25  1   
  7   3  26  1   
  8   4   6  ar  
  9   4   7  1   
 10   5   8  ar  
 11   5  27  1   
 12   6   9  ar  
 13   6  28  1   
 14   7  10  1   
 15   7  29  1   
 16   7  30  1   
 17   8   9  ar  
 18   8  11  1   
 19   9  12  1   
 20  10  13  1   
 21  10  14  1   
 22  10  31  1   
 23  11  15  1   
 24  11  32  1   
 25  11  33  1   
 26  12  15  1   
 27  12  34  1   
 28  12  35  1   
 29  13  16  1   
 30  13  36  1   
 31  13  37  1   
 32  14  17  1   
 33  14  38  1   
 34  14  39  1   
 35  15  40  1   
 36  15  41  1   
 37  16  18  1   
 38  16  19  1   
 39  16  42  1   
 40  17  19  1   
 41  17  43  1   
 42  17  44  1   
 43  18  20  2   
 44  18  21  1   
 45  19  45  1   
 46  19  46  1   
 47  20  22  1   
 48  21  23  1   
 49  21  47  1   
 50  22  23  2   
 51  22  48  1   
 52  23  49  1   
@<TRIPOS>SUBSTRUCTURE
  1 ****  10 GROUP 4 **** **** 0

# MOE 2024.06 (io_trps.svl 2023.06)
