@<TRIPOS>MOLECULE
NONAME
51 53 1 0 0 
SMALL
USER_CHARGES


@<TRIPOS>ATOM
  1 O        0.3220    -0.0270    -0.9550 O.3   1 <1>  -0.5600 
  2 C        1.6050    -0.5990    -1.0620 C.3   1 <1>   0.2000 
  3 C        0.2780     1.3670    -1.0290 C.3   1 <1>   0.1200 
  4 C        2.5730    -0.0140     0.0020 C.3   1 <1>   0.5660 
  5 C        1.4750    -2.1220    -0.8890 C.3   1 <1>   0.1200 
  6 C        1.1010     1.9830     0.1150 C.3   1 <1>   0.3430 
  7 N        2.5140     1.4790     0.1070 N.4   1 <1>  -0.9590 
  8 C        4.0160    -0.4000    -0.2930 C.ar  1 <1>  -0.1440 
  9 O        1.2640    -2.4380     0.4510 O.3   1 <1>  -0.6800 
 10 C        3.2920     1.9660     1.2750 C.3   1 <1>   0.4870 
 11 C        4.6810     0.0670    -1.4220 C.ar  1 <1>  -0.1500 
 12 C        4.6850    -1.2330     0.5920 C.ar  1 <1>  -0.1500 
 13 C        3.5180     3.4520     1.0870 C.ar  1 <1>  -0.1440 
 14 C        6.0000    -0.2850    -1.6490 C.ar  1 <1>  -0.1500 
 15 C        6.0030    -1.5830     0.3630 C.ar  1 <1>  -0.1500 
 16 C        2.7270     4.3760     1.7540 C.ar  1 <1>  -0.1500 
 17 C        4.5200     3.8970     0.2360 C.ar  1 <1>  -0.1500 
 18 C        6.6620    -1.1080    -0.7560 C.ar  1 <1>  -0.1500 
 19 C        2.9270     5.7300     1.5550 C.ar  1 <1>  -0.1500 
 20 C        4.7200     5.2520     0.0390 C.ar  1 <1>  -0.1500 
 21 C        3.9180     6.1780     0.6980 C.ar  1 <1>   0.0820 
 22 O        4.0420     7.5200     0.5610 O.3   1 <1>  -0.3620 
 23 C        5.0790     8.0900    -0.2090 C.3   1 <1>   0.1200 
 24 C        4.9490     9.6100    -0.1450 C.3   1 <1>   0.1200 
 25 O        6.0070    10.1900    -0.8320 O.3   1 <1>  -0.6800 
 26 H        1.9670    -0.3940    -2.0540 H     1 <1>   0.0800 
 27 H        0.6450     1.6810    -1.9910 H     1 <1>   0.0800 
 28 H       -0.7540     1.6640    -0.9430 H     1 <1>   0.0800 
 29 H        2.2930    -0.4370     0.9530 H     1 <1>   0.0800 
 30 H        2.3770    -2.6180    -1.2060 H     1 <1>   0.0800 
 31 H        0.6460    -2.4920    -1.4700 H     1 <1>   0.0800 
 32 H        0.6260     1.7270     1.0480 H     1 <1>   0.0800 
 33 H        1.0940     3.0570     0.0220 H     1 <1>   0.0800 
 34 H        2.9870     1.8540    -0.7190 H     1 <1>   0.4500 
 35 H        0.9420    -3.3600     0.5410 H     1 <1>   0.4000 
 36 H        2.7590     1.7770     2.1920 H     1 <1>   0.0800 
 37 H        4.2490     1.4700     1.3250 H     1 <1>   0.0800 
 38 H        4.1940     0.7010    -2.1420 H     1 <1>   0.1500 
 39 H        4.1890    -1.6240     1.4670 H     1 <1>   0.1500 
 40 H        6.5180     0.0750    -2.5220 H     1 <1>   0.1500 
 41 H        6.5200    -2.2300     1.0530 H     1 <1>   0.1500 
 42 H        1.9530     4.0620     2.4340 H     1 <1>   0.1500 
 43 H        5.1590     3.1980    -0.2790 H     1 <1>   0.1500 
 44 H        7.6880    -1.3820    -0.9330 H     1 <1>   0.1500 
 45 H        2.3180     6.4550     2.0670 H     1 <1>   0.1500 
 46 H        5.5020     5.5690    -0.6270 H     1 <1>   0.1500 
 47 H        6.0180     7.7710     0.2070 H     1 <1>   0.0800 
 48 H        4.9730     7.7530    -1.2250 H     1 <1>   0.0800 
 49 H        4.9750     9.9590     0.8730 H     1 <1>   0.0800 
 50 H        4.0360     9.9270    -0.6180 H     1 <1>   0.0800 
 51 H        6.8410    10.1020    -0.3310 H     1 <1>   0.4000 
@<TRIPOS>BOND
  1   1   2  1   
  2   1   3  1   
  3   2   4  1   
  4   2   5  1   
  5   2  26  1   
  6   3   6  1   
  7   3  27  1   
  8   3  28  1   
  9   4   7  1   
 10   4   8  1   
 11   4  29  1   
 12   5   9  1   
 13   5  30  1   
 14   5  31  1   
 15   6   7  1   
 16   6  32  1   
 17   6  33  1   
 18   7  10  1   
 19   7  34  1   
 20   8  11  ar  
 21   8  12  ar  
 22   9  35  1   
 23  10  13  1   
 24  10  36  1   
 25  10  37  1   
 26  11  14  ar  
 27  11  38  1   
 28  12  15  ar  
 29  12  39  1   
 30  13  16  ar  
 31  13  17  ar  
 32  14  18  ar  
 33  14  40  1   
 34  15  18  ar  
 35  15  41  1   
 36  16  19  ar  
 37  16  42  1   
 38  17  20  ar  
 39  17  43  1   
 40  18  44  1   
 41  19  21  ar  
 42  19  45  1   
 43  20  21  ar  
 44  20  46  1   
 45  21  22  1   
 46  22  23  1   
 47  23  24  1   
 48  23  47  1   
 49  23  48  1   
 50  24  25  1   
 51  24  49  1   
 52  24  50  1   
 53  25  51  1   
@<TRIPOS>SUBSTRUCTURE
  1 ****  10 GROUP 4 **** **** 0

# MOE 2024.06 (io_trps.svl 2023.06)
