@<TRIPOS>MOLECULE
NONAME
50 54 1 0 0 
SMALL
USER_CHARGES


@<TRIPOS>ATOM
  1 O       -1.5380    -0.2770    -1.1120 O.2   1 <1>  -0.5700 
  2 C       -1.8040    -1.4240    -0.8710 C.2   1 <1>   0.4230 
  3 C       -2.4700    -1.9530     0.2780 C.ar  1 <1>   0.0860 
  4 C       -1.4630    -2.5560    -1.8150 C.3   1 <1>  -0.0990 
  5 C       -2.6080    -3.3230     0.1780 C.ar  1 <1>  -0.1440 
  6 C       -2.9580    -1.2910     1.3970 C.ar  1 <1>  -0.1500 
  7 C       -1.9940    -3.8270    -1.1190 C.3   1 <1>  -0.0160 
  8 C       -3.2340    -4.0810     1.1660 C.ar  1 <1>   0.0860 
  9 C       -3.5740    -2.0150     2.4010 C.ar  1 <1>  -0.1500 
 10 C       -3.3990    -5.5200     1.0530 C.2   1 <1>   0.5440 
 11 C       -3.7060    -3.3890     2.2850 C.ar  1 <1>  -0.1500 
 12 O       -2.4400    -6.2190     0.7900 O.2   1 <1>  -0.5700 
 13 N       -4.6290    -6.1180     1.2170 N.am  1 <1>  -0.6600 
 14 C       -4.7870    -7.6060     1.3140 C.3   1 <1>   0.1400 
 15 C       -5.9290    -5.4180     0.9830 C.3   1 <1>   0.1400 
 16 C       -5.6290    -8.1530     0.1470 C.3   1 <1>   0.3430 
 17 C       -6.7060    -6.0820    -0.1710 C.3   1 <1>   0.2950 
 18 O       -6.8440    -7.4530     0.0570 O.3   1 <1>  -0.5600 
 19 C       -5.9060    -9.6420     0.3380 C.ar  1 <1>  -0.1430 
 20 C       -8.1120    -5.4930    -0.3110 C.3   1 <1>  -0.1950 
 21 C       -5.0100   -10.5740    -0.1680 C.ar  1 <1>  -0.1500 
 22 C       -7.0290   -10.0910     1.0210 C.ar  1 <1>  -0.1500 
 23 C       -8.8640    -5.5820    -1.6010 C.3   1 <1>  -0.2000 
 24 C       -8.3550    -4.2530    -1.1150 C.3   1 <1>  -0.2000 
 25 C       -5.2320   -11.9290     0.0060 C.ar  1 <1>  -0.1500 
 26 C       -7.2520   -11.4460     1.1950 C.ar  1 <1>  -0.1500 
 27 C       -6.3530   -12.3660     0.6880 C.ar  1 <1>  -0.1500 
 28 H       -1.9450    -2.3980    -2.7620 H     1 <1>   0.0800 
 29 H       -0.3980    -2.6050    -1.9530 H     1 <1>   0.0800 
 30 H       -2.8450    -0.2220     1.4670 H     1 <1>   0.1500 
 31 H       -1.1890    -4.5120    -0.9110 H     1 <1>   0.0800 
 32 H       -2.7350    -4.3190    -1.7250 H     1 <1>   0.0800 
 33 H       -3.9490    -1.5080     3.2750 H     1 <1>   0.1500 
 34 H       -4.1810    -3.9450     3.0760 H     1 <1>   0.1500 
 35 H       -3.8280    -8.0940     1.3160 H     1 <1>   0.0800 
 36 H       -5.2750    -7.8500     2.2410 H     1 <1>   0.0800 
 37 H       -6.5210    -5.4610     1.8810 H     1 <1>   0.0800 
 38 H       -5.7700    -4.3830     0.7390 H     1 <1>   0.0800 
 39 H       -5.0960    -8.0110    -0.7770 H     1 <1>   0.0800 
 40 H       -6.1690    -5.9490    -1.0950 H     1 <1>   0.0800 
 41 H       -8.6870    -5.6090     0.5930 H     1 <1>   0.1000 
 42 H       -4.1320   -10.2500    -0.6990 H     1 <1>   0.1500 
 43 H       -7.7370    -9.3830     1.4170 H     1 <1>   0.1500 
 44 H       -8.3870    -6.0530    -2.4430 H     1 <1>   0.1000 
 45 H       -9.9210    -5.7850    -1.5620 H     1 <1>   0.1000 
 46 H       -9.0700    -3.5320    -0.7560 H     1 <1>   0.1000 
 47 H       -7.5440    -3.7960    -1.6540 H     1 <1>   0.1000 
 48 H       -4.5320   -12.6440    -0.3900 H     1 <1>   0.1500 
 49 H       -8.1260   -11.7820     1.7240 H     1 <1>   0.1500 
 50 H       -6.5260   -13.4200     0.8230 H     1 <1>   0.1500 
@<TRIPOS>BOND
  1   1   2  2   
  2   2   3  1   
  3   2   4  1   
  4   3   5  ar  
  5   3   6  ar  
  6   4   7  1   
  7   4  28  1   
  8   4  29  1   
  9   5   7  1   
 10   5   8  ar  
 11   6   9  ar  
 12   6  30  1   
 13   7  31  1   
 14   7  32  1   
 15   8  10  1   
 16   8  11  ar  
 17   9  11  ar  
 18   9  33  1   
 19  10  12  2   
 20  10  13  am  
 21  11  34  1   
 22  13  14  1   
 23  13  15  1   
 24  14  16  1   
 25  14  35  1   
 26  14  36  1   
 27  15  17  1   
 28  15  37  1   
 29  15  38  1   
 30  16  18  1   
 31  16  19  1   
 32  16  39  1   
 33  17  18  1   
 34  17  20  1   
 35  17  40  1   
 36  19  21  ar  
 37  19  22  ar  
 38  20  23  1   
 39  20  24  1   
 40  20  41  1   
 41  21  25  ar  
 42  21  42  1   
 43  22  26  ar  
 44  22  43  1   
 45  23  24  1   
 46  23  44  1   
 47  23  45  1   
 48  24  46  1   
 49  24  47  1   
 50  25  27  ar  
 51  25  48  1   
 52  26  27  ar  
 53  26  49  1   
 54  27  50  1   
@<TRIPOS>SUBSTRUCTURE
  1 ****  13 GROUP 4 **** **** 0

# MOE 2024.06 (io_trps.svl 2023.06)
