@<TRIPOS>MOLECULE
NONAME
45 47 1 0 0 
SMALL
USER_CHARGES


@<TRIPOS>ATOM
  1 F        0.1440    -1.7720    -0.6070 F     1 <1>  -0.1900 
  2 C       -0.8390    -2.5570    -0.2440 C.ar  1 <1>   0.1900 
  3 C       -2.1050    -2.2960    -0.7060 C.ar  1 <1>  -0.1500 
  4 C       -0.5400    -3.6280     0.6030 C.ar  1 <1>  -0.1500 
  5 C       -3.1360    -3.1500    -0.3020 C.ar  1 <1>   0.0000 
  6 C       -1.5540    -4.4690     1.0020 C.ar  1 <1>  -0.1500 
  7 C       -2.8530    -4.2210     0.5450 C.ar  1 <1>  -0.1520 
  8 C       -4.5220    -3.2040    -0.5670 C.2   1 <1>  -0.1500 
  9 N       -4.0250    -4.8940     0.7850 N.pl3 1 <1>   0.0330 
 10 C       -5.0290    -4.2670     0.1040 C.2   1 <1>  -0.3320 
 11 C       -6.4480    -4.7910     0.1720 C.3   1 <1>   0.2900 
 12 N       -6.4310    -6.2570     0.0490 N.3   1 <1>  -0.8100 
 13 C       -7.7390    -6.8380     0.4740 C.3   1 <1>   0.1710 
 14 C       -6.0340    -6.6760    -1.3060 C.3   1 <1>   0.0300 
 15 C       -7.7520    -8.3520     0.7340 C.2   1 <1>   0.5690 
 16 O       -7.7630    -8.7520     1.8740 O.2   1 <1>  -0.5700 
 17 N       -7.8040    -9.2140    -0.3190 N.am  1 <1>  -0.7300 
 18 C       -7.7760   -10.6990    -0.2010 C.3   1 <1>   0.1400 
 19 C       -9.0580   -11.2560     0.4370 C.3   1 <1>   0.2000 
 20 O       -9.0750   -12.6370     0.2950 O.3   1 <1>  -0.5600 
 21 C      -10.3590   -10.8070    -0.2190 C.3   1 <1>  -0.1600 
 22 C      -10.3700   -13.1100     0.4710 C.3   1 <1>   0.1200 
 23 C      -11.2960   -11.9790     0.0290 C.3   1 <1>  -0.1600 
 24 H       -2.3070    -1.4670    -1.3560 H     1 <1>   0.1500 
 25 H        0.4740    -3.7750     0.9270 H     1 <1>   0.1500 
 26 H       -1.3630    -5.3040     1.6530 H     1 <1>   0.1500 
 27 H       -5.0390    -2.5030    -1.1970 H     1 <1>   0.1500 
 28 H       -4.1440    -5.7670     1.3110 H     1 <1>   0.2700 
 29 H       -7.0520    -4.3520    -0.6040 H     1 <1>   0.0800 
 30 H       -6.8620    -4.5130     1.1270 H     1 <1>   0.0800 
 31 H       -8.4910    -6.6080    -0.2580 H     1 <1>   0.0800 
 32 H       -8.0370    -6.3740     1.3980 H     1 <1>   0.0800 
 33 H       -5.1040    -6.2100    -1.5850 H     1 <1>   0.0800 
 34 H       -6.7870    -6.4000    -2.0240 H     1 <1>   0.0800 
 35 H       -5.8810    -7.7400    -1.3340 H     1 <1>   0.0800 
 36 H       -7.7600    -8.8440    -1.2680 H     1 <1>   0.3700 
 37 H       -6.9350   -10.9860     0.4070 H     1 <1>   0.0800 
 38 H       -7.6570   -11.1260    -1.1810 H     1 <1>   0.0800 
 39 H       -9.0710   -11.0390     1.4920 H     1 <1>   0.0800 
 40 H      -10.2070   -10.6700    -1.2750 H     1 <1>   0.0800 
 41 H      -10.7180    -9.8900     0.2120 H     1 <1>   0.0800 
 42 H      -10.5020   -13.3380     1.5150 H     1 <1>   0.0800 
 43 H      -10.4960   -14.0000    -0.1220 H     1 <1>   0.0800 
 44 H      -11.8330   -12.2480    -0.8630 H     1 <1>   0.0800 
 45 H      -12.0000   -11.7590     0.8120 H     1 <1>   0.0800 
@<TRIPOS>BOND
  1   1   2  1   
  2   2   3  ar  
  3   2   4  ar  
  4   3   5  ar  
  5   3  24  1   
  6   4   6  ar  
  7   4  25  1   
  8   5   7  ar  
  9   5   8  1   
 10   6   7  ar  
 11   6  26  1   
 12   7   9  1   
 13   8  10  2   
 14   8  27  1   
 15   9  10  1   
 16   9  28  1   
 17  10  11  1   
 18  11  12  1   
 19  11  29  1   
 20  11  30  1   
 21  12  13  1   
 22  12  14  1   
 23  13  15  1   
 24  13  31  1   
 25  13  32  1   
 26  14  33  1   
 27  14  34  1   
 28  14  35  1   
 29  15  16  2   
 30  15  17  am  
 31  17  18  1   
 32  17  36  1   
 33  18  19  1   
 34  18  37  1   
 35  18  38  1   
 36  19  20  1   
 37  19  21  1   
 38  19  39  1   
 39  20  22  1   
 40  21  23  1   
 41  21  40  1   
 42  21  41  1   
 43  22  23  1   
 44  22  42  1   
 45  22  43  1   
 46  23  44  1   
 47  23  45  1   
@<TRIPOS>SUBSTRUCTURE
  1 ****  12 GROUP 4 **** **** 0

# MOE 2024.06 (io_trps.svl 2023.06)
