@<TRIPOS>MOLECULE
NONAME
54 56 1 0 0 
SMALL
USER_CHARGES


@<TRIPOS>ATOM
  1 O       -0.0910    -0.5080    -0.3470 O.3   1 <1>  -0.0190 
  2 N       -0.4520    -1.7310    -0.6020 N.2   1 <1>  -0.4100 
  3 C        1.1770    -0.3070    -0.5950 C.2   1 <1>  -0.0400 
  4 C        0.6050    -2.3340    -1.0230 C.2   1 <1>   0.1080 
  5 C        1.6940    -1.4640    -1.0410 C.2   1 <1>  -0.1500 
  6 C        1.7760     1.0730    -0.3550 C.3   1 <1>   0.1000 
  7 C        0.6250    -3.8000    -1.4320 C.3   1 <1>   0.5240 
  8 C        1.1690     2.0890    -1.3290 C.3   1 <1>  -0.2400 
  9 C        3.3020     1.0570    -0.4990 C.3   1 <1>  -0.2400 
 10 N       -0.4490    -4.5350    -0.6980 N.4   1 <1>  -0.9590 
 11 C       -0.8130    -5.8170    -1.3940 C.3   1 <1>   0.3430 
 12 C       -0.0920    -4.6920     0.7380 C.3   1 <1>   0.3430 
 13 C       -1.5560    -6.8610    -0.5250 C.3   1 <1>   0.0000 
 14 C       -1.2850    -5.2380     1.5200 C.3   1 <1>  -0.1600 
 15 C       -2.2030    -6.1450     0.6890 C.3   1 <1>   0.2000 
 16 C       -2.7130    -7.4350    -1.3760 C.3   1 <1>   0.1200 
 17 C       -0.6130    -8.0530    -0.1610 C.3   1 <1>  -0.0170 
 18 O       -2.8140    -7.0540     1.5290 O.3   1 <1>  -0.6800 
 19 O       -2.2410    -7.7930    -2.6330 O.3   1 <1>  -0.6800 
 20 C        0.7210    -7.6900     0.4810 C.ar  1 <1>  -0.1440 
 21 C        0.8630    -7.6910     1.8610 C.ar  1 <1>  -0.1500 
 22 C        1.8180    -7.3750    -0.3090 C.ar  1 <1>  -0.1500 
 23 C        2.0660    -7.3300     2.4430 C.ar  1 <1>  -0.1500 
 24 C        3.0220    -7.0160     0.2710 C.ar  1 <1>  -0.1500 
 25 C        3.1440    -6.9850     1.6480 C.ar  1 <1>  -0.1500 
 26 H        2.7020    -1.6820    -1.3440 H     1 <1>   0.1500 
 27 H        1.5330     1.3730     0.6510 H     1 <1>   0.0800 
 28 H        1.5870    -4.2330    -1.2150 H     1 <1>   0.0800 
 29 H        0.4500    -3.8590    -2.4930 H     1 <1>   0.0800 
 30 H        1.3790     1.8080    -2.3450 H     1 <1>   0.0800 
 31 H        1.5730     3.0690    -1.1490 H     1 <1>   0.0800 
 32 H        0.1020     2.1340    -1.2000 H     1 <1>   0.0800 
 33 H        3.5870     0.7810    -1.4990 H     1 <1>   0.0800 
 34 H        3.7330     0.3560     0.1940 H     1 <1>   0.0800 
 35 H        3.7040     2.0320    -0.2860 H     1 <1>   0.0800 
 36 H       -1.2510    -3.8840    -0.7210 H     1 <1>   0.4500 
 37 H       -1.4340    -5.5750    -2.2420 H     1 <1>   0.0800 
 38 H        0.0720    -6.2830    -1.7890 H     1 <1>   0.0800 
 39 H        0.7480    -5.3590     0.8330 H     1 <1>   0.0800 
 40 H        0.1970    -3.7410     1.1580 H     1 <1>   0.0800 
 41 H       -1.8660    -4.4050     1.8740 H     1 <1>   0.0800 
 42 H       -0.9140    -5.7480     2.3900 H     1 <1>   0.0800 
 43 H       -2.9950    -5.5190     0.3110 H     1 <1>   0.0800 
 44 H       -3.4950    -6.7070    -1.5180 H     1 <1>   0.0800 
 45 H       -3.1380    -8.3080    -0.9070 H     1 <1>   0.0800 
 46 H       -1.1320    -8.7470     0.4770 H     1 <1>   0.0800 
 47 H       -0.3850    -8.6070    -1.0560 H     1 <1>   0.0800 
 48 H       -2.1590    -7.5640     2.0440 H     1 <1>   0.4000 
 49 H       -2.9290    -8.2800    -3.1370 H     1 <1>   0.4000 
 50 H        0.0440    -7.9770     2.4980 H     1 <1>   0.1500 
 51 H        1.7520    -7.4230    -1.3820 H     1 <1>   0.1500 
 52 H        2.1690    -7.3280     3.5150 H     1 <1>   0.1500 
 53 H        3.8720    -6.7750    -0.3460 H     1 <1>   0.1500 
 54 H        4.0810    -6.7100     2.1020 H     1 <1>   0.1500 
@<TRIPOS>BOND
  1   1   2  1   
  2   1   3  1   
  3   2   4  2   
  4   3   5  2   
  5   3   6  1   
  6   4   5  1   
  7   4   7  1   
  8   5  26  1   
  9   6   8  1   
 10   6   9  1   
 11   6  27  1   
 12   7  10  1   
 13   7  28  1   
 14   7  29  1   
 15   8  30  1   
 16   8  31  1   
 17   8  32  1   
 18   9  33  1   
 19   9  34  1   
 20   9  35  1   
 21  10  11  1   
 22  10  12  1   
 23  10  36  1   
 24  11  13  1   
 25  11  37  1   
 26  11  38  1   
 27  12  14  1   
 28  12  39  1   
 29  12  40  1   
 30  13  15  1   
 31  13  16  1   
 32  13  17  1   
 33  14  15  1   
 34  14  41  1   
 35  14  42  1   
 36  15  18  1   
 37  15  43  1   
 38  16  19  1   
 39  16  44  1   
 40  16  45  1   
 41  17  20  1   
 42  17  46  1   
 43  17  47  1   
 44  18  48  1   
 45  19  49  1   
 46  20  21  ar  
 47  20  22  ar  
 48  21  23  ar  
 49  21  50  1   
 50  22  24  ar  
 51  22  51  1   
 52  23  25  ar  
 53  23  52  1   
 54  24  25  ar  
 55  24  53  1   
 56  25  54  1   
@<TRIPOS>SUBSTRUCTURE
  1 ****  10 GROUP 4 **** **** 0

# MOE 2024.06 (io_trps.svl 2023.06)
