@<TRIPOS>MOLECULE
NONAME
61 64 1 0 0 
SMALL
USER_CHARGES


@<TRIPOS>ATOM
  1 O        0.6910    -0.7960    -0.6510 O.3   1 <1>  -0.3630 
  2 C        0.4210    -2.0600    -0.2340 C.ar  1 <1>   0.0820 
  3 C        0.3200     0.3380     0.1010 C.3   1 <1>   0.1200 
  4 C        0.8750    -3.1120    -1.0230 C.ar  1 <1>  -0.1440 
  5 C       -0.2830    -2.3310     0.9370 C.ar  1 <1>  -0.1500 
  6 C        0.8040     1.5820    -0.6440 C.3   1 <1>  -0.1600 
  7 C        0.6100    -4.4180    -0.6370 C.ar  1 <1>  -0.1500 
  8 C        1.6510    -2.8500    -2.3100 C.3   1 <1>   0.2640 
  9 C       -0.5390    -3.6370     1.3120 C.ar  1 <1>  -0.1500 
 10 C        0.4370     2.8630     0.1130 C.3   1 <1>  -0.2400 
 11 C       -0.0990    -4.6890     0.5240 C.ar  1 <1>  -0.1440 
 12 O        2.7630    -3.6750    -2.3330 O.3   1 <1>  -0.6800 
 13 C       -0.3920    -6.1210     0.9220 C.3   1 <1>   0.4860 
 14 N       -1.3860    -6.6830    -0.0330 N.4   1 <1>  -0.9590 
 15 C       -2.7110    -5.9990     0.1240 C.3   1 <1>   0.3430 
 16 C       -1.6140    -8.1370     0.2310 C.3   1 <1>   0.3430 
 17 C       -3.5460    -6.9200     1.0160 C.3   1 <1>   0.2000 
 18 C       -3.1060    -8.3040     0.5410 C.3   1 <1>  -0.0800 
 19 O       -3.1520    -6.7250     2.3380 O.3   1 <1>  -0.6800 
 20 C       -3.4000    -9.4870     1.4890 C.3   1 <1>  -0.0170 
 21 C       -2.7190   -10.7530     0.9800 C.ar  1 <1>  -0.1440 
 22 C       -3.1790   -11.4630    -0.1560 C.ar  1 <1>   0.0000 
 23 C       -1.6060   -11.2280     1.6130 C.ar  1 <1>  -0.1500 
 24 C       -2.4090   -12.5670    -0.5950 C.ar  1 <1>   0.3100 
 25 C       -4.3540   -11.1480    -0.8770 C.ar  1 <1>  -0.1500 
 26 C       -0.9350   -12.3490     1.1120 C.ar  1 <1>   0.1600 
 27 N       -1.2920   -12.9900     0.0470 N.ar  1 <1>  -0.6200 
 28 C       -2.8120   -13.2640    -1.7450 C.ar  1 <1>  -0.1500 
 29 C       -4.7230   -11.8520    -1.9910 C.ar  1 <1>  -0.1500 
 30 C       -3.9400   -12.9200    -2.4370 C.ar  1 <1>  -0.1500 
 31 H       -0.7510     0.3470     0.1980 H     1 <1>   0.0800 
 32 H        0.7850     0.2710     1.0690 H     1 <1>   0.0800 
 33 H       -0.6380    -1.5390     1.5680 H     1 <1>   0.1500 
 34 H        1.8730     1.5330    -0.7590 H     1 <1>   0.0800 
 35 H        0.3530     1.6080    -1.6210 H     1 <1>   0.0800 
 36 H        0.9720    -5.2220    -1.2560 H     1 <1>   0.1500 
 37 H        1.9940    -1.8330    -2.3830 H     1 <1>   0.0800 
 38 H        1.0460    -3.0790    -3.1700 H     1 <1>   0.0800 
 39 H       -1.0830    -3.8220     2.2240 H     1 <1>   0.1500 
 40 H        0.8910     2.8690     1.0890 H     1 <1>   0.0800 
 41 H       -0.6310     2.9430     0.2250 H     1 <1>   0.0800 
 42 H        0.7870     3.7230    -0.4300 H     1 <1>   0.0800 
 43 H        3.3260    -3.4640    -1.5640 H     1 <1>   0.4000 
 44 H       -0.7810    -6.1540     1.9270 H     1 <1>   0.0800 
 45 H        0.5220    -6.6930     0.8880 H     1 <1>   0.0800 
 46 H       -1.0240    -6.5200    -0.9810 H     1 <1>   0.4500 
 47 H       -2.6210    -5.0140     0.5520 H     1 <1>   0.0800 
 48 H       -3.1860    -5.9180    -0.8400 H     1 <1>   0.0800 
 49 H       -1.3330    -8.7420    -0.6170 H     1 <1>   0.0800 
 50 H       -1.0380    -8.4500     1.0870 H     1 <1>   0.0800 
 51 H       -4.6040    -6.7360     0.9280 H     1 <1>   0.0800 
 52 H       -3.5940    -8.4960    -0.3980 H     1 <1>   0.0800 
 53 H       -3.8290    -7.0640     2.9630 H     1 <1>   0.4000 
 54 H       -4.4610    -9.6480     1.5770 H     1 <1>   0.0800 
 55 H       -3.0320    -9.2730     2.4770 H     1 <1>   0.0800 
 56 H       -1.2100   -10.7650     2.4990 H     1 <1>   0.1500 
 57 H       -4.9860   -10.3480    -0.5460 H     1 <1>   0.1500 
 58 H       -0.0630   -12.6970     1.6410 H     1 <1>   0.1500 
 59 H       -2.2000   -14.0890    -2.0630 H     1 <1>   0.1500 
 60 H       -5.6190   -11.6040    -2.5360 H     1 <1>   0.1500 
 61 H       -4.2380   -13.4650    -3.3160 H     1 <1>   0.1500 
@<TRIPOS>BOND
  1   1   2  1   
  2   1   3  1   
  3   2   4  ar  
  4   2   5  ar  
  5   3   6  1   
  6   3  31  1   
  7   3  32  1   
  8   4   7  ar  
  9   4   8  1   
 10   5   9  ar  
 11   5  33  1   
 12   6  10  1   
 13   6  34  1   
 14   6  35  1   
 15   7  11  ar  
 16   7  36  1   
 17   8  12  1   
 18   8  37  1   
 19   8  38  1   
 20   9  11  ar  
 21   9  39  1   
 22  10  40  1   
 23  10  41  1   
 24  10  42  1   
 25  11  13  1   
 26  12  43  1   
 27  13  14  1   
 28  13  44  1   
 29  13  45  1   
 30  14  15  1   
 31  14  16  1   
 32  14  46  1   
 33  15  17  1   
 34  15  47  1   
 35  15  48  1   
 36  16  18  1   
 37  16  49  1   
 38  16  50  1   
 39  17  18  1   
 40  17  19  1   
 41  17  51  1   
 42  18  20  1   
 43  18  52  1   
 44  19  53  1   
 45  20  21  1   
 46  20  54  1   
 47  20  55  1   
 48  21  22  ar  
 49  21  23  ar  
 50  22  24  ar  
 51  22  25  ar  
 52  23  26  ar  
 53  23  56  1   
 54  24  27  ar  
 55  24  28  ar  
 56  25  29  ar  
 57  25  57  1   
 58  26  27  ar  
 59  26  58  1   
 60  28  30  ar  
 61  28  59  1   
 62  29  30  ar  
 63  29  60  1   
 64  30  61  1   
@<TRIPOS>SUBSTRUCTURE
  1 ****  14 GROUP 4 **** **** 0

# MOE 2024.06 (io_trps.svl 2023.06)
