@<TRIPOS>MOLECULE
NONAME
45 47 1 0 0 
SMALL
USER_CHARGES


@<TRIPOS>ATOM
  1 CL       0.9450     3.4520     2.5590 Cl    1 <1>  -0.1770 
  2 C        1.0220     3.5800     0.8180 C.ar  1 <1>   0.1770 
  3 C        1.7940     2.7040     0.0620 C.ar  1 <1>  -0.1440 
  4 C        0.2750     4.5810     0.2260 C.ar  1 <1>  -0.1500 
  5 C        1.7740     2.8460    -1.3220 C.ar  1 <1>  -0.1500 
  6 C        2.6540     1.6190     0.7120 C.3   1 <1>   0.3640 
  7 C        0.2790     4.7180    -1.1500 C.ar  1 <1>  -0.1500 
  8 C        1.0270     3.8450    -1.9220 C.ar  1 <1>  -0.1500 
  9 N        2.2310     0.3060     0.1680 N.am  1 <1>  -0.7300 
 10 C        4.1600     1.8710     0.4410 C.3   1 <1>   0.2610 
 11 C        3.0980    -0.6800    -0.1520 C.2   1 <1>   0.5690 
 12 O        4.9360     0.7160     0.7190 O.3   1 <1>  -0.5600 
 13 C        4.6670     3.0920     1.2240 C.2   1 <1>   0.5690 
 14 O        2.6950    -1.7470    -0.5390 O.2   1 <1>  -0.5700 
 15 C        4.6060    -0.4210    -0.0530 C.3   1 <1>   0.1810 
 16 O        4.1850     3.3200     2.3110 O.2   1 <1>  -0.5700 
 17 N        5.6150     3.9340     0.6820 N.am  1 <1>  -0.6600 
 18 C        5.9210     5.2460     1.3310 C.3   1 <1>   0.1400 
 19 C        6.4460     3.5920    -0.5070 C.3   1 <1>   0.0600 
 20 C        5.1800     6.4080     0.6470 C.3   1 <1>   0.0000 
 21 C        5.8410     6.8980    -0.6510 C.3   1 <1>   0.2580 
 22 C        5.6400     7.7790     1.1710 C.3   1 <1>   0.2580 
 23 C        3.6440     6.2610     0.5660 C.3   1 <1>  -0.2400 
 24 O        5.6760     8.2290    -0.1780 O.3   1 <1>  -0.5160 
 25 H       -0.3050     5.2460     0.8410 H     1 <1>   0.1500 
 26 H        2.3380     2.1740    -1.9470 H     1 <1>   0.1500 
 27 H        2.4980     1.5950     1.7760 H     1 <1>   0.0800 
 28 H       -0.2990     5.4960    -1.6190 H     1 <1>   0.1500 
 29 H        1.0230     3.9450    -2.9940 H     1 <1>   0.1500 
 30 H        1.2290     0.1090     0.1390 H     1 <1>   0.3700 
 31 H        4.2780     2.0830    -0.6040 H     1 <1>   0.0800 
 32 H        5.0070    -0.2860    -1.0410 H     1 <1>   0.0800 
 33 H        5.0820    -1.2710     0.3990 H     1 <1>   0.0800 
 34 H        5.6300     5.2160     2.3670 H     1 <1>   0.0800 
 35 H        6.9840     5.4170     1.3100 H     1 <1>   0.0800 
 36 H        7.4360     4.0000    -0.3960 H     1 <1>   0.0800 
 37 H        5.9970     3.9990    -1.3960 H     1 <1>   0.0800 
 38 H        6.5390     2.5250    -0.6100 H     1 <1>   0.0800 
 39 H        5.2670     6.7430    -1.5470 H     1 <1>   0.0000 
 40 H        6.8900     6.6730    -0.7440 H     1 <1>   0.0000 
 41 H        6.6330     7.8000     1.5880 H     1 <1>   0.0000 
 42 H        4.9050     8.3290     1.7320 H     1 <1>   0.0000 
 43 H        3.3810     5.4410    -0.0770 H     1 <1>   0.0800 
 44 H        3.1940     7.1550     0.1730 H     1 <1>   0.0800 
 45 H        3.2390     6.0720     1.5450 H     1 <1>   0.0800 
@<TRIPOS>BOND
  1   1   2  1   
  2   2   3  ar  
  3   2   4  ar  
  4   3   5  ar  
  5   3   6  1   
  6   4   7  ar  
  7   4  25  1   
  8   5   8  ar  
  9   5  26  1   
 10   6   9  1   
 11   6  10  1   
 12   6  27  1   
 13   7   8  ar  
 14   7  28  1   
 15   8  29  1   
 16   9  11  am  
 17   9  30  1   
 18  10  12  1   
 19  10  13  1   
 20  10  31  1   
 21  11  14  2   
 22  11  15  1   
 23  12  15  1   
 24  13  16  2   
 25  13  17  am  
 26  15  32  1   
 27  15  33  1   
 28  17  18  1   
 29  17  19  1   
 30  18  20  1   
 31  18  34  1   
 32  18  35  1   
 33  19  36  1   
 34  19  37  1   
 35  19  38  1   
 36  20  21  1   
 37  20  22  1   
 38  20  23  1   
 39  21  24  1   
 40  21  39  1   
 41  21  40  1   
 42  22  24  1   
 43  22  41  1   
 44  22  42  1   
 45  23  43  1   
 46  23  44  1   
 47  23  45  1   
@<TRIPOS>SUBSTRUCTURE
  1 ****  13 GROUP 4 **** **** 0

# MOE 2024.06 (io_trps.svl 2023.06)
