@<TRIPOS>MOLECULE
NONAME
36 37 1 0 0 
SMALL
USER_CHARGES


@<TRIPOS>ATOM
  1 S       -0.0840     0.2530    -1.0170 S.o2  1 <1>   1.0900 
  2 O       -0.8830    -0.1460     0.1220 O.2   1 <1>  -0.6500 
  3 O       -0.5190    -0.0930    -2.3510 O.2   1 <1>  -0.6500 
  4 C        1.5670    -0.3630    -0.7770 C.3   1 <1>  -0.0550 
  5 C        0.1700     2.0100    -0.9320 C.3   1 <1>  -0.0550 
  6 C        2.1910     0.2590     0.4660 C.3   1 <1>   0.1100 
  7 C        0.9460     2.3730     0.3270 C.3   1 <1>   0.1100 
  8 N        2.2720     1.7200     0.3090 N.3   1 <1>  -0.8100 
  9 C        3.1600     2.2960     1.3400 C.3   1 <1>   0.2530 
 10 C        3.4410     3.7650     1.0590 C.ar  1 <1>  -0.1430 
 11 C        3.9670     4.1500    -0.1650 C.ar  1 <1>  -0.1500 
 12 C        3.1650     4.7320     2.0150 C.ar  1 <1>  -0.1500 
 13 C        4.2110     5.4850    -0.4390 C.ar  1 <1>  -0.1500 
 14 C        3.4070     6.0670     1.7430 C.ar  1 <1>  -0.1500 
 15 C        3.9260     6.4530     0.5190 C.ar  1 <1>   0.0830 
 16 O        4.1230     7.7800     0.3300 O.3   1 <1>  -0.3630 
 17 C        4.6390     8.2820    -0.9030 C.3   1 <1>   0.0140 
 18 C        4.7770     9.7970    -0.9360 C.2   1 <1>   0.9060 
 19 O        3.8410    10.4750    -1.3820 O.co2 1 <1>  -0.9000 
 20 O        5.8520    10.3090    -0.5980 O.co2 1 <1>  -0.9000 
 21 H        2.1780    -0.1280    -1.6260 H     1 <1>   0.0800 
 22 H        1.5420    -1.4290    -0.6680 H     1 <1>   0.0800 
 23 H       -0.7770     2.5130    -0.9230 H     1 <1>   0.0800 
 24 H        0.7200     2.3500    -1.7870 H     1 <1>   0.0800 
 25 H        3.1810    -0.1480     0.5870 H     1 <1>   0.0800 
 26 H        1.6120     0.0090     1.3410 H     1 <1>   0.0800 
 27 H        0.3960     2.0760     1.2050 H     1 <1>   0.0800 
 28 H        1.0570     3.4450     0.3460 H     1 <1>   0.0800 
 29 H        4.1010     1.7720     1.3380 H     1 <1>   0.0800 
 30 H        2.7130     2.1790     2.3130 H     1 <1>   0.0800 
 31 H        4.1810     3.4050    -0.9110 H     1 <1>   0.1500 
 32 H        2.7590     4.4560     2.9710 H     1 <1>   0.1500 
 33 H        4.6160     5.7540    -1.3950 H     1 <1>   0.1500 
 34 H        3.1960     6.8260     2.4740 H     1 <1>   0.1500 
 35 H        3.9710     7.9920    -1.6910 H     1 <1>   0.0800 
 36 H        5.6100     7.8550    -1.0600 H     1 <1>   0.0800 
@<TRIPOS>BOND
  1   1   2  2   
  2   1   3  2   
  3   1   4  1   
  4   1   5  1   
  5   4   6  1   
  6   4  21  1   
  7   4  22  1   
  8   5   7  1   
  9   5  23  1   
 10   5  24  1   
 11   6   8  1   
 12   6  25  1   
 13   6  26  1   
 14   7   8  1   
 15   7  27  1   
 16   7  28  1   
 17   8   9  1   
 18   9  10  1   
 19   9  29  1   
 20   9  30  1   
 21  10  11  ar  
 22  10  12  ar  
 23  11  13  ar  
 24  11  31  1   
 25  12  14  ar  
 26  12  32  1   
 27  13  15  ar  
 28  13  33  1   
 29  14  15  ar  
 30  14  34  1   
 31  15  16  1   
 32  16  17  1   
 33  17  18  1   
 34  17  35  1   
 35  17  36  1   
 36  18  19  ar  
 37  18  20  ar  
@<TRIPOS>SUBSTRUCTURE
  1 ****  11 GROUP 4 **** **** 0

# MOE 2024.06 (io_trps.svl 2023.06)
