@<TRIPOS>MOLECULE
NONAME
44 46 1 0 0 
SMALL
USER_CHARGES


@<TRIPOS>ATOM
  1 O        0.5450    -0.5200    -0.2740 O.3   1 <1>  -0.5600 
  2 C        0.8110     0.2100     0.8930 C.3   1 <1>   0.1200 
  3 C        1.4540    -0.4410    -1.3390 C.3   1 <1>   0.1200 
  4 C        1.5640     1.5070     0.5740 C.3   1 <1>  -0.1600 
  5 C        2.8710    -0.1320    -0.8430 C.3   1 <1>  -0.1600 
  6 C        2.9340     1.2250    -0.0990 C.3   1 <1>   0.0000 
  7 C        3.2700     2.3520    -1.0990 C.3   1 <1>  -0.1600 
  8 C        4.0730     1.1550     0.9430 C.3   1 <1>  -0.1600 
  9 C        3.5260     3.6980    -0.4170 C.3   1 <1>   0.2090 
 10 C        4.4070     2.5000     1.6030 C.3   1 <1>   0.2090 
 11 N        4.6190     3.5550     0.5770 N.pl3 1 <1>  -0.8380 
 12 C        5.9160     3.9290     0.1770 C.ar  1 <1>   0.4100 
 13 N        6.8150     2.9570     0.2420 N.ar  1 <1>  -0.6200 
 14 C        6.2410     5.2590    -0.2870 C.ar  1 <1>   0.4100 
 15 C        8.0110     3.3270    -0.1880 C.ar  1 <1>   0.1600 
 16 N        7.4490     5.5880    -0.7210 N.ar  1 <1>  -0.6200 
 17 N        5.3100     6.3180    -0.2940 N.pl3 1 <1>  -0.8380 
 18 C        8.3140     4.5890    -0.6550 C.ar  1 <1>   0.1600 
 19 C        4.7060     6.6930     1.0110 C.3   1 <1>   0.1290 
 20 C        5.4970     7.4600    -1.2310 C.3   1 <1>   0.1290 
 21 H        1.3930    -0.4140     1.5480 H     1 <1>   0.0800 
 22 H       -0.1330     0.4220     1.3660 H     1 <1>   0.0800 
 23 H        1.1110     0.3310    -2.0060 H     1 <1>   0.0800 
 24 H        1.4280    -1.3830    -1.8580 H     1 <1>   0.0800 
 25 H        1.6820     2.0750     1.4760 H     1 <1>   0.0800 
 26 H        0.9340     2.0860    -0.0780 H     1 <1>   0.0800 
 27 H        3.5530    -0.1390    -1.6740 H     1 <1>   0.0800 
 28 H        3.1660    -0.9360    -0.1920 H     1 <1>   0.0800 
 29 H        2.4760     2.4650    -1.8140 H     1 <1>   0.0800 
 30 H        4.1610     2.0980    -1.6470 H     1 <1>   0.0800 
 31 H        4.9700     0.8060     0.4610 H     1 <1>   0.0800 
 32 H        3.8290     0.4440     1.7110 H     1 <1>   0.0800 
 33 H        2.6390     4.0470     0.0810 H     1 <1>   0.0800 
 34 H        3.7950     4.4250    -1.1640 H     1 <1>   0.0800 
 35 H        5.2920     2.3950     2.2090 H     1 <1>   0.0800 
 36 H        3.6090     2.8070     2.2530 H     1 <1>   0.0800 
 37 H        8.7830     2.5800    -0.1660 H     1 <1>   0.1500 
 38 H        9.3150     4.7930    -0.9890 H     1 <1>   0.1500 
 39 H        4.8820     5.9260     1.7450 H     1 <1>   0.0800 
 40 H        3.6440     6.8200     0.8930 H     1 <1>   0.0800 
 41 H        5.1390     7.6110     1.3670 H     1 <1>   0.0800 
 42 H        5.8250     7.0960    -2.1890 H     1 <1>   0.0800 
 43 H        6.2420     8.1320    -0.8420 H     1 <1>   0.0800 
 44 H        4.5690     7.9870    -1.3600 H     1 <1>   0.0800 
@<TRIPOS>BOND
  1   1   2  1   
  2   1   3  1   
  3   2   4  1   
  4   2  21  1   
  5   2  22  1   
  6   3   5  1   
  7   3  23  1   
  8   3  24  1   
  9   4   6  1   
 10   4  25  1   
 11   4  26  1   
 12   5   6  1   
 13   5  27  1   
 14   5  28  1   
 15   6   7  1   
 16   6   8  1   
 17   7   9  1   
 18   7  29  1   
 19   7  30  1   
 20   8  10  1   
 21   8  31  1   
 22   8  32  1   
 23   9  11  1   
 24   9  33  1   
 25   9  34  1   
 26  10  11  1   
 27  10  35  1   
 28  10  36  1   
 29  11  12  1   
 30  12  13  ar  
 31  12  14  ar  
 32  13  15  ar  
 33  14  16  ar  
 34  14  17  1   
 35  15  18  ar  
 36  15  37  1   
 37  16  18  ar  
 38  17  19  1   
 39  17  20  1   
 40  18  38  1   
 41  19  39  1   
 42  19  40  1   
 43  19  41  1   
 44  20  42  1   
 45  20  43  1   
 46  20  44  1   
@<TRIPOS>SUBSTRUCTURE
  1 ****  11 GROUP 4 **** **** 0

# MOE 2024.06 (io_trps.svl 2023.06)
