@<TRIPOS>MOLECULE
Untitled Document
53 56 1 0 0 
SMALL
USER_CHARGES


@<TRIPOS>ATOM
  1 O        1.0570     0.2280    -1.3620 O.2   1 <1>  -0.5700 
  2 C        2.1240     0.7570    -1.1010 C.2   1 <1>   0.6900 
  3 N        2.3220     2.1030    -1.3850 N.am  1 <1>  -0.4200 
  4 N        3.1410     0.0100    -0.5140 N.am  1 <1>  -0.4240 
  5 C        3.5240     2.7370    -1.0780 C.2   1 <1>   0.7160 
  6 C        1.2200     2.8860    -2.0140 C.3   1 <1>   0.1400 
  7 C        4.3470     0.6390    -0.2010 C.2   1 <1>  -0.0880 
  8 C        2.9410    -1.4330    -0.2110 C.3   1 <1>   0.1400 
  9 O        3.6560     3.9250    -1.3350 O.2   1 <1>  -0.5700 
 10 C        4.5640     1.9540    -0.4620 C.2   1 <1>   0.1410 
 11 C        0.3290     3.5070    -0.9320 C.3   1 <1>  -0.1600 
 12 N        5.4580     0.1580     0.3720 N.pl3 1 <1>   0.0330 
 13 C        2.4940    -1.6030     1.2450 C.3   1 <1>  -0.1600 
 14 N        5.8220     2.2940    -0.0520 N.2   1 <1>  -0.5650 
 15 C       -0.8170     4.3140    -1.5500 C.3   1 <1>  -0.2400 
 16 C        6.3310     1.2030     0.4430 C.2   1 <1>   0.1870 
 17 C        2.3410    -3.0830     1.6120 C.3   1 <1>  -0.2400 
 18 C        7.6540     1.0780     1.0030 C.2   1 <1>  -0.0010 
 19 C        8.1970     0.0170     1.7350 C.2   1 <1>   0.1390 
 20 C        8.6790     1.9650     0.9490 C.2   1 <1>  -0.3020 
 21 N        9.4250     0.2190     2.0950 N.2   1 <1>  -0.7070 
 22 N        9.7290     1.4360     1.6020 N.pl3 1 <1>   0.3140 
 23 C       11.0510     2.0630     1.8180 C.3   1 <1>   0.2390 
 24 C       11.6700     2.5190     0.5030 C.ar  1 <1>  -0.1440 
 25 C       12.1990     1.5840    -0.3730 C.ar  1 <1>  -0.1500 
 26 C       11.7080     3.8650     0.1680 C.ar  1 <1>  -0.1500 
 27 C       12.7640     1.9890    -1.5700 C.ar  1 <1>  -0.1500 
 28 C       12.2720     4.2700    -1.0290 C.ar  1 <1>  -0.1500 
 29 C       12.8000     3.3320    -1.8990 C.ar  1 <1>  -0.1500 
 30 H        0.6310     2.2440    -2.6470 H     1 <1>   0.0800 
 31 H        1.6300     3.6620    -2.6380 H     1 <1>   0.0800 
 32 H        3.8600    -1.9640    -0.3830 H     1 <1>   0.0800 
 33 H        2.1980    -1.8480    -0.8710 H     1 <1>   0.0800 
 34 H        0.9220     4.1580    -0.3110 H     1 <1>   0.0800 
 35 H       -0.0840     2.7250    -0.3170 H     1 <1>   0.0800 
 36 H        5.6350    -0.7960     0.6870 H     1 <1>   0.2700 
 37 H        1.5460    -1.1090     1.3790 H     1 <1>   0.0800 
 38 H        3.2110    -1.1490     1.9050 H     1 <1>   0.0800 
 39 H       -0.4300     5.1150    -2.1560 H     1 <1>   0.0800 
 40 H       -1.4270     4.7390    -0.7720 H     1 <1>   0.0800 
 41 H       -1.4370     3.6810    -2.1620 H     1 <1>   0.0800 
 42 H        1.6060    -3.5520     0.9800 H     1 <1>   0.0800 
 43 H        2.0170    -3.1760     2.6340 H     1 <1>   0.0800 
 44 H        3.2760    -3.6030     1.5010 H     1 <1>   0.0800 
 45 H        7.6620    -0.8820     1.9870 H     1 <1>   0.1500 
 46 H        8.6960     2.9300     0.4760 H     1 <1>   0.1500 
 47 H       11.6930     1.3450     2.2930 H     1 <1>   0.0800 
 48 H       10.9230     2.8950     2.4840 H     1 <1>   0.0800 
 49 H       12.1700     0.5350    -0.1290 H     1 <1>   0.1500 
 50 H       11.2990     4.6060     0.8330 H     1 <1>   0.1500 
 51 H       13.1720     1.2580    -2.2470 H     1 <1>   0.1500 
 52 H       12.2980     5.3140    -1.2860 H     1 <1>   0.1500 
 53 H       13.2380     3.6470    -2.8300 H     1 <1>   0.1500 
@<TRIPOS>BOND
  1   1   2  2   
  2   2   3  am  
  3   2   4  am  
  4   3   5  am  
  5   3   6  1   
  6   4   7  1   
  7   4   8  1   
  8   5   9  2   
  9   5  10  1   
 10   6  11  1   
 11   6  30  1   
 12   6  31  1   
 13   7  10  2   
 14   7  12  1   
 15   8  13  1   
 16   8  32  1   
 17   8  33  1   
 18  10  14  1   
 19  11  15  1   
 20  11  34  1   
 21  11  35  1   
 22  12  16  1   
 23  12  36  1   
 24  13  17  1   
 25  13  37  1   
 26  13  38  1   
 27  14  16  2   
 28  15  39  1   
 29  15  40  1   
 30  15  41  1   
 31  16  18  1   
 32  17  42  1   
 33  17  43  1   
 34  17  44  1   
 35  18  19  1   
 36  18  20  2   
 37  19  21  2   
 38  19  45  1   
 39  20  22  1   
 40  20  46  1   
 41  21  22  1   
 42  22  23  1   
 43  23  24  1   
 44  23  47  1   
 45  23  48  1   
 46  24  25  ar  
 47  24  26  ar  
 48  25  27  ar  
 49  25  49  1   
 50  26  28  ar  
 51  26  50  1   
 52  27  29  ar  
 53  27  51  1   
 54  28  29  ar  
 55  28  52  1   
 56  29  53  1   
@<TRIPOS>SUBSTRUCTURE
  1 ****  16 GROUP 4 **** **** 0

# MOE 2024.06 (io_trps.svl 2023.06)
