@<TRIPOS>MOLECULE
NONAME
49 50 1 0 0 
SMALL
USER_CHARGES


@<TRIPOS>ATOM
  1 O        0.0760    -0.6030     0.0430 O.2   1 <1>  -0.5700 
  2 C        0.3530    -1.6450    -0.5080 C.2   1 <1>   0.6900 
  3 N       -0.5930    -2.5280    -0.8680 N.am  1 <1>  -0.7300 
  4 N        1.6260    -1.9320    -0.7750 N.am  1 <1>  -0.8000 
  5 C       -2.0250    -2.4180    -0.4680 C.3   1 <1>   0.2010 
  6 C       -2.6980    -3.7820    -0.2570 C.2   1 <1>   0.5690 
  7 O       -2.1360    -4.7640    -0.6930 O.2   1 <1>  -0.5700 
  8 N       -3.9040    -3.8880     0.3990 N.am  1 <1>  -0.6600 
  9 C       -4.4600    -5.2430     0.6960 C.3   1 <1>   0.1400 
 10 C       -4.7240    -2.7220     0.8450 C.3   1 <1>   0.1400 
 11 C       -5.3080    -5.7590    -0.4760 C.3   1 <1>   0.1400 
 12 C       -6.2150    -2.8460     0.4950 C.3   1 <1>  -0.1600 
 13 N       -6.6180    -5.0380    -0.5790 N.am  1 <1>  -0.6600 
 14 C       -6.5130    -3.5700    -0.8230 C.3   1 <1>   0.1400 
 15 C       -7.8520    -5.6280    -0.4410 C.2   1 <1>   0.5690 
 16 O       -8.8700    -4.9760    -0.4670 O.2   1 <1>  -0.5700 
 17 C       -7.9700    -7.1300    -0.2360 C.3   1 <1>  -0.0990 
 18 C       -9.4220    -7.5990    -0.1450 C.3   1 <1>   0.1200 
 19 O       -9.4240    -8.9960     0.0490 O.3   1 <1>  -0.3630 
 20 C      -10.5870    -9.6840     0.1680 C.ar  1 <1>   0.0830 
 21 C      -10.4870   -11.0540     0.3550 C.ar  1 <1>  -0.1500 
 22 C      -11.8470    -9.0920     0.1130 C.ar  1 <1>  -0.1500 
 23 C      -11.6240   -11.8300     0.4860 C.ar  1 <1>  -0.1500 
 24 C      -12.9840    -9.8700     0.2450 C.ar  1 <1>  -0.1500 
 25 C      -12.8750   -11.2380     0.4310 C.ar  1 <1>  -0.1500 
 26 H       -0.3200    -3.4840    -1.1090 H     1 <1>   0.3700 
 27 H        2.3250    -1.2170    -0.5790 H     1 <1>   0.3700 
 28 H        1.8900    -2.6810    -1.4080 H     1 <1>   0.3700 
 29 H       -2.5550    -1.8860    -1.2370 H     1 <1>   0.0800 
 30 H       -2.0880    -1.8530     0.4440 H     1 <1>   0.0800 
 31 H       -5.0470    -5.2210     1.5970 H     1 <1>   0.0800 
 32 H       -3.6460    -5.9290     0.8580 H     1 <1>   0.0800 
 33 H       -4.3570    -1.8230     0.3840 H     1 <1>   0.0800 
 34 H       -4.6180    -2.6040     1.9110 H     1 <1>   0.0800 
 35 H       -5.4640    -6.8110    -0.3360 H     1 <1>   0.0800 
 36 H       -4.7580    -5.6390    -1.3930 H     1 <1>   0.0800 
 37 H       -6.6150    -1.8500     0.4300 H     1 <1>   0.0800 
 38 H       -6.7430    -3.3320     1.2970 H     1 <1>   0.0800 
 39 H       -5.7500    -3.3690    -1.5550 H     1 <1>   0.0800 
 40 H       -7.4450    -3.2050    -1.2220 H     1 <1>   0.0800 
 41 H       -7.4670    -7.3920     0.6740 H     1 <1>   0.0800 
 42 H       -7.5010    -7.6260    -1.0650 H     1 <1>   0.0800 
 43 H       -9.9500    -7.3770    -1.0570 H     1 <1>   0.0800 
 44 H       -9.9170    -7.1360     0.6920 H     1 <1>   0.0800 
 45 H       -9.5130   -11.5060     0.3960 H     1 <1>   0.1500 
 46 H      -11.9630    -8.0340    -0.0300 H     1 <1>   0.1500 
 47 H      -11.5370   -12.8930     0.6310 H     1 <1>   0.1500 
 48 H      -13.9560    -9.4110     0.2020 H     1 <1>   0.1500 
 49 H      -13.7600   -11.8400     0.5330 H     1 <1>   0.1500 
@<TRIPOS>BOND
  1   1   2  2   
  2   2   3  am  
  3   2   4  am  
  4   3   5  1   
  5   3  26  1   
  6   4  27  1   
  7   4  28  1   
  8   5   6  1   
  9   5  29  1   
 10   5  30  1   
 11   6   7  2   
 12   6   8  am  
 13   8   9  1   
 14   8  10  1   
 15   9  11  1   
 16   9  31  1   
 17   9  32  1   
 18  10  12  1   
 19  10  33  1   
 20  10  34  1   
 21  11  13  1   
 22  11  35  1   
 23  11  36  1   
 24  12  14  1   
 25  12  37  1   
 26  12  38  1   
 27  13  14  1   
 28  13  15  am  
 29  14  39  1   
 30  14  40  1   
 31  15  16  2   
 32  15  17  1   
 33  17  18  1   
 34  17  41  1   
 35  17  42  1   
 36  18  19  1   
 37  18  43  1   
 38  18  44  1   
 39  19  20  1   
 40  20  21  ar  
 41  20  22  ar  
 42  21  23  ar  
 43  21  45  1   
 44  22  24  ar  
 45  22  46  1   
 46  23  25  ar  
 47  23  47  1   
 48  24  25  ar  
 49  24  48  1   
 50  25  49  1   
@<TRIPOS>SUBSTRUCTURE
  1 ****  13 GROUP 4 **** **** 0

# MOE 2024.06 (io_trps.svl 2023.06)
