@<TRIPOS>MOLECULE
NONAME
47 50 1 0 0 
SMALL
USER_CHARGES


@<TRIPOS>ATOM
  1 O        0.2730     0.1890    -0.1400 O.3   1 <1>  -0.5600 
  2 C        1.4570    -0.4160    -0.5840 C.3   1 <1>   0.3440 
  3 C        0.2570     1.5770    -0.3050 C.3   1 <1>   0.2950 
  4 C        1.3680    -1.9250    -0.3790 C.ar  1 <1>  -0.1440 
  5 C        2.6640     0.1650     0.1830 C.3   1 <1>   0.1100 
  6 C       -1.0960     2.0840     0.2050 C.3   1 <1>  -0.1950 
  7 C        1.4310     2.2240     0.4600 C.3   1 <1>   0.1100 
  8 C        1.9520    -2.7810    -1.3020 C.ar  1 <1>  -0.1500 
  9 C        0.7250    -2.4650     0.7270 C.ar  1 <1>  -0.1500 
 10 N        2.7380     1.6390     0.0710 N.3   1 <1>  -0.8100 
 11 C       -2.3230     2.0150    -0.6470 C.3   1 <1>  -0.2000 
 12 C       -1.6990     3.3450    -0.3300 C.3   1 <1>  -0.2000 
 13 C        1.8970    -4.1530    -1.1220 C.ar  1 <1>  -0.1500 
 14 C        0.6690    -3.8360     0.9080 C.ar  1 <1>  -0.1500 
 15 C        3.8490     2.1710     0.8820 C.3   1 <1>   0.2900 
 16 C        1.2560    -4.6820    -0.0160 C.ar  1 <1>  -0.1500 
 17 C        4.0100     3.6710     0.7040 C.2   1 <1>  -0.0400 
 18 O        3.3670     4.4970     1.4860 O.3   1 <1>  -0.0190 
 19 C        4.7400     4.4000    -0.1530 C.2   1 <1>  -0.1500 
 20 N        3.6240     5.7390     1.1970 N.2   1 <1>  -0.4100 
 21 C        4.4500     5.7120     0.2110 C.2   1 <1>   0.1080 
 22 C        5.0210     6.9480    -0.4580 C.3   1 <1>   0.0210 
 23 C        6.4740     7.1880    -0.0370 C.3   1 <1>  -0.2400 
 24 H        1.5610    -0.2040    -1.6340 H     1 <1>   0.0800 
 25 H        0.3490     1.7910    -1.3560 H     1 <1>   0.0800 
 26 H        3.5640    -0.2700    -0.2140 H     1 <1>   0.0800 
 27 H        2.5810    -0.1250     1.2170 H     1 <1>   0.0800 
 28 H       -1.2210     1.8950     1.2570 H     1 <1>   0.1000 
 29 H        1.2700     2.1000     1.5170 H     1 <1>   0.0800 
 30 H        1.4280     3.2790     0.2450 H     1 <1>   0.0800 
 31 H        2.4540    -2.3850    -2.1670 H     1 <1>   0.1500 
 32 H        0.2600    -1.8140     1.4480 H     1 <1>   0.1500 
 33 H       -2.2340     1.6150    -1.6430 H     1 <1>   0.1000 
 34 H       -3.2540     1.7450    -0.1790 H     1 <1>   0.1000 
 35 H       -2.2070     4.0050     0.3520 H     1 <1>   0.1000 
 36 H       -1.1970     3.8770    -1.1200 H     1 <1>   0.1000 
 37 H        2.3520    -4.8090    -1.8430 H     1 <1>   0.1500 
 38 H        0.1650    -4.2440     1.7680 H     1 <1>   0.1500 
 39 H        3.6940     1.9480     1.9240 H     1 <1>   0.0800 
 40 H        4.7620     1.6960     0.5690 H     1 <1>   0.0800 
 41 H        1.2120    -5.7470     0.1240 H     1 <1>   0.1500 
 42 H        5.3960     4.0810    -0.9410 H     1 <1>   0.1500 
 43 H        4.9640     6.8290    -1.5250 H     1 <1>   0.0800 
 44 H        4.4230     7.8000    -0.1870 H     1 <1>   0.0800 
 45 H        7.0900     6.3540    -0.3210 H     1 <1>   0.0800 
 46 H        6.5300     7.3120     1.0310 H     1 <1>   0.0800 
 47 H        6.8540     8.0770    -0.5080 H     1 <1>   0.0800 
@<TRIPOS>BOND
  1   1   2  1   
  2   1   3  1   
  3   2   4  1   
  4   2   5  1   
  5   2  24  1   
  6   3   6  1   
  7   3   7  1   
  8   3  25  1   
  9   4   8  ar  
 10   4   9  ar  
 11   5  10  1   
 12   5  26  1   
 13   5  27  1   
 14   6  11  1   
 15   6  12  1   
 16   6  28  1   
 17   7  10  1   
 18   7  29  1   
 19   7  30  1   
 20   8  13  ar  
 21   8  31  1   
 22   9  14  ar  
 23   9  32  1   
 24  10  15  1   
 25  11  12  1   
 26  11  33  1   
 27  11  34  1   
 28  12  35  1   
 29  12  36  1   
 30  13  16  ar  
 31  13  37  1   
 32  14  16  ar  
 33  14  38  1   
 34  15  17  1   
 35  15  39  1   
 36  15  40  1   
 37  16  41  1   
 38  17  18  1   
 39  17  19  2   
 40  18  20  1   
 41  19  21  1   
 42  19  42  1   
 43  20  21  2   
 44  21  22  1   
 45  22  23  1   
 46  22  43  1   
 47  22  44  1   
 48  23  45  1   
 49  23  46  1   
 50  23  47  1   
@<TRIPOS>SUBSTRUCTURE
  1 ****  10 GROUP 4 **** **** 0

# MOE 2024.06 (io_trps.svl 2023.06)
