@<TRIPOS>MOLECULE
NONAME
55 58 1 0 0 
SMALL
USER_CHARGES


@<TRIPOS>ATOM
  1 O       -3.9600    -1.3670     1.2030 O.2   1 <1>  -0.5700 
  2 C       -2.9920    -0.6550     1.0770 C.2   1 <1>   0.5950 
  3 C       -3.0440     0.7110     0.6540 C.2   1 <1>  -0.0860 
  4 C       -1.5980    -1.2210     1.3270 C.3   1 <1>  -0.0990 
  5 C       -4.1170     1.6300     0.5340 C.2   1 <1>  -0.0860 
  6 C       -1.9440     1.4050     0.2830 C.2   1 <1>  -0.0400 
  7 C       -0.5480    -0.6700     0.3300 C.3   1 <1>  -0.1600 
  8 C       -3.5350     2.7830     0.1060 C.2   1 <1>  -0.0400 
  9 C       -5.4960     1.3720     0.8590 C.2   1 <1>   0.7160 
 10 O       -2.2410     2.6310    -0.0480 O.3   1 <1>  -0.2800 
 11 C       -0.5260     0.8720     0.2590 C.3   1 <1>   0.0200 
 12 C       -4.1380     4.1420    -0.1810 C.3   1 <1>  -0.0600 
 13 O       -5.9680     1.8470     1.8710 O.2   1 <1>  -0.5700 
 14 N       -6.3050     0.5810     0.0660 N.am  1 <1>  -0.6600 
 15 C       -7.6440     0.1190     0.5540 C.3   1 <1>   0.1400 
 16 C       -5.8410    -0.1230    -1.1750 C.3   1 <1>   0.1400 
 17 C       -7.6320    -1.3960     0.8850 C.3   1 <1>   0.4230 
 18 C       -6.2280    -1.6230    -1.1690 C.3   1 <1>   0.3430 
 19 N       -6.4680    -2.1170     0.2320 N.4   1 <1>  -0.9590 
 20 C       -8.9840    -2.0340     0.4900 C.3   1 <1>   0.1200 
 21 C       -6.5770    -3.5990     0.4210 C.3   1 <1>   0.4230 
 22 O       -8.9740    -3.4180     0.6950 O.3   1 <1>  -0.5600 
 23 C       -7.9740    -4.1130     0.0040 C.3   1 <1>   0.1200 
 24 C       -5.4280    -4.3270    -0.2950 C.3   1 <1>  -0.1600 
 25 C       -5.2710    -5.7820     0.1740 C.3   1 <1>  -0.1600 
 26 C       -4.0650    -6.4430    -0.4980 C.3   1 <1>  -0.2400 
 27 H       -1.3090    -0.9650     2.3300 H     1 <1>   0.0800 
 28 H       -1.6330    -2.2930     1.2570 H     1 <1>   0.0800 
 29 H        0.4330    -1.0310     0.5920 H     1 <1>   0.0800 
 30 H       -0.7790    -1.0490    -0.6510 H     1 <1>   0.0800 
 31 H       -0.0300     1.1930    -0.6410 H     1 <1>   0.0800 
 32 H        0.0070     1.2780     1.1010 H     1 <1>   0.0800 
 33 H       -5.1970     4.1330     0.0030 H     1 <1>   0.0800 
 34 H       -3.9610     4.4110    -1.2070 H     1 <1>   0.0800 
 35 H       -3.6830     4.8790     0.4550 H     1 <1>   0.0800 
 36 H       -7.9560     0.6660     1.4290 H     1 <1>   0.0800 
 37 H       -8.3710     0.3260    -0.2120 H     1 <1>   0.0800 
 38 H       -6.2740     0.3530    -2.0380 H     1 <1>   0.0800 
 39 H       -4.7740    -0.0450    -1.2760 H     1 <1>   0.0800 
 40 H       -7.5340    -1.4920     1.9540 H     1 <1>   0.0800 
 41 H       -5.4350    -2.1810    -1.6360 H     1 <1>   0.0800 
 42 H       -7.1190    -1.7620    -1.7570 H     1 <1>   0.0800 
 43 H       -5.6240    -1.8140     0.7630 H     1 <1>   0.4500 
 44 H       -9.2160    -1.8480    -0.5440 H     1 <1>   0.0800 
 45 H       -9.7760    -1.6250     1.0950 H     1 <1>   0.0800 
 46 H       -6.4740    -3.8050     1.4740 H     1 <1>   0.0800 
 47 H       -8.0800    -5.1530     0.2560 H     1 <1>   0.0800 
 48 H       -8.1350    -3.9990    -1.0530 H     1 <1>   0.0800 
 49 H       -5.5890    -4.3240    -1.3590 H     1 <1>   0.0800 
 50 H       -4.5060    -3.8120    -0.0830 H     1 <1>   0.0800 
 51 H       -5.1330    -5.8110     1.2420 H     1 <1>   0.0800 
 52 H       -6.1510    -6.3550    -0.0640 H     1 <1>   0.0800 
 53 H       -3.1570    -5.9180    -0.2560 H     1 <1>   0.0800 
 54 H       -4.1830    -6.4580    -1.5670 H     1 <1>   0.0800 
 55 H       -3.9660    -7.4600    -0.1560 H     1 <1>   0.0800 
@<TRIPOS>BOND
  1   1   2  2   
  2   2   3  1   
  3   2   4  1   
  4   3   5  1   
  5   3   6  2   
  6   4   7  1   
  7   4  27  1   
  8   4  28  1   
  9   5   8  2   
 10   5   9  1   
 11   6  10  1   
 12   6  11  1   
 13   7  11  1   
 14   7  29  1   
 15   7  30  1   
 16   8  10  1   
 17   8  12  1   
 18   9  13  2   
 19   9  14  am  
 20  11  31  1   
 21  11  32  1   
 22  12  33  1   
 23  12  34  1   
 24  12  35  1   
 25  14  15  1   
 26  14  16  1   
 27  15  17  1   
 28  15  36  1   
 29  15  37  1   
 30  16  18  1   
 31  16  38  1   
 32  16  39  1   
 33  17  19  1   
 34  17  20  1   
 35  17  40  1   
 36  18  19  1   
 37  18  41  1   
 38  18  42  1   
 39  19  21  1   
 40  19  43  1   
 41  20  22  1   
 42  20  44  1   
 43  20  45  1   
 44  21  23  1   
 45  21  24  1   
 46  21  46  1   
 47  22  23  1   
 48  23  47  1   
 49  23  48  1   
 50  24  25  1   
 51  24  49  1   
 52  24  50  1   
 53  25  26  1   
 54  25  51  1   
 55  25  52  1   
 56  26  53  1   
 57  26  54  1   
 58  26  55  1   
@<TRIPOS>SUBSTRUCTURE
  1 ****   1 GROUP 4 **** **** 0

# MOE 2024.06 (io_trps.svl 2023.06)
