@<TRIPOS>MOLECULE
NONAME
55 58 1 0 0 
SMALL
USER_CHARGES


@<TRIPOS>ATOM
  1 O       -2.7590     1.6490     2.1000 O.2   1 <1>  -0.5700 
  2 C       -2.4270     1.4310     0.9490 C.2   1 <1>   0.7160 
  3 N       -2.4010     0.1200     0.5050 N.am  1 <1>  -0.6600 
  4 C       -2.0640     2.5190     0.0960 C.2   1 <1>  -0.0860 
  5 C       -2.4610    -1.0240     1.4750 C.3   1 <1>   0.1400 
  6 C       -2.2660    -0.2630    -0.9320 C.3   1 <1>   0.1400 
  7 C       -2.8580     3.6130    -0.2730 C.2   1 <1>   0.3720 
  8 C       -0.8930     2.7410    -0.5580 C.2   1 <1>   0.0870 
  9 C       -3.6380    -1.9680     1.2000 C.3   1 <1>   0.1400 
 10 C       -3.6280    -0.7010    -1.4860 C.3   1 <1>  -0.1600 
 11 N       -2.2190     4.3850    -1.0840 N.2   1 <1>  -0.4100 
 12 N       -4.1680     3.8750     0.1550 N.pl3 1 <1>  -0.8210 
 13 O       -1.0410     3.8450    -1.2420 O.3   1 <1>  -0.0190 
 14 C        0.3440     2.0020    -0.6110 C.ar  1 <1>   0.0530 
 15 N       -3.4010    -2.7640    -0.0420 N.am  1 <1>  -0.6600 
 16 C       -3.9440    -2.1940    -1.3080 C.3   1 <1>   0.1400 
 17 C       -5.2000     2.8270    -0.1020 C.3   1 <1>   0.2090 
 18 C       -4.7010     5.2430    -0.1340 C.3   1 <1>   0.2090 
 19 C        0.7960     1.2470     0.4710 C.ar  1 <1>  -0.1500 
 20 C        1.1300     2.0090    -1.7640 C.ar  1 <1>  -0.1500 
 21 C       -2.6770    -3.9270     0.0400 C.2   1 <1>   0.5690 
 22 C       -6.5260     3.1780     0.5970 C.3   1 <1>   0.1200 
 23 C       -6.0580     5.4690     0.5570 C.3   1 <1>   0.1200 
 24 C        1.9690     0.5180     0.4010 C.ar  1 <1>  -0.1500 
 25 C        2.3050     1.2840    -1.8400 C.ar  1 <1>  -0.1500 
 26 O       -2.1660    -4.2870     1.0730 O.2   1 <1>  -0.5700 
 27 C       -2.4790    -4.8100    -1.1710 C.3   1 <1>  -0.1790 
 28 O       -6.9660     4.4540     0.2250 O.3   1 <1>  -0.5600 
 29 C        2.7260     0.5330    -0.7570 C.ar  1 <1>  -0.1500 
 30 H       -2.5560    -0.6560     2.4810 H     1 <1>   0.0800 
 31 H       -1.5410    -1.5820     1.4290 H     1 <1>   0.0800 
 32 H       -1.5370    -1.0500    -1.0350 H     1 <1>   0.0800 
 33 H       -1.9190     0.5710    -1.5140 H     1 <1>   0.0800 
 34 H       -4.5530    -1.4080     1.1260 H     1 <1>   0.0800 
 35 H       -3.7380    -2.6420     2.0340 H     1 <1>   0.0800 
 36 H       -3.6470    -0.4950    -2.5410 H     1 <1>   0.0800 
 37 H       -4.4070    -0.1090    -1.0440 H     1 <1>   0.0800 
 38 H       -3.5320    -2.7200    -2.1490 H     1 <1>   0.0800 
 39 H       -5.0110    -2.3400    -1.3280 H     1 <1>   0.0800 
 40 H       -4.8650     1.8770     0.2680 H     1 <1>   0.0800 
 41 H       -5.3680     2.7400    -1.1610 H     1 <1>   0.0800 
 42 H       -4.8170     5.3690    -1.1960 H     1 <1>   0.0800 
 43 H       -3.9980     5.9800     0.2160 H     1 <1>   0.0800 
 44 H        0.2290     1.2300     1.3850 H     1 <1>   0.1500 
 45 H        0.8150     2.5900    -2.6130 H     1 <1>   0.1500 
 46 H       -6.4000     3.1540     1.6660 H     1 <1>   0.0800 
 47 H       -7.2900     2.4740     0.3210 H     1 <1>   0.0800 
 48 H       -6.4810     6.4060     0.2440 H     1 <1>   0.0800 
 49 H       -5.9330     5.4840     1.6260 H     1 <1>   0.0800 
 50 H        2.2950    -0.0610     1.2480 H     1 <1>   0.1500 
 51 H        2.8940     1.3030    -2.7400 H     1 <1>   0.1500 
 52 H       -3.4280    -5.0450    -1.6140 H     1 <1>   0.0800 
 53 H       -2.0040    -5.7270    -0.8740 H     1 <1>   0.0800 
 54 H       -1.8500    -4.3140    -1.8850 H     1 <1>   0.0800 
 55 H        3.6390    -0.0330    -0.8130 H     1 <1>   0.1500 
@<TRIPOS>BOND
  1   1   2  2   
  2   2   3  am  
  3   2   4  1   
  4   3   5  1   
  5   3   6  1   
  6   4   7  1   
  7   4   8  2   
  8   5   9  1   
  9   5  30  1   
 10   5  31  1   
 11   6  10  1   
 12   6  32  1   
 13   6  33  1   
 14   7  11  2   
 15   7  12  1   
 16   8  13  1   
 17   8  14  1   
 18   9  15  1   
 19   9  34  1   
 20   9  35  1   
 21  10  16  1   
 22  10  36  1   
 23  10  37  1   
 24  11  13  1   
 25  12  17  1   
 26  12  18  1   
 27  14  19  ar  
 28  14  20  ar  
 29  15  16  1   
 30  15  21  am  
 31  16  38  1   
 32  16  39  1   
 33  17  22  1   
 34  17  40  1   
 35  17  41  1   
 36  18  23  1   
 37  18  42  1   
 38  18  43  1   
 39  19  24  ar  
 40  19  44  1   
 41  20  25  ar  
 42  20  45  1   
 43  21  26  2   
 44  21  27  1   
 45  22  28  1   
 46  22  46  1   
 47  22  47  1   
 48  23  28  1   
 49  23  48  1   
 50  23  49  1   
 51  24  29  ar  
 52  24  50  1   
 53  25  29  ar  
 54  25  51  1   
 55  27  52  1   
 56  27  53  1   
 57  27  54  1   
 58  29  55  1   
@<TRIPOS>SUBSTRUCTURE
  1 ****   2 GROUP 4 **** **** 0

# MOE 2024.06 (io_trps.svl 2023.06)
