@<TRIPOS>MOLECULE
NONAME
52 55 1 0 0 
SMALL
USER_CHARGES


@<TRIPOS>ATOM
  1 O        0.4210    -0.3360    -0.2120 O.2   1 <1>  -0.5700 
  2 C        1.0630    -1.3370    -0.0340 C.2   1 <1>   0.5690 
  3 N        0.5680    -2.3770     0.6680 N.am  1 <1>  -0.7300 
  4 C        2.4650    -1.4660    -0.5850 C.3   1 <1>  -0.0990 
  5 C        1.3390    -3.5900     1.0020 C.3   1 <1>   0.1400 
  6 C        2.6850    -2.8830    -1.1480 C.3   1 <1>  -0.0800 
  7 C        2.2450    -4.0090    -0.1800 C.3   1 <1>  -0.0800 
  8 C        4.1560    -3.1520    -1.5080 C.3   1 <1>  -0.1600 
  9 C        3.5440    -4.6840     0.2710 C.3   1 <1>  -0.1600 
 10 C        4.4700    -4.5300    -0.9330 C.3   1 <1>   0.4230 
 11 N        5.9280    -4.7550    -0.6730 N.4   1 <1>  -0.9590 
 12 C        6.4950    -4.2730     0.6280 C.3   1 <1>   0.4860 
 13 C        6.2610    -6.1990    -0.8640 C.3   1 <1>   0.2630 
 14 C        6.6560    -2.7670     0.6010 C.ar  1 <1>  -0.1440 
 15 C        7.5770    -2.1760    -0.2520 C.ar  1 <1>  -0.1500 
 16 C        5.8860    -1.9560     1.4220 C.ar  1 <1>  -0.1500 
 17 C        7.7020    -0.8010    -0.2970 C.ar  1 <1>  -0.1500 
 18 C        6.0190    -0.5810     1.3680 C.ar  1 <1>  -0.1500 
 19 C        6.9240     0.0330     0.5050 C.ar  1 <1>   0.0530 
 20 C        7.0550     1.4720     0.4440 C.2   1 <1>   0.0870 
 21 O        7.9730     2.0260    -0.3380 O.3   1 <1>  -0.2800 
 22 C        6.3730     2.4660     1.0750 C.2   1 <1>  -0.1500 
 23 C        7.9000     3.3330    -0.2240 C.2   1 <1>  -0.0400 
 24 C        6.9230     3.6740     0.6410 C.2   1 <1>  -0.1500 
 25 C        8.8550     4.1890    -1.0250 C.3   1 <1>  -0.0600 
 26 H       -0.3690    -2.2640     1.0640 H     1 <1>   0.3700 
 27 H        2.6100    -0.7310    -1.3560 H     1 <1>   0.0800 
 28 H        3.1520    -1.2580     0.2140 H     1 <1>   0.0800 
 29 H        1.9300    -3.3740     1.8760 H     1 <1>   0.0800 
 30 H        0.6620    -4.3910     1.2460 H     1 <1>   0.0800 
 31 H        2.0840    -2.9670    -2.0400 H     1 <1>   0.0800 
 32 H        1.6890    -4.7260    -0.7630 H     1 <1>   0.0800 
 33 H        4.7770    -2.3880    -1.0840 H     1 <1>   0.0800 
 34 H        4.2870    -3.1470    -2.5760 H     1 <1>   0.0800 
 35 H        3.3800    -5.7160     0.5240 H     1 <1>   0.0800 
 36 H        3.9200    -4.1510     1.1230 H     1 <1>   0.0800 
 37 H        4.1420    -5.2430    -1.6740 H     1 <1>   0.0800 
 38 H        6.4200    -4.2100    -1.3940 H     1 <1>   0.4500 
 39 H        5.8720    -4.5720     1.4530 H     1 <1>   0.0800 
 40 H        7.4700    -4.7070     0.7810 H     1 <1>   0.0800 
 41 H        5.7610    -6.8010    -0.1220 H     1 <1>   0.0800 
 42 H        7.3250    -6.3550    -0.7760 H     1 <1>   0.0800 
 43 H        5.9490    -6.5290    -1.8420 H     1 <1>   0.0800 
 44 H        8.2120    -2.7700    -0.8880 H     1 <1>   0.1500 
 45 H        5.1760    -2.3790     2.1110 H     1 <1>   0.1500 
 46 H        8.4200    -0.3560    -0.9660 H     1 <1>   0.1500 
 47 H        5.4110     0.0310     2.0110 H     1 <1>   0.1500 
 48 H        5.5630     2.3800     1.7760 H     1 <1>   0.1500 
 49 H        6.6090     4.6540     0.9510 H     1 <1>   0.1500 
 50 H        8.6760     5.2300    -0.8300 H     1 <1>   0.0800 
 51 H        8.7190     4.0000    -2.0750 H     1 <1>   0.0800 
 52 H        9.8680     3.9500    -0.7560 H     1 <1>   0.0800 
@<TRIPOS>BOND
  1   1   2  2   
  2   2   3  am  
  3   2   4  1   
  4   3   5  1   
  5   3  26  1   
  6   4   6  1   
  7   4  27  1   
  8   4  28  1   
  9   5   7  1   
 10   5  29  1   
 11   5  30  1   
 12   6   7  1   
 13   6   8  1   
 14   6  31  1   
 15   7   9  1   
 16   7  32  1   
 17   8  10  1   
 18   8  33  1   
 19   8  34  1   
 20   9  10  1   
 21   9  35  1   
 22   9  36  1   
 23  10  11  1   
 24  10  37  1   
 25  11  12  1   
 26  11  13  1   
 27  11  38  1   
 28  12  14  1   
 29  12  39  1   
 30  12  40  1   
 31  13  41  1   
 32  13  42  1   
 33  13  43  1   
 34  14  15  ar  
 35  14  16  ar  
 36  15  17  ar  
 37  15  44  1   
 38  16  18  ar  
 39  16  45  1   
 40  17  19  ar  
 41  17  46  1   
 42  18  19  ar  
 43  18  47  1   
 44  19  20  1   
 45  20  21  1   
 46  20  22  2   
 47  21  23  1   
 48  22  24  1   
 49  22  48  1   
 50  23  24  2   
 51  23  25  1   
 52  24  49  1   
 53  25  50  1   
 54  25  51  1   
 55  25  52  1   
@<TRIPOS>SUBSTRUCTURE
  1 ****  16 GROUP 4 **** **** 0

# MOE 2024.06 (io_trps.svl 2023.06)
