@<TRIPOS>MOLECULE
NONAME
47 49 1 0 0 
SMALL
USER_CHARGES


@<TRIPOS>ATOM
  1 O       -0.3350    -0.1120    -0.0530 O.2   1 <1>  -0.5700 
  2 C       -0.9970     0.9100     0.0260 C.2   1 <1>   0.5440 
  3 N       -2.3680     0.7770     0.2160 N.am  1 <1>  -0.6600 
  4 C       -0.3040     2.2010    -0.0490 C.ar  1 <1>   0.3960 
  5 C       -3.0500    -0.5480     0.0890 C.3   1 <1>   0.1400 
  6 C       -3.2490     1.9170     0.5970 C.3   1 <1>   0.1400 
  7 N       -0.8110     3.2030    -0.7900 N.ar  1 <1>  -0.6200 
  8 C        0.8900     2.3490     0.6590 C.ar  1 <1>  -0.1500 
  9 C       -4.1480    -0.5400    -0.9840 C.3   1 <1>   0.1400 
 10 C       -4.0270     2.4010    -0.6300 C.3   1 <1>  -0.1600 
 11 C       -0.1390     4.3310    -0.8000 C.ar  1 <1>   0.4100 
 12 C        1.5870     3.5390     0.6400 C.ar  1 <1>  -0.1500 
 13 N       -5.3560     0.2320    -0.5500 N.am  1 <1>  -0.6600 
 14 C       -5.3740     1.6960    -0.8390 C.3   1 <1>   0.1400 
 15 N       -0.6950     5.3010    -1.5660 N.pl3 1 <1>  -0.9000 
 16 C        1.0470     4.5520    -0.1120 C.ar  1 <1>  -0.1500 
 17 C       -6.5120    -0.4020    -0.1410 C.2   1 <1>   0.7160 
 18 O       -7.5590     0.2200    -0.1290 O.2   1 <1>  -0.5700 
 19 C       -6.5120    -1.7920     0.2480 C.2   1 <1>  -0.0860 
 20 C       -7.1560    -2.8440    -0.3260 C.2   1 <1>  -0.0400 
 21 C       -5.8210    -2.3640     1.3360 C.2   1 <1>  -0.1500 
 22 O       -6.8890    -3.9620     0.3030 O.3   1 <1>  -0.2800 
 23 C       -8.0820    -2.8910    -1.5230 C.3   1 <1>  -0.0600 
 24 C       -6.0880    -3.6850     1.3080 C.2   1 <1>  -0.0400 
 25 C       -5.6400    -4.8130     2.2090 C.3   1 <1>  -0.0600 
 26 H       -3.4650    -0.8240     1.0390 H     1 <1>   0.0800 
 27 H       -2.3360    -1.3060    -0.1800 H     1 <1>   0.0800 
 28 H       -2.6530     2.7240     0.9850 H     1 <1>   0.0800 
 29 H       -3.9250     1.6140     1.3780 H     1 <1>   0.0800 
 30 H        1.2660     1.5160     1.2260 H     1 <1>   0.1500 
 31 H       -4.4270    -1.5580    -1.1930 H     1 <1>   0.0800 
 32 H       -3.7550    -0.1290    -1.8970 H     1 <1>   0.0800 
 33 H       -3.4180     2.3050    -1.5110 H     1 <1>   0.0800 
 34 H       -4.2280     3.4500    -0.5090 H     1 <1>   0.0800 
 35 H        2.5070     3.6630     1.1860 H     1 <1>   0.1500 
 36 H       -5.7060     1.8490    -1.8520 H     1 <1>   0.0800 
 37 H       -6.0960     2.1640    -0.1910 H     1 <1>   0.0800 
 38 H       -0.0570     5.9180    -2.0680 H     1 <1>   0.4000 
 39 H       -1.4520     4.9490    -2.1530 H     1 <1>   0.4000 
 40 H        1.5260     5.5110    -0.1740 H     1 <1>   0.1500 
 41 H       -5.2170    -1.8200     2.0380 H     1 <1>   0.1500 
 42 H       -8.2180    -1.9070    -1.9330 H     1 <1>   0.0800 
 43 H       -9.0390    -3.2760    -1.2210 H     1 <1>   0.0800 
 44 H       -7.6690    -3.5340    -2.2780 H     1 <1>   0.0800 
 45 H       -4.9990    -4.4380     2.9860 H     1 <1>   0.0800 
 46 H       -5.1050    -5.5450     1.6340 H     1 <1>   0.0800 
 47 H       -6.4980    -5.2790     2.6570 H     1 <1>   0.0800 
@<TRIPOS>BOND
  1   1   2  2   
  2   2   3  am  
  3   2   4  1   
  4   3   5  1   
  5   3   6  1   
  6   4   7  ar  
  7   4   8  ar  
  8   5   9  1   
  9   5  26  1   
 10   5  27  1   
 11   6  10  1   
 12   6  28  1   
 13   6  29  1   
 14   7  11  ar  
 15   8  12  ar  
 16   8  30  1   
 17   9  13  1   
 18   9  31  1   
 19   9  32  1   
 20  10  14  1   
 21  10  33  1   
 22  10  34  1   
 23  11  15  1   
 24  11  16  ar  
 25  12  16  ar  
 26  12  35  1   
 27  13  14  1   
 28  13  17  am  
 29  14  36  1   
 30  14  37  1   
 31  15  38  1   
 32  15  39  1   
 33  16  40  1   
 34  17  18  2   
 35  17  19  1   
 36  19  20  2   
 37  19  21  1   
 38  20  22  1   
 39  20  23  1   
 40  21  24  2   
 41  21  41  1   
 42  22  24  1   
 43  23  42  1   
 44  23  43  1   
 45  23  44  1   
 46  24  25  1   
 47  25  45  1   
 48  25  46  1   
 49  25  47  1   
@<TRIPOS>SUBSTRUCTURE
  1 ****   5 GROUP 4 **** **** 0

# MOE 2024.06 (io_trps.svl 2023.06)
