@<TRIPOS>MOLECULE
NONAME
41 43 1 0 0 
SMALL
USER_CHARGES


@<TRIPOS>ATOM
  1 O       -1.5040    -2.9110     0.8470 O.2   1 <1>  -0.5700 
  2 C       -0.3570    -3.2730     0.8530 C.2   1 <1>   0.5690 
  3 N        0.0070    -4.4690     1.3580 N.am  1 <1>  -0.7300 
  4 C        0.7370    -2.3880     0.2990 C.3   1 <1>  -0.0990 
  5 C        1.4040    -4.9410     1.4120 C.3   1 <1>   0.1400 
  6 C        1.7270    -3.2200    -0.5430 C.3   1 <1>  -0.0800 
  7 C        2.1310    -4.5710     0.1000 C.3   1 <1>  -0.0800 
  8 C        3.0320    -2.4720    -0.8550 C.3   1 <1>  -0.1600 
  9 C        3.6580    -4.5270     0.2440 C.3   1 <1>  -0.1600 
 10 C        4.1050    -3.5560    -0.8480 C.3   1 <1>   0.4230 
 11 N        5.4800    -3.0120    -0.6700 N.4   1 <1>  -0.9590 
 12 C        5.7590    -2.3640     0.6420 C.3   1 <1>   0.5240 
 13 C        6.5160    -4.0460    -0.9840 C.3   1 <1>   0.2630 
 14 C        6.9910    -1.4990     0.4640 C.2   1 <1>  -0.1810 
 15 C        7.0800    -0.2920    -0.1590 C.2   1 <1>  -0.3020 
 16 C        8.2750    -1.8070     0.9250 C.2   1 <1>  -0.1500 
 17 N        8.3640     0.1500    -0.0980 N.pl3 1 <1>   0.0330 
 18 C        9.1020    -0.7830     0.5670 C.2   1 <1>  -0.1320 
 19 C       10.5040    -0.6200     0.8040 C.1   1 <1>   0.5370 
 20 N       11.6210    -0.4770     0.9730 N.1   1 <1>  -0.5570 
 21 H       -0.7300    -5.0490     1.7680 H     1 <1>   0.3700 
 22 H        0.2970    -1.6130    -0.3020 H     1 <1>   0.0800 
 23 H        1.2320    -1.9280     1.1330 H     1 <1>   0.0800 
 24 H        1.8810    -4.4730     2.2570 H     1 <1>   0.0800 
 25 H        1.4220    -6.0080     1.5590 H     1 <1>   0.0800 
 26 H        1.2330    -3.4490    -1.4740 H     1 <1>   0.0800 
 27 H        1.8910    -5.3430    -0.6140 H     1 <1>   0.0800 
 28 H        3.2120    -1.7370    -0.0930 H     1 <1>   0.0800 
 29 H        2.9710    -1.9850    -1.8130 H     1 <1>   0.0800 
 30 H        4.0850    -5.5050     0.1100 H     1 <1>   0.0800 
 31 H        3.9060    -4.1520     1.2200 H     1 <1>   0.0800 
 32 H        4.0470    -4.0720    -1.7940 H     1 <1>   0.0800 
 33 H        5.6000    -2.2530    -1.3550 H     1 <1>   0.4500 
 34 H        4.9360    -1.7390     0.9410 H     1 <1>   0.0800 
 35 H        5.9270    -3.1050     1.4070 H     1 <1>   0.0800 
 36 H        6.4750    -4.8500    -0.2680 H     1 <1>   0.0800 
 37 H        7.5020    -3.6100    -0.9560 H     1 <1>   0.0800 
 38 H        6.3530    -4.4530    -1.9690 H     1 <1>   0.0800 
 39 H        6.3070     0.2880    -0.6380 H     1 <1>   0.1500 
 40 H        8.5590    -2.6930     1.4720 H     1 <1>   0.1500 
 41 H        8.7270     1.0380    -0.4720 H     1 <1>   0.2700 
@<TRIPOS>BOND
  1   1   2  2   
  2   2   3  am  
  3   2   4  1   
  4   3   5  1   
  5   3  21  1   
  6   4   6  1   
  7   4  22  1   
  8   4  23  1   
  9   5   7  1   
 10   5  24  1   
 11   5  25  1   
 12   6   7  1   
 13   6   8  1   
 14   6  26  1   
 15   7   9  1   
 16   7  27  1   
 17   8  10  1   
 18   8  28  1   
 19   8  29  1   
 20   9  10  1   
 21   9  30  1   
 22   9  31  1   
 23  10  11  1   
 24  10  32  1   
 25  11  12  1   
 26  11  13  1   
 27  11  33  1   
 28  12  14  1   
 29  12  34  1   
 30  12  35  1   
 31  13  36  1   
 32  13  37  1   
 33  13  38  1   
 34  14  15  2   
 35  14  16  1   
 36  15  17  1   
 37  15  39  1   
 38  16  18  2   
 39  16  40  1   
 40  17  18  1   
 41  17  41  1   
 42  18  19  1   
 43  19  20  3   
@<TRIPOS>SUBSTRUCTURE
  1 ****  12 GROUP 4 **** **** 0

# MOE 2024.06 (io_trps.svl 2023.06)
