@<TRIPOS>MOLECULE
NONAME
53 56 1 0 0 
SMALL
USER_CHARGES


@<TRIPOS>ATOM
  1 S       -1.3240     1.3900     2.3570 S.3   1 <1>  -0.0800 
  2 C       -1.5210     1.5830     0.6210 C.2   1 <1>  -0.1400 
  3 C       -1.7670    -0.3020     2.2740 C.2   1 <1>  -0.1100 
  4 C       -1.8890     0.4100     0.0630 C.2   1 <1>  -0.1500 
  5 C       -1.3110     2.9890     0.0670 C.3   1 <1>   0.5230 
  6 C       -2.0310    -0.6680     1.0050 C.2   1 <1>  -0.1810 
  7 N        0.1270     3.2700    -0.2330 N.4   1 <1>  -0.9590 
  8 C       -2.4730    -2.0660     0.6000 C.3   1 <1>   0.5240 
  9 C        0.9960     3.1620     1.0040 C.3   1 <1>   0.3430 
 10 C        0.6050     2.4470    -1.4020 C.3   1 <1>   0.3430 
 11 N       -1.3520    -2.7680    -0.0790 N.4   1 <1>  -0.9590 
 12 C        2.4440     3.7000     0.8390 C.3   1 <1>   0.2200 
 13 C        1.9840     2.8350    -1.9610 C.3   1 <1>  -0.0190 
 14 C       -1.8080    -4.0600    -0.6720 C.3   1 <1>   0.3430 
 15 C       -0.1890    -2.9670     0.8390 C.3   1 <1>   0.3430 
 16 N        2.5580     4.6160    -0.3340 N.am  1 <1>  -0.7300 
 17 C        3.4290     2.5210     0.7220 C.3   1 <1>   0.1200 
 18 C        2.3410     4.2630    -1.6190 C.2   1 <1>   0.5690 
 19 C        3.0830     1.8590    -1.5200 C.3   1 <1>   0.1200 
 20 C       -0.6710    -4.6830    -1.4830 C.3   1 <1>  -0.1600 
 21 C        0.9840    -3.5650     0.0600 C.3   1 <1>  -0.1600 
 22 O        2.9490     1.5510    -0.1660 O.3   1 <1>  -0.5600 
 23 O        2.3650     5.0900    -2.4880 O.2   1 <1>  -0.5700 
 24 C        0.5940    -4.8760    -0.6360 C.3   1 <1>  -0.1600 
 25 H       -1.7900    -0.8390     3.2090 H     1 <1>   0.1500 
 26 H       -2.0950     0.2610    -0.9850 H     1 <1>   0.1500 
 27 H       -1.6840     3.7050     0.7820 H     1 <1>   0.0800 
 28 H       -1.8900     3.0990    -0.8360 H     1 <1>   0.0800 
 29 H        0.1970     4.2570    -0.5270 H     1 <1>   0.4500 
 30 H       -3.3240    -1.9940    -0.0580 H     1 <1>   0.0800 
 31 H       -2.7710    -2.6190     1.4760 H     1 <1>   0.0800 
 32 H        0.5320     3.7150     1.8050 H     1 <1>   0.0800 
 33 H        1.0490     2.1340     1.3220 H     1 <1>   0.0800 
 34 H        0.6240     1.4060    -1.1240 H     1 <1>   0.0800 
 35 H       -0.1070     2.5550    -2.2040 H     1 <1>   0.0800 
 36 H       -1.0290    -2.1700    -0.8460 H     1 <1>   0.4500 
 37 H        2.7090     4.2520     1.7250 H     1 <1>   0.0800 
 38 H        1.9350     2.7680    -3.0330 H     1 <1>   0.0800 
 39 H       -2.1010    -4.7390     0.1130 H     1 <1>   0.0800 
 40 H       -2.6580    -3.8980    -1.3160 H     1 <1>   0.0800 
 41 H        0.1140    -2.0250     1.2690 H     1 <1>   0.0800 
 42 H       -0.4640    -3.6330     1.6400 H     1 <1>   0.0800 
 43 H        2.8950     5.5730    -0.1720 H     1 <1>   0.3700 
 44 H        3.5250     2.0410     1.6810 H     1 <1>   0.0800 
 45 H        4.4080     2.8500     0.4150 H     1 <1>   0.0800 
 46 H        4.0680     2.2530    -1.7100 H     1 <1>   0.0800 
 47 H        2.9840     0.9330    -2.0610 H     1 <1>   0.0800 
 48 H       -0.9920    -5.6390    -1.8610 H     1 <1>   0.0800 
 49 H       -0.4520    -4.0620    -2.3340 H     1 <1>   0.0800 
 50 H        1.3330    -2.8530    -0.6670 H     1 <1>   0.0800 
 51 H        1.7970    -3.7530     0.7390 H     1 <1>   0.0800 
 52 H        1.4050    -5.2150    -1.2600 H     1 <1>   0.0800 
 53 H        0.4160    -5.6360     0.1070 H     1 <1>   0.0800 
@<TRIPOS>BOND
  1   1   2  1   
  2   1   3  1   
  3   2   4  2   
  4   2   5  1   
  5   3   6  2   
  6   3  25  1   
  7   4   6  1   
  8   4  26  1   
  9   5   7  1   
 10   5  27  1   
 11   5  28  1   
 12   6   8  1   
 13   7   9  1   
 14   7  10  1   
 15   7  29  1   
 16   8  11  1   
 17   8  30  1   
 18   8  31  1   
 19   9  12  1   
 20   9  32  1   
 21   9  33  1   
 22  10  13  1   
 23  10  34  1   
 24  10  35  1   
 25  11  14  1   
 26  11  15  1   
 27  11  36  1   
 28  12  16  1   
 29  12  17  1   
 30  12  37  1   
 31  13  18  1   
 32  13  19  1   
 33  13  38  1   
 34  14  20  1   
 35  14  39  1   
 36  14  40  1   
 37  15  21  1   
 38  15  41  1   
 39  15  42  1   
 40  16  18  am  
 41  16  43  1   
 42  17  22  1   
 43  17  44  1   
 44  17  45  1   
 45  18  23  2   
 46  19  22  1   
 47  19  46  1   
 48  19  47  1   
 49  20  24  1   
 50  20  48  1   
 51  20  49  1   
 52  21  24  1   
 53  21  50  1   
 54  21  51  1   
 55  24  52  1   
 56  24  53  1   
@<TRIPOS>SUBSTRUCTURE
  1 ****   2 GROUP 4 **** **** 0

# MOE 2024.06 (io_trps.svl 2023.06)
