@<TRIPOS>MOLECULE
NONAME
45 47 1 0 0 
SMALL
USER_CHARGES


@<TRIPOS>ATOM
  1 O       -0.3730     0.1880    -0.2160 O.2   1 <1>  -0.5700 
  2 C       -1.4340     0.7650    -0.1960 C.2   1 <1>   0.5690 
  3 N       -2.6150     0.0870    -0.3120 N.am  1 <1>  -0.6600 
  4 C       -1.4590     2.2810    -0.0350 C.3   1 <1>  -0.0990 
  5 C       -3.9780     0.6680    -0.2490 C.3   1 <1>   0.1400 
  6 C       -2.6820    -1.3880    -0.4580 C.3   1 <1>   0.1400 
  7 C       -0.0650     2.9360     0.0120 C.3   1 <1>  -0.1600 
  8 C       -4.9290    -0.5250    -0.3670 C.3   1 <1>   0.2000 
  9 C       -4.0990    -1.7610    -0.0220 C.3   1 <1>  -0.0800 
 10 C       -0.1490     4.4600     0.1680 C.3   1 <1>   0.0210 
 11 O       -5.9960    -0.4110     0.5100 O.3   1 <1>  -0.6800 
 12 C       -4.6450    -3.0410    -0.6770 C.3   1 <1>  -0.0170 
 13 C        1.2250     5.1110     0.2150 C.2   1 <1>  -0.1810 
 14 C       -3.8170    -4.2600    -0.3070 C.ar  1 <1>   0.1670 
 15 C        1.4660     6.4750     0.3480 C.2   1 <1>   0.1390 
 16 C        2.4540     4.5560     0.1440 C.2   1 <1>  -0.3020 
 17 N       -2.7380    -4.4830    -1.0410 N.ar  1 <1>  -0.6200 
 18 C       -4.2130    -5.0620     0.7540 C.ar  1 <1>  -0.1500 
 19 N        2.7340     6.7560     0.3600 N.2   1 <1>  -0.7070 
 20 N        3.3440     5.5630     0.2330 N.pl3 1 <1>   0.3000 
 21 C       -2.0230    -5.5430    -0.7030 C.ar  1 <1>   0.1600 
 22 C       -3.4590    -6.1650     1.0940 C.ar  1 <1>  -0.1500 
 23 C       -2.3320    -6.4030     0.3370 C.ar  1 <1>  -0.1500 
 24 H       -2.0100     2.6950    -0.8600 H     1 <1>   0.0800 
 25 H       -1.9840     2.5100     0.8740 H     1 <1>   0.0800 
 26 H       -4.1100     1.1730     0.6920 H     1 <1>   0.0800 
 27 H       -4.1300     1.3510    -1.0660 H     1 <1>   0.0800 
 28 H       -2.5150    -1.6470    -1.4900 H     1 <1>   0.0800 
 29 H       -1.9380    -1.8750     0.1510 H     1 <1>   0.0800 
 30 H        0.4900     2.5250     0.8380 H     1 <1>   0.0800 
 31 H        0.4660     2.7000    -0.8940 H     1 <1>   0.0800 
 32 H       -5.3180    -0.5810    -1.3700 H     1 <1>   0.0800 
 33 H       -4.0750    -1.8920     1.0460 H     1 <1>   0.0800 
 34 H       -0.6740     4.7010     1.0760 H     1 <1>   0.0800 
 35 H       -0.6970     4.8770    -0.6580 H     1 <1>   0.0800 
 36 H       -5.6780    -0.4250     1.4340 H     1 <1>   0.4000 
 37 H       -4.6480    -2.9350    -1.7480 H     1 <1>   0.0800 
 38 H       -5.6630    -3.1920    -0.3650 H     1 <1>   0.0800 
 39 H        0.6970     7.2250     0.4320 H     1 <1>   0.1500 
 40 H        2.7440     3.5270     0.0380 H     1 <1>   0.1500 
 41 H       -5.1020    -4.8280     1.3110 H     1 <1>   0.1500 
 42 H        4.3670     5.4710     0.2110 H     1 <1>   0.2700 
 43 H       -1.1400    -5.7380    -1.2880 H     1 <1>   0.1500 
 44 H       -3.7360    -6.8090     1.9100 H     1 <1>   0.1500 
 45 H       -1.6980    -7.2450     0.5480 H     1 <1>   0.1500 
@<TRIPOS>BOND
  1   1   2  2   
  2   2   3  am  
  3   2   4  1   
  4   3   5  1   
  5   3   6  1   
  6   4   7  1   
  7   4  24  1   
  8   4  25  1   
  9   5   8  1   
 10   5  26  1   
 11   5  27  1   
 12   6   9  1   
 13   6  28  1   
 14   6  29  1   
 15   7  10  1   
 16   7  30  1   
 17   7  31  1   
 18   8   9  1   
 19   8  11  1   
 20   8  32  1   
 21   9  12  1   
 22   9  33  1   
 23  10  13  1   
 24  10  34  1   
 25  10  35  1   
 26  11  36  1   
 27  12  14  1   
 28  12  37  1   
 29  12  38  1   
 30  13  15  1   
 31  13  16  2   
 32  14  17  ar  
 33  14  18  ar  
 34  15  19  2   
 35  15  39  1   
 36  16  20  1   
 37  16  40  1   
 38  17  21  ar  
 39  18  22  ar  
 40  18  41  1   
 41  19  20  1   
 42  20  42  1   
 43  21  23  ar  
 44  21  43  1   
 45  22  23  ar  
 46  22  44  1   
 47  23  45  1   
@<TRIPOS>SUBSTRUCTURE
  1 ****   2 GROUP 4 **** **** 0

# MOE 2024.06 (io_trps.svl 2023.06)
