@<TRIPOS>MOLECULE
NONAME
45 47 1 0 0 
SMALL
USER_CHARGES


@<TRIPOS>ATOM
  1 S       -0.1260     0.1570    -1.1540 S.o2  1 <1>   1.3330 
  2 O       -1.2290    -0.7670    -1.0220 O.2   1 <1>  -0.6500 
  3 O        0.7980     0.0150    -2.2570 O.2   1 <1>  -0.6500 
  4 N        0.7670     0.0910     0.2890 N.am  1 <1>  -0.8490 
  5 C       -0.7640     1.8340    -1.1890 C.3   1 <1>  -0.0550 
  6 C       -0.0560    -0.1490     1.4790 C.3   1 <1>   0.1160 
  7 C        1.8570    -0.8860     0.2290 C.3   1 <1>   0.1160 
  8 C        0.3200     2.9310    -1.2860 C.3   1 <1>  -0.0800 
  9 C       -0.2300     4.3300    -1.5800 C.3   1 <1>   0.2000 
 10 C        1.1580     3.1120    -0.0100 C.3   1 <1>   0.1400 
 11 O       -1.3420     4.5550    -0.7820 O.3   1 <1>  -0.6800 
 12 C        0.8820     5.2630    -1.1090 C.3   1 <1>   0.1400 
 13 N        1.4480     4.5630     0.0670 N.am  1 <1>  -0.6600 
 14 C        2.0950     5.1460     1.1320 C.2   1 <1>   0.5440 
 15 O        2.3380     4.4530     2.1030 O.2   1 <1>  -0.5700 
 16 C        2.4060     6.5570     1.1770 C.ar  1 <1>   0.0860 
 17 C        3.3000     7.1540     0.2510 C.ar  1 <1>   0.3100 
 18 C        1.8240     7.3400     2.1570 C.ar  1 <1>  -0.1500 
 19 N        3.9050     6.4040    -0.7160 N.ar  1 <1>  -0.6200 
 20 C        3.5570     8.5480     0.3530 C.ar  1 <1>   0.3100 
 21 C        2.0780     8.7050     2.2520 C.ar  1 <1>  -0.1500 
 22 C        4.7100     7.0590    -1.4910 C.ar  1 <1>   0.1600 
 23 N        4.3980     9.2010    -0.4920 N.ar  1 <1>  -0.6200 
 24 C        2.9300     9.2940     1.3590 C.ar  1 <1>  -0.1500 
 25 C        4.9520     8.4410    -1.3820 C.ar  1 <1>   0.1600 
 26 H       -1.4060     1.9260    -2.0440 H     1 <1>   0.0800 
 27 H       -1.3710     2.0020    -0.3220 H     1 <1>   0.0800 
 28 H        0.5500    -0.0800     2.3660 H     1 <1>   0.0800 
 29 H       -0.5060    -1.1270     1.4350 H     1 <1>   0.0800 
 30 H       -0.8380     0.5880     1.5450 H     1 <1>   0.0800 
 31 H        2.4120    -0.8840     1.1520 H     1 <1>   0.0800 
 32 H        2.5350    -0.6340    -0.5700 H     1 <1>   0.0800 
 33 H        1.4650    -1.8740     0.0510 H     1 <1>   0.0800 
 34 H        0.9980     2.6760    -2.0830 H     1 <1>   0.0800 
 35 H       -0.5060     4.4790    -2.6100 H     1 <1>   0.0800 
 36 H        2.0740     2.5470    -0.0560 H     1 <1>   0.0800 
 37 H        0.6060     2.8180     0.8670 H     1 <1>   0.0800 
 38 H       -1.0440     4.6010     0.1500 H     1 <1>   0.4000 
 39 H        0.5100     6.2420    -0.8640 H     1 <1>   0.0800 
 40 H        1.6420     5.3410    -1.8680 H     1 <1>   0.0800 
 41 H        1.1600     6.8820     2.8720 H     1 <1>   0.1500 
 42 H        1.6030     9.2830     3.0280 H     1 <1>   0.1500 
 43 H        5.2270     6.5220    -2.2670 H     1 <1>   0.1500 
 44 H        3.1440    10.3470     1.4100 H     1 <1>   0.1500 
 45 H        5.6380     8.8860    -2.0810 H     1 <1>   0.1500 
@<TRIPOS>BOND
  1   1   2  2   
  2   1   3  2   
  3   1   4  am  
  4   1   5  1   
  5   4   6  1   
  6   4   7  1   
  7   5   8  1   
  8   5  26  1   
  9   5  27  1   
 10   6  28  1   
 11   6  29  1   
 12   6  30  1   
 13   7  31  1   
 14   7  32  1   
 15   7  33  1   
 16   8   9  1   
 17   8  10  1   
 18   8  34  1   
 19   9  11  1   
 20   9  12  1   
 21   9  35  1   
 22  10  13  1   
 23  10  36  1   
 24  10  37  1   
 25  11  38  1   
 26  12  13  1   
 27  12  39  1   
 28  12  40  1   
 29  13  14  am  
 30  14  15  2   
 31  14  16  1   
 32  16  17  ar  
 33  16  18  ar  
 34  17  19  ar  
 35  17  20  ar  
 36  18  21  ar  
 37  18  41  1   
 38  19  22  ar  
 39  20  23  ar  
 40  20  24  ar  
 41  21  24  ar  
 42  21  42  1   
 43  22  25  ar  
 44  22  43  1   
 45  23  25  ar  
 46  24  44  1   
 47  25  45  1   
@<TRIPOS>SUBSTRUCTURE
  1 ****  13 GROUP 4 **** **** 0

# MOE 2024.06 (io_trps.svl 2023.06)
