@<TRIPOS>MOLECULE
NONAME
52 54 1 0 0 
SMALL
USER_CHARGES


@<TRIPOS>ATOM
  1 O        0.2540     0.6760    -0.5540 O.co2 1 <1>  -0.9000 
  2 C        1.2960     0.5200    -1.1980 C.2   1 <1>   0.9060 
  3 O        1.3070     0.2340    -2.3990 O.co2 1 <1>  -0.9000 
  4 C        2.6160     0.6750    -0.4790 C.3   1 <1>  -0.2660 
  5 C        3.0070     2.1540    -0.2910 C.3   1 <1>  -0.1600 
  6 C        4.2660     2.3430     0.5730 C.3   1 <1>  -0.0800 
  7 C        4.4830     3.8350     0.8730 C.3   1 <1>  -0.1600 
  8 C        5.5260     1.7720    -0.1000 C.3   1 <1>  -0.1600 
  9 C        5.7430     4.0590     1.7110 C.3   1 <1>   0.2090 
 10 C        6.7900     2.0310     0.7250 C.3   1 <1>   0.2090 
 11 N        6.9310     3.4930     1.0000 N.pl3 1 <1>  -0.8380 
 12 C        7.9450     4.2740     0.5370 C.ar  1 <1>   0.4100 
 13 N        7.6890     5.5490     0.3090 N.ar  1 <1>  -0.6200 
 14 C        9.2310     3.7430     0.3110 C.ar  1 <1>  -0.1500 
 15 C        8.6540     6.3130    -0.1750 C.ar  1 <1>   0.7710 
 16 C       10.2080     4.5420    -0.1800 C.ar  1 <1>   0.2180 
 17 N        9.8830     5.8330    -0.4230 N.ar  1 <1>  -0.1790 
 18 N        8.4010     7.6210    -0.4280 N.pl3 1 <1>  -0.8380 
 19 C       11.6280     4.0680    -0.4600 C.3   1 <1>  -0.0170 
 20 C        7.0610     8.2150    -0.1550 C.3   1 <1>   0.2090 
 21 C        9.3010     8.6480    -1.0180 C.3   1 <1>   0.2090 
 22 C       12.6600     4.7780     0.4270 C.3   1 <1>  -0.2400 
 23 C        7.2330     9.7100    -0.3810 C.3   1 <1>  -0.1600 
 24 C        8.3900     9.8170    -1.3670 C.3   1 <1>  -0.1600 
 25 H        3.3560     0.1560    -1.0540 H     1 <1>   0.0800 
 26 H        2.5180     0.1930     0.4740 H     1 <1>   0.0800 
 27 H        2.1760     2.6530     0.1810 H     1 <1>   0.0800 
 28 H        3.1440     2.6050    -1.2590 H     1 <1>   0.0800 
 29 H        4.1110     1.8310     1.5080 H     1 <1>   0.0800 
 30 H        3.6340     4.2210     1.4080 H     1 <1>   0.0800 
 31 H        4.5740     4.3870    -0.0460 H     1 <1>   0.0800 
 32 H        5.6480     2.2120    -1.0740 H     1 <1>   0.0800 
 33 H        5.4200     0.7110    -0.2330 H     1 <1>   0.0800 
 34 H        5.6350     3.5660     2.6610 H     1 <1>   0.0800 
 35 H        5.8670     5.1110     1.9030 H     1 <1>   0.0800 
 36 H        7.6330     1.6520     0.1790 H     1 <1>   0.0800 
 37 H        6.7260     1.5010     1.6610 H     1 <1>   0.0800 
 38 H        9.4190     2.7150     0.5500 H     1 <1>   0.1500 
 39 H       10.5510     6.5020    -0.7770 H     1 <1>   0.4570 
 40 H       11.8680     4.2300    -1.4970 H     1 <1>   0.0800 
 41 H       11.6920     3.0080    -0.2800 H     1 <1>   0.0800 
 42 H        6.7360     8.0060     0.8510 H     1 <1>   0.0800 
 43 H        6.3450     7.8110    -0.8520 H     1 <1>   0.0800 
 44 H        9.8020     8.2850    -1.8990 H     1 <1>   0.0800 
 45 H       10.0210     8.9620    -0.2790 H     1 <1>   0.0800 
 46 H       12.6910     5.8340     0.2320 H     1 <1>   0.0800 
 47 H       13.6410     4.3750     0.2370 H     1 <1>   0.0800 
 48 H       12.4320     4.6220     1.4680 H     1 <1>   0.0800 
 49 H        7.4980    10.1770     0.5520 H     1 <1>   0.0800 
 50 H        6.3310    10.1630    -0.7540 H     1 <1>   0.0800 
 51 H        8.0240     9.6930    -2.3720 H     1 <1>   0.0800 
 52 H        8.9010    10.7620    -1.2960 H     1 <1>   0.0800 
@<TRIPOS>BOND
  1   1   2  ar  
  2   2   3  ar  
  3   2   4  1   
  4   4   5  1   
  5   4  25  1   
  6   4  26  1   
  7   5   6  1   
  8   5  27  1   
  9   5  28  1   
 10   6   7  1   
 11   6   8  1   
 12   6  29  1   
 13   7   9  1   
 14   7  30  1   
 15   7  31  1   
 16   8  10  1   
 17   8  32  1   
 18   8  33  1   
 19   9  11  1   
 20   9  34  1   
 21   9  35  1   
 22  10  11  1   
 23  10  36  1   
 24  10  37  1   
 25  11  12  1   
 26  12  13  ar  
 27  12  14  ar  
 28  13  15  ar  
 29  14  16  ar  
 30  14  38  1   
 31  15  17  ar  
 32  15  18  1   
 33  16  17  ar  
 34  16  19  1   
 35  17  39  1   
 36  18  20  1   
 37  18  21  1   
 38  19  22  1   
 39  19  40  1   
 40  19  41  1   
 41  20  23  1   
 42  20  42  1   
 43  20  43  1   
 44  21  24  1   
 45  21  44  1   
 46  21  45  1   
 47  22  46  1   
 48  22  47  1   
 49  22  48  1   
 50  23  24  1   
 51  23  49  1   
 52  23  50  1   
 53  24  51  1   
 54  24  52  1   
@<TRIPOS>SUBSTRUCTURE
  1 ****  12 GROUP 4 **** **** 0

# MOE 2024.06 (io_trps.svl 2023.06)
