@<TRIPOS>MOLECULE
NONAME
44 46 1 0 0 
SMALL
USER_CHARGES


@<TRIPOS>ATOM
  1 O       -2.1210     0.4210     2.4600 O.2   1 <1>  -0.5700 
  2 C       -1.8710     1.1270     1.5020 C.2   1 <1>   0.5440 
  3 N       -1.8730     0.5650     0.2410 N.am  1 <1>  -0.6600 
  4 C       -1.5940     2.5330     1.7210 C.ar  1 <1>   0.0860 
  5 C       -1.9200    -0.9140     0.0320 C.3   1 <1>   0.1400 
  6 C       -2.0390     1.3420    -1.0260 C.3   1 <1>   0.1400 
  7 C       -0.5590     3.2060     1.1000 C.ar  1 <1>  -0.1500 
  8 C       -2.3560     3.3060     2.5860 C.ar  1 <1>  -0.1500 
  9 C       -3.1290    -1.3020    -0.8350 C.3   1 <1>   0.1200 
 10 C       -3.2340     0.8140    -1.8390 C.3   1 <1>   0.1200 
 11 C       -0.3490     4.5600     1.3190 C.ar  1 <1>   0.4100 
 12 C       -2.0740     4.6460     2.7510 C.ar  1 <1>   0.1600 
 13 O       -3.1350    -0.5690    -2.0280 O.3   1 <1>  -0.5600 
 14 N       -1.1000     5.2910     2.1330 N.ar  1 <1>  -0.6200 
 15 N        0.6830     5.1970     0.6640 N.pl3 1 <1>  -0.8380 
 16 C        0.5220     6.6380     0.3270 C.3   1 <1>   0.3900 
 17 C        2.0810     4.7850     0.9710 C.3   1 <1>   0.1290 
 18 C        1.3630     6.9800    -0.8910 C.2   1 <1>  -0.1810 
 19 C        2.3030     7.9330    -1.0890 C.2   1 <1>  -0.3320 
 20 C        1.2880     6.2990    -2.1010 C.2   1 <1>   0.1390 
 21 N        2.7310     7.7870    -2.3620 N.pl3 1 <1>   0.3000 
 22 C        2.8410     8.9970    -0.1470 C.3   1 <1>  -0.0600 
 23 N        2.1050     6.7750    -2.9900 N.2   1 <1>  -0.7070 
 24 H       -1.9770    -1.4340     0.9720 H     1 <1>   0.0800 
 25 H       -1.0180    -1.2290    -0.4620 H     1 <1>   0.0800 
 26 H       -1.1440     1.2520    -1.6160 H     1 <1>   0.0800 
 27 H       -2.2020     2.3840    -0.8190 H     1 <1>   0.0800 
 28 H        0.0970     2.6860     0.4300 H     1 <1>   0.1500 
 29 H       -3.1660     2.8490     3.1260 H     1 <1>   0.1500 
 30 H       -4.0470    -1.1160    -0.3060 H     1 <1>   0.0800 
 31 H       -3.0820    -2.3460    -1.0900 H     1 <1>   0.0800 
 32 H       -3.2560     1.2770    -2.8090 H     1 <1>   0.0800 
 33 H       -4.1590     1.0270    -1.3320 H     1 <1>   0.0800 
 34 H       -2.6820     5.2230     3.4270 H     1 <1>   0.1500 
 35 H        0.8160     7.2370     1.1700 H     1 <1>   0.0800 
 36 H       -0.5110     6.8470     0.1080 H     1 <1>   0.0800 
 37 H        2.0920     3.8520     1.5080 H     1 <1>   0.0800 
 38 H        2.5610     5.5340     1.5760 H     1 <1>   0.0800 
 39 H        2.6330     4.6660     0.0550 H     1 <1>   0.0800 
 40 H        0.6300     5.4650    -2.2810 H     1 <1>   0.1500 
 41 H        3.4450     8.3590    -2.8310 H     1 <1>   0.2700 
 42 H        2.3610     8.9330     0.8120 H     1 <1>   0.0800 
 43 H        2.6590     9.9760    -0.5530 H     1 <1>   0.0800 
 44 H        3.8990     8.8670    -0.0070 H     1 <1>   0.0800 
@<TRIPOS>BOND
  1   1   2  2   
  2   2   3  am  
  3   2   4  1   
  4   3   5  1   
  5   3   6  1   
  6   4   7  ar  
  7   4   8  ar  
  8   5   9  1   
  9   5  24  1   
 10   5  25  1   
 11   6  10  1   
 12   6  26  1   
 13   6  27  1   
 14   7  11  ar  
 15   7  28  1   
 16   8  12  ar  
 17   8  29  1   
 18   9  13  1   
 19   9  30  1   
 20   9  31  1   
 21  10  13  1   
 22  10  32  1   
 23  10  33  1   
 24  11  14  ar  
 25  11  15  1   
 26  12  14  ar  
 27  12  34  1   
 28  15  16  1   
 29  15  17  1   
 30  16  18  1   
 31  16  35  1   
 32  16  36  1   
 33  17  37  1   
 34  17  38  1   
 35  17  39  1   
 36  18  19  2   
 37  18  20  1   
 38  19  21  1   
 39  19  22  1   
 40  20  23  2   
 41  20  40  1   
 42  21  23  1   
 43  21  41  1   
 44  22  42  1   
 45  22  43  1   
 46  22  44  1   
@<TRIPOS>SUBSTRUCTURE
  1 ****   7 GROUP 4 **** **** 0

# MOE 2024.06 (io_trps.svl 2023.06)
