@<TRIPOS>MOLECULE
NONAME
51 54 1 0 0 
SMALL
USER_CHARGES


@<TRIPOS>ATOM
  1 O       -1.1430    -0.8950     0.9450 O.2   1 <1>  -0.5700 
  2 C       -0.7910    -1.8820     0.3100 C.2   1 <1>   0.5440 
  3 N       -1.4130    -2.2050    -0.8900 N.am  1 <1>  -0.2980 
  4 C        0.2970    -2.7130     0.7450 C.ar  1 <1>   0.0860 
  5 N       -0.9740    -3.1870    -1.7500 N.2   1 <1>  -0.5120 
  6 C       -2.6720    -1.4980    -1.2580 C.3   1 <1>   0.2010 
  7 C        0.7120    -3.7390    -0.1150 C.ar  1 <1>   0.0860 
  8 C        0.9560    -2.5460     1.9660 C.ar  1 <1>  -0.1500 
  9 C        0.0260    -3.8940    -1.3600 C.2   1 <1>   0.3040 
 10 C       -3.8750    -1.8560    -0.3760 C.2   1 <1>   0.5690 
 11 C        1.7730    -4.5650     0.2720 C.ar  1 <1>  -0.1500 
 12 C        1.9990    -3.3680     2.3320 C.ar  1 <1>  -0.1500 
 13 O       -3.8580    -2.8960     0.2470 O.2   1 <1>  -0.5700 
 14 N       -4.9720    -1.0210    -0.3260 N.am  1 <1>  -0.6600 
 15 C        2.4100    -4.3830     1.4800 C.ar  1 <1>  -0.1500 
 16 C       -6.1310    -1.3190     0.5740 C.3   1 <1>   0.1400 
 17 C       -5.1810     0.1950    -1.1570 C.3   1 <1>   0.1400 
 18 C       -7.4230    -1.5460    -0.2510 C.3   1 <1>   0.0000 
 19 C       -6.4380     0.0160    -2.0170 C.3   1 <1>  -0.1600 
 20 C       -8.6300    -1.8220     0.6630 C.3   1 <1>   0.2000 
 21 C       -7.6720    -0.3240    -1.1630 C.3   1 <1>  -0.1600 
 22 C       -7.3290    -2.8620    -1.0420 C.3   1 <1>  -0.1600 
 23 O       -8.6260    -0.9900     1.7850 O.3   1 <1>  -0.5600 
 24 C       -8.5230    -3.2990     1.0550 C.3   1 <1>  -0.1600 
 25 C       -7.6820    -3.9670    -0.0410 C.3   1 <1>  -0.1600 
 26 C       -9.8170    -0.9690     2.5060 C.3   1 <1>   0.0400 
 27 H       -2.4850    -0.4440    -1.1880 H     1 <1>   0.0800 
 28 H       -2.9180    -1.7340    -2.2760 H     1 <1>   0.0800 
 29 H        0.6320    -1.7570     2.6250 H     1 <1>   0.1500 
 30 H        0.3860    -4.6710    -2.0110 H     1 <1>   0.0600 
 31 H        2.0940    -5.3540    -0.3860 H     1 <1>   0.1500 
 32 H        2.4960    -3.2270     3.2770 H     1 <1>   0.1500 
 33 H        3.2260    -5.0240     1.7700 H     1 <1>   0.1500 
 34 H       -5.9260    -2.1780     1.1870 H     1 <1>   0.0800 
 35 H       -6.2660    -0.4830     1.2360 H     1 <1>   0.0800 
 36 H       -5.3050     1.0430    -0.5040 H     1 <1>   0.0800 
 37 H       -4.3410     0.3890    -1.7970 H     1 <1>   0.0800 
 38 H       -6.6230     0.9230    -2.5650 H     1 <1>   0.0800 
 39 H       -6.2620    -0.7670    -2.7340 H     1 <1>   0.0800 
 40 H       -9.5370    -1.6560     0.1060 H     1 <1>   0.0800 
 41 H       -8.5170    -0.5030    -1.8030 H     1 <1>   0.0800 
 42 H       -7.9070     0.5230    -0.5420 H     1 <1>   0.0800 
 43 H       -8.0600    -2.8640    -1.8320 H     1 <1>   0.0800 
 44 H       -6.3570    -3.0220    -1.4760 H     1 <1>   0.0800 
 45 H       -8.0180    -3.3970     2.0010 H     1 <1>   0.0800 
 46 H       -9.4980    -3.7460     1.1160 H     1 <1>   0.0800 
 47 H       -6.7760    -4.3630     0.3890 H     1 <1>   0.0800 
 48 H       -8.2150    -4.7690    -0.5220 H     1 <1>   0.0800 
 49 H       -9.6980    -0.2810     3.3240 H     1 <1>   0.0800 
 50 H      -10.0220    -1.9530     2.8900 H     1 <1>   0.0800 
 51 H      -10.6150    -0.6360     1.8660 H     1 <1>   0.0800 
@<TRIPOS>BOND
  1   1   2  2   
  2   2   3  am  
  3   2   4  1   
  4   3   5  1   
  5   3   6  1   
  6   4   7  ar  
  7   4   8  ar  
  8   5   9  2   
  9   6  10  1   
 10   6  27  1   
 11   6  28  1   
 12   7   9  1   
 13   7  11  ar  
 14   8  12  ar  
 15   8  29  1   
 16   9  30  1   
 17  10  13  2   
 18  10  14  am  
 19  11  15  ar  
 20  11  31  1   
 21  12  15  ar  
 22  12  32  1   
 23  14  16  1   
 24  14  17  1   
 25  15  33  1   
 26  16  18  1   
 27  16  34  1   
 28  16  35  1   
 29  17  19  1   
 30  17  36  1   
 31  17  37  1   
 32  18  20  1   
 33  18  21  1   
 34  18  22  1   
 35  19  21  1   
 36  19  38  1   
 37  19  39  1   
 38  20  23  1   
 39  20  24  1   
 40  20  40  1   
 41  21  41  1   
 42  21  42  1   
 43  22  25  1   
 44  22  43  1   
 45  22  44  1   
 46  23  26  1   
 47  24  25  1   
 48  24  45  1   
 49  24  46  1   
 50  25  47  1   
 51  25  48  1   
 52  26  49  1   
 53  26  50  1   
 54  26  51  1   
@<TRIPOS>SUBSTRUCTURE
  1 ****  10 GROUP 4 **** **** 0

# MOE 2024.06 (io_trps.svl 2023.06)
