@<TRIPOS>MOLECULE
NONAME
36 38 1 0 0 
SMALL
USER_CHARGES


@<TRIPOS>ATOM
  1 CL      -0.2610     0.5760     0.5600 Cl    1 <1>  -0.1770 
  2 C       -1.7710     1.3560     0.1960 C.ar  1 <1>   0.7970 
  3 N       -1.6880     2.6710     0.0230 N.ar  1 <1>  -0.6200 
  4 N       -2.8180     0.5550     0.1390 N.ar  1 <1>  -0.5660 
  5 C       -2.8260     3.2770    -0.2510 C.ar  1 <1>   0.4100 
  6 C       -3.9550     1.1760    -0.1460 C.ar  1 <1>   0.2560 
  7 N       -2.8000     4.6460    -0.4250 N.pl3 1 <1>  -0.8380 
  8 C       -3.9920     2.5300    -0.3430 C.ar  1 <1>   0.0400 
  9 C       -5.2350     0.5470    -0.2820 C.2   1 <1>  -0.1500 
 10 C       -1.5780     5.3260    -0.9590 C.3   1 <1>   0.2090 
 11 C       -3.5750     5.5210     0.5050 C.3   1 <1>   0.2090 
 12 S       -5.6500     3.0410    -0.7110 S.3   1 <1>  -0.0800 
 13 C       -6.2520     1.3830    -0.5770 C.2   1 <1>  -0.1400 
 14 C       -0.7660     5.9740     0.1770 C.3   1 <1>   0.1200 
 15 C       -2.6500     6.1650     1.5550 C.3   1 <1>   0.1200 
 16 C       -7.7410     1.1490    -0.8120 C.3   1 <1>   0.4600 
 17 O       -1.5740     6.8230     0.9460 O.3   1 <1>  -0.5600 
 18 O       -8.0050    -0.1690    -0.5430 O.3   1 <1>  -0.6800 
 19 C       -8.6090     1.9640     0.1430 C.3   1 <1>  -0.2400 
 20 C       -8.1240     1.3840    -2.2680 C.3   1 <1>  -0.2400 
 21 H       -5.3110    -0.5170    -0.1550 H     1 <1>   0.1500 
 22 H       -1.8750     6.0870    -1.6590 H     1 <1>   0.0800 
 23 H       -0.9600     4.6200    -1.4880 H     1 <1>   0.0800 
 24 H       -4.3320     4.9490     1.0110 H     1 <1>   0.0800 
 25 H       -4.0640     6.2940    -0.0610 H     1 <1>   0.0800 
 26 H        0.0370     6.5610    -0.2300 H     1 <1>   0.0800 
 27 H       -0.3520     5.2150     0.8180 H     1 <1>   0.0800 
 28 H       -2.2600     5.4140     2.2200 H     1 <1>   0.0800 
 29 H       -3.1940     6.8900     2.1330 H     1 <1>   0.0800 
 30 H       -7.7330    -0.3560     0.3720 H     1 <1>   0.4000 
 31 H       -8.3090     1.7950     1.1610 H     1 <1>   0.0800 
 32 H       -9.6440     1.6990     0.0240 H     1 <1>   0.0800 
 33 H       -8.5060     3.0120    -0.0690 H     1 <1>   0.0800 
 34 H       -7.5150     0.7730    -2.9100 H     1 <1>   0.0800 
 35 H       -7.9670     2.4130    -2.5320 H     1 <1>   0.0800 
 36 H       -9.1590     1.1440    -2.4270 H     1 <1>   0.0800 
@<TRIPOS>BOND
  1   1   2  1   
  2   2   3  ar  
  3   2   4  ar  
  4   3   5  ar  
  5   4   6  ar  
  6   5   7  1   
  7   5   8  ar  
  8   6   8  ar  
  9   6   9  1   
 10   7  10  1   
 11   7  11  1   
 12   8  12  1   
 13   9  13  2   
 14   9  21  1   
 15  10  14  1   
 16  10  22  1   
 17  10  23  1   
 18  11  15  1   
 19  11  24  1   
 20  11  25  1   
 21  12  13  1   
 22  13  16  1   
 23  14  17  1   
 24  14  26  1   
 25  14  27  1   
 26  15  17  1   
 27  15  28  1   
 28  15  29  1   
 29  16  18  1   
 30  16  19  1   
 31  16  20  1   
 32  18  30  1   
 33  19  31  1   
 34  19  32  1   
 35  19  33  1   
 36  20  34  1   
 37  20  35  1   
 38  20  36  1   
@<TRIPOS>SUBSTRUCTURE
  1 ****   8 GROUP 4 **** **** 0

# MOE 2024.06 (io_trps.svl 2023.06)
