@<TRIPOS>MOLECULE
NONAME
45 47 1 0 0 
SMALL
USER_CHARGES


@<TRIPOS>ATOM
  1 O       -1.8300     2.3410    -2.8650 O.co2 1 <1>  -0.9000 
  2 C       -1.0010     2.1070    -1.9740 C.2   1 <1>   0.9060 
  3 O        0.0260     1.4590    -2.1860 O.co2 1 <1>  -0.9000 
  4 C       -1.3720     2.3860    -0.4910 C.3   1 <1>   0.4600 
  5 N       -2.5820     1.6060    -0.0070 N.4   1 <1>  -0.9590 
  6 C       -1.5760     3.8500    -0.0840 C.ar  1 <1>  -0.1430 
  7 C       -2.3530     0.1650    -0.2750 C.3   1 <1>   0.5230 
  8 C       -3.8240     2.0490    -0.7360 C.3   1 <1>   0.3430 
  9 C       -1.9950     4.8270    -0.9790 C.ar  1 <1>  -0.1500 
 10 C       -1.3540     4.2080     1.2370 C.ar  1 <1>  -0.1500 
 11 C       -3.5590    -0.5650     0.2580 C.2   1 <1>  -0.3320 
 12 C       -5.0890     1.3660    -0.2040 C.3   1 <1>   0.0960 
 13 C       -2.2020     6.1450    -0.5780 C.ar  1 <1>   0.0830 
 14 C       -1.5620     5.5090     1.6520 C.ar  1 <1>  -0.1500 
 15 N       -4.7830    -0.0050     0.2280 N.pl3 1 <1>   0.3140 
 16 C       -3.7000    -1.7850     0.8190 C.2   1 <1>  -0.1500 
 17 O       -2.6250     7.0810    -1.4770 O.3   1 <1>  -0.3630 
 18 C       -1.9860     6.4870     0.7690 C.ar  1 <1>   0.0830 
 19 N       -5.7070    -0.8140     0.7610 N.2   1 <1>  -0.7070 
 20 C       -5.0570    -1.8810     1.1070 C.2   1 <1>   0.1080 
 21 C       -2.4330     6.9110    -2.8670 C.3   1 <1>   0.0400 
 22 O       -2.1480     7.7180     1.3360 O.3   1 <1>  -0.3630 
 23 C       -5.7360    -3.0690     1.7470 C.3   1 <1>  -0.0590 
 24 C       -2.2220     8.9060     0.5800 C.3   1 <1>   0.0400 
 25 H       -0.5170     2.0370     0.0580 H     1 <1>   0.0800 
 26 H       -2.6900     1.7510     0.9990 H     1 <1>   0.4500 
 27 H       -1.4550    -0.1810     0.2110 H     1 <1>   0.0800 
 28 H       -2.2590    -0.0060    -1.3380 H     1 <1>   0.0800 
 29 H       -3.7230     1.8130    -1.7850 H     1 <1>   0.0800 
 30 H       -3.9410     3.1170    -0.6610 H     1 <1>   0.0800 
 31 H       -2.1690     4.5550    -2.0030 H     1 <1>   0.1500 
 32 H       -1.0150     3.4830     1.9570 H     1 <1>   0.1500 
 33 H       -5.8470     1.3350    -0.9640 H     1 <1>   0.0800 
 34 H       -5.4720     1.9060     0.6410 H     1 <1>   0.0800 
 35 H       -1.3920     5.7820     2.6780 H     1 <1>   0.1500 
 36 H       -2.9600    -2.5410     1.0160 H     1 <1>   0.1500 
 37 H       -2.6540     7.8440    -3.3520 H     1 <1>   0.0800 
 38 H       -3.1030     6.1490    -3.2250 H     1 <1>   0.0800 
 39 H       -1.4090     6.6370    -3.0500 H     1 <1>   0.0800 
 40 H       -5.0240    -3.8450     1.9550 H     1 <1>   0.0800 
 41 H       -6.4910    -3.4500     1.0840 H     1 <1>   0.0800 
 42 H       -6.2040    -2.7630     2.6650 H     1 <1>   0.0800 
 43 H       -2.1480     9.7380     1.2560 H     1 <1>   0.0800 
 44 H       -3.1680     8.9350     0.0700 H     1 <1>   0.0800 
 45 H       -1.4060     8.9260    -0.1200 H     1 <1>   0.0800 
@<TRIPOS>BOND
  1   1   2  ar  
  2   2   3  ar  
  3   2   4  1   
  4   4   5  1   
  5   4   6  1   
  6   4  25  1   
  7   5   7  1   
  8   5   8  1   
  9   5  26  1   
 10   6   9  ar  
 11   6  10  ar  
 12   7  11  1   
 13   7  27  1   
 14   7  28  1   
 15   8  12  1   
 16   8  29  1   
 17   8  30  1   
 18   9  13  ar  
 19   9  31  1   
 20  10  14  ar  
 21  10  32  1   
 22  11  15  1   
 23  11  16  2   
 24  12  15  1   
 25  12  33  1   
 26  12  34  1   
 27  13  17  1   
 28  13  18  ar  
 29  14  18  ar  
 30  14  35  1   
 31  15  19  1   
 32  16  20  1   
 33  16  36  1   
 34  17  21  1   
 35  18  22  1   
 36  19  20  2   
 37  20  23  1   
 38  21  37  1   
 39  21  38  1   
 40  21  39  1   
 41  22  24  1   
 42  23  40  1   
 43  23  41  1   
 44  23  42  1   
 45  24  43  1   
 46  24  44  1   
 47  24  45  1   
@<TRIPOS>SUBSTRUCTURE
  1 ****   5 GROUP 4 **** **** 0

# MOE 2024.06 (io_trps.svl 2023.06)
