@<TRIPOS>MOLECULE
NONAME
51 53 1 0 0 
SMALL
USER_CHARGES


@<TRIPOS>ATOM
  1 O        0.7530    -0.1700    -1.5050 O.2   1 <1>  -0.5700 
  2 C        1.7030    -0.8800    -1.2320 C.2   1 <1>   0.5440 
  3 N        2.9410    -0.2960    -1.0470 N.am  1 <1>  -0.6600 
  4 C        1.5010    -2.3100    -1.1000 C.ar  1 <1>   0.0860 
  5 C        4.0690    -0.9800    -0.3360 C.3   1 <1>   0.1400 
  6 C        3.1770     1.1200    -1.4480 C.3   1 <1>   0.1400 
  7 C        0.5740    -2.8220    -0.1970 C.ar  1 <1>  -0.1500 
  8 C        2.2260    -3.2200    -1.8700 C.ar  1 <1>  -0.1500 
  9 C        4.4670    -0.2550     0.9580 C.3   1 <1>   0.1400 
 10 C        2.9680     2.0480    -0.2440 C.3   1 <1>  -0.1600 
 11 C        0.3840    -4.1840    -0.0440 C.ar  1 <1>   0.0830 
 12 C        2.0460    -4.5840    -1.7300 C.ar  1 <1>  -0.1500 
 13 N        5.1140     1.0570     0.6590 N.am  1 <1>  -0.6600 
 14 C        4.1930     2.2320     0.6650 C.3   1 <1>   0.1400 
 15 O       -0.5370    -4.5710     0.8710 O.3   1 <1>  -0.3630 
 16 C        1.1280    -5.0710    -0.8170 C.ar  1 <1>  -0.1500 
 17 C        6.4530     1.0910     0.3460 C.2   1 <1>   0.5690 
 18 C       -0.8700    -5.9280     1.0520 C.3   1 <1>   0.1200 
 19 O        7.0990     0.0690     0.2910 O.2   1 <1>  -0.5700 
 20 C        7.1670     2.4100     0.0500 C.3   1 <1>  -0.0190 
 21 C       -1.9600    -6.0080     2.1170 C.3   1 <1>  -0.2400 
 22 C        8.5770     2.2520    -0.5010 C.3   1 <1>   0.1200 
 23 C        7.4110     3.2830     1.2780 C.3   1 <1>  -0.1600 
 24 O        9.1900     3.4680    -0.2280 O.3   1 <1>  -0.5600 
 25 C        8.7600     3.9480     1.0050 C.3   1 <1>   0.1200 
 26 H        4.9220    -1.0420    -0.9880 H     1 <1>   0.0800 
 27 H        3.7890    -1.9830    -0.0720 H     1 <1>   0.0800 
 28 H        2.4780     1.3870    -2.2230 H     1 <1>   0.0800 
 29 H        4.1680     1.2300    -1.8540 H     1 <1>   0.0800 
 30 H       -0.0110    -2.1420     0.3960 H     1 <1>   0.1500 
 31 H        2.9370    -2.8440    -2.5850 H     1 <1>   0.1500 
 32 H        5.1610    -0.8730     1.5010 H     1 <1>   0.0800 
 33 H        3.6010    -0.1160     1.5810 H     1 <1>   0.0800 
 34 H        2.1340     1.6900     0.3340 H     1 <1>   0.0800 
 35 H        2.6860     3.0180    -0.6100 H     1 <1>   0.0800 
 36 H        2.6190    -5.2670    -2.3330 H     1 <1>   0.1500 
 37 H        3.8620     2.4100     1.6740 H     1 <1>   0.0800 
 38 H        4.7130     3.1140     0.3440 H     1 <1>   0.0800 
 39 H        1.0070    -6.1330    -0.7230 H     1 <1>   0.1500 
 40 H        0.0120    -6.4570     1.3700 H     1 <1>   0.0800 
 41 H       -1.2250    -6.3200     0.1140 H     1 <1>   0.0800 
 42 H        6.6100     2.9560    -0.6880 H     1 <1>   0.0800 
 43 H       -1.6010    -5.6000     3.0440 H     1 <1>   0.0800 
 44 H       -2.2380    -7.0340     2.2770 H     1 <1>   0.0800 
 45 H       -2.8290    -5.4620     1.7960 H     1 <1>   0.0800 
 46 H        8.5920     2.0710    -1.5620 H     1 <1>   0.0800 
 47 H        9.1260     1.4820     0.0150 H     1 <1>   0.0800 
 48 H        7.4880     2.6820     2.1680 H     1 <1>   0.0800 
 49 H        6.6370     4.0160     1.4170 H     1 <1>   0.0800 
 50 H        9.4910     3.6740     1.7470 H     1 <1>   0.0800 
 51 H        8.6810     5.0200     0.9420 H     1 <1>   0.0800 
@<TRIPOS>BOND
  1   1   2  2   
  2   2   3  am  
  3   2   4  1   
  4   3   5  1   
  5   3   6  1   
  6   4   7  ar  
  7   4   8  ar  
  8   5   9  1   
  9   5  26  1   
 10   5  27  1   
 11   6  10  1   
 12   6  28  1   
 13   6  29  1   
 14   7  11  ar  
 15   7  30  1   
 16   8  12  ar  
 17   8  31  1   
 18   9  13  1   
 19   9  32  1   
 20   9  33  1   
 21  10  14  1   
 22  10  34  1   
 23  10  35  1   
 24  11  15  1   
 25  11  16  ar  
 26  12  16  ar  
 27  12  36  1   
 28  13  14  1   
 29  13  17  am  
 30  14  37  1   
 31  14  38  1   
 32  15  18  1   
 33  16  39  1   
 34  17  19  2   
 35  17  20  1   
 36  18  21  1   
 37  18  40  1   
 38  18  41  1   
 39  20  22  1   
 40  20  23  1   
 41  20  42  1   
 42  21  43  1   
 43  21  44  1   
 44  21  45  1   
 45  22  24  1   
 46  22  46  1   
 47  22  47  1   
 48  23  25  1   
 49  23  48  1   
 50  23  49  1   
 51  24  25  1   
 52  25  50  1   
 53  25  51  1   
@<TRIPOS>SUBSTRUCTURE
  1 ****   5 GROUP 4 **** **** 0

# MOE 2024.06 (io_trps.svl 2023.06)
