@<TRIPOS>MOLECULE
NONAME
51 53 1 0 0 
SMALL
USER_CHARGES


@<TRIPOS>ATOM
  1 O        2.1550     2.2700     0.3390 O.co2 1 <1>  -0.9000 
  2 C        1.2050     2.6030     1.0470 C.2   1 <1>   0.9060 
  3 O        1.3610     3.1300     2.1530 O.co2 1 <1>  -0.9000 
  4 C       -0.1620     2.5530     0.4150 C.3   1 <1>  -0.1860 
  5 C       -1.3680     3.0410     1.2480 C.3   1 <1>   0.2000 
  6 C       -0.0290     3.3940    -0.8480 C.3   1 <1>   0.3430 
  7 O       -1.1480     2.7790     2.5770 O.3   1 <1>  -0.6800 
  8 C       -1.6540     4.5420     1.1000 C.3   1 <1>  -0.1600 
  9 N        0.1740     4.8550    -0.5460 N.4   1 <1>  -0.9590 
 10 C       -0.3740     5.3020     0.7780 C.3   1 <1>   0.3430 
 11 C        1.6320     5.1760    -0.5610 C.3   1 <1>   0.4860 
 12 C        1.7710     6.6680    -0.8110 C.ar  1 <1>  -0.1440 
 13 C        2.0010     7.5300     0.2540 C.ar  1 <1>   0.0820 
 14 C        1.6790     7.1850    -2.0940 C.ar  1 <1>  -0.1500 
 15 O        2.1040     7.0310     1.5040 O.3   1 <1>  -0.3620 
 16 C        2.1140     8.8960     0.0440 C.ar  1 <1>  -0.1500 
 17 C        1.7980     8.5490    -2.3060 C.ar  1 <1>  -0.1500 
 18 C        3.4020     6.9590     2.0730 C.3   1 <1>   0.2630 
 19 C        2.0130     9.4040    -1.2380 C.ar  1 <1>  -0.1500 
 20 C        4.3160     6.1230     1.1860 C.ar  1 <1>  -0.1440 
 21 C        4.2890     4.7400     1.2710 C.ar  1 <1>  -0.1500 
 22 C        5.1630     6.7270     0.2680 C.ar  1 <1>  -0.1500 
 23 C        5.0770     3.9720     0.4340 C.ar  1 <1>  -0.1500 
 24 C        5.9610     5.9570    -0.5600 C.ar  1 <1>  -0.1500 
 25 C        5.9180     4.5750    -0.4860 C.ar  1 <1>  -0.1440 
 26 C        6.7810     3.7220    -1.3970 C.3   1 <1>  -0.0970 
 27 H       -0.3330     1.5330     0.1320 H     1 <1>   0.0800 
 28 H       -2.2530     2.4930     0.9710 H     1 <1>   0.0800 
 29 H       -0.9290     3.2760    -1.4270 H     1 <1>   0.0800 
 30 H        0.7950     3.0210    -1.4360 H     1 <1>   0.0800 
 31 H       -0.1660     2.9130     2.7480 H     1 <1>   0.4000 
 32 H       -2.3600     4.7020     0.3060 H     1 <1>   0.0800 
 33 H       -2.0920     4.9250     2.0050 H     1 <1>   0.0800 
 34 H       -0.2430     5.4260    -1.2850 H     1 <1>   0.4500 
 35 H        0.3470     5.1040     1.5580 H     1 <1>   0.0800 
 36 H       -0.5560     6.3640     0.7630 H     1 <1>   0.0800 
 37 H        2.0780     4.9010     0.3800 H     1 <1>   0.0800 
 38 H        2.1370     4.6270    -1.3370 H     1 <1>   0.0800 
 39 H        1.5210     6.5360    -2.9380 H     1 <1>   0.1500 
 40 H        2.2780     9.5540     0.8780 H     1 <1>   0.1500 
 41 H        1.7280     8.9490    -3.3040 H     1 <1>   0.1500 
 42 H        3.7810     7.9580     2.1880 H     1 <1>   0.0800 
 43 H        3.3070     6.5040     3.0430 H     1 <1>   0.0800 
 44 H        2.1030    10.4640    -1.4070 H     1 <1>   0.1500 
 45 H        3.6400     4.2410     1.9740 H     1 <1>   0.1500 
 46 H        5.1960     7.7990     0.1870 H     1 <1>   0.1500 
 47 H        5.0120     2.8990     0.5080 H     1 <1>   0.1500 
 48 H        6.6130     6.4390    -1.2670 H     1 <1>   0.1500 
 49 H        6.2910     2.7880    -1.6060 H     1 <1>   0.0800 
 50 H        7.7230     3.5210    -0.9210 H     1 <1>   0.0800 
 51 H        6.9600     4.2280    -2.3290 H     1 <1>   0.0800 
@<TRIPOS>BOND
  1   1   2  ar  
  2   2   3  ar  
  3   2   4  1   
  4   4   5  1   
  5   4   6  1   
  6   4  27  1   
  7   5   7  1   
  8   5   8  1   
  9   5  28  1   
 10   6   9  1   
 11   6  29  1   
 12   6  30  1   
 13   7  31  1   
 14   8  10  1   
 15   8  32  1   
 16   8  33  1   
 17   9  10  1   
 18   9  11  1   
 19   9  34  1   
 20  10  35  1   
 21  10  36  1   
 22  11  12  1   
 23  11  37  1   
 24  11  38  1   
 25  12  13  ar  
 26  12  14  ar  
 27  13  15  1   
 28  13  16  ar  
 29  14  17  ar  
 30  14  39  1   
 31  15  18  1   
 32  16  19  ar  
 33  16  40  1   
 34  17  19  ar  
 35  17  41  1   
 36  18  20  1   
 37  18  42  1   
 38  18  43  1   
 39  19  44  1   
 40  20  21  ar  
 41  20  22  ar  
 42  21  23  ar  
 43  21  45  1   
 44  22  24  ar  
 45  22  46  1   
 46  23  25  ar  
 47  23  47  1   
 48  24  25  ar  
 49  24  48  1   
 50  25  26  1   
 51  26  49  1   
 52  26  50  1   
 53  26  51  1   
@<TRIPOS>SUBSTRUCTURE
  1 ****  11 GROUP 4 **** **** 0

# MOE 2024.06 (io_trps.svl 2023.06)
