@<TRIPOS>MOLECULE
NONAME
35 36 1 0 0 
SMALL
USER_CHARGES


@<TRIPOS>ATOM
  1 F       -0.2770     0.1050     0.3530 F     1 <1>  -0.1900 
  2 C       -1.3750     0.8240     0.4580 C.ar  1 <1>   0.1900 
  3 C       -1.3390     2.2260     0.4510 C.ar  1 <1>   0.4100 
  4 C       -2.5790     0.1670     0.5650 C.ar  1 <1>   0.1660 
  5 N       -2.4890     2.8790     0.5410 N.ar  1 <1>  -0.6200 
  6 N       -0.1920     3.0300     0.3640 N.pl3 1 <1>  -0.8380 
  7 N       -3.7130     0.8420     0.6570 N.ar  1 <1>  -0.6200 
  8 C       -2.6930    -1.3530     0.5820 C.3   1 <1>  -0.0170 
  9 C       -3.5910     2.1570     0.6380 C.ar  1 <1>   0.4700 
 10 C       -0.3100     4.4870    -0.0580 C.3   1 <1>   0.3500 
 11 C        1.1950     2.4490     0.3330 C.3   1 <1>   0.2090 
 12 C       -3.0430    -1.9050    -0.8050 C.3   1 <1>  -0.2400 
 13 C        0.8750     5.0190    -0.9020 C.2   1 <1>   0.5690 
 14 C       -0.4800     5.3340     1.2090 C.3   1 <1>  -0.2400 
 15 C        2.3320     3.4880     0.3770 C.3   1 <1>   0.1400 
 16 O        0.6640     5.8530    -1.7550 O.2   1 <1>  -0.5700 
 17 N        2.1410     4.5510    -0.6440 N.am  1 <1>  -0.6600 
 18 C        3.3560     5.0580    -1.3370 C.3   1 <1>   0.0600 
 19 H       -3.4610    -1.6360     1.2810 H     1 <1>   0.0800 
 20 H       -1.7730    -1.7960     0.9210 H     1 <1>   0.0800 
 21 H       -4.5100     2.7140     0.7100 H     1 <1>   0.1500 
 22 H       -1.1880     4.6070    -0.6690 H     1 <1>   0.0800 
 23 H        1.3060     1.8710    -0.5690 H     1 <1>   0.0800 
 24 H        1.3160     1.7860     1.1710 H     1 <1>   0.0800 
 25 H       -3.9770    -1.4890    -1.1420 H     1 <1>   0.0800 
 26 H       -3.1350    -2.9760    -0.7660 H     1 <1>   0.0800 
 27 H       -2.2750    -1.6480    -1.5130 H     1 <1>   0.0800 
 28 H        0.3860     5.2480     1.8380 H     1 <1>   0.0800 
 29 H       -1.3490     5.0170     1.7550 H     1 <1>   0.0800 
 30 H       -0.6070     6.3650     0.9370 H     1 <1>   0.0800 
 31 H        3.2670     2.9850     0.2070 H     1 <1>   0.0800 
 32 H        2.3690     3.9380     1.3540 H     1 <1>   0.0800 
 33 H        3.0990     5.8530    -2.0170 H     1 <1>   0.0800 
 34 H        3.8150     4.2630    -1.8960 H     1 <1>   0.0800 
 35 H        4.0560     5.4380    -0.6140 H     1 <1>   0.0800 
@<TRIPOS>BOND
  1   1   2  1   
  2   2   3  ar  
  3   2   4  ar  
  4   3   5  ar  
  5   3   6  1   
  6   4   7  ar  
  7   4   8  1   
  8   5   9  ar  
  9   6  10  1   
 10   6  11  1   
 11   7   9  ar  
 12   8  12  1   
 13   8  19  1   
 14   8  20  1   
 15   9  21  1   
 16  10  13  1   
 17  10  14  1   
 18  10  22  1   
 19  11  15  1   
 20  11  23  1   
 21  11  24  1   
 22  12  25  1   
 23  12  26  1   
 24  12  27  1   
 25  13  16  2   
 26  13  17  am  
 27  14  28  1   
 28  14  29  1   
 29  14  30  1   
 30  15  17  1   
 31  15  31  1   
 32  15  32  1   
 33  17  18  1   
 34  18  33  1   
 35  18  34  1   
 36  18  35  1   
@<TRIPOS>SUBSTRUCTURE
  1 ****   6 GROUP 4 **** **** 0

# MOE 2024.06 (io_trps.svl 2023.06)
