@<TRIPOS>MOLECULE
NONAME
46 48 1 0 0 
SMALL
USER_CHARGES


@<TRIPOS>ATOM
  1 O       -0.2900    -0.5340     1.0870 O.3   1 <1>  -0.5600 
  2 C       -0.1970    -1.8010     0.4690 C.3   1 <1>   0.2800 
  3 C       -1.5470     0.0460     1.2950 C.3   1 <1>   0.1200 
  4 C       -1.6080    -2.3950     0.1630 C.3   1 <1>   0.2000 
  5 C        0.6390    -1.5650    -0.8100 C.3   1 <1>  -0.1600 
  6 C        0.5620    -2.6930     1.4790 C.3   1 <1>  -0.1600 
  7 C       -2.3260     0.0470    -0.0220 C.3   1 <1>  -0.1600 
  8 O       -1.5400    -3.6110    -0.5300 O.3   1 <1>  -0.6800 
  9 C       -2.5710    -1.3860    -0.5290 C.3   1 <1>   0.2800 
 10 C        2.1330    -1.5710    -0.5030 C.3   1 <1>   0.2090 
 11 C        1.5040    -3.6710     0.7780 C.3   1 <1>   0.2090 
 12 O       -3.8530    -1.7450    -0.1550 O.3   1 <1>  -0.6800 
 13 C       -2.5800    -1.4210    -2.0650 C.3   1 <1>  -0.2400 
 14 N        2.5340    -2.9260    -0.0120 N.pl3 1 <1>  -0.8380 
 15 C        3.6820    -3.5240    -0.4200 C.ar  1 <1>   0.1000 
 16 C        4.9600    -2.9680    -0.2140 C.ar  1 <1>  -0.1440 
 17 C        3.6160    -4.7570    -1.0800 C.ar  1 <1>  -0.1500 
 18 C        6.0710    -3.6300    -0.6760 C.ar  1 <1>   0.2110 
 19 C        5.1290    -1.6530     0.5420 C.3   1 <1>  -0.0970 
 20 C        4.7470    -5.3850    -1.5220 C.ar  1 <1>   0.2110 
 21 N        5.9610    -4.8180    -1.3210 N.ar  1 <1>  -0.1790 
 22 H       -2.0630    -0.5070     2.0620 H     1 <1>   0.0800 
 23 H       -1.3860     1.0520     1.6420 H     1 <1>   0.0800 
 24 H       -2.0440    -2.6360     1.1170 H     1 <1>   0.0800 
 25 H        0.4530    -2.3370    -1.5330 H     1 <1>   0.0800 
 26 H        0.3690    -0.6270    -1.2570 H     1 <1>   0.0800 
 27 H        1.1540    -2.0850     2.1410 H     1 <1>   0.0800 
 28 H       -0.1290    -3.2500     2.0830 H     1 <1>   0.0800 
 29 H       -1.7390     0.5970    -0.7350 H     1 <1>   0.0800 
 30 H       -3.2540     0.5760     0.1020 H     1 <1>   0.0800 
 31 H       -2.4570    -3.9190    -0.6860 H     1 <1>   0.4000 
 32 H        2.3480    -0.8330     0.2510 H     1 <1>   0.0800 
 33 H        2.6890    -1.3280    -1.3920 H     1 <1>   0.0800 
 34 H        0.9350    -4.3050     0.1190 H     1 <1>   0.0800 
 35 H        1.9940    -4.2900     1.5090 H     1 <1>   0.0800 
 36 H       -4.4990    -1.1870    -0.6280 H     1 <1>   0.4000 
 37 H       -1.6030    -1.2040    -2.4510 H     1 <1>   0.0800 
 38 H       -3.2600    -0.6870    -2.4580 H     1 <1>   0.0800 
 39 H       -2.8680    -2.3920    -2.4250 H     1 <1>   0.0800 
 40 H        2.6480    -5.1960    -1.2460 H     1 <1>   0.1500 
 41 H        7.0570    -3.2190    -0.5290 H     1 <1>   0.1500 
 42 H        4.5020    -1.6490     1.4170 H     1 <1>   0.0800 
 43 H        4.8480    -0.8250    -0.0840 H     1 <1>   0.0800 
 44 H        6.1460    -1.5080     0.8610 H     1 <1>   0.0800 
 45 H        4.6910    -6.3310    -2.0360 H     1 <1>   0.1500 
 46 H        6.8050    -5.2930    -1.6570 H     1 <1>   0.4570 
@<TRIPOS>BOND
  1   1   2  1   
  2   1   3  1   
  3   2   4  1   
  4   2   5  1   
  5   2   6  1   
  6   3   7  1   
  7   3  22  1   
  8   3  23  1   
  9   4   8  1   
 10   4   9  1   
 11   4  24  1   
 12   5  10  1   
 13   5  25  1   
 14   5  26  1   
 15   6  11  1   
 16   6  27  1   
 17   6  28  1   
 18   7   9  1   
 19   7  29  1   
 20   7  30  1   
 21   8  31  1   
 22   9  12  1   
 23   9  13  1   
 24  10  14  1   
 25  10  32  1   
 26  10  33  1   
 27  11  14  1   
 28  11  34  1   
 29  11  35  1   
 30  12  36  1   
 31  13  37  1   
 32  13  38  1   
 33  13  39  1   
 34  14  15  1   
 35  15  16  ar  
 36  15  17  ar  
 37  16  18  ar  
 38  16  19  1   
 39  17  20  ar  
 40  17  40  1   
 41  18  21  ar  
 42  18  41  1   
 43  19  42  1   
 44  19  43  1   
 45  19  44  1   
 46  20  21  ar  
 47  20  45  1   
 48  21  46  1   
@<TRIPOS>SUBSTRUCTURE
  1 ****   5 GROUP 4 **** **** 0

# MOE 2024.06 (io_trps.svl 2023.06)
