@<TRIPOS>MOLECULE
NONAME
36 38 1 0 0 
SMALL
USER_CHARGES


@<TRIPOS>ATOM
  1 CL      -1.1820    -0.4550     0.0490 Cl    1 <1>  -0.1770 
  2 C       -2.4290     0.7510     0.2840 C.ar  1 <1>   0.1770 
  3 C       -3.5320     0.4880     1.0570 C.ar  1 <1>   0.1600 
  4 C       -2.3370     1.9900    -0.2990 C.ar  1 <1>   0.1600 
  5 N       -4.4760     1.3840     1.2400 N.ar  1 <1>  -0.6200 
  6 N       -3.2670     2.9030    -0.1300 N.ar  1 <1>  -0.6200 
  7 C       -4.3080     2.5660     0.6390 C.ar  1 <1>   0.7200 
  8 N       -5.2940     3.5160     0.8230 N.pl3 1 <1>  -0.8380 
  9 C       -6.6190     3.2010     1.4420 C.3   1 <1>   0.2090 
 10 C       -5.2630     4.8580     0.1800 C.3   1 <1>   0.2090 
 11 C       -7.7180     3.1730     0.3600 C.3   1 <1>   0.0000 
 12 C       -6.3210     4.9120    -0.9280 C.3   1 <1>  -0.1600 
 13 C       -9.0800     2.8260     0.9900 C.3   1 <1>   0.2000 
 14 C       -7.7200     4.5260    -0.4110 C.3   1 <1>  -0.1600 
 15 C       -7.5390     1.9910    -0.6120 C.3   1 <1>  -0.1600 
 16 O       -9.7200     3.9220     1.5390 O.3   1 <1>  -0.6800 
 17 C       -9.9310     2.2200    -0.1260 C.3   1 <1>  -0.1600 
 18 C       -8.9350     1.6890    -1.1660 C.3   1 <1>  -0.1600 
 19 H       -3.6360    -0.4730     1.5290 H     1 <1>   0.1500 
 20 H       -1.4860     2.2290    -0.9110 H     1 <1>   0.1500 
 21 H       -6.5970     2.2630     1.9680 H     1 <1>   0.0800 
 22 H       -6.8530     3.9630     2.1650 H     1 <1>   0.0800 
 23 H       -5.4800     5.6030     0.9260 H     1 <1>   0.0800 
 24 H       -4.2940     5.0850    -0.2280 H     1 <1>   0.0800 
 25 H       -6.3510     5.9080    -1.3320 H     1 <1>   0.0800 
 26 H       -6.0160     4.2550    -1.7220 H     1 <1>   0.0800 
 27 H       -8.9480     2.0950     1.7720 H     1 <1>   0.0800 
 28 H       -8.4100     4.4930    -1.2350 H     1 <1>   0.0800 
 29 H       -8.0380     5.3110     0.2510 H     1 <1>   0.0800 
 30 H       -6.8270     2.1860    -1.3930 H     1 <1>   0.0800 
 31 H       -7.1930     1.1320    -0.0620 H     1 <1>   0.0800 
 32 H       -9.8960     4.5770     0.8390 H     1 <1>   0.4000 
 33 H      -10.5380     1.4220     0.2650 H     1 <1>   0.0800 
 34 H      -10.5630     2.9620    -0.5800 H     1 <1>   0.0800 
 35 H       -9.0610     0.6320    -1.3320 H     1 <1>   0.0800 
 36 H       -9.0760     2.2050    -2.1000 H     1 <1>   0.0800 
@<TRIPOS>BOND
  1   1   2  1   
  2   2   3  ar  
  3   2   4  ar  
  4   3   5  ar  
  5   3  19  1   
  6   4   6  ar  
  7   4  20  1   
  8   5   7  ar  
  9   6   7  ar  
 10   7   8  1   
 11   8   9  1   
 12   8  10  1   
 13   9  11  1   
 14   9  21  1   
 15   9  22  1   
 16  10  12  1   
 17  10  23  1   
 18  10  24  1   
 19  11  13  1   
 20  11  14  1   
 21  11  15  1   
 22  12  14  1   
 23  12  25  1   
 24  12  26  1   
 25  13  16  1   
 26  13  17  1   
 27  13  27  1   
 28  14  28  1   
 29  14  29  1   
 30  15  18  1   
 31  15  30  1   
 32  15  31  1   
 33  16  32  1   
 34  17  18  1   
 35  17  33  1   
 36  17  34  1   
 37  18  35  1   
 38  18  36  1   
@<TRIPOS>SUBSTRUCTURE
  1 ****   8 GROUP 4 **** **** 0

# MOE 2024.06 (io_trps.svl 2023.06)
