@<TRIPOS>MOLECULE
NONAME
23 23 1 0 0 
SMALL
USER_CHARGES


@<TRIPOS>ATOM
  1 S       -0.2470     0.1610     0.1320 S.3   1 <1>  -0.0800 
  2 C        0.4730    -1.4450    -0.0310 C.2   1 <1>  -0.0450 
  3 C        1.3030     0.9630     0.0020 C.2   1 <1>  -0.1400 
  4 C       -0.3480    -2.6240    -0.0020 C.2   1 <1>   0.5940 
  5 C        1.8160    -1.2950    -0.1730 C.2   1 <1>  -0.1500 
  6 C        2.2810     0.0500    -0.1540 C.2   1 <1>  -0.1500 
  7 C        1.2940     2.4810     0.0820 C.3   1 <1>   0.0200 
  8 O        0.1420    -3.7250    -0.1300 O.2   1 <1>  -0.5700 
  9 C       -1.8650    -2.4570     0.2070 C.3   1 <1>   0.6610 
 10 C        2.7020     3.0790    -0.0410 C.3   1 <1>  -0.1600 
 11 F       -2.4200    -3.5210     0.7870 F     1 <1>  -0.3400 
 12 F       -2.4990    -2.3400    -0.9580 F     1 <1>  -0.3400 
 13 C        2.6740     4.6090     0.0420 C.3   1 <1>  -0.2400 
 14 H        2.5040    -2.1150    -0.2940 H     1 <1>   0.1500 
 15 H        3.3290     0.2700    -0.2590 H     1 <1>   0.1500 
 16 H        0.8600     2.7770     1.0210 H     1 <1>   0.0800 
 17 H        0.6720     2.8650    -0.7080 H     1 <1>   0.0800 
 18 H       -2.1180    -1.6040     0.8060 H     1 <1>   0.0800 
 19 H        3.1340     2.7830    -0.9810 H     1 <1>   0.0800 
 20 H        3.3230     2.6930     0.7500 H     1 <1>   0.0800 
 21 H        2.0770     5.0200    -0.7530 H     1 <1>   0.0800 
 22 H        3.6730     4.9990    -0.0470 H     1 <1>   0.0800 
 23 H        2.2670     4.9290     0.9850 H     1 <1>   0.0800 
@<TRIPOS>BOND
  1   1   2  1   
  2   1   3  1   
  3   2   4  1   
  4   2   5  2   
  5   3   6  2   
  6   3   7  1   
  7   4   8  2   
  8   4   9  1   
  9   5   6  1   
 10   5  14  1   
 11   6  15  1   
 12   7  10  1   
 13   7  16  1   
 14   7  17  1   
 15   9  11  1   
 16   9  12  1   
 17   9  18  1   
 18  10  13  1   
 19  10  19  1   
 20  10  20  1   
 21  13  21  1   
 22  13  22  1   
 23  13  23  1   
@<TRIPOS>SUBSTRUCTURE
  1 ****   1 GROUP 4 **** **** 0

# MOE 2024.06 (io_trps.svl 2023.06)
