@<TRIPOS>MOLECULE
NONAME
53 55 1 0 0 
SMALL
USER_CHARGES


@<TRIPOS>ATOM
  1 CL      -0.8470     1.7670     1.7780 Cl    1 <1>  -0.1770 
  2 C       -0.2890     3.3720     1.3800 C.ar  1 <1>   0.1770 
  3 C       -0.3790     3.8180     0.0750 C.ar  1 <1>  -0.1500 
  4 C        0.2360     4.1730     2.3760 C.ar  1 <1>  -0.1500 
  5 C        0.0650     5.0920    -0.2360 C.ar  1 <1>  -0.1500 
  6 C        0.6780     5.4470     2.0590 C.ar  1 <1>  -0.1500 
  7 C        0.5940     5.9100     0.7520 C.ar  1 <1>  -0.1430 
  8 C        1.0810     7.3070     0.3980 C.3   1 <1>  -0.0160 
  9 C        2.5010     7.2480    -0.1640 C.3   1 <1>   0.1400 
 10 N        2.9640     8.6110    -0.5050 N.am  1 <1>  -0.7300 
 11 C        2.9810     9.1610    -1.7470 C.2   1 <1>   0.5690 
 12 O        2.5690     8.5730    -2.7180 O.2   1 <1>  -0.5700 
 13 C        3.5300    10.5830    -1.9030 C.3   1 <1>   0.1710 
 14 N        4.4480    11.0200    -0.8070 N.3   1 <1>  -0.8100 
 15 C        4.6240    12.4870    -0.8440 C.3   1 <1>   0.1100 
 16 C        5.7520    10.3400    -0.9170 C.3   1 <1>   0.1100 
 17 C        5.5000    12.9690     0.3270 C.3   1 <1>   0.2000 
 18 C        6.6520    10.7340     0.2590 C.3   1 <1>  -0.1600 
 19 O        5.7490    14.3330     0.1930 O.3   1 <1>  -0.5600 
 20 C        6.8540    12.2560     0.3240 C.3   1 <1>  -0.1600 
 21 C        4.7580    15.1680     0.7340 C.3   1 <1>   0.2630 
 22 C        4.9660    16.6300     0.3480 C.ar  1 <1>   0.1670 
 23 N        3.9080    17.4150     0.5100 N.ar  1 <1>  -0.6200 
 24 C        6.1890    17.0800    -0.1330 C.ar  1 <1>  -0.1500 
 25 C        4.0760    18.6860     0.1800 C.ar  1 <1>   0.1600 
 26 C        6.3490    18.4060    -0.4730 C.ar  1 <1>  -0.1500 
 27 C        5.2540    19.2250    -0.3080 C.ar  1 <1>  -0.1500 
 28 H       -0.7910     3.1760    -0.6820 H     1 <1>   0.1500 
 29 H        0.2950     3.8030     3.3840 H     1 <1>   0.1500 
 30 H       -0.0020     5.4450    -1.2520 H     1 <1>   0.1500 
 31 H        1.0870     6.0730     2.8330 H     1 <1>   0.1500 
 32 H        1.0630     7.9330     1.2710 H     1 <1>   0.0800 
 33 H        0.4260     7.7360    -0.3400 H     1 <1>   0.0800 
 34 H        2.5120     6.6330    -1.0490 H     1 <1>   0.0800 
 35 H        3.1690     6.8120     0.5580 H     1 <1>   0.0800 
 36 H        3.3700     9.1880     0.2400 H     1 <1>   0.3700 
 37 H        2.6780    11.2390    -1.9330 H     1 <1>   0.0800 
 38 H        4.0310    10.6560    -2.8520 H     1 <1>   0.0800 
 39 H        3.6590    12.9570    -0.7780 H     1 <1>   0.0800 
 40 H        5.0880    12.7730    -1.7730 H     1 <1>   0.0800 
 41 H        6.2290    10.6080    -1.8460 H     1 <1>   0.0800 
 42 H        5.6120     9.2710    -0.9090 H     1 <1>   0.0800 
 43 H        4.9990    12.7870     1.2630 H     1 <1>   0.0800 
 44 H        7.6060    10.2490     0.1540 H     1 <1>   0.0800 
 45 H        6.2040    10.3850     1.1730 H     1 <1>   0.0800 
 46 H        7.4030    12.5150     1.2120 H     1 <1>   0.0800 
 47 H        7.4180    12.5730    -0.5360 H     1 <1>   0.0800 
 48 H        4.7800    15.0740     1.8050 H     1 <1>   0.0800 
 49 H        3.7970    14.8510     0.3710 H     1 <1>   0.0800 
 50 H        7.0140    16.3980    -0.2420 H     1 <1>   0.1500 
 51 H        3.2260    19.3350     0.3050 H     1 <1>   0.1500 
 52 H        7.2850    18.7810    -0.8490 H     1 <1>   0.1500 
 53 H        5.3090    20.2690    -0.5530 H     1 <1>   0.1500 
@<TRIPOS>BOND
  1   1   2  1   
  2   2   3  ar  
  3   2   4  ar  
  4   3   5  ar  
  5   3  28  1   
  6   4   6  ar  
  7   4  29  1   
  8   5   7  ar  
  9   5  30  1   
 10   6   7  ar  
 11   6  31  1   
 12   7   8  1   
 13   8   9  1   
 14   8  32  1   
 15   8  33  1   
 16   9  10  1   
 17   9  34  1   
 18   9  35  1   
 19  10  11  am  
 20  10  36  1   
 21  11  12  2   
 22  11  13  1   
 23  13  14  1   
 24  13  37  1   
 25  13  38  1   
 26  14  15  1   
 27  14  16  1   
 28  15  17  1   
 29  15  39  1   
 30  15  40  1   
 31  16  18  1   
 32  16  41  1   
 33  16  42  1   
 34  17  19  1   
 35  17  20  1   
 36  17  43  1   
 37  18  20  1   
 38  18  44  1   
 39  18  45  1   
 40  19  21  1   
 41  20  46  1   
 42  20  47  1   
 43  21  22  1   
 44  21  48  1   
 45  21  49  1   
 46  22  23  ar  
 47  22  24  ar  
 48  23  25  ar  
 49  24  26  ar  
 50  24  50  1   
 51  25  27  ar  
 52  25  51  1   
 53  26  27  ar  
 54  26  52  1   
 55  27  53  1   
@<TRIPOS>SUBSTRUCTURE
  1 ****  14 GROUP 4 **** **** 0

# MOE 2024.06 (io_trps.svl 2023.06)
