@<TRIPOS>MOLECULE
NONAME
56 59 1 0 0 
SMALL
USER_CHARGES


@<TRIPOS>ATOM
  1 N        0.4100    -0.1610    -1.0830 N.ar  1 <1>  -0.6200 
  2 C        0.9870     0.3700    -0.0180 C.ar  1 <1>   0.7200 
  3 C        0.5390    -1.4590    -1.2090 C.ar  1 <1>   0.1600 
  4 N        1.6860    -0.2620     0.9190 N.ar  1 <1>  -0.6200 
  5 N        0.8280     1.7020     0.0990 N.pl3 1 <1>  -0.8690 
  6 C        1.2270    -2.2250    -0.2960 C.ar  1 <1>  -0.1430 
  7 C        1.7960    -1.5580     0.7650 C.ar  1 <1>   0.1600 
  8 C        1.7980     2.5690     0.7790 C.3   1 <1>   0.3530 
  9 C        1.3300    -3.7290    -0.4530 C.3   1 <1>   0.2540 
 10 C        1.8680     3.8830     0.0210 C.ar  1 <1>  -0.1430 
 11 N       -0.0220    -4.3000    -0.4010 N.3   1 <1>  -0.6890 
 12 C        1.1210     4.9760     0.4360 C.ar  1 <1>  -0.1500 
 13 C        2.6770     3.9980    -1.0990 C.ar  1 <1>  -0.1500 
 14 C       -0.6110    -4.2420     0.9680 C.3   1 <1>   0.2100 
 15 C       -0.0420    -5.7800    -0.2570 C.3   1 <1>   0.2100 
 16 C        1.1890     6.1730    -0.2570 C.ar  1 <1>  -0.1500 
 17 C        2.7450     5.1940    -1.7940 C.ar  1 <1>  -0.1500 
 18 C       -1.3400    -5.5700     0.5930 C.3   1 <1>   0.4720 
 19 C        2.0010     6.2820    -1.3720 C.ar  1 <1>  -0.1500 
 20 N       -2.6270    -5.3410    -0.1760 N.4   1 <1>  -0.9280 
 21 C       -3.8490    -5.2470     0.6840 C.3   1 <1>   0.4230 
 22 C       -2.8070    -6.3570    -1.2570 C.3   1 <1>   0.3430 
 23 C       -5.0580    -4.8630    -0.1800 C.3   1 <1>  -0.1600 
 24 C       -3.6960    -4.2210     1.8080 C.3   1 <1>  -0.2400 
 25 C       -3.9900    -5.9850    -2.1500 C.3   1 <1>  -0.1600 
 26 C       -5.2790    -5.8400    -1.3380 C.3   1 <1>  -0.1600 
 27 H        0.0780    -1.9260    -2.0630 H     1 <1>   0.1500 
 28 H        0.4250     2.1250    -0.7360 H     1 <1>   0.4000 
 29 H        2.3530    -2.0990     1.5120 H     1 <1>   0.1500 
 30 H        2.7700     2.1050     0.7960 H     1 <1>   0.0800 
 31 H        1.4800     2.7320     1.7940 H     1 <1>   0.0800 
 32 H        1.9530    -4.1450     0.3220 H     1 <1>   0.0800 
 33 H        1.7780    -3.9590    -1.4060 H     1 <1>   0.0800 
 34 H        0.4820     4.8980     1.2990 H     1 <1>   0.1500 
 35 H        3.2530     3.1540    -1.4360 H     1 <1>   0.1500 
 36 H       -1.2370    -3.3790     1.0960 H     1 <1>   0.0000 
 37 H        0.1290    -4.3620     1.7420 H     1 <1>   0.0000 
 38 H        0.7900    -6.1460     0.3240 H     1 <1>   0.0000 
 39 H       -0.1560    -6.2850    -1.1970 H     1 <1>   0.0000 
 40 H        0.6080     7.0170     0.0700 H     1 <1>   0.1500 
 41 H        3.3740     5.2760    -2.6620 H     1 <1>   0.1500 
 42 H       -1.4570    -6.2690     1.4010 H     1 <1>   0.0000 
 43 H        2.0540     7.2120    -1.9110 H     1 <1>   0.1500 
 44 H       -2.4900    -4.4330    -0.6390 H     1 <1>   0.4500 
 45 H       -4.0400    -6.2120     1.1260 H     1 <1>   0.0800 
 46 H       -2.9770    -7.3290    -0.8200 H     1 <1>   0.0800 
 47 H       -1.9270    -6.4100    -1.8740 H     1 <1>   0.0800 
 48 H       -4.9260    -3.8670    -0.5680 H     1 <1>   0.0800 
 49 H       -5.9440    -4.8520     0.4320 H     1 <1>   0.0800 
 50 H       -3.4720    -3.2450     1.4160 H     1 <1>   0.0800 
 51 H       -2.9450    -4.5190     2.5160 H     1 <1>   0.0800 
 52 H       -4.6210    -4.1480     2.3520 H     1 <1>   0.0800 
 53 H       -4.1230    -6.7500    -2.8950 H     1 <1>   0.0800 
 54 H       -3.7730    -5.0660    -2.6670 H     1 <1>   0.0800 
 55 H       -6.0740    -5.4840    -1.9730 H     1 <1>   0.0800 
 56 H       -5.5740    -6.8020    -0.9510 H     1 <1>   0.0800 
@<TRIPOS>BOND
  1   1   2  ar  
  2   1   3  ar  
  3   2   4  ar  
  4   2   5  1   
  5   3   6  ar  
  6   3  27  1   
  7   4   7  ar  
  8   5   8  1   
  9   5  28  1   
 10   6   7  ar  
 11   6   9  1   
 12   7  29  1   
 13   8  10  1   
 14   8  30  1   
 15   8  31  1   
 16   9  11  1   
 17   9  32  1   
 18   9  33  1   
 19  10  12  ar  
 20  10  13  ar  
 21  11  14  1   
 22  11  15  1   
 23  12  16  ar  
 24  12  34  1   
 25  13  17  ar  
 26  13  35  1   
 27  14  18  1   
 28  14  36  1   
 29  14  37  1   
 30  15  18  1   
 31  15  38  1   
 32  15  39  1   
 33  16  19  ar  
 34  16  40  1   
 35  17  19  ar  
 36  17  41  1   
 37  18  20  1   
 38  18  42  1   
 39  19  43  1   
 40  20  21  1   
 41  20  22  1   
 42  20  44  1   
 43  21  23  1   
 44  21  24  1   
 45  21  45  1   
 46  22  25  1   
 47  22  46  1   
 48  22  47  1   
 49  23  26  1   
 50  23  48  1   
 51  23  49  1   
 52  24  50  1   
 53  24  51  1   
 54  24  52  1   
 55  25  26  1   
 56  25  53  1   
 57  25  54  1   
 58  26  55  1   
 59  26  56  1   
@<TRIPOS>SUBSTRUCTURE
  1 ****   3 GROUP 4 **** **** 0

# MOE 2024.06 (io_trps.svl 2023.06)
