@<TRIPOS>MOLECULE
NONAME
53 55 1 0 0 
SMALL
USER_CHARGES


@<TRIPOS>ATOM
  1 O        1.0940    -3.4400    -1.3380 O.co2 1 <1>  -0.9000 
  2 C        0.2960    -4.3710    -1.1490 C.2   1 <1>   0.9790 
  3 O        0.4600    -5.4430    -1.7640 O.co2 1 <1>  -0.9000 
  4 C       -0.8370    -4.2180    -0.2460 C.ar  1 <1>  -0.1790 
  5 C       -1.5720    -5.3300     0.1520 C.ar  1 <1>  -0.1500 
  6 C       -1.2500    -2.9800     0.2440 C.ar  1 <1>  -0.1500 
  7 C       -2.7050    -5.2250     0.9380 C.ar  1 <1>  -0.1440 
  8 C       -2.3580    -2.8610     1.0650 C.ar  1 <1>  -0.1500 
  9 C       -3.0950    -3.9810     1.4100 C.ar  1 <1>  -0.1500 
 10 C       -3.4910    -6.4850     1.2050 C.3   1 <1>   0.4870 
 11 N       -4.2420    -6.7380    -0.0480 N.4   1 <1>  -0.9590 
 12 C       -4.3320    -8.1950    -0.3860 C.3   1 <1>   0.5660 
 13 C       -5.5610    -6.0370    -0.0730 C.3   1 <1>   0.3430 
 14 C       -2.9190    -8.6370    -0.7330 C.ar  1 <1>  -0.1430 
 15 C       -5.3140    -8.5070    -1.5490 C.3   1 <1>   0.2000 
 16 C       -6.3680    -6.4000    -1.3310 C.3   1 <1>   0.1200 
 17 C       -2.2840    -9.5910     0.0460 C.ar  1 <1>  -0.1500 
 18 C       -2.2270    -8.0560    -1.7870 C.ar  1 <1>  -0.1500 
 19 O       -6.5170    -7.7860    -1.4170 O.3   1 <1>  -0.5600 
 20 C       -5.6380   -10.0090    -1.5820 C.3   1 <1>   0.1200 
 21 C       -0.9580    -9.9320    -0.1670 C.ar  1 <1>   0.0830 
 22 C       -0.9010    -8.3720    -2.0010 C.ar  1 <1>  -0.1500 
 23 O       -5.9700   -10.4590    -0.3050 O.3   1 <1>  -0.6800 
 24 O       -0.4840   -10.8860     0.6850 O.3   1 <1>  -0.3630 
 25 C       -0.2400    -9.2780    -1.1830 C.ar  1 <1>   0.0830 
 26 C        0.7630   -11.5170     0.4950 C.3   1 <1>   0.0400 
 27 O        1.0920    -9.4760    -1.3720 O.3   1 <1>  -0.3630 
 28 C        1.9090    -8.3260    -1.5220 C.3   1 <1>   0.0400 
 29 H       -1.2220    -6.2900    -0.1850 H     1 <1>   0.1500 
 30 H       -0.6800    -2.1070    -0.0340 H     1 <1>   0.1500 
 31 H       -2.6420    -1.8890     1.4290 H     1 <1>   0.1500 
 32 H       -3.9590    -3.8670     2.0400 H     1 <1>   0.1500 
 33 H       -4.1540    -6.3650     2.0450 H     1 <1>   0.0800 
 34 H       -2.8010    -7.2890     1.4080 H     1 <1>   0.0800 
 35 H       -3.6340    -6.3230    -0.7690 H     1 <1>   0.4500 
 36 H       -4.6670    -8.7350     0.4830 H     1 <1>   0.0800 
 37 H       -6.1400    -6.3170     0.7910 H     1 <1>   0.0800 
 38 H       -5.4080    -4.9700    -0.0410 H     1 <1>   0.0800 
 39 H       -4.8790    -8.2300    -2.4930 H     1 <1>   0.0800 
 40 H       -5.8860    -6.0400    -2.2240 H     1 <1>   0.0800 
 41 H       -7.3530    -5.9690    -1.2750 H     1 <1>   0.0800 
 42 H       -2.8060   -10.0850     0.8480 H     1 <1>   0.1500 
 43 H       -2.6760    -7.3280    -2.4400 H     1 <1>   0.1500 
 44 H       -4.7830   -10.5730    -1.9170 H     1 <1>   0.0800 
 45 H       -6.4670   -10.1960    -2.2440 H     1 <1>   0.0800 
 46 H       -0.3740    -7.8770    -2.7990 H     1 <1>   0.1500 
 47 H       -6.3670   -11.3540    -0.3470 H     1 <1>   0.4000 
 48 H        0.8370   -12.3320     1.1920 H     1 <1>   0.0800 
 49 H        1.5450   -10.8040     0.6840 H     1 <1>   0.0800 
 50 H        0.8180   -11.8880    -0.5130 H     1 <1>   0.0800 
 51 H        2.9330    -8.6150    -1.3780 H     1 <1>   0.0800 
 52 H        1.6280    -7.5910    -0.7870 H     1 <1>   0.0800 
 53 H        1.7820    -7.9190    -2.5090 H     1 <1>   0.0800 
@<TRIPOS>BOND
  1   1   2  ar  
  2   2   3  ar  
  3   2   4  1   
  4   4   5  ar  
  5   4   6  ar  
  6   5   7  ar  
  7   5  29  1   
  8   6   8  ar  
  9   6  30  1   
 10   7   9  ar  
 11   7  10  1   
 12   8   9  ar  
 13   8  31  1   
 14   9  32  1   
 15  10  11  1   
 16  10  33  1   
 17  10  34  1   
 18  11  12  1   
 19  11  13  1   
 20  11  35  1   
 21  12  14  1   
 22  12  15  1   
 23  12  36  1   
 24  13  16  1   
 25  13  37  1   
 26  13  38  1   
 27  14  17  ar  
 28  14  18  ar  
 29  15  19  1   
 30  15  20  1   
 31  15  39  1   
 32  16  19  1   
 33  16  40  1   
 34  16  41  1   
 35  17  21  ar  
 36  17  42  1   
 37  18  22  ar  
 38  18  43  1   
 39  20  23  1   
 40  20  44  1   
 41  20  45  1   
 42  21  24  1   
 43  21  25  ar  
 44  22  25  ar  
 45  22  46  1   
 46  23  47  1   
 47  24  26  1   
 48  25  27  1   
 49  26  48  1   
 50  26  49  1   
 51  26  50  1   
 52  27  28  1   
 53  28  51  1   
 54  28  52  1   
 55  28  53  1   
@<TRIPOS>SUBSTRUCTURE
  1 ****  18 GROUP 4 **** **** 0

# MOE 2024.06 (io_trps.svl 2023.06)
