@<TRIPOS>MOLECULE
NONAME
39 40 1 0 0 
SMALL
USER_CHARGES


@<TRIPOS>ATOM
  1 O        0.3090     0.0630     2.9760 O.3   1 <1>  -0.6800 
  2 C        0.9040    -0.4240     1.8250 C.3   1 <1>   0.1200 
  3 C        2.4050    -0.1100     1.9080 C.3   1 <1>   0.3430 
  4 N        3.1820    -0.6960     0.7680 N.4   1 <1>  -0.9590 
  5 C        3.2550    -2.1830     0.8130 C.3   1 <1>   0.5230 
  6 C        4.5140    -0.0650     0.5550 C.3   1 <1>   0.3430 
  7 C        2.2950    -2.7030    -0.2520 C.2   1 <1>   0.0070 
  8 C        4.3860     1.3570    -0.0140 C.3   1 <1>  -0.0800 
  9 N        1.6270    -1.9230    -1.0490 N.2   1 <1>  -0.5650 
 10 N        2.0550    -4.0200    -0.4620 N.pl3 1 <1>   0.0330 
 11 C        3.6040     1.3780    -1.3460 C.3   1 <1>  -0.0220 
 12 C        5.7870     1.9710    -0.2010 C.3   1 <1>  -0.1600 
 13 C        0.9170    -2.7740    -1.8160 C.2   1 <1>   0.0770 
 14 C        1.1670    -4.0540    -1.4700 C.2   1 <1>  -0.3020 
 15 C        3.7440     2.7180    -2.0450 C.2   1 <1>  -0.2880 
 16 C        5.7050     3.4420    -0.6370 C.3   1 <1>  -0.0220 
 17 C        4.6630     3.6320    -1.7240 C.2   1 <1>  -0.2880 
 18 H       -0.6660    -0.0490     2.9510 H     1 <1>   0.4000 
 19 H        0.4550     0.0670     0.9780 H     1 <1>   0.0800 
 20 H        0.7170    -1.4820     1.7820 H     1 <1>   0.0800 
 21 H        2.7910    -0.4840     2.8420 H     1 <1>   0.0800 
 22 H        2.5130     0.9620     1.9070 H     1 <1>   0.0800 
 23 H        2.6210    -0.5510    -0.0960 H     1 <1>   0.4500 
 24 H        2.9720    -2.5480     1.7860 H     1 <1>   0.0800 
 25 H        4.2540    -2.5180     0.5860 H     1 <1>   0.0800 
 26 H        5.0810    -0.6540    -0.1480 H     1 <1>   0.0800 
 27 H        5.0590    -0.0350     1.4840 H     1 <1>   0.0800 
 28 H        3.8680     1.9770     0.6960 H     1 <1>   0.0800 
 29 H        2.4490    -4.8370     0.0200 H     1 <1>   0.2700 
 30 H        2.5590     1.2000    -1.1610 H     1 <1>   0.0800 
 31 H        3.9640     0.6110    -2.0110 H     1 <1>   0.0800 
 32 H        6.3190     1.4210    -0.9600 H     1 <1>   0.0800 
 33 H        6.3540     1.9130     0.7120 H     1 <1>   0.0800 
 34 H        0.2540    -2.4200    -2.5900 H     1 <1>   0.1500 
 35 H        0.7670    -4.9650    -1.8820 H     1 <1>   0.1500 
 36 H        3.0270     2.8660    -2.8370 H     1 <1>   0.1500 
 37 H        6.6670     3.7590    -1.0010 H     1 <1>   0.0800 
 38 H        5.4460     4.0640     0.2030 H     1 <1>   0.0800 
 39 H        4.7370     4.5860    -2.2210 H     1 <1>   0.1500 
@<TRIPOS>BOND
  1   1   2  1   
  2   1  18  1   
  3   2   3  1   
  4   2  19  1   
  5   2  20  1   
  6   3   4  1   
  7   3  21  1   
  8   3  22  1   
  9   4   5  1   
 10   4   6  1   
 11   4  23  1   
 12   5   7  1   
 13   5  24  1   
 14   5  25  1   
 15   6   8  1   
 16   6  26  1   
 17   6  27  1   
 18   7   9  2   
 19   7  10  1   
 20   8  11  1   
 21   8  12  1   
 22   8  28  1   
 23   9  13  1   
 24  10  14  1   
 25  10  29  1   
 26  11  15  1   
 27  11  30  1   
 28  11  31  1   
 29  12  16  1   
 30  12  32  1   
 31  12  33  1   
 32  13  14  2   
 33  13  34  1   
 34  14  35  1   
 35  15  17  2   
 36  15  36  1   
 37  16  17  1   
 38  16  37  1   
 39  16  38  1   
 40  17  39  1   
@<TRIPOS>SUBSTRUCTURE
  1 ****   4 GROUP 4 **** **** 0

# MOE 2024.06 (io_trps.svl 2023.06)
