@<TRIPOS>MOLECULE
NONAME
41 43 1 0 0 
SMALL
USER_CHARGES


@<TRIPOS>ATOM
  1 S        0.4960     0.1490     1.8420 S.o2  1 <1>   1.5000 
  2 O        1.0020    -0.9500     2.6320 O.2   1 <1>  -0.6500 
  3 O       -0.0350     1.3250     2.4940 O.2   1 <1>  -0.6500 
  4 N        1.8160     0.7010     0.9250 N.am  1 <1>  -0.8490 
  5 C       -0.6720    -0.4350     0.5900 C.2   1 <1>  -0.0220 
  6 C        2.7460     1.4980     1.7570 C.3   1 <1>   0.1960 
  7 C        2.5230    -0.3930     0.2430 C.3   1 <1>   0.1960 
  8 S       -0.8530     0.5210    -0.8810 S.3   1 <1>  -0.0800 
  9 C       -1.4970    -1.5020     0.5330 C.2   1 <1>  -0.1500 
 10 C        3.7750     2.3510     0.9590 C.3   1 <1>   0.4230 
 11 C        3.4420     0.1310    -0.8810 C.3   1 <1>  -0.0800 
 12 C       -2.0510    -0.5850    -1.5260 C.2   1 <1>  -0.1100 
 13 C       -2.2770    -1.5920    -0.6640 C.2   1 <1>  -0.1810 
 14 N        3.3580     2.6920    -0.4630 N.4   1 <1>  -0.9590 
 15 C        5.1950     1.7460     1.0150 C.3   1 <1>   0.1200 
 16 C        4.9400    -0.0040    -0.5670 C.3   1 <1>   0.1200 
 17 C        3.0430     1.5310    -1.3740 C.3   1 <1>   0.3430 
 18 C       -3.2480    -2.7390    -0.8720 C.3   1 <1>  -0.0590 
 19 C        2.1650     3.5970    -0.4300 C.3   1 <1>   0.2630 
 20 O        5.2120     0.3820     0.7380 O.3   1 <1>  -0.5600 
 21 H        2.1800     2.1940     2.3510 H     1 <1>   0.0800 
 22 H        3.2560     0.8530     2.4560 H     1 <1>   0.0800 
 23 H        3.0770    -0.9870     0.9550 H     1 <1>   0.0800 
 24 H        1.7970    -1.0490    -0.2090 H     1 <1>   0.0800 
 25 H       -1.5890    -2.2450     1.3070 H     1 <1>   0.1500 
 26 H        3.8580     3.2830     1.4910 H     1 <1>   0.0800 
 27 H        3.2770    -0.5220    -1.7190 H     1 <1>   0.0800 
 28 H       -2.4670    -0.3610    -2.4920 H     1 <1>   0.1500 
 29 H        4.1370     3.2080    -0.8890 H     1 <1>   0.4500 
 30 H        5.5750     1.8510     2.0170 H     1 <1>   0.0800 
 31 H        5.8720     2.2520     0.3510 H     1 <1>   0.0800 
 32 H        5.5550     0.5630    -1.2460 H     1 <1>   0.0800 
 33 H        5.2280    -1.0400    -0.6430 H     1 <1>   0.0800 
 34 H        1.9780     1.5080    -1.5490 H     1 <1>   0.0800 
 35 H        3.5120     1.7040    -2.3290 H     1 <1>   0.0800 
 36 H       -2.7220    -3.6760    -0.8500 H     1 <1>   0.0800 
 37 H       -3.7440    -2.6430    -1.8210 H     1 <1>   0.0800 
 38 H       -3.9900    -2.7370    -0.0940 H     1 <1>   0.0800 
 39 H        1.3210     3.0820     0.0020 H     1 <1>   0.0800 
 40 H        1.9010     3.9100    -1.4270 H     1 <1>   0.0800 
 41 H        2.3720     4.4750     0.1620 H     1 <1>   0.0800 
@<TRIPOS>BOND
  1   1   2  2   
  2   1   3  2   
  3   1   4  am  
  4   1   5  1   
  5   4   6  1   
  6   4   7  1   
  7   5   8  1   
  8   5   9  2   
  9   6  10  1   
 10   6  21  1   
 11   6  22  1   
 12   7  11  1   
 13   7  23  1   
 14   7  24  1   
 15   8  12  1   
 16   9  13  1   
 17   9  25  1   
 18  10  14  1   
 19  10  15  1   
 20  10  26  1   
 21  11  16  1   
 22  11  17  1   
 23  11  27  1   
 24  12  13  2   
 25  12  28  1   
 26  13  18  1   
 27  14  17  1   
 28  14  19  1   
 29  14  29  1   
 30  15  20  1   
 31  15  30  1   
 32  15  31  1   
 33  16  20  1   
 34  16  32  1   
 35  16  33  1   
 36  17  34  1   
 37  17  35  1   
 38  18  36  1   
 39  18  37  1   
 40  18  38  1   
 41  19  39  1   
 42  19  40  1   
 43  19  41  1   
@<TRIPOS>SUBSTRUCTURE
  1 ****   4 GROUP 4 **** **** 0

# MOE 2024.06 (io_trps.svl 2023.06)
