@<TRIPOS>MOLECULE
NONAME
52 54 1 0 0 
SMALL
USER_CHARGES


@<TRIPOS>ATOM
  1 O       -4.9650    -2.8710     0.1850 O.co2 1 <1>  -0.9000 
  2 C       -5.0030    -2.2020    -0.8530 C.2   1 <1>   0.9060 
  3 O       -5.7780    -2.5420    -1.7680 O.co2 1 <1>  -0.9000 
  4 C       -4.1860    -0.9060    -0.9950 C.3   1 <1>   0.0140 
  5 O       -4.6950     0.2860    -0.3480 O.3   1 <1>  -0.3630 
  6 C       -5.9540     0.2920     0.1690 C.ar  1 <1>   0.0830 
  7 C       -6.2410     0.6730     1.4880 C.ar  1 <1>   0.0830 
  8 C       -6.9770    -0.1830    -0.6300 C.ar  1 <1>  -0.1500 
  9 O       -5.3410     1.1960     2.3640 O.3   1 <1>  -0.3630 
 10 C       -7.5250     0.4850     1.9790 C.ar  1 <1>  -0.1500 
 11 C       -8.1980    -0.5200    -0.0870 C.ar  1 <1>  -0.1440 
 12 C       -4.0270     0.6830     2.3890 C.3   1 <1>   0.0400 
 13 C       -8.4970    -0.1400     1.2120 C.ar  1 <1>  -0.1500 
 14 C       -9.0760    -1.4290    -0.9170 C.3   1 <1>   0.4860 
 15 N       -8.4140    -2.7690    -0.9740 N.4   1 <1>  -0.9590 
 16 C       -9.0450    -3.7480    -1.8960 C.3   1 <1>   0.4230 
 17 C       -8.0540    -3.3190     0.3690 C.3   1 <1>   0.3430 
 18 C      -10.3740    -4.3060    -1.3260 C.3   1 <1>   0.1400 
 19 C       -8.0190    -4.8600    -2.1840 C.3   1 <1>  -0.1600 
 20 C       -7.9500    -4.8510     0.3810 C.3   1 <1>  -0.0800 
 21 N      -10.2270    -5.5570    -0.4990 N.am  1 <1>  -0.6600 
 22 C       -7.3110    -5.3890    -0.9170 C.3   1 <1>  -0.1600 
 23 C       -9.3200    -5.4830     0.6900 C.3   1 <1>   0.1400 
 24 C      -10.8350    -6.7170    -0.9180 C.2   1 <1>   0.5690 
 25 O      -11.4730    -6.7650    -1.9410 O.2   1 <1>  -0.5700 
 26 C      -10.7320    -7.9940    -0.1170 C.3   1 <1>  -0.1790 
 27 H       -4.0920    -0.6850    -2.0400 H     1 <1>   0.0800 
 28 H       -3.2080    -1.0890    -0.5960 H     1 <1>   0.0800 
 29 H       -6.7760    -0.3710    -1.6690 H     1 <1>   0.1500 
 30 H       -7.7430     0.8000     2.9840 H     1 <1>   0.1500 
 31 H       -3.5950     0.9120     3.3460 H     1 <1>   0.0800 
 32 H       -3.4570     1.1540     1.6090 H     1 <1>   0.0800 
 33 H       -4.0610    -0.3830     2.2420 H     1 <1>   0.0800 
 34 H       -9.4600    -0.3440     1.6460 H     1 <1>   0.1500 
 35 H       -9.1760    -1.0250    -1.9110 H     1 <1>   0.0800 
 36 H      -10.0510    -1.5110    -0.4690 H     1 <1>   0.0800 
 37 H       -7.4490    -2.6180    -1.3780 H     1 <1>   0.4500 
 38 H       -9.2660    -3.2470    -2.8230 H     1 <1>   0.0800 
 39 H       -7.1030    -2.9050     0.6620 H     1 <1>   0.0800 
 40 H       -8.7770    -3.0080     1.1020 H     1 <1>   0.0800 
 41 H      -11.0100    -4.5090    -2.1690 H     1 <1>   0.0800 
 42 H      -10.8750    -3.5570    -0.7420 H     1 <1>   0.0800 
 43 H       -8.5130    -5.6710    -2.6910 H     1 <1>   0.0800 
 44 H       -7.2750    -4.4770    -2.8610 H     1 <1>   0.0800 
 45 H       -7.2990    -5.1010     1.2000 H     1 <1>   0.0800 
 46 H       -6.2830    -5.0630    -0.9420 H     1 <1>   0.0800 
 47 H       -7.3050    -6.4650    -0.9160 H     1 <1>   0.0800 
 48 H       -9.8120    -4.9280     1.4710 H     1 <1>   0.0800 
 49 H       -9.1350    -6.4690     1.0750 H     1 <1>   0.0800 
 50 H      -11.0530    -7.8240     0.8930 H     1 <1>   0.0800 
 51 H       -9.7200    -8.3510    -0.1280 H     1 <1>   0.0800 
 52 H      -11.3640    -8.7460    -0.5540 H     1 <1>   0.0800 
@<TRIPOS>BOND
  1   1   2  ar  
  2   2   3  ar  
  3   2   4  1   
  4   4   5  1   
  5   4  27  1   
  6   4  28  1   
  7   5   6  1   
  8   6   7  ar  
  9   6   8  ar  
 10   7   9  1   
 11   7  10  ar  
 12   8  11  ar  
 13   8  29  1   
 14   9  12  1   
 15  10  13  ar  
 16  10  30  1   
 17  11  13  ar  
 18  11  14  1   
 19  12  31  1   
 20  12  32  1   
 21  12  33  1   
 22  13  34  1   
 23  14  15  1   
 24  14  35  1   
 25  14  36  1   
 26  15  16  1   
 27  15  17  1   
 28  15  37  1   
 29  16  18  1   
 30  16  19  1   
 31  16  38  1   
 32  17  20  1   
 33  17  39  1   
 34  17  40  1   
 35  18  21  1   
 36  18  41  1   
 37  18  42  1   
 38  19  22  1   
 39  19  43  1   
 40  19  44  1   
 41  20  22  1   
 42  20  23  1   
 43  20  45  1   
 44  21  23  1   
 45  21  24  am  
 46  22  46  1   
 47  22  47  1   
 48  23  48  1   
 49  23  49  1   
 50  24  25  2   
 51  24  26  1   
 52  26  50  1   
 53  26  51  1   
 54  26  52  1   
@<TRIPOS>SUBSTRUCTURE
  1 ****  17 GROUP 4 **** **** 0

# MOE 2024.06 (io_trps.svl 2023.06)
