@<TRIPOS>MOLECULE
NONAME
52 54 1 0 0 
SMALL
USER_CHARGES


@<TRIPOS>ATOM
  1 O        3.9670     0.3320     1.5630 O.co2 1 <1>  -0.9000 
  2 C        3.5470     0.0810     0.4280 C.2   1 <1>   0.9060 
  3 O        3.4580    -1.0850     0.0130 O.co2 1 <1>  -0.9000 
  4 C        3.2140     1.2110    -0.5500 C.3   1 <1>  -0.1060 
  5 C        4.3230     1.0770    -1.6230 C.3   1 <1>   0.2000 
  6 C        3.2780     2.6320     0.0980 C.3   1 <1>  -0.1600 
  7 C        1.7870     0.9990    -1.1430 C.3   1 <1>  -0.0160 
  8 O        4.0260     0.0370    -2.4900 O.3   1 <1>  -0.6800 
  9 C        4.5830     2.3750    -2.3960 C.3   1 <1>   0.1400 
 10 C        4.6590     3.2780    -0.0160 C.3   1 <1>   0.1400 
 11 C        0.6410     1.3670    -0.2010 C.ar  1 <1>  -0.1440 
 12 N        4.9840     3.4890    -1.4670 N.am  1 <1>  -0.6600 
 13 C        0.3850     0.6020     0.9260 C.ar  1 <1>  -0.1500 
 14 C       -0.1620     2.4660    -0.4670 C.ar  1 <1>  -0.1500 
 15 C        5.6340     4.5900    -1.9640 C.2   1 <1>   0.5690 
 16 C       -0.6520     0.9340     1.7800 C.ar  1 <1>  -0.1500 
 17 C       -1.2020     2.8000     0.3830 C.ar  1 <1>  -0.1500 
 18 O        5.8710     4.7010    -3.1460 O.2   1 <1>  -0.5700 
 19 C        6.0760     5.7380    -1.0630 C.3   1 <1>   0.0440 
 20 C       -1.4480     2.0330     1.5090 C.ar  1 <1>  -0.1500 
 21 C        7.1210     5.3460    -0.0210 C.ar  1 <1>  -0.1430 
 22 C        8.1860     4.5260    -0.3630 C.ar  1 <1>  -0.1500 
 23 C        7.0170     5.8110     1.2820 C.ar  1 <1>  -0.1500 
 24 C        9.1310     4.1660     0.5820 C.ar  1 <1>  -0.1500 
 25 C        7.9610     5.4550     2.2280 C.ar  1 <1>  -0.1500 
 26 C        9.0210     4.6310     1.8890 C.ar  1 <1>   0.0820 
 27 O        9.9000     4.3260     2.8760 O.3   1 <1>  -0.3620 
 28 C       10.9240     3.3790     2.6710 C.3   1 <1>   0.0400 
 29 H        5.2500     0.8060    -1.1410 H     1 <1>   0.0800 
 30 H        2.9890     2.5750     1.1330 H     1 <1>   0.0800 
 31 H        2.5820     3.2950    -0.3810 H     1 <1>   0.0800 
 32 H        1.6980     1.5820    -2.0410 H     1 <1>   0.0800 
 33 H        1.6580    -0.0290    -1.4340 H     1 <1>   0.0800 
 34 H        3.8160    -0.7380    -1.9030 H     1 <1>   0.4000 
 35 H        3.6920     2.6660    -2.9220 H     1 <1>   0.0800 
 36 H        5.3700     2.2070    -3.1100 H     1 <1>   0.0800 
 37 H        5.4010     2.6380     0.4360 H     1 <1>   0.0800 
 38 H        4.6520     4.2090     0.5180 H     1 <1>   0.0800 
 39 H        1.0010    -0.2560     1.1460 H     1 <1>   0.1500 
 40 H        0.0220     3.0680    -1.3390 H     1 <1>   0.1500 
 41 H       -0.8320     0.3330     2.6530 H     1 <1>   0.1500 
 42 H       -1.8190     3.6540     0.1690 H     1 <1>   0.1500 
 43 H        6.4910     6.5130    -1.6800 H     1 <1>   0.0800 
 44 H        5.2040     6.1440    -0.5870 H     1 <1>   0.0800 
 45 H       -2.2530     2.2900     2.1730 H     1 <1>   0.1500 
 46 H        8.2830     4.1580    -1.3710 H     1 <1>   0.1500 
 47 H        6.2010     6.4510     1.5700 H     1 <1>   0.1500 
 48 H        9.9390     3.5280     0.2820 H     1 <1>   0.1500 
 49 H        7.8810     5.8120     3.2390 H     1 <1>   0.1500 
 50 H       11.4530     3.2530     3.5990 H     1 <1>   0.0800 
 51 H       11.5940     3.7480     1.9150 H     1 <1>   0.0800 
 52 H       10.4810     2.4450     2.3720 H     1 <1>   0.0800 
@<TRIPOS>BOND
  1   1   2  ar  
  2   2   3  ar  
  3   2   4  1   
  4   4   5  1   
  5   4   6  1   
  6   4   7  1   
  7   5   8  1   
  8   5   9  1   
  9   5  29  1   
 10   6  10  1   
 11   6  30  1   
 12   6  31  1   
 13   7  11  1   
 14   7  32  1   
 15   7  33  1   
 16   8  34  1   
 17   9  12  1   
 18   9  35  1   
 19   9  36  1   
 20  10  12  1   
 21  10  37  1   
 22  10  38  1   
 23  11  13  ar  
 24  11  14  ar  
 25  12  15  am  
 26  13  16  ar  
 27  13  39  1   
 28  14  17  ar  
 29  14  40  1   
 30  15  18  2   
 31  15  19  1   
 32  16  20  ar  
 33  16  41  1   
 34  17  20  ar  
 35  17  42  1   
 36  19  21  1   
 37  19  43  1   
 38  19  44  1   
 39  20  45  1   
 40  21  22  ar  
 41  21  23  ar  
 42  22  24  ar  
 43  22  46  1   
 44  23  25  ar  
 45  23  47  1   
 46  24  26  ar  
 47  24  48  1   
 48  25  26  ar  
 49  25  49  1   
 50  26  27  1   
 51  27  28  1   
 52  28  50  1   
 53  28  51  1   
 54  28  52  1   
@<TRIPOS>SUBSTRUCTURE
  1 ****  10 GROUP 4 **** **** 0

# MOE 2024.06 (io_trps.svl 2023.06)
