@<TRIPOS>MOLECULE
NONAME
50 54 1 0 0 
SMALL
USER_CHARGES


@<TRIPOS>ATOM
  1 O       -2.2270     1.7560     2.9660 O.2   1 <1>  -0.5700 
  2 C       -2.8730     1.7340     1.9300 C.2   1 <1>   0.7160 
  3 N       -3.9730     0.8960     1.8760 N.am  1 <1>  -0.6600 
  4 C       -2.4460     2.5950     0.8250 C.2   1 <1>   0.1410 
  5 C       -5.0990     1.0450     0.9200 C.3   1 <1>   0.1400 
  6 C       -4.0330    -0.3650     2.6580 C.3   1 <1>   0.1400 
  7 N       -2.7230     2.3890    -0.4950 N.2   1 <1>  -0.5650 
  8 C       -1.6750     3.7170     0.9480 C.2   1 <1>  -0.3020 
  9 C       -5.0400    -0.0990    -0.0930 C.3   1 <1>  -0.1600 
 10 C       -3.9480    -1.5460     1.6860 C.3   1 <1>  -0.1600 
 11 C       -2.1300     3.3630    -1.1210 C.2   1 <1>   0.3120 
 12 N       -1.4650     4.2190    -0.2730 N.pl3 1 <1>   0.3340 
 13 C       -5.0290    -1.4820     0.5900 C.3   1 <1>   0.4240 
 14 N       -2.1470     3.5450    -2.4850 N.2   1 <1>  -0.5760 
 15 C       -0.7790     5.3090    -0.7770 C.2   1 <1>  -0.1810 
 16 O       -6.2400    -1.5910     1.3090 O.3   1 <1>  -0.5600 
 17 C       -4.8670    -2.6350    -0.4400 C.ar  1 <1>  -0.1430 
 18 C       -1.5050     4.5650    -2.9430 C.2   1 <1>   0.3760 
 19 C       -0.7970     5.4880    -2.1220 C.2   1 <1>  -0.1360 
 20 C       -7.3710    -2.0110     0.6170 C.3   1 <1>   0.1200 
 21 C       -3.7190    -2.7690    -1.2300 C.ar  1 <1>   0.0830 
 22 C       -5.8870    -3.5690    -0.6150 C.ar  1 <1>  -0.1430 
 23 C       -7.1630    -3.4580     0.1950 C.3   1 <1>  -0.0170 
 24 O       -2.6970    -1.8900    -1.1120 O.3   1 <1>  -0.3630 
 25 C       -3.5990    -3.8110    -2.1410 C.ar  1 <1>  -0.1500 
 26 C       -5.7630    -4.6040    -1.5280 C.ar  1 <1>  -0.1500 
 27 C       -2.2260    -1.2330    -2.2690 C.3   1 <1>   0.0400 
 28 C       -4.6190    -4.7280    -2.2910 C.ar  1 <1>  -0.1500 
 29 H       -5.0540     1.9940     0.4170 H     1 <1>   0.0800 
 30 H       -6.0270     1.0040     1.4630 H     1 <1>   0.0800 
 31 H       -4.9580    -0.4000     3.2090 H     1 <1>   0.0800 
 32 H       -3.2200    -0.4170     3.3630 H     1 <1>   0.0800 
 33 H       -1.2750     4.1510     1.8450 H     1 <1>   0.1500 
 34 H       -4.1490     0.0360    -0.6690 H     1 <1>   0.0800 
 35 H       -5.8610    -0.0270    -0.7790 H     1 <1>   0.0800 
 36 H       -4.0480    -2.4710     2.2230 H     1 <1>   0.0800 
 37 H       -2.9670    -1.5350     1.2550 H     1 <1>   0.0800 
 38 H       -0.2740     5.9450    -0.0730 H     1 <1>   0.1500 
 39 H       -1.4960     4.7410    -4.0050 H     1 <1>   0.0600 
 40 H       -0.2920     6.3060    -2.6020 H     1 <1>   0.1500 
 41 H       -7.5280    -1.3750    -0.2350 H     1 <1>   0.0800 
 42 H       -8.2140    -1.9290     1.2810 H     1 <1>   0.0800 
 43 H       -8.0060    -3.7800    -0.3890 H     1 <1>   0.0800 
 44 H       -7.0950    -4.0820     1.0680 H     1 <1>   0.0800 
 45 H       -2.7050    -3.9130    -2.7260 H     1 <1>   0.1500 
 46 H       -6.5570    -5.3200    -1.6480 H     1 <1>   0.1500 
 47 H       -1.6500    -0.3810    -1.9560 H     1 <1>   0.0800 
 48 H       -3.0680    -0.9060    -2.8530 H     1 <1>   0.0800 
 49 H       -1.6090    -1.9090    -2.8330 H     1 <1>   0.0800 
 50 H       -4.5230    -5.5350    -2.9960 H     1 <1>   0.1500 
@<TRIPOS>BOND
  1   1   2  2   
  2   2   3  am  
  3   2   4  1   
  4   3   5  1   
  5   3   6  1   
  6   4   7  1   
  7   4   8  2   
  8   5   9  1   
  9   5  29  1   
 10   5  30  1   
 11   6  10  1   
 12   6  31  1   
 13   6  32  1   
 14   7  11  2   
 15   8  12  1   
 16   8  33  1   
 17   9  13  1   
 18   9  34  1   
 19   9  35  1   
 20  10  13  1   
 21  10  36  1   
 22  10  37  1   
 23  11  12  1   
 24  11  14  1   
 25  12  15  1   
 26  13  16  1   
 27  13  17  1   
 28  14  18  2   
 29  15  19  2   
 30  15  38  1   
 31  16  20  1   
 32  17  21  ar  
 33  17  22  ar  
 34  18  19  1   
 35  18  39  1   
 36  19  40  1   
 37  20  23  1   
 38  20  41  1   
 39  20  42  1   
 40  21  24  1   
 41  21  25  ar  
 42  22  23  1   
 43  22  26  ar  
 44  23  43  1   
 45  23  44  1   
 46  24  27  1   
 47  25  28  ar  
 48  25  45  1   
 49  26  28  ar  
 50  26  46  1   
 51  27  47  1   
 52  27  48  1   
 53  27  49  1   
 54  28  50  1   
@<TRIPOS>SUBSTRUCTURE
  1 ****   9 GROUP 4 **** **** 0

# MOE 2024.06 (io_trps.svl 2023.06)
