@<TRIPOS>MOLECULE
NONAME
52 55 1 0 0 
SMALL
USER_CHARGES


@<TRIPOS>ATOM
  1 O        0.7440    -0.7530     2.5370 O.2   1 <1>  -0.5700 
  2 C        1.5930    -1.1170     1.7540 C.2   1 <1>   0.9370 
  3 N        2.6080    -0.2250     1.3770 N.pl3 1 <1>  -0.5760 
  4 C        1.5800    -2.4190     1.2070 C.2   1 <1>  -0.1360 
  5 C        3.5560    -0.6240     0.4900 C.cat 1 <1>   0.7390 
  6 C        2.6550     1.0470     1.8960 C.2   1 <1>   0.1910 
  7 C        2.5220    -2.8020     0.3230 C.2   1 <1>   0.2030 
  8 N        3.4950    -1.8820    -0.0120 N.pl3 1 <1>  -0.6450 
  9 C        4.5840     0.2660     0.1040 C.2   1 <1>  -0.1680 
 10 C        3.6380     1.9230     1.5380 C.2   1 <1>  -0.1500 
 11 C        2.5840    -4.1950    -0.3190 C.3   1 <1>   0.2480 
 12 C        4.6230     1.5340     0.6270 C.2   1 <1>  -0.1500 
 13 C        5.6660    -0.1510    -0.8920 C.3   1 <1>  -0.1020 
 14 N        1.3260    -4.9210    -0.1170 N.3   1 <1>  -0.8100 
 15 C        0.2420    -4.5880    -1.0490 C.3   1 <1>   0.1100 
 16 C        1.4340    -6.3800    -0.1420 C.3   1 <1>   0.1100 
 17 C       -0.8130    -5.6700    -0.8120 C.3   1 <1>   0.2000 
 18 C        0.0270    -6.9130    -0.4710 C.3   1 <1>  -0.0800 
 19 O       -1.6080    -5.3060     0.2830 O.3   1 <1>  -0.5600 
 20 C       -0.5530    -7.7900     0.6570 C.3   1 <1>   0.0200 
 21 C       -2.7440    -4.5640    -0.0260 C.3   1 <1>   0.0400 
 22 C        0.2070    -9.0920     0.8530 C.2   1 <1>  -0.0400 
 23 O       -0.0800    -9.8370     1.8870 O.3   1 <1>  -0.0190 
 24 C        1.1770    -9.7130     0.1620 C.2   1 <1>  -0.1500 
 25 N        0.6450   -10.9180     1.9270 N.2   1 <1>  -0.4100 
 26 C        1.4120   -10.8700     0.8990 C.2   1 <1>   0.1080 
 27 C        2.4280   -11.9340     0.5470 C.3   1 <1>  -0.0590 
 28 H        0.7870    -3.0650     1.5380 H     1 <1>   0.1500 
 29 H        1.8940     1.3520     2.6020 H     1 <1>   0.1500 
 30 H        4.2310    -2.1420    -0.6730 H     1 <1>   0.4500 
 31 H        3.6660     2.9180     1.9500 H     1 <1>   0.1500 
 32 H        3.3860    -4.7440     0.1440 H     1 <1>   0.0800 
 33 H        2.7900    -4.1180    -1.3730 H     1 <1>   0.0800 
 34 H        5.3910     2.2430     0.3570 H     1 <1>   0.1500 
 35 H        6.2290    -0.9860    -0.5130 H     1 <1>   0.0800 
 36 H        6.3580     0.6560    -1.0650 H     1 <1>   0.0800 
 37 H        5.2290    -0.4140    -1.8390 H     1 <1>   0.0800 
 38 H       -0.1520    -3.6040    -0.8700 H     1 <1>   0.0800 
 39 H        0.5970    -4.6580    -2.0630 H     1 <1>   0.0800 
 40 H        2.1240    -6.6910    -0.9090 H     1 <1>   0.0800 
 41 H        1.7830    -6.7390     0.8120 H     1 <1>   0.0800 
 42 H       -1.4410    -5.8360    -1.6710 H     1 <1>   0.0800 
 43 H        0.1030    -7.5120    -1.3600 H     1 <1>   0.0800 
 44 H       -1.5790    -8.0260     0.4380 H     1 <1>   0.0800 
 45 H       -0.5350    -7.2400     1.5820 H     1 <1>   0.0800 
 46 H       -3.2500    -4.3290     0.8940 H     1 <1>   0.0800 
 47 H       -3.3930    -5.1520    -0.6530 H     1 <1>   0.0800 
 48 H       -2.4580    -3.6540    -0.5230 H     1 <1>   0.0800 
 49 H        1.6790    -9.4310    -0.7440 H     1 <1>   0.1500 
 50 H        2.2300   -12.3160    -0.4370 H     1 <1>   0.0800 
 51 H        2.3690   -12.7430     1.2530 H     1 <1>   0.0800 
 52 H        3.4170   -11.5170     0.5770 H     1 <1>   0.0800 
@<TRIPOS>BOND
  1   1   2  2   
  2   2   3  1   
  3   2   4  1   
  4   3   5  ar  
  5   3   6  1   
  6   4   7  2   
  7   4  28  1   
  8   5   8  ar  
  9   5   9  1   
 10   6  10  2   
 11   6  29  1   
 12   7   8  1   
 13   7  11  1   
 14   8  30  1   
 15   9  12  2   
 16   9  13  1   
 17  10  12  1   
 18  10  31  1   
 19  11  14  1   
 20  11  32  1   
 21  11  33  1   
 22  12  34  1   
 23  13  35  1   
 24  13  36  1   
 25  13  37  1   
 26  14  15  1   
 27  14  16  1   
 28  15  17  1   
 29  15  38  1   
 30  15  39  1   
 31  16  18  1   
 32  16  40  1   
 33  16  41  1   
 34  17  18  1   
 35  17  19  1   
 36  17  42  1   
 37  18  20  1   
 38  18  43  1   
 39  19  21  1   
 40  20  22  1   
 41  20  44  1   
 42  20  45  1   
 43  21  46  1   
 44  21  47  1   
 45  21  48  1   
 46  22  23  1   
 47  22  24  2   
 48  23  25  1   
 49  24  26  1   
 50  24  49  1   
 51  25  26  2   
 52  26  27  1   
 53  27  50  1   
 54  27  51  1   
 55  27  52  1   
@<TRIPOS>SUBSTRUCTURE
  1 ****  14 GROUP 4 **** **** 0

# MOE 2024.06 (io_trps.svl 2023.06)
