@<TRIPOS>MOLECULE
NONAME
45 47 1 0 0 
SMALL
USER_CHARGES


@<TRIPOS>ATOM
  1 F       -0.6540    -1.2820    -1.8450 F     1 <1>  -0.3400 
  2 C       -1.5500    -1.5560    -0.9100 C.3   1 <1>   1.3000 
  3 F       -0.9940    -2.4030    -0.0510 F     1 <1>  -0.3400 
  4 F       -1.8260    -0.4280    -0.2660 F     1 <1>  -0.3400 
  5 O       -2.7080    -2.1130    -1.4980 O.3   1 <1>  -0.3630 
  6 C       -3.7090    -2.4750    -0.6710 C.ar  1 <1>   0.0830 
  7 C       -3.7570    -3.7700    -0.1810 C.ar  1 <1>  -0.1500 
  8 C       -4.6910    -1.5590    -0.3310 C.ar  1 <1>  -0.1500 
  9 C       -4.7870    -4.1530     0.6650 C.ar  1 <1>  -0.1440 
 10 C       -5.7140    -1.9360     0.5190 C.ar  1 <1>  -0.1500 
 11 C       -5.7610    -3.2270     1.0180 C.ar  1 <1>  -0.1500 
 12 C       -4.8590    -5.5700     1.2000 C.3   1 <1>   0.4870 
 13 N       -5.2540    -6.4860     0.0940 N.4   1 <1>  -0.9590 
 14 C       -6.6400    -6.1720    -0.3870 C.3   1 <1>   0.3430 
 15 C       -5.2730    -7.9020     0.5770 C.3   1 <1>   0.3430 
 16 C       -7.5480    -7.2240     0.2540 C.3   1 <1>   0.2000 
 17 C       -6.6670    -8.4700     0.2660 C.3   1 <1>  -0.0800 
 18 O       -7.7850    -6.8480     1.5730 O.3   1 <1>  -0.6800 
 19 C       -6.7330    -9.2200    -1.0820 C.3   1 <1>   0.0200 
 20 C       -5.7460   -10.3680    -1.1350 C.2   1 <1>  -0.0400 
 21 O       -4.4800   -10.1230    -1.3410 O.3   1 <1>  -0.0190 
 22 C       -5.8930   -11.6960    -1.0120 C.2   1 <1>  -0.1500 
 23 N       -3.7690   -11.2090    -1.3410 N.2   1 <1>  -0.4100 
 24 C       -4.5930   -12.1760    -1.1520 C.2   1 <1>   0.1080 
 25 C       -4.1950   -13.6350    -1.0930 C.3   1 <1>  -0.0590 
 26 H       -2.9820    -4.4600    -0.4650 H     1 <1>   0.1500 
 27 H       -4.6550    -0.5570    -0.7240 H     1 <1>   0.1500 
 28 H       -6.4740    -1.2220     0.7930 H     1 <1>   0.1500 
 29 H       -6.5650    -3.4990     1.6830 H     1 <1>   0.1500 
 30 H       -5.5820    -5.6240     1.9980 H     1 <1>   0.0800 
 31 H       -3.8950    -5.8530     1.5910 H     1 <1>   0.0800 
 32 H       -4.5850    -6.3650    -0.6760 H     1 <1>   0.4500 
 33 H       -6.9560    -5.1760    -0.1240 H     1 <1>   0.0800 
 34 H       -6.6780    -6.2770    -1.4580 H     1 <1>   0.0800 
 35 H       -4.4840    -8.4790     0.1260 H     1 <1>   0.0800 
 36 H       -5.1320    -7.9190     1.6460 H     1 <1>   0.0800 
 37 H       -8.4900    -7.3390    -0.2560 H     1 <1>   0.0800 
 38 H       -6.9660    -9.1540     1.0420 H     1 <1>   0.0800 
 39 H       -8.5070    -7.3800     1.9710 H     1 <1>   0.4000 
 40 H       -6.5320    -8.5630    -1.9100 H     1 <1>   0.0800 
 41 H       -7.7250    -9.6190    -1.2150 H     1 <1>   0.0800 
 42 H       -6.7740   -12.2880    -0.8450 H     1 <1>   0.1500 
 43 H       -4.6890   -14.1800    -1.8760 H     1 <1>   0.0800 
 44 H       -4.4690   -14.0520    -0.1420 H     1 <1>   0.0800 
 45 H       -3.1320   -13.7310    -1.2210 H     1 <1>   0.0800 
@<TRIPOS>BOND
  1   1   2  1   
  2   2   3  1   
  3   2   4  1   
  4   2   5  1   
  5   5   6  1   
  6   6   7  ar  
  7   6   8  ar  
  8   7   9  ar  
  9   7  26  1   
 10   8  10  ar  
 11   8  27  1   
 12   9  11  ar  
 13   9  12  1   
 14  10  11  ar  
 15  10  28  1   
 16  11  29  1   
 17  12  13  1   
 18  12  30  1   
 19  12  31  1   
 20  13  14  1   
 21  13  15  1   
 22  13  32  1   
 23  14  16  1   
 24  14  33  1   
 25  14  34  1   
 26  15  17  1   
 27  15  35  1   
 28  15  36  1   
 29  16  17  1   
 30  16  18  1   
 31  16  37  1   
 32  17  19  1   
 33  17  38  1   
 34  18  39  1   
 35  19  20  1   
 36  19  40  1   
 37  19  41  1   
 38  20  21  1   
 39  20  22  2   
 40  21  23  1   
 41  22  24  1   
 42  22  42  1   
 43  23  24  2   
 44  24  25  1   
 45  25  43  1   
 46  25  44  1   
 47  25  45  1   
@<TRIPOS>SUBSTRUCTURE
  1 ****  13 GROUP 4 **** **** 0

# MOE 2024.06 (io_trps.svl 2023.06)
