@<TRIPOS>MOLECULE
NONAME
56 58 1 0 0 
SMALL
USER_CHARGES


@<TRIPOS>ATOM
  1 O       -0.2680     0.9700    -1.3390 O.3   1 <1>  -0.6800 
  2 C       -0.1700     2.0490    -0.4860 C.3   1 <1>   0.2000 
  3 C       -1.1130     3.1480    -0.9720 C.3   1 <1>  -0.1600 
  4 C        1.2810     2.5260    -0.4860 C.3   1 <1>  -0.1600 
  5 C       -0.9500     4.4050    -0.1160 C.3   1 <1>   0.2090 
  6 C        1.4270     3.7850     0.3690 C.3   1 <1>   0.2090 
  7 N        0.4780     4.8260    -0.1050 N.pl3 1 <1>  -0.8380 
  8 C        0.7770     6.1490     0.1400 C.ar  1 <1>   0.4100 
  9 N       -0.0210     6.8250     0.9460 N.ar  1 <1>  -0.6200 
 10 C        1.8720     6.7480    -0.4340 C.ar  1 <1>  -0.1500 
 11 C        0.3110     8.0810     1.1540 C.ar  1 <1>   0.4700 
 12 C        2.1180     8.0680    -0.1470 C.ar  1 <1>   0.4100 
 13 N        1.3410     8.7510     0.6680 N.ar  1 <1>  -0.6200 
 14 N        3.1990     8.7220    -0.6930 N.pl3 1 <1>  -0.8690 
 15 C        3.1280    10.1920    -1.0150 C.3   1 <1>   0.2090 
 16 C        3.6880    11.2270     0.0410 C.3   1 <1>   0.5030 
 17 N        4.6580    10.6540     1.0610 N.4   1 <1>  -0.9590 
 18 C        2.5370    11.9220     0.8200 C.3   1 <1>  -0.1600 
 19 C        4.4680    12.3350    -0.7140 C.3   1 <1>  -0.1600 
 20 C        5.8310     9.9450     0.4580 C.3   1 <1>   0.2630 
 21 C        4.0220     9.7350     2.0660 C.3   1 <1>   0.2630 
 22 C        1.6500    12.8540    -0.0260 C.3   1 <1>  -0.1600 
 23 C        3.5870    13.2360    -1.5960 C.3   1 <1>  -0.1600 
 24 C        2.4850    13.9000    -0.7690 C.3   1 <1>  -0.1600 
 25 H       -1.1930     0.6670    -1.3990 H     1 <1>   0.4000 
 26 H       -0.4520     1.7220     0.5010 H     1 <1>   0.0800 
 27 H       -2.1330     2.8160    -0.9120 H     1 <1>   0.0800 
 28 H       -0.8890     3.4000    -1.9940 H     1 <1>   0.0800 
 29 H        1.5930     2.7500    -1.4900 H     1 <1>   0.0800 
 30 H        1.9150     1.7530    -0.0920 H     1 <1>   0.0800 
 31 H       -1.2700     4.2150     0.8940 H     1 <1>   0.0800 
 32 H       -1.5580     5.1990    -0.5190 H     1 <1>   0.0800 
 33 H        2.4390     4.1480     0.3090 H     1 <1>   0.0800 
 34 H        1.2120     3.5570     1.3990 H     1 <1>   0.0800 
 35 H        2.5000     6.1870    -1.0940 H     1 <1>   0.1500 
 36 H       -0.3440     8.6310     1.8090 H     1 <1>   0.1500 
 37 H        3.6260     8.1840    -1.4540 H     1 <1>   0.4000 
 38 H        2.1060    10.4390    -1.2430 H     1 <1>   0.0800 
 39 H        3.6620    10.3320    -1.9380 H     1 <1>   0.0800 
 40 H        5.0100    11.4660     1.5820 H     1 <1>   0.4500 
 41 H        2.9580    12.5140     1.6130 H     1 <1>   0.0800 
 42 H        1.8910    11.1910     1.2670 H     1 <1>   0.0800 
 43 H        5.2220    11.9010    -1.3450 H     1 <1>   0.0800 
 44 H        4.9640    12.9700     0.0000 H     1 <1>   0.0800 
 45 H        5.5000     9.0860    -0.1020 H     1 <1>   0.0800 
 46 H        6.4990     9.6070     1.2330 H     1 <1>   0.0800 
 47 H        6.3780    10.6000    -0.1990 H     1 <1>   0.0800 
 48 H        3.6870     8.8290     1.5930 H     1 <1>   0.0800 
 49 H        3.1770    10.2040     2.5390 H     1 <1>   0.0800 
 50 H        4.7340     9.4700     2.8300 H     1 <1>   0.0800 
 51 H        0.9480    13.3570     0.6180 H     1 <1>   0.0800 
 52 H        1.0730    12.2860    -0.7340 H     1 <1>   0.0800 
 53 H        3.1420    12.6670    -2.3950 H     1 <1>   0.0800 
 54 H        4.1950    14.0020    -2.0490 H     1 <1>   0.0800 
 55 H        2.9270    14.5780    -0.0580 H     1 <1>   0.0800 
 56 H        1.8460    14.4790    -1.4140 H     1 <1>   0.0800 
@<TRIPOS>BOND
  1   1   2  1   
  2   1  25  1   
  3   2   3  1   
  4   2   4  1   
  5   2  26  1   
  6   3   5  1   
  7   3  27  1   
  8   3  28  1   
  9   4   6  1   
 10   4  29  1   
 11   4  30  1   
 12   5   7  1   
 13   5  31  1   
 14   5  32  1   
 15   6   7  1   
 16   6  33  1   
 17   6  34  1   
 18   7   8  1   
 19   8   9  ar  
 20   8  10  ar  
 21   9  11  ar  
 22  10  12  ar  
 23  10  35  1   
 24  11  13  ar  
 25  11  36  1   
 26  12  13  ar  
 27  12  14  1   
 28  14  15  1   
 29  14  37  1   
 30  15  16  1   
 31  15  38  1   
 32  15  39  1   
 33  16  17  1   
 34  16  18  1   
 35  16  19  1   
 36  17  20  1   
 37  17  21  1   
 38  17  40  1   
 39  18  22  1   
 40  18  41  1   
 41  18  42  1   
 42  19  23  1   
 43  19  43  1   
 44  19  44  1   
 45  20  45  1   
 46  20  46  1   
 47  20  47  1   
 48  21  48  1   
 49  21  49  1   
 50  21  50  1   
 51  22  24  1   
 52  22  51  1   
 53  22  52  1   
 54  23  24  1   
 55  23  53  1   
 56  23  54  1   
 57  24  55  1   
 58  24  56  1   
@<TRIPOS>SUBSTRUCTURE
  1 ****  12 GROUP 4 **** **** 0

# MOE 2024.06 (io_trps.svl 2023.06)
