@<TRIPOS>MOLECULE
NONAME
43 44 1 0 0 
SMALL
USER_CHARGES


@<TRIPOS>ATOM
  1 O        2.6100    -0.8820    -2.7160 O.2   1 <1>  -0.5700 
  2 C        1.9380    -1.0800    -1.7320 C.2   1 <1>   0.5690 
  3 N        1.7700    -0.1920    -0.7080 N.am  1 <1>  -0.5470 
  4 C        1.2100    -2.4190    -1.5900 C.3   1 <1>   0.1710 
  5 C        2.2570     1.1000    -0.4530 C.ar  1 <1>   0.1170 
  6 N        0.0400    -2.3650    -0.6600 N.3   1 <1>  -0.8100 
  7 C        3.1350     1.7700    -1.2990 C.ar  1 <1>  -0.1500 
  8 C        1.8400     1.7430     0.7060 C.ar  1 <1>  -0.1500 
  9 C       -0.3040    -3.7120    -0.1460 C.3   1 <1>   0.2910 
 10 C       -1.1120    -1.7000    -1.2950 C.3   1 <1>   0.0300 
 11 C        3.5780     3.0440    -0.9920 C.ar  1 <1>  -0.1500 
 12 C        2.2800     3.0170     1.0180 C.ar  1 <1>  -0.1500 
 13 C       -1.3120    -3.6660     0.9980 C.2   1 <1>   0.1080 
 14 C        3.1570     3.6790     0.1650 C.ar  1 <1>   0.0820 
 15 N       -0.9990    -3.5200     2.2390 N.2   1 <1>  -0.4100 
 16 C       -2.6940    -3.7940     0.8550 C.2   1 <1>  -0.1500 
 17 O        3.6490     4.9300     0.3830 O.3   1 <1>  -0.3620 
 18 O       -2.1190    -3.5420     2.9040 O.3   1 <1>  -0.0190 
 19 C       -3.1450    -3.7040     2.1150 C.2   1 <1>  -0.0100 
 20 C        3.2800     5.7180     1.4920 C.3   1 <1>   0.2000 
 21 C        1.9260     6.3730     1.2080 C.3   1 <1>  -0.2400 
 22 C        4.3700     6.7700     1.6740 C.3   1 <1>  -0.2400 
 23 H        1.1120    -0.5650    -0.0150 H     1 <1>   0.3700 
 24 H        1.9340    -3.1210    -1.2170 H     1 <1>   0.0800 
 25 H        0.8960    -2.7520    -2.5630 H     1 <1>   0.0800 
 26 H        3.4790     1.3030    -2.2030 H     1 <1>   0.1500 
 27 H        1.1630     1.2410     1.3740 H     1 <1>   0.1500 
 28 H        0.5870    -4.1830     0.2320 H     1 <1>   0.0800 
 29 H       -0.6900    -4.3220    -0.9430 H     1 <1>   0.0800 
 30 H       -0.8230    -0.7370    -1.6810 H     1 <1>   0.0800 
 31 H       -1.8940    -1.5430    -0.5720 H     1 <1>   0.0800 
 32 H       -1.4950    -2.2960    -2.1060 H     1 <1>   0.0800 
 33 H        4.2560     3.5550    -1.6520 H     1 <1>   0.1500 
 34 H        1.9290     3.4720     1.9240 H     1 <1>   0.1500 
 35 H       -3.2370    -3.9300    -0.0610 H     1 <1>   0.1500 
 36 H       -4.1350    -3.7420     2.5320 H     1 <1>   0.1500 
 37 H        3.2450     5.0940     2.3690 H     1 <1>   0.0800 
 38 H        1.9870     6.9800     0.3220 H     1 <1>   0.0800 
 39 H        1.6410     6.9990     2.0340 H     1 <1>   0.0800 
 40 H        1.1640     5.6280     1.0700 H     1 <1>   0.0800 
 41 H        4.4480     7.3840     0.7950 H     1 <1>   0.0800 
 42 H        5.3140     6.2890     1.8570 H     1 <1>   0.0800 
 43 H        4.1400     7.3980     2.5150 H     1 <1>   0.0800 
@<TRIPOS>BOND
  1   1   2  2   
  2   2   3  am  
  3   2   4  1   
  4   3   5  1   
  5   3  23  1   
  6   4   6  1   
  7   4  24  1   
  8   4  25  1   
  9   5   7  ar  
 10   5   8  ar  
 11   6   9  1   
 12   6  10  1   
 13   7  11  ar  
 14   7  26  1   
 15   8  12  ar  
 16   8  27  1   
 17   9  13  1   
 18   9  28  1   
 19   9  29  1   
 20  10  30  1   
 21  10  31  1   
 22  10  32  1   
 23  11  14  ar  
 24  11  33  1   
 25  12  14  ar  
 26  12  34  1   
 27  13  15  2   
 28  13  16  1   
 29  14  17  1   
 30  15  18  1   
 31  16  19  2   
 32  16  35  1   
 33  17  20  1   
 34  18  19  1   
 35  19  36  1   
 36  20  21  1   
 37  20  22  1   
 38  20  37  1   
 39  21  38  1   
 40  21  39  1   
 41  21  40  1   
 42  22  41  1   
 43  22  42  1   
 44  22  43  1   
@<TRIPOS>SUBSTRUCTURE
  1 ****   3 GROUP 4 **** **** 0

# MOE 2024.06 (io_trps.svl 2023.06)
