@<TRIPOS>MOLECULE
NONAME
56 60 1 0 0 
SMALL
USER_CHARGES


@<TRIPOS>ATOM
  1 O        2.6090    -2.1360     1.7980 O.2   1 <1>  -0.5700 
  2 C        2.3420    -1.2160     1.0430 C.2   1 <1>   0.5440 
  3 N        1.2200    -0.4620     1.3030 N.am  1 <1>  -0.6600 
  4 C        3.2170    -0.9150    -0.0610 C.ar  1 <1>   0.0860 
  5 C        0.7680     0.6830     0.4840 C.3   1 <1>   0.1400 
  6 C        0.3410    -0.6660     2.4720 C.3   1 <1>   0.1400 
  7 C        2.8570    -1.1920    -1.3940 C.ar  1 <1>   0.4100 
  8 C        4.4460    -0.3170     0.1720 C.ar  1 <1>  -0.1500 
  9 C       -0.6010     1.0410     1.0490 C.3   1 <1>  -0.1600 
 10 C       -0.5570     0.5650     2.4990 C.3   1 <1>  -0.1600 
 11 N        3.6080    -0.8560    -2.4430 N.ar  1 <1>  -0.6200 
 12 N        1.6820    -1.8470    -1.7050 N.pl3 1 <1>  -0.8380 
 13 C        5.2300     0.0040    -0.9120 C.ar  1 <1>  -0.1500 
 14 C        4.7640    -0.2790    -2.1840 C.ar  1 <1>   0.1600 
 15 C        1.4830    -3.2620    -1.2790 C.3   1 <1>   0.2090 
 16 C        0.8710    -1.4610    -2.8860 C.3   1 <1>   0.2090 
 17 C        0.0170    -3.4860    -0.8860 C.3   1 <1>   0.1000 
 18 C       -0.6130    -1.6540    -2.5470 C.3   1 <1>  -0.1600 
 19 C       -0.1880    -4.9390    -0.4510 C.2   1 <1>   0.0060 
 20 C       -0.9080    -3.0840    -2.0570 C.3   1 <1>  -0.1600 
 21 N       -0.7390    -5.8400    -1.1930 N.2   1 <1>  -0.5650 
 22 N        0.2150    -5.4070     0.7680 N.pl3 1 <1>   0.0480 
 23 C       -0.7060    -6.9720    -0.4430 C.ar  1 <1>   0.2270 
 24 C       -0.1120    -6.7270     0.7800 C.ar  1 <1>  -0.1520 
 25 C        0.8940    -4.6930     1.8680 C.3   1 <1>   0.0160 
 26 C       -1.1670    -8.2500    -0.7540 C.ar  1 <1>  -0.1500 
 27 C        0.0430    -7.7500     1.7200 C.ar  1 <1>  -0.1500 
 28 C       -1.0210    -9.2630     0.1690 C.ar  1 <1>  -0.1500 
 29 C       -0.4140    -9.0110     1.4060 C.ar  1 <1>  -0.1500 
 30 H        0.7060     0.4200    -0.5570 H     1 <1>   0.0800 
 31 H        1.4550     1.5020     0.6130 H     1 <1>   0.0800 
 32 H        0.9190    -0.7630     3.3760 H     1 <1>   0.0800 
 33 H       -0.2460    -1.5550     2.3180 H     1 <1>   0.0800 
 34 H        4.7670    -0.1110     1.1790 H     1 <1>   0.1500 
 35 H       -1.3550     0.4950     0.5090 H     1 <1>   0.0800 
 36 H       -0.8050     2.0940     0.9680 H     1 <1>   0.0800 
 37 H       -0.0980     1.3170     3.1170 H     1 <1>   0.0800 
 38 H       -1.5340     0.3400     2.8890 H     1 <1>   0.0800 
 39 H        6.1900     0.4710    -0.7800 H     1 <1>   0.1500 
 40 H        5.3780    -0.0180    -3.0290 H     1 <1>   0.1500 
 41 H        2.1300    -3.4980    -0.4540 H     1 <1>   0.0800 
 42 H        1.7370    -3.9170    -2.0960 H     1 <1>   0.0800 
 43 H        1.1480    -2.0780    -3.7240 H     1 <1>   0.0800 
 44 H        1.0610    -0.4320    -3.1430 H     1 <1>   0.0800 
 45 H       -0.2070    -2.8440    -0.0540 H     1 <1>   0.0800 
 46 H       -1.2040    -1.4430    -3.4190 H     1 <1>   0.0800 
 47 H       -0.8880    -0.9480    -1.7840 H     1 <1>   0.0800 
 48 H       -1.9350    -3.1640    -1.7470 H     1 <1>   0.0800 
 49 H       -0.7580    -3.7670    -2.8760 H     1 <1>   0.0800 
 50 H        0.5460    -3.6790     1.9150 H     1 <1>   0.0800 
 51 H        1.9550    -4.7000     1.6970 H     1 <1>   0.0800 
 52 H        0.6800    -5.1770     2.8020 H     1 <1>   0.0800 
 53 H       -1.6270    -8.4110    -1.7110 H     1 <1>   0.1500 
 54 H        0.5110    -7.5520     2.6680 H     1 <1>   0.1500 
 55 H       -1.3710   -10.2550    -0.0550 H     1 <1>   0.1500 
 56 H       -0.3090    -9.8180     2.1110 H     1 <1>   0.1500 
@<TRIPOS>BOND
  1   1   2  2   
  2   2   3  am  
  3   2   4  1   
  4   3   5  1   
  5   3   6  1   
  6   4   7  ar  
  7   4   8  ar  
  8   5   9  1   
  9   5  30  1   
 10   5  31  1   
 11   6  10  1   
 12   6  32  1   
 13   6  33  1   
 14   7  11  ar  
 15   7  12  1   
 16   8  13  ar  
 17   8  34  1   
 18   9  10  1   
 19   9  35  1   
 20   9  36  1   
 21  10  37  1   
 22  10  38  1   
 23  11  14  ar  
 24  12  15  1   
 25  12  16  1   
 26  13  14  ar  
 27  13  39  1   
 28  14  40  1   
 29  15  17  1   
 30  15  41  1   
 31  15  42  1   
 32  16  18  1   
 33  16  43  1   
 34  16  44  1   
 35  17  19  1   
 36  17  20  1   
 37  17  45  1   
 38  18  20  1   
 39  18  46  1   
 40  18  47  1   
 41  19  21  2   
 42  19  22  1   
 43  20  48  1   
 44  20  49  1   
 45  21  23  1   
 46  22  24  1   
 47  22  25  1   
 48  23  24  ar  
 49  23  26  ar  
 50  24  27  ar  
 51  25  50  1   
 52  25  51  1   
 53  25  52  1   
 54  26  28  ar  
 55  26  53  1   
 56  27  29  ar  
 57  27  54  1   
 58  28  29  ar  
 59  28  55  1   
 60  29  56  1   
@<TRIPOS>SUBSTRUCTURE
  1 ****  15 GROUP 4 **** **** 0

# MOE 2024.06 (io_trps.svl 2023.06)
