@<TRIPOS>MOLECULE
NONAME
53 54 1 0 0 
SMALL
USER_CHARGES


@<TRIPOS>ATOM
  1 O        4.8380    -0.9210    -0.0260 O.co2 1 <1>  -0.9000 
  2 C        3.8470    -0.6450    -0.7180 C.2   1 <1>   0.9060 
  3 O        3.7340    -1.0780    -1.8640 O.co2 1 <1>  -0.9000 
  4 C        2.8950     0.4830    -0.2640 C.3   1 <1>  -0.1060 
  5 C        3.1240     1.5890    -1.3240 C.3   1 <1>   0.2000 
  6 C        3.3210     1.0600     1.1290 C.3   1 <1>  -0.1600 
  7 C        1.4500    -0.1040    -0.2230 C.3   1 <1>  -0.1600 
  8 O        2.4200     2.7410    -0.9760 O.3   1 <1>  -0.6800 
  9 C        4.6320     1.9540    -1.4060 C.3   1 <1>   0.3430 
 10 C        4.5190     2.0320     1.0680 C.3   1 <1>   0.3430 
 11 C        0.2700     0.8610     0.0020 C.3   1 <1>  -0.1600 
 12 N        5.3660     1.7160    -0.1080 N.4   1 <1>  -0.9590 
 13 C       -1.0310     0.0800     0.2050 C.3   1 <1>  -0.2400 
 14 C        6.7290     2.2900    -0.0470 C.3   1 <1>   0.4860 
 15 C        6.6930     3.8080    -0.0350 C.ar  1 <1>  -0.1430 
 16 C        6.6580     4.4940     1.1740 C.ar  1 <1>   0.0830 
 17 C        6.7030     4.5210    -1.2240 C.ar  1 <1>  -0.1500 
 18 O        6.6950     3.7820     2.3240 O.3   1 <1>  -0.3620 
 19 C        6.5690     5.8840     1.1960 C.ar  1 <1>  -0.1430 
 20 C        6.6470     5.9040    -1.2130 C.ar  1 <1>  -0.1430 
 21 C        7.9330     3.7420     3.0020 C.3   1 <1>   0.0400 
 22 C        6.5730     6.5760    -0.0040 C.ar  1 <1>  -0.1500 
 23 C        6.4530     6.6750     2.4920 C.3   1 <1>  -0.0970 
 24 C        6.6540     6.6810    -2.5180 C.3   1 <1>  -0.0970 
 25 H        2.7740     1.2720    -2.2920 H     1 <1>   0.0800 
 26 H        3.5600     0.2500     1.7960 H     1 <1>   0.0800 
 27 H        2.5130     1.5970     1.5850 H     1 <1>   0.0800 
 28 H        1.2720    -0.6230    -1.1510 H     1 <1>   0.0800 
 29 H        1.4330    -0.8550     0.5490 H     1 <1>   0.0800 
 30 H        1.4870     2.4970    -0.8140 H     1 <1>   0.4000 
 31 H        4.7150     2.9850    -1.7040 H     1 <1>   0.0800 
 32 H        5.0830     1.3380    -2.1670 H     1 <1>   0.0800 
 33 H        5.0920     1.9570     1.9770 H     1 <1>   0.0800 
 34 H        4.1590     3.0440     0.9750 H     1 <1>   0.0800 
 35 H        0.4350     1.4780     0.8670 H     1 <1>   0.0800 
 36 H        0.1430     1.4930    -0.8580 H     1 <1>   0.0800 
 37 H        5.4670     0.6690    -0.0500 H     1 <1>   0.4500 
 38 H       -0.9610    -0.5500     1.0750 H     1 <1>   0.0800 
 39 H       -1.2360    -0.5380    -0.6520 H     1 <1>   0.0800 
 40 H       -1.8540     0.7590     0.3410 H     1 <1>   0.0800 
 41 H        7.2200     1.9400     0.8450 H     1 <1>   0.0800 
 42 H        7.2990     1.9490    -0.8950 H     1 <1>   0.0800 
 43 H        6.7520     4.0050    -2.1660 H     1 <1>   0.1500 
 44 H        7.8300     3.0970     3.8560 H     1 <1>   0.0800 
 45 H        8.1940     4.7340     3.3250 H     1 <1>   0.0800 
 46 H        8.6860     3.3590     2.3370 H     1 <1>   0.0800 
 47 H        6.5140     7.6510     0.0010 H     1 <1>   0.1500 
 48 H        5.8910     7.5780     2.3320 H     1 <1>   0.0800 
 49 H        7.4310     6.9380     2.8510 H     1 <1>   0.0800 
 50 H        5.9450     6.0990     3.2450 H     1 <1>   0.0800 
 51 H        7.0850     7.6560    -2.3740 H     1 <1>   0.0800 
 52 H        5.6470     6.7980    -2.8760 H     1 <1>   0.0800 
 53 H        7.2310     6.1640    -3.2630 H     1 <1>   0.0800 
@<TRIPOS>BOND
  1   1   2  ar  
  2   2   3  ar  
  3   2   4  1   
  4   4   5  1   
  5   4   6  1   
  6   4   7  1   
  7   5   8  1   
  8   5   9  1   
  9   5  25  1   
 10   6  10  1   
 11   6  26  1   
 12   6  27  1   
 13   7  11  1   
 14   7  28  1   
 15   7  29  1   
 16   8  30  1   
 17   9  12  1   
 18   9  31  1   
 19   9  32  1   
 20  10  12  1   
 21  10  33  1   
 22  10  34  1   
 23  11  13  1   
 24  11  35  1   
 25  11  36  1   
 26  12  14  1   
 27  12  37  1   
 28  13  38  1   
 29  13  39  1   
 30  13  40  1   
 31  14  15  1   
 32  14  41  1   
 33  14  42  1   
 34  15  16  ar  
 35  15  17  ar  
 36  16  18  1   
 37  16  19  ar  
 38  17  20  ar  
 39  17  43  1   
 40  18  21  1   
 41  19  22  ar  
 42  19  23  1   
 43  20  22  ar  
 44  20  24  1   
 45  21  44  1   
 46  21  45  1   
 47  21  46  1   
 48  22  47  1   
 49  23  48  1   
 50  23  49  1   
 51  23  50  1   
 52  24  51  1   
 53  24  52  1   
 54  24  53  1   
@<TRIPOS>SUBSTRUCTURE
  1 ****  12 GROUP 4 **** **** 0

# MOE 2024.06 (io_trps.svl 2023.06)
