@<TRIPOS>MOLECULE
NONAME
53 56 1 0 0 
SMALL
USER_CHARGES


@<TRIPOS>ATOM
  1 CL      -1.1520    -0.2660     0.6570 Cl    1 <1>  -0.1770 
  2 C       -2.6490     0.3810     0.0370 C.ar  1 <1>   0.1770 
  3 C       -2.9980     1.6840     0.3230 C.ar  1 <1>  -0.1500 
  4 C       -3.4670    -0.4180    -0.7320 C.ar  1 <1>  -0.1500 
  5 C       -4.1880     2.2080    -0.1640 C.ar  1 <1>  -0.1440 
  6 C       -4.6520     0.1070    -1.2160 C.ar  1 <1>  -0.1500 
  7 C       -5.0410     1.4190    -0.9470 C.ar  1 <1>  -0.0090 
  8 C       -4.5210     3.6560     0.1780 C.3   1 <1>  -0.0960 
  9 S       -6.6320     2.0180    -1.6130 S.o2  1 <1>   1.4470 
 10 O       -6.4310     3.2690    -2.3130 O.2   1 <1>  -0.6500 
 11 O       -7.3160     0.9380    -2.2930 O.2   1 <1>  -0.6500 
 12 N       -7.5550     2.3620    -0.2340 N.am  1 <1>  -0.8490 
 13 C       -8.7840     3.0970    -0.5980 C.3   1 <1>   0.1960 
 14 C       -7.8930     1.1540     0.5260 C.3   1 <1>   0.1960 
 15 C       -9.5640     3.5620     0.6480 C.3   1 <1>   0.1430 
 16 C       -8.6110     1.5300     1.8280 C.3   1 <1>  -0.1600 
 17 C      -10.8160     4.2840     0.1890 C.ar  1 <1>   0.1670 
 18 C       -9.8810     2.3480     1.5460 C.3   1 <1>  -0.1600 
 19 C       -8.7980     4.6740     1.4160 C.3   1 <1>  -0.1600 
 20 N      -11.8730     3.7110    -0.3290 N.ar  1 <1>  -0.6200 
 21 C      -10.7100     5.6300     0.3610 C.ar  1 <1>  -0.1430 
 22 C       -9.3810     6.0210     0.9560 C.3   1 <1>  -0.0170 
 23 C      -12.8600     4.5410    -0.6750 C.ar  1 <1>   0.7200 
 24 C      -11.7740     6.4060    -0.0220 C.ar  1 <1>   0.1600 
 25 N      -12.8550     5.8720    -0.5410 N.ar  1 <1>  -0.6200 
 26 N      -13.9910     3.9710    -1.2260 N.pl3 1 <1>  -0.8380 
 27 C      -15.0130     4.7800    -1.9450 C.3   1 <1>   0.1290 
 28 C      -14.2550     2.5070    -1.1550 C.3   1 <1>   0.1290 
 29 H       -2.3320     2.2770     0.9250 H     1 <1>   0.1500 
 30 H       -3.1780    -1.4310    -0.9480 H     1 <1>   0.1500 
 31 H       -5.2870    -0.5210    -1.8200 H     1 <1>   0.1500 
 32 H       -3.7450     4.1020     0.7740 H     1 <1>   0.0800 
 33 H       -5.4380     3.7090     0.7360 H     1 <1>   0.0800 
 34 H       -4.6230     4.2390    -0.7190 H     1 <1>   0.0800 
 35 H       -9.4180     2.4680    -1.2020 H     1 <1>   0.0800 
 36 H       -8.5320     3.9640    -1.1860 H     1 <1>   0.0800 
 37 H       -6.9940     0.6120     0.7690 H     1 <1>   0.0800 
 38 H       -8.5250     0.5110    -0.0660 H     1 <1>   0.0800 
 39 H       -7.9360     2.0920     2.4490 H     1 <1>   0.0800 
 40 H       -8.8740     0.6320     2.3580 H     1 <1>   0.0800 
 41 H      -10.5900     1.7170     1.0380 H     1 <1>   0.0800 
 42 H      -10.3370     2.6690     2.4660 H     1 <1>   0.0800 
 43 H       -7.7360     4.6270     1.2540 H     1 <1>   0.0800 
 44 H       -8.9820     4.5740     2.4720 H     1 <1>   0.0800 
 45 H       -8.7610     6.4640     0.1950 H     1 <1>   0.0800 
 46 H       -9.4980     6.7050     1.7790 H     1 <1>   0.0800 
 47 H      -11.7400     7.4750     0.0950 H     1 <1>   0.1500 
 48 H      -14.5630     5.6550    -2.3820 H     1 <1>   0.0800 
 49 H      -15.7770     5.0880    -1.2540 H     1 <1>   0.0800 
 50 H      -15.4570     4.1990    -2.7340 H     1 <1>   0.0800 
 51 H      -13.8040     2.0840    -0.2740 H     1 <1>   0.0800 
 52 H      -13.8430     2.0260    -2.0250 H     1 <1>   0.0800 
 53 H      -15.3140     2.3240    -1.1130 H     1 <1>   0.0800 
@<TRIPOS>BOND
  1   1   2  1   
  2   2   3  ar  
  3   2   4  ar  
  4   3   5  ar  
  5   3  29  1   
  6   4   6  ar  
  7   4  30  1   
  8   5   7  ar  
  9   5   8  1   
 10   6   7  ar  
 11   6  31  1   
 12   7   9  1   
 13   8  32  1   
 14   8  33  1   
 15   8  34  1   
 16   9  10  2   
 17   9  11  2   
 18   9  12  am  
 19  12  13  1   
 20  12  14  1   
 21  13  15  1   
 22  13  35  1   
 23  13  36  1   
 24  14  16  1   
 25  14  37  1   
 26  14  38  1   
 27  15  17  1   
 28  15  18  1   
 29  15  19  1   
 30  16  18  1   
 31  16  39  1   
 32  16  40  1   
 33  17  20  ar  
 34  17  21  ar  
 35  18  41  1   
 36  18  42  1   
 37  19  22  1   
 38  19  43  1   
 39  19  44  1   
 40  20  23  ar  
 41  21  22  1   
 42  21  24  ar  
 43  22  45  1   
 44  22  46  1   
 45  23  25  ar  
 46  23  26  1   
 47  24  25  ar  
 48  24  47  1   
 49  26  27  1   
 50  26  28  1   
 51  27  48  1   
 52  27  49  1   
 53  27  50  1   
 54  28  51  1   
 55  28  52  1   
 56  28  53  1   
@<TRIPOS>SUBSTRUCTURE
  1 ****  13 GROUP 4 **** **** 0

# MOE 2024.06 (io_trps.svl 2023.06)
