@<TRIPOS>MOLECULE
NONAME
35 37 1 0 0 
SMALL
USER_CHARGES


@<TRIPOS>ATOM
  1 S       -0.9480     1.1170    -0.8060 S.3   1 <1>  -0.0800 
  2 C       -1.9250    -0.3040    -0.4820 C.2   1 <1>   0.1980 
  3 C       -0.2000     0.2720    -2.1290 C.2   1 <1>  -0.1100 
  4 N       -1.6990    -1.2810    -1.2700 N.2   1 <1>  -0.5650 
  5 C       -2.8980    -0.2400     0.6880 C.3   1 <1>   0.3200 
  6 C       -0.7270    -0.9580    -2.2050 C.2   1 <1>   0.0770 
  7 N       -4.1250     0.5530     0.3660 N.am  1 <1>  -0.5090 
  8 C       -5.2850    -0.0290    -0.1090 C.2   1 <1>   0.5440 
  9 C       -3.9690     2.0280     0.4390 C.3   1 <1>   0.0490 
 10 O       -6.2190     0.6720    -0.4480 O.2   1 <1>  -0.5700 
 11 C       -5.4400    -1.4610    -0.1930 C.ar  1 <1>   0.0860 
 12 C       -3.5050     2.6570     1.7180 C.3   1 <1>  -0.2000 
 13 C       -4.9220     2.8220     1.2770 C.3   1 <1>  -0.2000 
 14 C       -6.2100    -2.1350     0.7490 C.ar  1 <1>   0.1600 
 15 C       -4.8440    -2.2250    -1.1870 C.ar  1 <1>  -0.1500 
 16 N       -6.3940    -3.4430     0.8060 N.ar  1 <1>  -0.6200 
 17 C       -5.0280    -3.5880    -1.1540 C.ar  1 <1>  -0.1500 
 18 C       -5.8030    -4.1560    -0.1430 C.ar  1 <1>   0.3930 
 19 O       -6.0120    -5.4820    -0.0510 O.3   1 <1>  -0.3630 
 20 C       -5.4790    -6.4160    -0.9630 C.3   1 <1>   0.0400 
 21 H        0.5500     0.7870    -2.7020 H     1 <1>   0.1500 
 22 H       -2.3980     0.1940     1.5340 H     1 <1>   0.0800 
 23 H       -3.1690    -1.2430     0.9620 H     1 <1>   0.0800 
 24 H       -0.4570    -1.7100    -2.9280 H     1 <1>   0.1500 
 25 H       -3.6620     2.4560    -0.5020 H     1 <1>   0.1000 
 26 H       -2.8590     3.5160     1.6690 H     1 <1>   0.1000 
 27 H       -3.3310     2.0570     2.5940 H     1 <1>   0.1000 
 28 H       -5.7060     2.2930     1.7890 H     1 <1>   0.1000 
 29 H       -5.2430     3.7810     0.9110 H     1 <1>   0.1000 
 30 H       -6.6990    -1.5460     1.5060 H     1 <1>   0.1500 
 31 H       -4.2540    -1.7570    -1.9560 H     1 <1>   0.1500 
 32 H       -4.5680    -4.1940    -1.9100 H     1 <1>   0.1500 
 33 H       -5.8000    -7.3960    -0.6600 H     1 <1>   0.0800 
 34 H       -4.4050    -6.3590    -0.9350 H     1 <1>   0.0800 
 35 H       -5.8540    -6.1970    -1.9470 H     1 <1>   0.0800 
@<TRIPOS>BOND
  1   1   2  1   
  2   1   3  1   
  3   2   4  2   
  4   2   5  1   
  5   3   6  2   
  6   3  21  1   
  7   4   6  1   
  8   5   7  1   
  9   5  22  1   
 10   5  23  1   
 11   6  24  1   
 12   7   8  am  
 13   7   9  1   
 14   8  10  2   
 15   8  11  1   
 16   9  12  1   
 17   9  13  1   
 18   9  25  1   
 19  11  14  ar  
 20  11  15  ar  
 21  12  13  1   
 22  12  26  1   
 23  12  27  1   
 24  13  28  1   
 25  13  29  1   
 26  14  16  ar  
 27  14  30  1   
 28  15  17  ar  
 29  15  31  1   
 30  16  18  ar  
 31  17  18  ar  
 32  17  32  1   
 33  18  19  1   
 34  19  20  1   
 35  20  33  1   
 36  20  34  1   
 37  20  35  1   
@<TRIPOS>SUBSTRUCTURE
  1 ****  11 GROUP 4 **** **** 0

# MOE 2024.06 (io_trps.svl 2023.06)
