@<TRIPOS>MOLECULE
NONAME
52 56 1 0 0 
SMALL
USER_CHARGES


@<TRIPOS>ATOM
  1 F       -2.0010    -0.8440    -2.6440 F     1 <1>  -0.1900 
  2 C       -1.3660    -1.3550    -1.6230 C.ar  1 <1>   0.1900 
  3 C       -1.7570    -2.5990    -1.1210 C.ar  1 <1>   0.0530 
  4 C       -0.3340    -0.6100    -1.0860 C.ar  1 <1>  -0.1500 
  5 C       -2.8390    -3.3770    -1.6830 C.2   1 <1>   0.0870 
  6 C       -1.0390    -3.0670    -0.0190 C.ar  1 <1>  -0.1500 
  7 C        0.3550    -1.1070     0.0060 C.ar  1 <1>  -0.1500 
  8 O       -3.5300    -4.2010    -0.9050 O.3   1 <1>  -0.2800 
  9 C       -3.3480    -3.4500    -2.9420 C.2   1 <1>  -0.1500 
 10 C       -0.0020    -2.3360     0.5360 C.ar  1 <1>  -0.1500 
 11 C       -4.4700    -4.7820    -1.6230 C.2   1 <1>  -0.0400 
 12 C       -4.4050    -4.3610    -2.9040 C.2   1 <1>  -0.1500 
 13 C       -5.4200    -5.7490    -0.9410 C.3   1 <1>   0.5230 
 14 N       -6.5490    -5.0010    -0.3190 N.4   1 <1>  -0.9590 
 15 C       -6.1080    -3.9220     0.6250 C.3   1 <1>   0.3430 
 16 C       -7.5850    -5.8770     0.2860 C.3   1 <1>   0.3430 
 17 C       -7.2870    -2.9890     0.9530 C.3   1 <1>   0.1430 
 18 C       -8.8090    -5.0370     0.6730 C.3   1 <1>  -0.1600 
 19 C       -7.6960    -2.2310    -0.3040 C.ar  1 <1>   0.1670 
 20 C       -8.4570    -3.8110     1.5390 C.3   1 <1>  -0.1600 
 21 C       -6.8660    -1.8470     1.9140 C.3   1 <1>  -0.1600 
 22 N       -7.9200    -2.7680    -1.4840 N.ar  1 <1>  -0.6200 
 23 C       -7.7800    -0.8900    -0.0710 C.ar  1 <1>  -0.1430 
 24 C       -7.4770    -0.5440     1.3640 C.3   1 <1>  -0.0170 
 25 C       -8.2220    -1.8860    -2.4270 C.ar  1 <1>   0.7200 
 26 C       -8.1080    -0.0750    -1.1280 C.ar  1 <1>   0.1600 
 27 N       -8.3330    -0.5720    -2.3230 N.ar  1 <1>  -0.6200 
 28 N       -8.4650    -2.3840    -3.6400 N.pl3 1 <1>  -0.9000 
 29 H       -0.0770     0.3420    -1.5150 H     1 <1>   0.1500 
 30 H       -1.2940    -4.0210     0.4060 H     1 <1>   0.1500 
 31 H        1.1630    -0.5430     0.4400 H     1 <1>   0.1500 
 32 H       -3.0210    -2.9160    -3.8180 H     1 <1>   0.1500 
 33 H        0.5350    -2.7250     1.3850 H     1 <1>   0.1500 
 34 H       -5.0170    -4.6260    -3.7490 H     1 <1>   0.1500 
 35 H       -4.8830    -6.3130    -0.1970 H     1 <1>   0.0800 
 36 H       -5.8070    -6.4340    -1.6780 H     1 <1>   0.0800 
 37 H       -7.0070    -4.4630    -1.0850 H     1 <1>   0.4500 
 38 H       -5.3320    -3.3270     0.1720 H     1 <1>   0.0800 
 39 H       -5.7200    -4.3580     1.5300 H     1 <1>   0.0800 
 40 H       -7.1860    -6.3610     1.1630 H     1 <1>   0.0800 
 41 H       -7.8840    -6.6380    -0.4170 H     1 <1>   0.0800 
 42 H       -9.5050    -5.6610     1.2080 H     1 <1>   0.0800 
 43 H       -9.3100    -4.7160    -0.2240 H     1 <1>   0.0800 
 44 H       -9.3270    -3.1840     1.6430 H     1 <1>   0.0800 
 45 H       -8.1870    -4.1560     2.5230 H     1 <1>   0.0800 
 46 H       -5.7940    -1.7380     1.9030 H     1 <1>   0.0800 
 47 H       -7.1740    -2.0210     2.9310 H     1 <1>   0.0800 
 48 H       -6.7890     0.2810     1.4390 H     1 <1>   0.0800 
 49 H       -8.3920    -0.3030     1.8790 H     1 <1>   0.0800 
 50 H       -8.1860     0.9910    -0.9940 H     1 <1>   0.1500 
 51 H       -8.8350    -1.6930    -4.2900 H     1 <1>   0.4000 
 52 H       -8.9290    -3.2850    -3.6700 H     1 <1>   0.4000 
@<TRIPOS>BOND
  1   1   2  1   
  2   2   3  ar  
  3   2   4  ar  
  4   3   5  1   
  5   3   6  ar  
  6   4   7  ar  
  7   4  29  1   
  8   5   8  1   
  9   5   9  2   
 10   6  10  ar  
 11   6  30  1   
 12   7  10  ar  
 13   7  31  1   
 14   8  11  1   
 15   9  12  1   
 16   9  32  1   
 17  10  33  1   
 18  11  12  2   
 19  11  13  1   
 20  12  34  1   
 21  13  14  1   
 22  13  35  1   
 23  13  36  1   
 24  14  15  1   
 25  14  16  1   
 26  14  37  1   
 27  15  17  1   
 28  15  38  1   
 29  15  39  1   
 30  16  18  1   
 31  16  40  1   
 32  16  41  1   
 33  17  19  1   
 34  17  20  1   
 35  17  21  1   
 36  18  20  1   
 37  18  42  1   
 38  18  43  1   
 39  19  22  ar  
 40  19  23  ar  
 41  20  44  1   
 42  20  45  1   
 43  21  24  1   
 44  21  46  1   
 45  21  47  1   
 46  22  25  ar  
 47  23  24  1   
 48  23  26  ar  
 49  24  48  1   
 50  24  49  1   
 51  25  27  ar  
 52  25  28  1   
 53  26  27  ar  
 54  26  50  1   
 55  28  51  1   
 56  28  52  1   
@<TRIPOS>SUBSTRUCTURE
  1 ****  15 GROUP 4 **** **** 0

# MOE 2024.06 (io_trps.svl 2023.06)
