@<TRIPOS>MOLECULE
NONAME
45 47 1 0 0 
SMALL
USER_CHARGES


@<TRIPOS>ATOM
  1 O       -2.5950     0.7100    -2.1240 O.2   1 <1>  -0.5700 
  2 C       -2.1800     0.5320    -1.0040 C.2   1 <1>   0.5690 
  3 N       -2.0120    -0.7190    -0.5090 N.am  1 <1>  -0.7300 
  4 C       -1.8600     1.7240    -0.1040 C.3   1 <1>  -0.0190 
  5 C       -2.2720    -1.9690    -1.2590 C.3   1 <1>   0.2200 
  6 C       -3.1470     2.4600     0.3160 C.3   1 <1>  -0.1600 
  7 C       -0.8740     2.6990    -0.7780 C.3   1 <1>  -0.1600 
  8 C       -3.5850    -2.6090    -0.8290 C.3   1 <1>  -0.0800 
  9 C       -1.2820    -3.0310    -0.8010 C.3   1 <1>   0.1200 
 10 C       -2.8410     3.6660     1.2160 C.3   1 <1>  -0.1600 
 11 C       -0.5670     3.9030     0.1230 C.3   1 <1>  -0.1600 
 12 C       -3.1870    -3.4190     0.4100 C.3   1 <1>   0.1200 
 13 C       -4.7640    -1.6440    -0.6050 C.3   1 <1>  -0.0170 
 14 O       -1.7900    -3.4980     0.4110 O.3   1 <1>  -0.5600 
 15 C       -1.8550     4.6260     0.5380 C.3   1 <1>  -0.1600 
 16 C       -6.0380    -2.4090    -0.2810 C.ar  1 <1>  -0.1440 
 17 C       -6.8160    -2.9720    -1.2720 C.ar  1 <1>  -0.1500 
 18 C       -6.4820    -2.5820     1.0150 C.ar  1 <1>  -0.1500 
 19 C       -7.9640    -3.6670    -0.9290 C.ar  1 <1>   0.1600 
 20 C       -7.6460    -3.2950     1.2500 C.ar  1 <1>   0.1600 
 21 N       -8.3970    -3.8440     0.3090 N.ar  1 <1>  -0.6200 
 22 H       -1.6940    -0.8700     0.4510 H     1 <1>   0.3700 
 23 H       -1.3890     1.3490     0.7870 H     1 <1>   0.0800 
 24 H       -2.2220    -1.7920    -2.3210 H     1 <1>   0.0800 
 25 H       -3.6630     2.7990    -0.5670 H     1 <1>   0.0800 
 26 H       -3.8000     1.7800     0.8360 H     1 <1>   0.0800 
 27 H        0.0400     2.1810    -1.0130 H     1 <1>   0.0800 
 28 H       -1.2990     3.0490    -1.7040 H     1 <1>   0.0800 
 29 H       -3.8700    -3.3120    -1.5920 H     1 <1>   0.0800 
 30 H       -0.2890    -2.6430    -0.6570 H     1 <1>   0.0800 
 31 H       -1.2600    -3.8560    -1.4910 H     1 <1>   0.0800 
 32 H       -3.7540     4.1890     1.4400 H     1 <1>   0.0800 
 33 H       -2.4210     3.3220     2.1460 H     1 <1>   0.0800 
 34 H       -0.0450     3.5680     1.0040 H     1 <1>   0.0800 
 35 H        0.0770     4.5880    -0.4000 H     1 <1>   0.0800 
 36 H       -3.5950    -4.4150     0.3830 H     1 <1>   0.0800 
 37 H       -3.4850    -2.9290     1.3200 H     1 <1>   0.0800 
 38 H       -4.9180    -1.0560    -1.4950 H     1 <1>   0.0800 
 39 H       -4.5460    -0.9610     0.1970 H     1 <1>   0.0800 
 40 H       -1.6150     5.4320     1.2100 H     1 <1>   0.0800 
 41 H       -2.3180     5.0520    -0.3350 H     1 <1>   0.0800 
 42 H       -6.5410    -2.8770    -2.3060 H     1 <1>   0.1500 
 43 H       -5.9360    -2.1700     1.8430 H     1 <1>   0.1500 
 44 H       -8.5590    -4.0990    -1.7160 H     1 <1>   0.1500 
 45 H       -7.9760    -3.4210     2.2670 H     1 <1>   0.1500 
@<TRIPOS>BOND
  1   1   2  2   
  2   2   3  am  
  3   2   4  1   
  4   3   5  1   
  5   3  22  1   
  6   4   6  1   
  7   4   7  1   
  8   4  23  1   
  9   5   8  1   
 10   5   9  1   
 11   5  24  1   
 12   6  10  1   
 13   6  25  1   
 14   6  26  1   
 15   7  11  1   
 16   7  27  1   
 17   7  28  1   
 18   8  12  1   
 19   8  13  1   
 20   8  29  1   
 21   9  14  1   
 22   9  30  1   
 23   9  31  1   
 24  10  15  1   
 25  10  32  1   
 26  10  33  1   
 27  11  15  1   
 28  11  34  1   
 29  11  35  1   
 30  12  14  1   
 31  12  36  1   
 32  12  37  1   
 33  13  16  1   
 34  13  38  1   
 35  13  39  1   
 36  15  40  1   
 37  15  41  1   
 38  16  17  ar  
 39  16  18  ar  
 40  17  19  ar  
 41  17  42  1   
 42  18  20  ar  
 43  18  43  1   
 44  19  21  ar  
 45  19  44  1   
 46  20  21  ar  
 47  20  45  1   
@<TRIPOS>SUBSTRUCTURE
  1 ****  13 GROUP 4 **** **** 0

# MOE 2024.06 (io_trps.svl 2023.06)
