@<TRIPOS>MOLECULE
NONAME
50 51 1 0 0 
SMALL
USER_CHARGES


@<TRIPOS>ATOM
  1 S       -0.9340     0.4230    -0.0040 S.3   1 <1>  -0.4600 
  2 C       -0.7670     2.2200     0.0840 C.3   1 <1>   0.0700 
  3 C       -2.6380     0.1140     0.5390 C.3   1 <1>  -0.0100 
  4 C        0.6510     2.5440    -0.4000 C.3   1 <1>   0.3430 
  5 N        0.9420     4.0180    -0.4080 N.4   1 <1>  -0.9590 
  6 C        2.2000     4.2740    -1.1690 C.3   1 <1>   0.3430 
  7 C        1.0000     4.5820     0.9750 C.3   1 <1>   0.3430 
  8 C        2.4530     5.7790    -1.2660 C.3   1 <1>  -0.1600 
  9 C        1.2350     6.0920     0.9120 C.3   1 <1>  -0.1600 
 10 C        2.4920     6.4400     0.1130 C.3   1 <1>   0.2890 
 11 N        2.5200     7.9000    -0.0810 N.pl3 1 <1>  -0.8690 
 12 C        3.3550     8.9010     0.2310 C.ar  1 <1>   0.7710 
 13 N        2.9520    10.0850    -0.1610 N.ar  1 <1>  -0.6200 
 14 N        4.5080     8.7000     0.8920 N.ar  1 <1>  -0.1790 
 15 C        3.7300    11.1220     0.0880 C.ar  1 <1>   0.4100 
 16 C        5.3160     9.7430     1.2030 C.ar  1 <1>   0.2110 
 17 N        3.3010    12.3180    -0.3850 N.pl3 1 <1>  -0.8380 
 18 C        4.9430    10.9880     0.8130 C.ar  1 <1>  -0.1440 
 19 C        1.8650    12.7150    -0.3150 C.3   1 <1>   0.1290 
 20 C        4.1090    13.1540    -1.3160 C.3   1 <1>   0.1290 
 21 C        5.7960    12.1990     1.1890 C.3   1 <1>  -0.0970 
 22 H       -0.9280     2.4970     1.1110 H     1 <1>   0.0800 
 23 H       -1.5210     2.6390    -0.5580 H     1 <1>   0.0800 
 24 H       -2.8020    -0.9490     0.5100 H     1 <1>   0.0800 
 25 H       -3.3060     0.6170    -0.1380 H     1 <1>   0.0800 
 26 H       -2.7470     0.4860     1.5420 H     1 <1>   0.0800 
 27 H        0.7550     2.1510    -1.3990 H     1 <1>   0.0800 
 28 H        1.3600     2.0320     0.2300 H     1 <1>   0.0800 
 29 H        0.1740     4.4810    -0.9160 H     1 <1>   0.4500 
 30 H        2.1200     3.8610    -2.1620 H     1 <1>   0.0800 
 31 H        3.0300     3.7960    -0.6730 H     1 <1>   0.0800 
 32 H        1.7970     4.1110     1.5280 H     1 <1>   0.0800 
 33 H        0.0740     4.3890     1.4940 H     1 <1>   0.0800 
 34 H        1.6790     6.2200    -1.8710 H     1 <1>   0.0800 
 35 H        3.3910     5.9390    -1.7680 H     1 <1>   0.0800 
 36 H        1.3320     6.4680     1.9160 H     1 <1>   0.0800 
 37 H        0.3700     6.5560     0.4710 H     1 <1>   0.0800 
 38 H        3.3670     6.1100     0.6490 H     1 <1>   0.0800 
 39 H        1.7020     8.2610    -0.5880 H     1 <1>   0.4000 
 40 H        4.7410     7.7520     1.1550 H     1 <1>   0.4570 
 41 H        6.2230     9.5550     1.7550 H     1 <1>   0.1500 
 42 H        1.3500    12.1310     0.4290 H     1 <1>   0.0800 
 43 H        1.3930    12.5550    -1.2690 H     1 <1>   0.0800 
 44 H        1.7840    13.7550    -0.0490 H     1 <1>   0.0800 
 45 H        5.0200    12.6490    -1.5840 H     1 <1>   0.0800 
 46 H        4.3480    14.0940    -0.8490 H     1 <1>   0.0800 
 47 H        3.5520    13.3430    -2.2180 H     1 <1>   0.0800 
 48 H        5.1670    12.9950     1.5480 H     1 <1>   0.0800 
 49 H        6.3450    12.5530     0.3350 H     1 <1>   0.0800 
 50 H        6.5000    11.9570     1.9650 H     1 <1>   0.0800 
@<TRIPOS>BOND
  1   1   2  1   
  2   1   3  1   
  3   2   4  1   
  4   2  22  1   
  5   2  23  1   
  6   3  24  1   
  7   3  25  1   
  8   3  26  1   
  9   4   5  1   
 10   4  27  1   
 11   4  28  1   
 12   5   6  1   
 13   5   7  1   
 14   5  29  1   
 15   6   8  1   
 16   6  30  1   
 17   6  31  1   
 18   7   9  1   
 19   7  32  1   
 20   7  33  1   
 21   8  10  1   
 22   8  34  1   
 23   8  35  1   
 24   9  10  1   
 25   9  36  1   
 26   9  37  1   
 27  10  11  1   
 28  10  38  1   
 29  11  12  1   
 30  11  39  1   
 31  12  13  ar  
 32  12  14  ar  
 33  13  15  ar  
 34  14  16  ar  
 35  14  40  1   
 36  15  17  1   
 37  15  18  ar  
 38  16  18  ar  
 39  16  41  1   
 40  17  19  1   
 41  17  20  1   
 42  18  21  1   
 43  19  42  1   
 44  19  43  1   
 45  19  44  1   
 46  20  45  1   
 47  20  46  1   
 48  20  47  1   
 49  21  48  1   
 50  21  49  1   
 51  21  50  1   
@<TRIPOS>SUBSTRUCTURE
  1 ****  11 GROUP 4 **** **** 0

# MOE 2024.06 (io_trps.svl 2023.06)
