@<TRIPOS>MOLECULE
NONAME
39 40 1 0 0 
SMALL
USER_CHARGES


@<TRIPOS>ATOM
  1 S       -0.4960     0.3060    -1.7130 S.o2  1 <1>   1.4470 
  2 O       -1.0320     1.4100    -2.4860 O.2   1 <1>  -0.6500 
  3 O       -0.3020    -0.9610    -2.3850 O.2   1 <1>  -0.6500 
  4 N       -1.5880     0.0460    -0.4430 N.am  1 <1>  -0.8490 
  5 C        1.0380     0.8500    -0.9060 C.ar  1 <1>  -0.0090 
  6 C       -1.1530    -0.9950     0.5230 C.3   1 <1>   0.1960 
  7 C       -2.9530    -0.1260    -0.9580 C.3   1 <1>   0.1960 
  8 C        1.2180     2.1760    -0.5330 C.ar  1 <1>  -0.1500 
  9 C        2.0610    -0.0440    -0.6190 C.ar  1 <1>  -0.1500 
 10 C       -1.9160    -2.3070     0.3570 C.3   1 <1>  -0.1860 
 11 C       -3.8900    -0.6890     0.1110 C.3   1 <1>  -0.1600 
 12 C        2.3760     2.6120     0.0940 C.ar  1 <1>  -0.1440 
 13 C        3.2200     0.3730     0.0090 C.ar  1 <1>  -0.1500 
 14 C       -1.2840    -3.3790     1.2230 C.2   1 <1>   0.9060 
 15 C       -3.4210    -2.0700     0.5900 C.3   1 <1>   0.2000 
 16 C        3.3890     1.7000     0.3680 C.ar  1 <1>  -0.1440 
 17 C        2.5050     4.0810     0.4690 C.3   1 <1>  -0.0970 
 18 O       -0.0630    -3.5390     1.1520 O.co2 1 <1>  -0.9000 
 19 O       -1.9880    -4.0600     1.9810 O.co2 1 <1>  -0.9000 
 20 O       -3.7090    -2.1460     1.9350 O.3   1 <1>  -0.6800 
 21 C        4.6790     2.1230     1.0550 C.3   1 <1>  -0.0970 
 22 H       -0.0970    -1.1810     0.4360 H     1 <1>   0.0800 
 23 H       -1.3260    -0.6310     1.5220 H     1 <1>   0.0800 
 24 H       -3.3220     0.8260    -1.3000 H     1 <1>   0.0800 
 25 H       -2.9410    -0.8000    -1.8000 H     1 <1>   0.0800 
 26 H        0.4270     2.8750    -0.7440 H     1 <1>   0.1500 
 27 H        1.9460    -1.0840    -0.8840 H     1 <1>   0.1500 
 28 H       -1.7720    -2.6390    -0.6530 H     1 <1>   0.0800 
 29 H       -4.8830    -0.7740    -0.2900 H     1 <1>   0.0800 
 30 H       -3.9160     0.0080     0.9300 H     1 <1>   0.0800 
 31 H        3.9880    -0.3510     0.2170 H     1 <1>   0.1500 
 32 H       -3.9750    -2.8550     0.1030 H     1 <1>   0.0800 
 33 H        1.6310     4.6330     0.1730 H     1 <1>   0.0800 
 34 H        3.3580     4.5130    -0.0230 H     1 <1>   0.0800 
 35 H        2.6230     4.1810     1.5320 H     1 <1>   0.0800 
 36 H       -3.2010    -2.9480     2.2660 H     1 <1>   0.4000 
 37 H        5.3360     1.2830     1.1920 H     1 <1>   0.0800 
 38 H        4.4620     2.5410     2.0210 H     1 <1>   0.0800 
 39 H        5.1900     2.8580     0.4600 H     1 <1>   0.0800 
@<TRIPOS>BOND
  1   1   2  2   
  2   1   3  2   
  3   1   4  am  
  4   1   5  1   
  5   4   6  1   
  6   4   7  1   
  7   5   8  ar  
  8   5   9  ar  
  9   6  10  1   
 10   6  22  1   
 11   6  23  1   
 12   7  11  1   
 13   7  24  1   
 14   7  25  1   
 15   8  12  ar  
 16   8  26  1   
 17   9  13  ar  
 18   9  27  1   
 19  10  14  1   
 20  10  15  1   
 21  10  28  1   
 22  11  15  1   
 23  11  29  1   
 24  11  30  1   
 25  12  16  ar  
 26  12  17  1   
 27  13  16  ar  
 28  13  31  1   
 29  14  18  ar  
 30  14  19  ar  
 31  15  20  1   
 32  15  32  1   
 33  16  21  1   
 34  17  33  1   
 35  17  34  1   
 36  17  35  1   
 37  20  36  1   
 38  21  37  1   
 39  21  38  1   
 40  21  39  1   
@<TRIPOS>SUBSTRUCTURE
  1 ****   6 GROUP 4 **** **** 0

# MOE 2024.06 (io_trps.svl 2023.06)
