@<TRIPOS>MOLECULE
NONAME
44 45 1 0 0 
SMALL
USER_CHARGES


@<TRIPOS>ATOM
  1 S       -0.1700     0.0280    -0.0920 S.o2  1 <1>   1.3330 
  2 O       -0.8560     1.2930     0.0300 O.2   1 <1>  -0.6500 
  3 O       -0.0260    -0.8200     1.0710 O.2   1 <1>  -0.6500 
  4 N       -0.9370    -0.8810    -1.3030 N.am  1 <1>  -0.8490 
  5 C        1.4420     0.3510    -0.8110 C.3   1 <1>  -0.0550 
  6 C       -0.6280    -2.3140    -1.2400 C.3   1 <1>   0.1160 
  7 C       -2.3900    -0.6840    -1.3100 C.3   1 <1>   0.1160 
  8 C        2.3380     1.2560     0.0600 C.3   1 <1>  -0.0800 
  9 C        3.5850     1.6820    -0.6960 C.3   1 <1>   0.2200 
 10 C        2.9300     0.5000     1.2550 C.3   1 <1>   0.1200 
 11 N        4.1120     2.9310    -0.1020 N.am  1 <1>  -0.7300 
 12 C        4.5380     0.5300    -0.4010 C.3   1 <1>   0.1200 
 13 O        4.2010     0.0630     0.8710 O.3   1 <1>  -0.5600 
 14 C        4.1660     4.1250    -0.7400 C.2   1 <1>   0.5690 
 15 O        3.7920     4.2560    -1.8790 O.2   1 <1>  -0.5700 
 16 C        4.7160     5.3250    -0.0040 C.3   1 <1>  -0.0990 
 17 C        6.0340     5.7990    -0.6230 C.3   1 <1>   0.0210 
 18 C        6.5810     6.9890     0.1420 C.2   1 <1>  -0.1810 
 19 C        7.2450     6.9620     1.3650 C.2   1 <1>   0.1390 
 20 C        6.5370     8.2950    -0.1940 C.2   1 <1>  -0.3020 
 21 N        7.5860     8.1490     1.7660 N.2   1 <1>  -0.7070 
 22 N        7.1480     8.9740     0.7960 N.pl3 1 <1>   0.3000 
 23 H        1.9420    -0.5780    -1.0010 H     1 <1>   0.0800 
 24 H        1.2850     0.8370    -1.7550 H     1 <1>   0.0800 
 25 H       -1.0630    -2.8230    -2.0830 H     1 <1>   0.0800 
 26 H       -1.0180    -2.7440    -0.3310 H     1 <1>   0.0800 
 27 H        0.4370    -2.4660    -1.2640 H     1 <1>   0.0800 
 28 H       -2.8420    -1.2620    -2.0980 H     1 <1>   0.0800 
 29 H       -2.6200     0.3540    -1.4820 H     1 <1>   0.0800 
 30 H       -2.8130    -0.9800    -0.3640 H     1 <1>   0.0800 
 31 H        1.7650     2.1110     0.3770 H     1 <1>   0.0800 
 32 H        3.4200     1.8090    -1.7530 H     1 <1>   0.0800 
 33 H        2.3500    -0.3530     1.5600 H     1 <1>   0.0800 
 34 H        3.0560     1.1590     2.0970 H     1 <1>   0.0800 
 35 H        4.4540     2.8320     0.8560 H     1 <1>   0.3700 
 36 H        5.5710     0.8320    -0.4150 H     1 <1>   0.0800 
 37 H        4.3860    -0.2770    -1.0950 H     1 <1>   0.0800 
 38 H        3.9920     6.1180    -0.0590 H     1 <1>   0.0800 
 39 H        4.8660     5.0820     1.0310 H     1 <1>   0.0800 
 40 H        5.8680     6.0820    -1.6490 H     1 <1>   0.0800 
 41 H        6.7570     5.0020    -0.6110 H     1 <1>   0.0800 
 42 H        7.4590     6.0680     1.9260 H     1 <1>   0.1500 
 43 H        6.1150     8.7690    -1.0610 H     1 <1>   0.1500 
 44 H        7.2810     9.9910     0.8430 H     1 <1>   0.2700 
@<TRIPOS>BOND
  1   1   2  2   
  2   1   3  2   
  3   1   4  am  
  4   1   5  1   
  5   4   6  1   
  6   4   7  1   
  7   5   8  1   
  8   5  23  1   
  9   5  24  1   
 10   6  25  1   
 11   6  26  1   
 12   6  27  1   
 13   7  28  1   
 14   7  29  1   
 15   7  30  1   
 16   8   9  1   
 17   8  10  1   
 18   8  31  1   
 19   9  11  1   
 20   9  12  1   
 21   9  32  1   
 22  10  13  1   
 23  10  33  1   
 24  10  34  1   
 25  11  14  am  
 26  11  35  1   
 27  12  13  1   
 28  12  36  1   
 29  12  37  1   
 30  14  15  2   
 31  14  16  1   
 32  16  17  1   
 33  16  38  1   
 34  16  39  1   
 35  17  18  1   
 36  17  40  1   
 37  17  41  1   
 38  18  19  1   
 39  18  20  2   
 40  19  21  2   
 41  19  42  1   
 42  20  22  1   
 43  20  43  1   
 44  21  22  1   
 45  22  44  1   
@<TRIPOS>SUBSTRUCTURE
  1 ****  11 GROUP 4 **** **** 0

# MOE 2024.06 (io_trps.svl 2023.06)
