@<TRIPOS>MOLECULE
NONAME
53 56 1 0 0 
SMALL
USER_CHARGES


@<TRIPOS>ATOM
  1 S       -0.1860    -0.7690    -0.7830 S.o2  1 <1>   1.4470 
  2 O       -0.6300    -2.1440    -0.7030 O.2   1 <1>  -0.6500 
  3 O       -0.0280    -0.1510    -2.0830 O.2   1 <1>  -0.6500 
  4 N       -1.3070     0.1700     0.0720 N.am  1 <1>  -0.8490 
  5 C        1.3400    -0.5780     0.1780 C.ar  1 <1>  -0.0090 
  6 C       -2.6910    -0.2660    -0.1920 C.3   1 <1>   0.1960 
  7 C       -1.1340     1.6050    -0.1430 C.3   1 <1>   0.1960 
  8 C        2.5690    -0.4500    -0.4590 C.ar  1 <1>  -0.1500 
  9 C        1.3170    -0.5700     1.5680 C.ar  1 <1>  -0.1500 
 10 C       -3.7830     0.7010     0.3640 C.3   1 <1>   0.0000 
 11 C       -1.9540     2.4020     0.8850 C.3   1 <1>  -0.1600 
 12 C        3.7580    -0.2790     0.2430 C.ar  1 <1>   0.1170 
 13 C        2.4870    -0.4550     2.2970 C.ar  1 <1>  -0.1500 
 14 C       -5.0210    -0.0370     0.9100 C.3   1 <1>   0.2000 
 15 C       -3.1800     1.6430     1.4260 C.3   1 <1>  -0.1600 
 16 C       -4.4160     1.4830    -0.8030 C.3   1 <1>  -0.1600 
 17 N        5.0070    -0.0640    -0.3990 N.am  1 <1>  -0.4770 
 18 C        3.6960    -0.3370     1.6390 C.ar  1 <1>   0.0830 
 19 O       -4.7250    -1.1200     1.7200 O.3   1 <1>  -0.6800 
 20 C       -5.8190    -0.4760    -0.3130 C.3   1 <1>  -0.1600 
 21 C       -5.4810     0.5520    -1.4020 C.3   1 <1>  -0.1600 
 22 C        5.2460     0.6360    -1.5650 C.2   1 <1>   0.5690 
 23 C        6.2320    -0.4050     0.3930 C.3   1 <1>   0.1400 
 24 O        4.8310    -0.3230     2.3760 O.3   1 <1>  -0.3630 
 25 O        6.3220     0.6050    -2.1110 O.2   1 <1>  -0.5700 
 26 C        4.1960     1.5280    -2.1940 C.3   1 <1>  -0.1790 
 27 C        5.9290    -0.9860     1.7820 C.3   1 <1>   0.1200 
 28 H       -2.8280    -0.3930    -1.2530 H     1 <1>   0.0800 
 29 H       -2.8020    -1.2400     0.2490 H     1 <1>   0.0800 
 30 H       -0.0950     1.8740    -0.0460 H     1 <1>   0.0800 
 31 H       -1.4470     1.8570    -1.1430 H     1 <1>   0.0800 
 32 H        2.5890    -0.4920    -1.5320 H     1 <1>   0.1500 
 33 H        0.3750    -0.6660     2.0840 H     1 <1>   0.1500 
 34 H       -1.3180     2.6660     1.7120 H     1 <1>   0.0800 
 35 H       -2.2700     3.3200     0.4240 H     1 <1>   0.0800 
 36 H        2.4680    -0.4700     3.3730 H     1 <1>   0.1500 
 37 H       -5.6160     0.6470     1.4930 H     1 <1>   0.0800 
 38 H       -3.9150     2.3400     1.7900 H     1 <1>   0.0800 
 39 H       -2.8670     1.0400     2.2620 H     1 <1>   0.0800 
 40 H       -4.9070     2.3620    -0.4220 H     1 <1>   0.0800 
 41 H       -3.7010     1.7910    -1.5450 H     1 <1>   0.0800 
 42 H       -4.2870    -1.8250     1.2080 H     1 <1>   0.4000 
 43 H       -5.5160    -1.4560    -0.6370 H     1 <1>   0.0800 
 44 H       -6.8730    -0.4780    -0.0940 H     1 <1>   0.0800 
 45 H       -5.0910     0.0470    -2.2700 H     1 <1>   0.0800 
 46 H       -6.3530     1.1130    -1.6940 H     1 <1>   0.0800 
 47 H        6.8300    -1.1050    -0.1640 H     1 <1>   0.0800 
 48 H        6.8160     0.4900     0.5190 H     1 <1>   0.0800 
 49 H        3.5440     1.9370    -1.4470 H     1 <1>   0.0800 
 50 H        3.6310     0.9730    -2.9180 H     1 <1>   0.0800 
 51 H        4.6830     2.3420    -2.6990 H     1 <1>   0.0800 
 52 H        6.7780    -0.8810     2.4320 H     1 <1>   0.0800 
 53 H        5.6790    -2.0300     1.7010 H     1 <1>   0.0800 
@<TRIPOS>BOND
  1   1   2  2   
  2   1   3  2   
  3   1   4  am  
  4   1   5  1   
  5   4   6  1   
  6   4   7  1   
  7   5   8  ar  
  8   5   9  ar  
  9   6  10  1   
 10   6  28  1   
 11   6  29  1   
 12   7  11  1   
 13   7  30  1   
 14   7  31  1   
 15   8  12  ar  
 16   8  32  1   
 17   9  13  ar  
 18   9  33  1   
 19  10  14  1   
 20  10  15  1   
 21  10  16  1   
 22  11  15  1   
 23  11  34  1   
 24  11  35  1   
 25  12  17  1   
 26  12  18  ar  
 27  13  18  ar  
 28  13  36  1   
 29  14  19  1   
 30  14  20  1   
 31  14  37  1   
 32  15  38  1   
 33  15  39  1   
 34  16  21  1   
 35  16  40  1   
 36  16  41  1   
 37  17  22  am  
 38  17  23  1   
 39  18  24  1   
 40  19  42  1   
 41  20  21  1   
 42  20  43  1   
 43  20  44  1   
 44  21  45  1   
 45  21  46  1   
 46  22  25  2   
 47  22  26  1   
 48  23  27  1   
 49  23  47  1   
 50  23  48  1   
 51  24  27  1   
 52  26  49  1   
 53  26  50  1   
 54  26  51  1   
 55  27  52  1   
 56  27  53  1   
@<TRIPOS>SUBSTRUCTURE
  1 ****   5 GROUP 4 **** **** 0

# MOE 2024.06 (io_trps.svl 2023.06)
