@<TRIPOS>MOLECULE
NONAME
51 54 1 0 0 
SMALL
USER_CHARGES


@<TRIPOS>ATOM
  1 O       -0.1810     0.4230    -1.9540 O.2   1 <1>  -0.5700 
  2 C       -0.7680     0.6230    -0.9150 C.2   1 <1>   0.5690 
  3 N       -2.1090     0.3530    -0.7800 N.am  1 <1>  -0.6600 
  4 C        0.0670     1.1680     0.2320 C.3   1 <1>   0.1570 
  5 C       -2.9290     0.6050     0.4400 C.3   1 <1>   0.1400 
  6 C       -2.9080    -0.1970    -1.9130 C.3   1 <1>   0.1400 
  7 N       -0.3090     2.5510     0.6040 N.pl3 1 <1>   0.0480 
  8 C       -3.5670    -0.7070     0.9020 C.3   1 <1>  -0.1600 
  9 C       -3.5540    -1.5180    -1.4890 C.3   1 <1>  -0.1600 
 10 C       -0.4660     3.6560    -0.1700 C.2   1 <1>   0.0060 
 11 C       -0.5440     2.9810     1.8590 C.2   1 <1>  -0.3020 
 12 C       -4.4010    -1.3670    -0.2130 C.3   1 <1>   0.4240 
 13 N       -0.7860     4.7160     0.4990 N.2   1 <1>  -0.5650 
 14 C       -0.2870     3.6750    -1.6760 C.3   1 <1>  -0.0600 
 15 C       -0.8340     4.2960     1.7740 C.2   1 <1>   0.0770 
 16 O       -5.3950    -0.4350    -0.5800 O.3   1 <1>  -0.5600 
 17 C       -5.0220    -2.7240     0.2300 C.ar  1 <1>  -0.1430 
 18 C       -6.5650    -0.3970     0.1690 C.3   1 <1>   0.1200 
 19 C       -4.2320    -3.8270     0.5840 C.ar  1 <1>   0.0820 
 20 C       -6.4080    -2.8660     0.2850 C.ar  1 <1>  -0.1430 
 21 C       -7.3120    -1.7010    -0.0600 C.3   1 <1>  -0.0170 
 22 O       -2.8780    -3.7060     0.5590 O.3   1 <1>  -0.3630 
 23 C       -4.8320    -5.0270     0.9630 C.ar  1 <1>  -0.1500 
 24 C       -6.9920    -4.0650     0.6590 C.ar  1 <1>  -0.1500 
 25 C       -2.0140    -4.8150     0.6790 C.3   1 <1>   0.0400 
 26 C       -6.2060    -5.1460     0.9970 C.ar  1 <1>  -0.1500 
 27 H        1.1010     1.1660    -0.0560 H     1 <1>   0.0800 
 28 H       -0.0480     0.5270     1.0840 H     1 <1>   0.0800 
 29 H       -3.6950     1.3250     0.2040 H     1 <1>   0.0800 
 30 H       -2.3370     1.0070     1.2390 H     1 <1>   0.0800 
 31 H       -2.2860    -0.3640    -2.7760 H     1 <1>   0.0800 
 32 H       -3.6680     0.5160    -2.1860 H     1 <1>   0.0800 
 33 H       -4.1810    -0.5350     1.7650 H     1 <1>   0.0800 
 34 H       -2.7770    -1.3620     1.2110 H     1 <1>   0.0800 
 35 H       -2.7680    -2.2320    -1.3480 H     1 <1>   0.0800 
 36 H       -4.1800    -1.8880    -2.2810 H     1 <1>   0.0800 
 37 H       -0.4930     2.3510     2.7280 H     1 <1>   0.1500 
 38 H        0.6390     3.2040    -1.9500 H     1 <1>   0.0800 
 39 H       -0.2740     4.6900    -2.0280 H     1 <1>   0.0800 
 40 H       -1.1020     3.1600    -2.1510 H     1 <1>   0.0800 
 41 H       -1.0770     4.9750     2.5740 H     1 <1>   0.1500 
 42 H       -7.1490     0.4390    -0.1710 H     1 <1>   0.0800 
 43 H       -6.3220    -0.2630     1.2080 H     1 <1>   0.0800 
 44 H       -7.6150    -1.7670    -1.0900 H     1 <1>   0.0800 
 45 H       -8.1930    -1.7150     0.5550 H     1 <1>   0.0800 
 46 H       -4.2490    -5.8830     1.2390 H     1 <1>   0.1500 
 47 H       -8.0640    -4.1620     0.6890 H     1 <1>   0.1500 
 48 H       -1.0070    -4.4730     0.5210 H     1 <1>   0.0800 
 49 H       -2.2740    -5.5430    -0.0700 H     1 <1>   0.0800 
 50 H       -2.1080    -5.2270     1.6680 H     1 <1>   0.0800 
 51 H       -6.6620    -6.0760     1.2880 H     1 <1>   0.1500 
@<TRIPOS>BOND
  1   1   2  2   
  2   2   3  am  
  3   2   4  1   
  4   3   5  1   
  5   3   6  1   
  6   4   7  1   
  7   4  27  1   
  8   4  28  1   
  9   5   8  1   
 10   5  29  1   
 11   5  30  1   
 12   6   9  1   
 13   6  31  1   
 14   6  32  1   
 15   7  10  1   
 16   7  11  1   
 17   8  12  1   
 18   8  33  1   
 19   8  34  1   
 20   9  12  1   
 21   9  35  1   
 22   9  36  1   
 23  10  13  2   
 24  10  14  1   
 25  11  15  2   
 26  11  37  1   
 27  12  16  1   
 28  12  17  1   
 29  13  15  1   
 30  14  38  1   
 31  14  39  1   
 32  14  40  1   
 33  15  41  1   
 34  16  18  1   
 35  17  19  ar  
 36  17  20  ar  
 37  18  21  1   
 38  18  42  1   
 39  18  43  1   
 40  19  22  1   
 41  19  23  ar  
 42  20  21  1   
 43  20  24  ar  
 44  21  44  1   
 45  21  45  1   
 46  22  25  1   
 47  23  26  ar  
 48  23  46  1   
 49  24  26  ar  
 50  24  47  1   
 51  25  48  1   
 52  25  49  1   
 53  25  50  1   
 54  26  51  1   
@<TRIPOS>SUBSTRUCTURE
  1 ****   8 GROUP 4 **** **** 0

# MOE 2024.06 (io_trps.svl 2023.06)
