@<TRIPOS>MOLECULE
NONAME
50 53 1 0 0 
SMALL
USER_CHARGES


@<TRIPOS>ATOM
  1 O       -3.2230     0.1290    -2.5140 O.2   1 <1>  -0.5700 
  2 C       -3.4210    -0.5300    -1.5310 C.2   1 <1>   0.5690 
  3 N       -4.3660    -0.1700    -0.6470 N.am  1 <1>  -0.7300 
  4 C       -2.6330    -1.7920    -1.3110 C.3   1 <1>  -0.0190 
  5 C       -4.7430    -0.9260     0.5700 C.3   1 <1>   0.2200 
  6 C       -1.8260    -1.7310     0.0050 C.3   1 <1>   0.1200 
  7 C       -3.5730    -2.9930    -1.5000 C.3   1 <1>   0.3430 
  8 C       -3.5380    -1.0450     1.5360 C.3   1 <1>   0.1200 
  9 C       -5.3620    -2.2980     0.1930 C.3   1 <1>   0.3430 
 10 O       -2.6020    -2.0180     1.1360 O.3   1 <1>  -0.5600 
 11 N       -4.3850    -3.3460    -0.2900 N.4   1 <1>  -0.9590 
 12 C       -5.0180    -4.6820    -0.4150 C.3   1 <1>   0.5240 
 13 C       -5.4330    -5.1600     0.9590 C.2   1 <1>  -0.1810 
 14 C       -6.7170    -5.0220     1.4950 C.2   1 <1>   0.2350 
 15 C       -4.7050    -5.7780     1.9140 C.2   1 <1>  -0.3020 
 16 N       -6.7630    -5.5010     2.7080 N.2   1 <1>  -0.7070 
 17 C       -7.8240    -4.3840     0.8170 C.ar  1 <1>   0.0540 
 18 N       -5.5340    -5.9800     2.9570 N.pl3 1 <1>   0.3000 
 19 C       -8.4070    -4.8950    -0.3480 C.ar  1 <1>  -0.1440 
 20 C       -8.3060    -3.1780     1.3210 C.ar  1 <1>  -0.1500 
 21 C       -9.3750    -4.1610    -1.0130 C.ar  1 <1>  -0.1500 
 22 C       -8.0420    -6.2660    -0.9050 C.3   1 <1>  -0.0970 
 23 C       -9.2760    -2.4470     0.6600 C.ar  1 <1>  -0.1440 
 24 C       -9.8000    -2.9410    -0.5200 C.ar  1 <1>  -0.1500 
 25 C       -9.7850    -1.1300     1.2180 C.3   1 <1>  -0.0970 
 26 H       -4.8400     0.7220    -0.8300 H     1 <1>   0.3700 
 27 H       -1.9150    -1.8290    -2.1110 H     1 <1>   0.0800 
 28 H       -5.5050    -0.3520     1.0710 H     1 <1>   0.0800 
 29 H       -1.3680    -0.7640     0.1330 H     1 <1>   0.0800 
 30 H       -1.0400    -2.4660    -0.0240 H     1 <1>   0.0800 
 31 H       -2.9620    -3.8430    -1.7600 H     1 <1>   0.0800 
 32 H       -4.2270    -2.7970    -2.3340 H     1 <1>   0.0800 
 33 H       -3.8940    -1.3450     2.5070 H     1 <1>   0.0800 
 34 H       -3.0370    -0.0980     1.6460 H     1 <1>   0.0800 
 35 H       -6.1340    -2.1450    -0.5440 H     1 <1>   0.0800 
 36 H       -5.8400    -2.6720     1.0820 H     1 <1>   0.0800 
 37 H       -3.6940    -3.4090     0.4840 H     1 <1>   0.4500 
 38 H       -5.8740    -4.6290    -1.0670 H     1 <1>   0.0800 
 39 H       -4.3140    -5.3850    -0.8280 H     1 <1>   0.0800 
 40 H       -3.6740    -6.0850     1.9280 H     1 <1>   0.1500 
 41 H       -5.2960    -6.4370     3.8490 H     1 <1>   0.2700 
 42 H       -7.9090    -2.8200     2.2550 H     1 <1>   0.1500 
 43 H       -9.8200    -4.5420    -1.9160 H     1 <1>   0.1500 
 44 H       -8.9220    -6.7460    -1.2970 H     1 <1>   0.0800 
 45 H       -7.6460    -6.9070    -0.1370 H     1 <1>   0.0800 
 46 H       -7.3260    -6.1770    -1.7000 H     1 <1>   0.0800 
 47 H      -10.5570    -2.3870    -1.0500 H     1 <1>   0.1500 
 48 H      -10.8440    -1.1980     1.3960 H     1 <1>   0.0800 
 49 H       -9.6040    -0.3360     0.5170 H     1 <1>   0.0800 
 50 H       -9.3020    -0.8890     2.1480 H     1 <1>   0.0800 
@<TRIPOS>BOND
  1   1   2  2   
  2   2   3  am  
  3   2   4  1   
  4   3   5  1   
  5   3  26  1   
  6   4   6  1   
  7   4   7  1   
  8   4  27  1   
  9   5   8  1   
 10   5   9  1   
 11   5  28  1   
 12   6  10  1   
 13   6  29  1   
 14   6  30  1   
 15   7  11  1   
 16   7  31  1   
 17   7  32  1   
 18   8  10  1   
 19   8  33  1   
 20   8  34  1   
 21   9  11  1   
 22   9  35  1   
 23   9  36  1   
 24  11  12  1   
 25  11  37  1   
 26  12  13  1   
 27  12  38  1   
 28  12  39  1   
 29  13  14  1   
 30  13  15  2   
 31  14  16  2   
 32  14  17  1   
 33  15  18  1   
 34  15  40  1   
 35  16  18  1   
 36  17  19  ar  
 37  17  20  ar  
 38  18  41  1   
 39  19  21  ar  
 40  19  22  1   
 41  20  23  ar  
 42  20  42  1   
 43  21  24  ar  
 44  21  43  1   
 45  22  44  1   
 46  22  45  1   
 47  22  46  1   
 48  23  24  ar  
 49  23  25  1   
 50  24  47  1   
 51  25  48  1   
 52  25  49  1   
 53  25  50  1   
@<TRIPOS>SUBSTRUCTURE
  1 ****   9 GROUP 4 **** **** 0

# MOE 2024.06 (io_trps.svl 2023.06)
