@<TRIPOS>MOLECULE
NONAME
43 47 1 0 0 
SMALL
USER_CHARGES


@<TRIPOS>ATOM
  1 S       -0.2110     0.0130    -1.9380 S.3   1 <1>  -0.0800 
  2 C       -1.0560     0.9480    -0.7130 C.2   1 <1>  -0.1400 
  3 C       -1.5510    -1.1220    -2.0410 C.2   1 <1>  -0.1100 
  4 C       -2.2550     0.4110    -0.4510 C.2   1 <1>  -0.1810 
  5 C       -0.4620     2.1950    -0.0690 C.3   1 <1>   0.4600 
  6 C       -2.5430    -0.7740    -1.1990 C.2   1 <1>  -0.1500 
  7 C       -3.1600     1.0680     0.5670 C.3   1 <1>   0.0210 
  8 O       -1.3140     2.6070     0.9830 O.3   1 <1>  -0.5600 
  9 C        0.8900     1.8790     0.5790 C.3   1 <1>  -0.1600 
 10 C       -0.3210     3.3410    -1.0800 C.3   1 <1>  -0.1600 
 11 C       -2.7060     2.5260     0.7790 C.3   1 <1>   0.1200 
 12 C        1.5060     3.1300     1.1990 C.3   1 <1>   0.2090 
 13 C        0.3250     4.5710    -0.4460 C.3   1 <1>   0.2090 
 14 N        1.6380     4.1750     0.1430 N.pl3 1 <1>  -0.8380 
 15 C        2.7960     4.8520    -0.1140 C.2   1 <1>   0.2710 
 16 N        2.6860     6.1550    -0.4130 N.2   1 <1>  -0.6210 
 17 C        4.0220     4.2330    -0.0750 C.2   1 <1>  -0.1410 
 18 C        3.7600     6.8350    -0.6480 C.2   1 <1>   0.9190 
 19 C        5.1260     5.0020    -0.3430 C.cat 1 <1>   0.7910 
 20 N        4.9980     6.2960    -0.6220 N.pl3 1 <1>  -0.6690 
 21 N        3.6280     8.1290    -0.9260 N.pl3 1 <1>  -0.8500 
 22 N        6.4400     4.7310    -0.4010 N.pl3 1 <1>  -0.3930 
 23 C        6.2710     6.7580    -0.8460 C.2   1 <1>   0.5030 
 24 N        7.1560     5.8430    -0.7190 N.2   1 <1>  -0.2600 
 25 H       -1.4520    -1.9400    -2.7320 H     1 <1>   0.1500 
 26 H       -3.4710    -1.3040    -1.0710 H     1 <1>   0.1500 
 27 H       -3.1120     0.5310     1.4970 H     1 <1>   0.0800 
 28 H       -4.1770     1.0590     0.2180 H     1 <1>   0.0800 
 29 H        1.5650     1.4900    -0.1600 H     1 <1>   0.0800 
 30 H        0.7520     1.1240     1.3300 H     1 <1>   0.0800 
 31 H       -1.2800     3.5960    -1.4890 H     1 <1>   0.0800 
 32 H        0.2970     3.0170    -1.8960 H     1 <1>   0.0800 
 33 H       -3.1890     2.9410     1.6460 H     1 <1>   0.0800 
 34 H       -2.9610     3.1250    -0.0770 H     1 <1>   0.0800 
 35 H        2.4600     2.8960     1.6360 H     1 <1>   0.0800 
 36 H        0.8670     3.5010     1.9830 H     1 <1>   0.0800 
 37 H       -0.3080     4.9690     0.3300 H     1 <1>   0.0800 
 38 H        0.4570     5.3300    -1.1980 H     1 <1>   0.0800 
 39 H        4.1130     3.1880     0.1410 H     1 <1>   0.1500 
 40 H        2.6810     8.5110    -0.9190 H     1 <1>   0.4000 
 41 H        4.3770     8.8000    -1.0570 H     1 <1>   0.4000 
 42 H        6.8700     3.8130    -0.2370 H     1 <1>   0.4500 
 43 H        6.4800     7.7860    -1.1020 H     1 <1>   0.1500 
@<TRIPOS>BOND
  1   1   2  1   
  2   1   3  1   
  3   2   4  2   
  4   2   5  1   
  5   3   6  2   
  6   3  25  1   
  7   4   6  1   
  8   4   7  1   
  9   5   8  1   
 10   5   9  1   
 11   5  10  1   
 12   6  26  1   
 13   7  11  1   
 14   7  27  1   
 15   7  28  1   
 16   8  11  1   
 17   9  12  1   
 18   9  29  1   
 19   9  30  1   
 20  10  13  1   
 21  10  31  1   
 22  10  32  1   
 23  11  33  1   
 24  11  34  1   
 25  12  14  1   
 26  12  35  1   
 27  12  36  1   
 28  13  14  1   
 29  13  37  1   
 30  13  38  1   
 31  14  15  1   
 32  15  16  1   
 33  15  17  2   
 34  16  18  2   
 35  17  19  1   
 36  17  39  1   
 37  18  20  1   
 38  18  21  1   
 39  19  20  ar  
 40  19  22  ar  
 41  20  23  1   
 42  21  40  1   
 43  21  41  1   
 44  22  24  1   
 45  22  42  1   
 46  23  24  2   
 47  23  43  1   
@<TRIPOS>SUBSTRUCTURE
  1 ****  14 GROUP 4 **** **** 0

# MOE 2024.06 (io_trps.svl 2023.06)
