@<TRIPOS>MOLECULE
NONAME
53 55 1 0 0 
SMALL
USER_CHARGES


@<TRIPOS>ATOM
  1 O        1.0330     1.2000     1.0060 O.3   1 <1>  -0.0190 
  2 N        1.9650     0.2970     1.0500 N.2   1 <1>  -0.4100 
  3 C        0.9570     1.7640    -0.1700 C.2   1 <1>  -0.0400 
  4 C        2.4850     0.2600    -0.1240 C.2   1 <1>   0.1080 
  5 C        1.8780     1.1920    -0.9610 C.2   1 <1>  -0.1500 
  6 C       -0.0450     2.8760    -0.4090 C.3   1 <1>   0.0200 
  7 C        3.6050    -0.6740    -0.5280 C.3   1 <1>  -0.0590 
  8 C       -0.0340     3.8950     0.7480 C.3   1 <1>  -0.0800 
  9 C       -0.8000     5.1700     0.3910 C.3   1 <1>   0.2000 
 10 C        1.3940     4.3690     1.0760 C.3   1 <1>   0.3430 
 11 O       -1.2930     5.7180     1.5690 O.3   1 <1>  -0.6800 
 12 C        0.2940     6.1000    -0.1310 C.3   1 <1>   0.3430 
 13 N        1.4450     5.8300     0.7750 N.4   1 <1>  -0.9590 
 14 C        2.7740     6.3000     0.3040 C.3   1 <1>   0.3430 
 15 C        2.8160     7.8300     0.2740 C.3   1 <1>  -0.1600 
 16 C        4.1830     8.3740    -0.1880 C.3   1 <1>  -0.0800 
 17 C        5.2880     8.0630     0.8480 C.3   1 <1>  -0.1600 
 18 C        4.0340     9.8810    -0.4790 C.3   1 <1>  -0.1600 
 19 C        6.7040     8.2540     0.2840 C.3   1 <1>  -0.1600 
 20 C        5.3100    10.6000    -0.9460 C.3   1 <1>  -0.1600 
 21 C        7.2780     9.6690     0.4470 C.3   1 <1>  -0.1600 
 22 C        6.3070    10.8320     0.1980 C.3   1 <1>  -0.1600 
 23 H        2.1240     1.3720    -1.9920 H     1 <1>   0.1500 
 24 H        0.1870     3.3510    -1.3460 H     1 <1>   0.0800 
 25 H       -1.0270     2.4400    -0.4920 H     1 <1>   0.0800 
 26 H        4.4560    -0.1080    -0.8570 H     1 <1>   0.0800 
 27 H        3.2750    -1.3160    -1.3240 H     1 <1>   0.0800 
 28 H        3.8950    -1.2840     0.3090 H     1 <1>   0.0800 
 29 H       -0.4600     3.4170     1.6130 H     1 <1>   0.0800 
 30 H       -1.6130     5.0330    -0.3030 H     1 <1>   0.0800 
 31 H        2.1110     3.8360     0.4730 H     1 <1>   0.0800 
 32 H        1.6190     4.1920     2.1160 H     1 <1>   0.0800 
 33 H       -2.0790     5.2270     1.8930 H     1 <1>   0.4000 
 34 H       -0.0200     7.1310    -0.0930 H     1 <1>   0.0800 
 35 H        0.5490     5.8330    -1.1430 H     1 <1>   0.0800 
 36 H        1.2030     6.3110     1.6570 H     1 <1>   0.4500 
 37 H        3.5350     5.9370     0.9750 H     1 <1>   0.0800 
 38 H        2.9780     5.9100    -0.6800 H     1 <1>   0.0800 
 39 H        2.0630     8.1850    -0.4070 H     1 <1>   0.0800 
 40 H        2.5980     8.2200     1.2540 H     1 <1>   0.0800 
 41 H        4.4380     7.8890    -1.1160 H     1 <1>   0.0800 
 42 H        5.1570     8.6600     1.7350 H     1 <1>   0.0800 
 43 H        5.2210     7.0350     1.1500 H     1 <1>   0.0800 
 44 H        3.2990    10.0040    -1.2560 H     1 <1>   0.0800 
 45 H        3.6520    10.3820     0.3940 H     1 <1>   0.0800 
 46 H        7.3720     7.5770     0.7900 H     1 <1>   0.0800 
 47 H        6.7220     7.9810    -0.7560 H     1 <1>   0.0800 
 48 H        5.7760    10.0730    -1.7610 H     1 <1>   0.0800 
 49 H        5.0170    11.5650    -1.3210 H     1 <1>   0.0800 
 50 H        7.6710     9.7740     1.4440 H     1 <1>   0.0800 
 51 H        8.1120     9.7660    -0.2270 H     1 <1>   0.0800 
 52 H        6.8940    11.7050    -0.0290 H     1 <1>   0.0800 
 53 H        5.7690    11.0500     1.1040 H     1 <1>   0.0800 
@<TRIPOS>BOND
  1   1   2  1   
  2   1   3  1   
  3   2   4  2   
  4   3   5  2   
  5   3   6  1   
  6   4   5  1   
  7   4   7  1   
  8   5  23  1   
  9   6   8  1   
 10   6  24  1   
 11   6  25  1   
 12   7  26  1   
 13   7  27  1   
 14   7  28  1   
 15   8   9  1   
 16   8  10  1   
 17   8  29  1   
 18   9  11  1   
 19   9  12  1   
 20   9  30  1   
 21  10  13  1   
 22  10  31  1   
 23  10  32  1   
 24  11  33  1   
 25  12  13  1   
 26  12  34  1   
 27  12  35  1   
 28  13  14  1   
 29  13  36  1   
 30  14  15  1   
 31  14  37  1   
 32  14  38  1   
 33  15  16  1   
 34  15  39  1   
 35  15  40  1   
 36  16  17  1   
 37  16  18  1   
 38  16  41  1   
 39  17  19  1   
 40  17  42  1   
 41  17  43  1   
 42  18  20  1   
 43  18  44  1   
 44  18  45  1   
 45  19  21  1   
 46  19  46  1   
 47  19  47  1   
 48  20  22  1   
 49  20  48  1   
 50  20  49  1   
 51  21  22  1   
 52  21  50  1   
 53  21  51  1   
 54  22  52  1   
 55  22  53  1   
@<TRIPOS>SUBSTRUCTURE
  1 ****  14 GROUP 4 **** **** 0

# MOE 2024.06 (io_trps.svl 2023.06)
