@<TRIPOS>MOLECULE
NONAME
48 51 1 0 0 
SMALL
USER_CHARGES


@<TRIPOS>ATOM
  1 S        0.2050    -3.3810    -1.6610 S.3   1 <1>  -0.0800 
  2 C       -0.4320    -3.6140    -0.0500 C.2   1 <1>  -0.1100 
  3 C       -1.3430    -3.7880    -2.3730 C.2   1 <1>  -0.1100 
  4 C       -1.7410    -3.9630    -0.0710 C.2   1 <1>  -0.0860 
  5 C       -2.2450    -4.0670    -1.4160 C.2   1 <1>  -0.1500 
  6 C       -2.5720    -4.2230     1.0830 C.2   1 <1>   0.7160 
  7 O       -2.4050    -5.2460     1.7190 O.2   1 <1>  -0.5700 
  8 N       -3.5580    -3.3460     1.4730 N.am  1 <1>  -0.6600 
  9 C       -4.5870    -3.7530     2.4740 C.3   1 <1>   0.1400 
 10 C       -3.7770    -2.0120     0.8500 C.3   1 <1>   0.1400 
 11 C       -5.7080    -4.5870     1.8290 C.3   1 <1>   0.1400 
 12 C       -4.9050    -2.0250    -0.1930 C.3   1 <1>  -0.1600 
 13 N       -6.0620    -4.1320     0.4430 N.am  1 <1>  -0.6600 
 14 C       -6.2250    -2.6630     0.2610 C.3   1 <1>   0.1400 
 15 C       -6.1700    -4.9910    -0.6360 C.2   1 <1>   0.5440 
 16 O       -6.3930    -4.5240    -1.7380 O.2   1 <1>  -0.5700 
 17 C       -6.0490    -6.4290    -0.5010 C.ar  1 <1>   0.0860 
 18 C       -7.1730    -7.2440    -0.6320 C.ar  1 <1>  -0.1500 
 19 C       -4.8250    -7.0480    -0.2450 C.ar  1 <1>  -0.1500 
 20 C       -7.0950    -8.6190    -0.4980 C.ar  1 <1>  -0.1430 
 21 C       -4.7320    -8.4190    -0.1060 C.ar  1 <1>  -0.1500 
 22 C       -5.8630    -9.2090    -0.2250 C.ar  1 <1>   0.0830 
 23 C       -8.3410    -9.4750    -0.6530 C.3   1 <1>  -0.0170 
 24 O       -5.7250   -10.5460    -0.0810 O.3   1 <1>  -0.3620 
 25 C       -7.9550   -10.9300    -0.9270 C.3   1 <1>  -0.1600 
 26 C       -6.8650   -11.3710     0.0540 C.3   1 <1>   0.1200 
 27 H        0.2400    -3.4680     0.7780 H     1 <1>   0.1500 
 28 H       -1.4140    -3.7790    -3.4470 H     1 <1>   0.1500 
 29 H       -3.2680    -4.3550    -1.5950 H     1 <1>   0.1500 
 30 H       -5.0120    -2.8780     2.9320 H     1 <1>   0.0800 
 31 H       -4.1270    -4.3290     3.2590 H     1 <1>   0.0800 
 32 H       -2.8690    -1.6710     0.3840 H     1 <1>   0.0800 
 33 H       -4.0190    -1.3050     1.6260 H     1 <1>   0.0800 
 34 H       -6.5860    -4.5390     2.4490 H     1 <1>   0.0800 
 35 H       -5.3870    -5.6120     1.8190 H     1 <1>   0.0800 
 36 H       -4.5710    -2.5160    -1.0870 H     1 <1>   0.0800 
 37 H       -5.1070    -1.0060    -0.4680 H     1 <1>   0.0800 
 38 H       -6.9780    -2.4840    -0.4900 H     1 <1>   0.0800 
 39 H       -6.5690    -2.2120     1.1760 H     1 <1>   0.0800 
 40 H       -8.1180    -6.7760    -0.8470 H     1 <1>   0.1500 
 41 H       -3.9390    -6.4450    -0.1520 H     1 <1>   0.1500 
 42 H       -3.7850    -8.8850     0.0960 H     1 <1>   0.1500 
 43 H       -8.9490    -9.1030    -1.4600 H     1 <1>   0.0800 
 44 H       -8.9130    -9.4180     0.2560 H     1 <1>   0.0800 
 45 H       -7.5800   -11.0280    -1.9310 H     1 <1>   0.0800 
 46 H       -8.8180   -11.5630    -0.8270 H     1 <1>   0.0800 
 47 H       -7.2090   -11.2910     1.0700 H     1 <1>   0.0800 
 48 H       -6.5600   -12.3840    -0.1390 H     1 <1>   0.0800 
@<TRIPOS>BOND
  1   1   2  1   
  2   1   3  1   
  3   2   4  2   
  4   2  27  1   
  5   3   5  2   
  6   3  28  1   
  7   4   5  1   
  8   4   6  1   
  9   5  29  1   
 10   6   7  2   
 11   6   8  am  
 12   8   9  1   
 13   8  10  1   
 14   9  11  1   
 15   9  30  1   
 16   9  31  1   
 17  10  12  1   
 18  10  32  1   
 19  10  33  1   
 20  11  13  1   
 21  11  34  1   
 22  11  35  1   
 23  12  14  1   
 24  12  36  1   
 25  12  37  1   
 26  13  14  1   
 27  13  15  am  
 28  14  38  1   
 29  14  39  1   
 30  15  16  2   
 31  15  17  1   
 32  17  18  ar  
 33  17  19  ar  
 34  18  20  ar  
 35  18  40  1   
 36  19  21  ar  
 37  19  41  1   
 38  20  22  ar  
 39  20  23  1   
 40  21  22  ar  
 41  21  42  1   
 42  22  24  1   
 43  23  25  1   
 44  23  43  1   
 45  23  44  1   
 46  24  26  1   
 47  25  26  1   
 48  25  45  1   
 49  25  46  1   
 50  26  47  1   
 51  26  48  1   
@<TRIPOS>SUBSTRUCTURE
  1 ****  19 GROUP 4 **** **** 0

# MOE 2024.06 (io_trps.svl 2023.06)
