@<TRIPOS>MOLECULE
NONAME
50 53 1 0 0 
SMALL
USER_CHARGES


@<TRIPOS>ATOM
  1 S       -0.2170    -2.0140     2.7240 S.3   1 <1>  -0.0800 
  2 C        1.3960    -2.5490     2.2930 C.2   1 <1>  -0.1100 
  3 C       -0.5210    -1.4710     1.0850 C.2   1 <1>  -0.1100 
  4 C        1.6440    -2.3210     0.9880 C.2   1 <1>  -0.1810 
  5 C        0.5470    -1.7000     0.3000 C.2   1 <1>  -0.1500 
  6 C        2.9310    -2.6690     0.2700 C.3   1 <1>   0.5240 
  7 N        2.9520    -4.1330     0.0060 N.4   1 <1>  -0.9590 
  8 C        4.2510    -4.6920    -0.5030 C.3   1 <1>   0.4230 
  9 C        1.8040    -4.5750    -0.8350 C.3   1 <1>   0.3430 
 10 C        4.2410    -6.2430    -0.4090 C.3   1 <1>   0.0000 
 11 C        5.5130    -4.1220     0.1800 C.3   1 <1>   0.1400 
 12 C        1.7030    -6.1010    -0.8170 C.3   1 <1>  -0.1600 
 13 C        5.5250    -6.7630    -1.1020 C.3   1 <1>  -0.1600 
 14 C        3.0250    -6.7830    -1.2040 C.3   1 <1>  -0.1600 
 15 C        4.2270    -6.7810     1.0580 C.3   1 <1>   0.1200 
 16 N        6.7400    -4.6840    -0.4590 N.am  1 <1>  -0.6600 
 17 C        6.8240    -6.1730    -0.5310 C.3   1 <1>   0.1400 
 18 O        3.3250    -6.1050     1.8780 O.3   1 <1>  -0.6800 
 19 C        7.7230    -3.8910    -1.0300 C.2   1 <1>   0.7150 
 20 O        8.3330    -4.3490    -1.9790 O.2   1 <1>  -0.5700 
 21 C        8.0370    -2.5500    -0.5740 C.2   1 <1>   0.0550 
 22 O        7.6030    -2.0640     0.5900 O.3   1 <1>  -0.2800 
 23 C        8.7960    -1.5910    -1.1740 C.2   1 <1>  -0.1500 
 24 C        8.0630    -0.8420     0.7410 C.2   1 <1>  -0.0100 
 25 C        8.8110    -0.4850    -0.3240 C.2   1 <1>  -0.1500 
 26 H        1.9850    -2.9840     3.0820 H     1 <1>   0.1500 
 27 H       -1.4820    -1.0270     0.8850 H     1 <1>   0.1500 
 28 H        0.5980    -1.4430    -0.7450 H     1 <1>   0.1500 
 29 H        3.7570    -2.3960     0.9060 H     1 <1>   0.0800 
 30 H        3.0060    -2.1150    -0.6510 H     1 <1>   0.0800 
 31 H        2.8180    -4.6120     0.9180 H     1 <1>   0.4500 
 32 H        4.3290    -4.4320    -1.5450 H     1 <1>   0.0800 
 33 H        0.8820    -4.1630    -0.4550 H     1 <1>   0.0800 
 34 H        1.9370    -4.2310    -1.8470 H     1 <1>   0.0800 
 35 H        5.5220    -4.3540     1.2310 H     1 <1>   0.0800 
 36 H        5.5130    -3.0570     0.0590 H     1 <1>   0.0800 
 37 H        1.3880    -6.4230     0.1600 H     1 <1>   0.0800 
 38 H        0.9330    -6.4050    -1.5050 H     1 <1>   0.0800 
 39 H        5.5020    -6.5220    -2.1510 H     1 <1>   0.0800 
 40 H        5.5750    -7.8360    -1.0310 H     1 <1>   0.0800 
 41 H        3.1830    -6.6150    -2.2560 H     1 <1>   0.0800 
 42 H        2.9320    -7.8480    -1.0680 H     1 <1>   0.0800 
 43 H        5.1920    -6.6840     1.5220 H     1 <1>   0.0800 
 44 H        3.9620    -7.8260     1.0650 H     1 <1>   0.0800 
 45 H        7.6520    -6.4760    -1.1520 H     1 <1>   0.0800 
 46 H        7.0190    -6.5580     0.4550 H     1 <1>   0.0800 
 47 H        3.2470    -6.5670     2.7430 H     1 <1>   0.4000 
 48 H        9.3030    -1.6630    -2.1220 H     1 <1>   0.1500 
 49 H        7.8180    -0.2920     1.6340 H     1 <1>   0.1500 
 50 H        9.3260     0.4420    -0.5050 H     1 <1>   0.1500 
@<TRIPOS>BOND
  1   1   2  1   
  2   1   3  1   
  3   2   4  2   
  4   2  26  1   
  5   3   5  2   
  6   3  27  1   
  7   4   5  1   
  8   4   6  1   
  9   5  28  1   
 10   6   7  1   
 11   6  29  1   
 12   6  30  1   
 13   7   8  1   
 14   7   9  1   
 15   7  31  1   
 16   8  10  1   
 17   8  11  1   
 18   8  32  1   
 19   9  12  1   
 20   9  33  1   
 21   9  34  1   
 22  10  13  1   
 23  10  14  1   
 24  10  15  1   
 25  11  16  1   
 26  11  35  1   
 27  11  36  1   
 28  12  14  1   
 29  12  37  1   
 30  12  38  1   
 31  13  17  1   
 32  13  39  1   
 33  13  40  1   
 34  14  41  1   
 35  14  42  1   
 36  15  18  1   
 37  15  43  1   
 38  15  44  1   
 39  16  17  1   
 40  16  19  am  
 41  17  45  1   
 42  17  46  1   
 43  18  47  1   
 44  19  20  2   
 45  19  21  1   
 46  21  22  1   
 47  21  23  2   
 48  22  24  1   
 49  23  25  1   
 50  23  48  1   
 51  24  25  2   
 52  24  49  1   
 53  25  50  1   
@<TRIPOS>SUBSTRUCTURE
  1 ****  11 GROUP 4 **** **** 0

# MOE 2024.06 (io_trps.svl 2023.06)
