@<TRIPOS>MOLECULE
NONAME
54 57 1 0 0 
SMALL
USER_CHARGES


@<TRIPOS>ATOM
  1 O       -3.9610    -0.6190     1.1150 O.2   1 <1>  -0.5700 
  2 C       -3.7580     0.1900     0.2300 C.2   1 <1>   0.7060 
  3 O       -3.7520     1.4780     0.5940 O.3   1 <1>  -0.2330 
  4 C       -3.5400    -0.1430    -1.1550 C.2   1 <1>   0.0290 
  5 C       -3.5730     2.4990    -0.2710 C.ar  1 <1>   0.0820 
  6 C       -3.5270    -1.5280    -1.5600 C.2   1 <1>   0.6160 
  7 C       -3.3630     0.8730    -2.0470 C.2   1 <1>  -0.1780 
  8 C       -3.3750     2.2310    -1.6290 C.ar  1 <1>   0.0280 
  9 C       -3.5890     3.7990     0.2090 C.ar  1 <1>  -0.1500 
 10 O       -3.7580    -1.8200    -2.7170 O.2   1 <1>  -0.5700 
 11 N       -3.2600    -2.5460    -0.6940 N.am  1 <1>  -0.7300 
 12 C       -3.1960     3.3090    -2.4960 C.ar  1 <1>  -0.1500 
 13 C       -3.4060     4.8630    -0.6660 C.ar  1 <1>   0.0830 
 14 C       -3.3780    -3.9940    -0.9840 C.3   1 <1>   0.2200 
 15 C       -3.2120     4.6030    -2.0180 C.ar  1 <1>  -0.1500 
 16 O       -3.4010     6.1630    -0.2950 O.3   1 <1>  -0.3630 
 17 C       -4.6150    -4.5800    -0.3170 C.3   1 <1>  -0.0800 
 18 C       -2.2770    -4.7420    -0.2450 C.3   1 <1>   0.1200 
 19 C       -3.5140     6.6010     1.0410 C.3   1 <1>   0.2000 
 20 C       -4.1310    -4.8570     1.1100 C.3   1 <1>   0.1200 
 21 C       -5.8930    -3.7230    -0.3920 C.3   1 <1>  -0.0170 
 22 O       -2.7340    -4.8870     1.0670 O.3   1 <1>  -0.5600 
 23 C       -3.9460     8.0650     0.9960 C.3   1 <1>  -0.2400 
 24 C       -2.1550     6.4490     1.7290 C.3   1 <1>  -0.2400 
 25 C       -7.0630    -4.4310     0.2720 C.ar  1 <1>  -0.1430 
 26 C       -7.7790    -5.4180    -0.3730 C.ar  1 <1>  -0.1500 
 27 C       -7.4670    -4.1230     1.5560 C.ar  1 <1>  -0.1500 
 28 C       -8.8330    -6.0350     0.2790 C.ar  1 <1>   0.1600 
 29 C       -8.5360    -4.8020     2.1170 C.ar  1 <1>   0.1600 
 30 N       -9.2280    -5.7530     1.5100 N.ar  1 <1>  -0.6200 
 31 H       -3.2100     0.6750    -3.0950 H     1 <1>   0.1500 
 32 H       -3.7450     3.9510     1.2590 H     1 <1>   0.1500 
 33 H       -3.1930    -2.3300     0.3100 H     1 <1>   0.3700 
 34 H       -3.0450     3.1270    -3.5450 H     1 <1>   0.1500 
 35 H       -3.3490    -4.1770    -2.0460 H     1 <1>   0.0800 
 36 H       -3.0740     5.4350    -2.6860 H     1 <1>   0.1500 
 37 H       -4.8190    -5.5310    -0.7770 H     1 <1>   0.0800 
 38 H       -1.3400    -4.2140    -0.2470 H     1 <1>   0.0800 
 39 H       -2.1450    -5.7280    -0.6560 H     1 <1>   0.0800 
 40 H       -4.2750     6.0230     1.5350 H     1 <1>   0.0800 
 41 H       -4.4930    -5.8010     1.4810 H     1 <1>   0.0800 
 42 H       -4.4160    -4.0670     1.7840 H     1 <1>   0.0800 
 43 H       -6.1320    -3.5260    -1.4230 H     1 <1>   0.0800 
 44 H       -5.7410    -2.7740     0.0920 H     1 <1>   0.0800 
 45 H       -3.2150     8.6570     0.4750 H     1 <1>   0.0800 
 46 H       -4.0520     8.4480     1.9950 H     1 <1>   0.0800 
 47 H       -4.8940     8.1500     0.4960 H     1 <1>   0.0800 
 48 H       -1.4090     7.0230     1.2090 H     1 <1>   0.0800 
 49 H       -1.8520     5.4180     1.7520 H     1 <1>   0.0800 
 50 H       -2.2160     6.8040     2.7410 H     1 <1>   0.0800 
 51 H       -7.5290    -5.7110    -1.3760 H     1 <1>   0.1500 
 52 H       -6.9630    -3.3620     2.1240 H     1 <1>   0.1500 
 53 H       -9.3810    -6.8030    -0.2390 H     1 <1>   0.1500 
 54 H       -8.8370    -4.5480     3.1190 H     1 <1>   0.1500 
@<TRIPOS>BOND
  1   1   2  2   
  2   2   3  1   
  3   2   4  1   
  4   3   5  1   
  5   4   6  1   
  6   4   7  2   
  7   5   8  ar  
  8   5   9  ar  
  9   6  10  2   
 10   6  11  am  
 11   7   8  1   
 12   7  31  1   
 13   8  12  ar  
 14   9  13  ar  
 15   9  32  1   
 16  11  14  1   
 17  11  33  1   
 18  12  15  ar  
 19  12  34  1   
 20  13  15  ar  
 21  13  16  1   
 22  14  17  1   
 23  14  18  1   
 24  14  35  1   
 25  15  36  1   
 26  16  19  1   
 27  17  20  1   
 28  17  21  1   
 29  17  37  1   
 30  18  22  1   
 31  18  38  1   
 32  18  39  1   
 33  19  23  1   
 34  19  24  1   
 35  19  40  1   
 36  20  22  1   
 37  20  41  1   
 38  20  42  1   
 39  21  25  1   
 40  21  43  1   
 41  21  44  1   
 42  23  45  1   
 43  23  46  1   
 44  23  47  1   
 45  24  48  1   
 46  24  49  1   
 47  24  50  1   
 48  25  26  ar  
 49  25  27  ar  
 50  26  28  ar  
 51  26  51  1   
 52  27  29  ar  
 53  27  52  1   
 54  28  30  ar  
 55  28  53  1   
 56  29  30  ar  
 57  29  54  1   
@<TRIPOS>SUBSTRUCTURE
  1 ****   2 GROUP 4 **** **** 0

# MOE 2024.06 (io_trps.svl 2023.06)
