@<TRIPOS>MOLECULE
NONAME
52 56 1 0 0 
SMALL
USER_CHARGES


@<TRIPOS>ATOM
  1 O       -0.5350     0.8850     0.2960 O.2   1 <1>  -0.5700 
  2 C       -1.7020     0.7560    -0.0180 C.2   1 <1>   0.5440 
  3 N       -2.3220    -0.4430     0.2320 N.am  1 <1>  -0.6600 
  4 C       -2.4080     1.8570    -0.6380 C.ar  1 <1>   0.0860 
  5 C       -1.7760    -1.5780     0.9770 C.3   1 <1>   0.2200 
  6 C       -3.7340    -0.7800     0.2940 C.3   1 <1>   0.2200 
  7 C       -2.3890     3.1220    -0.0740 C.ar  1 <1>  -0.1500 
  8 C       -3.1290     1.6730    -1.8400 C.ar  1 <1>  -0.1500 
  9 C       -2.2970    -2.7430     0.0970 C.3   1 <1>   0.0610 
 10 C       -2.5690    -1.4100     2.2880 C.3   1 <1>  -0.1600 
 11 C       -3.7110    -2.2010    -0.2910 C.3   1 <1>  -0.1600 
 12 C       -3.9290    -0.8720     1.8090 C.3   1 <1>  -0.1600 
 13 C       -3.0810     4.1700    -0.6740 C.ar  1 <1>   0.2270 
 14 C       -3.8140     2.7010    -2.4420 C.ar  1 <1>  -0.1500 
 15 C       -2.3470    -4.1000     0.8180 C.2   1 <1>   0.5690 
 16 C       -1.4330    -2.8870    -1.1860 C.3   1 <1>  -0.0170 
 17 N       -3.2160     5.4690    -0.3070 N.2   1 <1>  -0.2270 
 18 C       -3.7800     3.9590    -1.8340 C.ar  1 <1>  -0.1520 
 19 O       -1.6640    -4.3060     1.7930 O.2   1 <1>  -0.5700 
 20 N       -3.1580    -5.0770     0.3180 N.am  1 <1>  -0.7300 
 21 C        0.0320    -3.2120    -0.9230 C.ar  1 <1>  -0.1440 
 22 N       -3.9510     6.0600    -1.1710 N.2   1 <1>  -0.4180 
 23 N       -4.3060     5.1700    -2.1090 N.pl3 1 <1>   0.3000 
 24 C       -3.2980    -6.4440     0.8820 C.3   1 <1>   0.0600 
 25 C        0.4480    -4.5240    -0.7530 C.ar  1 <1>  -0.1500 
 26 C        0.9710    -2.1920    -0.8620 C.ar  1 <1>  -0.1500 
 27 C        1.7830    -4.8120    -0.5250 C.ar  1 <1>  -0.1500 
 28 C        2.3050    -2.4790    -0.6330 C.ar  1 <1>  -0.1500 
 29 C        2.7130    -3.7900    -0.4650 C.ar  1 <1>  -0.1500 
 30 H       -0.7080    -1.5500     1.1130 H     1 <1>   0.0800 
 31 H       -4.3940    -0.0880    -0.2010 H     1 <1>   0.0800 
 32 H       -1.8390     3.3090     0.8310 H     1 <1>   0.1500 
 33 H       -3.1240     0.6940    -2.2870 H     1 <1>   0.1500 
 34 H       -2.6640    -2.3180     2.8530 H     1 <1>   0.0800 
 35 H       -2.0740    -0.6800     2.9050 H     1 <1>   0.0800 
 36 H       -4.5110    -2.7860     0.1270 H     1 <1>   0.0800 
 37 H       -3.8450    -2.1560    -1.3560 H     1 <1>   0.0800 
 38 H       -4.1110     0.1070     2.2180 H     1 <1>   0.0800 
 39 H       -4.7430    -1.5220     2.0750 H     1 <1>   0.0800 
 40 H       -4.3600     2.5520    -3.3580 H     1 <1>   0.1500 
 41 H       -1.8460    -3.6600    -1.8080 H     1 <1>   0.0800 
 42 H       -1.4750    -1.9770    -1.7580 H     1 <1>   0.0800 
 43 H       -3.7070    -4.8870    -0.5210 H     1 <1>   0.3700 
 44 H       -4.8940     5.4130    -2.9120 H     1 <1>   0.2700 
 45 H       -2.6750    -6.5570     1.7540 H     1 <1>   0.0800 
 46 H       -3.0000    -7.1740     0.1490 H     1 <1>   0.0800 
 47 H       -4.3210    -6.6190     1.1650 H     1 <1>   0.0800 
 48 H       -0.2640    -5.3280    -0.7900 H     1 <1>   0.1500 
 49 H        0.6680    -1.1650    -0.9840 H     1 <1>   0.1500 
 50 H        2.0950    -5.8320    -0.3890 H     1 <1>   0.1500 
 51 H        3.0220    -1.6780    -0.5830 H     1 <1>   0.1500 
 52 H        3.7490    -4.0130    -0.2860 H     1 <1>   0.1500 
@<TRIPOS>BOND
  1   1   2  2   
  2   2   3  am  
  3   2   4  1   
  4   3   5  1   
  5   3   6  1   
  6   4   7  ar  
  7   4   8  ar  
  8   5   9  1   
  9   5  10  1   
 10   5  30  1   
 11   6  11  1   
 12   6  12  1   
 13   6  31  1   
 14   7  13  ar  
 15   7  32  1   
 16   8  14  ar  
 17   8  33  1   
 18   9  11  1   
 19   9  15  1   
 20   9  16  1   
 21  10  12  1   
 22  10  34  1   
 23  10  35  1   
 24  11  36  1   
 25  11  37  1   
 26  12  38  1   
 27  12  39  1   
 28  13  17  1   
 29  13  18  ar  
 30  14  18  ar  
 31  14  40  1   
 32  15  19  2   
 33  15  20  am  
 34  16  21  1   
 35  16  41  1   
 36  16  42  1   
 37  17  22  2   
 38  18  23  1   
 39  20  24  1   
 40  20  43  1   
 41  21  25  ar  
 42  21  26  ar  
 43  22  23  1   
 44  23  44  1   
 45  24  45  1   
 46  24  46  1   
 47  24  47  1   
 48  25  27  ar  
 49  25  48  1   
 50  26  28  ar  
 51  26  49  1   
 52  27  29  ar  
 53  27  50  1   
 54  28  29  ar  
 55  28  51  1   
 56  29  52  1   
@<TRIPOS>SUBSTRUCTURE
  1 ****   3 GROUP 4 **** **** 0

# MOE 2024.06 (io_trps.svl 2023.06)
