@<TRIPOS>MOLECULE
NONAME
36 38 1 0 0 
SMALL
USER_CHARGES


@<TRIPOS>ATOM
  1 CL      -0.3910     0.1670    -0.2580 Cl    1 <1>  -0.1770 
  2 C       -1.8660    -0.7650    -0.1230 C.ar  1 <1>   0.1770 
  3 C       -1.8340    -2.1010     0.1940 C.ar  1 <1>   0.1600 
  4 C       -3.0930    -0.1850    -0.3320 C.ar  1 <1>   0.1600 
  5 N       -2.9340    -2.8130     0.2970 N.ar  1 <1>  -0.6200 
  6 N       -4.2100    -0.8730    -0.2350 N.ar  1 <1>  -0.6200 
  7 C       -4.0800    -2.1650     0.0770 C.ar  1 <1>   0.7200 
  8 N       -5.2360    -2.8950     0.1890 N.pl3 1 <1>  -0.8380 
  9 C       -6.5670    -2.3560    -0.1930 C.3   1 <1>   0.2090 
 10 C       -5.2550    -4.3810     0.1100 C.3   1 <1>   0.2090 
 11 C       -7.5220    -3.5240     0.0470 C.3   1 <1>   0.2000 
 12 C       -6.6780    -4.7440    -0.3280 C.3   1 <1>  -0.0800 
 13 O       -7.8100    -3.5630     1.4050 O.3   1 <1>  -0.6800 
 14 C       -7.1720    -6.0920     0.2290 C.3   1 <1>   0.0210 
 15 C       -6.2400    -7.2200    -0.1740 C.2   1 <1>   0.1080 
 16 N       -5.9580    -7.4940    -1.4100 N.2   1 <1>  -0.7070 
 17 C       -5.5850    -8.0660     0.7140 C.2   1 <1>  -0.1500 
 18 N       -5.1070    -8.5350    -1.3420 N.pl3 1 <1>   0.3000 
 19 C       -4.8640    -8.8990    -0.0650 C.2   1 <1>  -0.3320 
 20 C       -3.9450   -10.0370     0.3380 C.3   1 <1>  -0.0600 
 21 H       -0.8890    -2.5860     0.3640 H     1 <1>   0.1500 
 22 H       -3.1520     0.8600    -0.5810 H     1 <1>   0.1500 
 23 H       -6.8300    -1.4920     0.3930 H     1 <1>   0.0800 
 24 H       -6.5550    -2.0940    -1.2370 H     1 <1>   0.0800 
 25 H       -4.5310    -4.7460    -0.6000 H     1 <1>   0.0800 
 26 H       -5.0330    -4.7860     1.0820 H     1 <1>   0.0800 
 27 H       -8.4430    -3.4470    -0.5040 H     1 <1>   0.0800 
 28 H       -6.6670    -4.8150    -1.4010 H     1 <1>   0.0800 
 29 H       -6.9710    -3.3950     1.8840 H     1 <1>   0.4000 
 30 H       -8.1530    -6.3020    -0.1560 H     1 <1>   0.0800 
 31 H       -7.2350    -6.0590     1.3010 H     1 <1>   0.0800 
 32 H       -5.6570    -8.0370     1.7870 H     1 <1>   0.1500 
 33 H       -4.7100    -8.9720    -2.1820 H     1 <1>   0.2700 
 34 H       -3.9200   -10.1310     1.4090 H     1 <1>   0.0800 
 35 H       -2.9460    -9.8510    -0.0130 H     1 <1>   0.0800 
 36 H       -4.2970   -10.9640    -0.0790 H     1 <1>   0.0800 
@<TRIPOS>BOND
  1   1   2  1   
  2   2   3  ar  
  3   2   4  ar  
  4   3   5  ar  
  5   3  21  1   
  6   4   6  ar  
  7   4  22  1   
  8   5   7  ar  
  9   6   7  ar  
 10   7   8  1   
 11   8   9  1   
 12   8  10  1   
 13   9  11  1   
 14   9  23  1   
 15   9  24  1   
 16  10  12  1   
 17  10  25  1   
 18  10  26  1   
 19  11  12  1   
 20  11  13  1   
 21  11  27  1   
 22  12  14  1   
 23  12  28  1   
 24  13  29  1   
 25  14  15  1   
 26  14  30  1   
 27  14  31  1   
 28  15  16  2   
 29  15  17  1   
 30  16  18  1   
 31  17  19  2   
 32  17  32  1   
 33  18  19  1   
 34  18  33  1   
 35  19  20  1   
 36  20  34  1   
 37  20  35  1   
 38  20  36  1   
@<TRIPOS>SUBSTRUCTURE
  1 ****  10 GROUP 4 **** **** 0

# MOE 2024.06 (io_trps.svl 2023.06)
