@<TRIPOS>MOLECULE
NONAME
55 57 1 0 0 
SMALL
USER_CHARGES


@<TRIPOS>ATOM
  1 O        0.4230     0.5860    -0.4970 O.2   1 <1>  -0.5700 
  2 C       -0.5210     1.0490     0.0950 C.2   1 <1>   0.5690 
  3 N       -1.6580     0.3570     0.4060 N.am  1 <1>  -0.5470 
  4 C       -0.4370     2.5010     0.4980 C.3   1 <1>  -0.0990 
  5 C       -2.0300    -0.9730     0.1530 C.ar  1 <1>   0.1170 
  6 C       -0.3690     3.3730    -0.7530 C.3   1 <1>   0.2090 
  7 C       -1.1220    -1.9760    -0.1730 C.ar  1 <1>  -0.1500 
  8 C       -3.3750    -1.3130     0.2460 C.ar  1 <1>  -0.1500 
  9 N       -0.0010     4.7550    -0.3660 N.pl3 1 <1>  -0.8690 
 10 C       -1.5470    -3.2710    -0.4050 C.ar  1 <1>  -0.1500 
 11 C       -3.8020    -2.6080     0.0150 C.ar  1 <1>  -0.1500 
 12 C        1.2200     5.3050    -0.2800 C.ar  1 <1>   0.4100 
 13 C       -2.8900    -3.5970    -0.3140 C.ar  1 <1>  -0.1430 
 14 N        1.2320     6.5920    -0.0240 N.ar  1 <1>  -0.6200 
 15 C        2.4040     4.5630    -0.4450 C.ar  1 <1>  -0.1500 
 16 C       -3.3530    -5.0190    -0.5680 C.3   1 <1>  -0.0970 
 17 C        2.4060     7.2040     0.0610 C.ar  1 <1>   0.7710 
 18 C        3.5940     5.1990    -0.3470 C.ar  1 <1>   0.2180 
 19 N        3.5610     6.5290    -0.0930 N.ar  1 <1>  -0.1790 
 20 N        2.4470     8.5410     0.3160 N.pl3 1 <1>  -0.8380 
 21 C        4.9400     4.5020    -0.5020 C.3   1 <1>  -0.0170 
 22 C        1.1990     9.3270     0.6470 C.3   1 <1>   0.2090 
 23 C        3.6510     9.4450     0.2930 C.3   1 <1>   0.2090 
 24 C        5.7790     4.5670     0.7810 C.3   1 <1>  -0.2400 
 25 C        1.0780    10.5820    -0.2350 C.3   1 <1>   0.1200 
 26 C        3.3940    10.6910    -0.5780 C.3   1 <1>   0.1200 
 27 O        2.2420    11.3530    -0.1540 O.3   1 <1>  -0.5600 
 28 H       -2.3740     0.8950     0.8870 H     1 <1>   0.3700 
 29 H        0.4570     2.6280     1.0800 H     1 <1>   0.0800 
 30 H       -1.2830     2.7810     1.0970 H     1 <1>   0.0800 
 31 H       -1.3230     3.3780    -1.2540 H     1 <1>   0.0800 
 32 H        0.3590     2.9810    -1.4440 H     1 <1>   0.0800 
 33 H       -0.0740    -1.7550    -0.2440 H     1 <1>   0.1500 
 34 H       -4.1000    -0.5610     0.4970 H     1 <1>   0.1500 
 35 H       -0.7910     5.3890    -0.2080 H     1 <1>   0.4000 
 36 H       -0.8230    -4.0270    -0.6560 H     1 <1>   0.1500 
 37 H       -4.8490    -2.8460     0.0930 H     1 <1>   0.1500 
 38 H        2.3410     3.5080    -0.6390 H     1 <1>   0.1500 
 39 H       -2.7150    -5.4990    -1.2880 H     1 <1>   0.0800 
 40 H       -4.3580    -5.0260    -0.9490 H     1 <1>   0.0800 
 41 H       -3.3250    -5.5800     0.3490 H     1 <1>   0.0800 
 42 H        4.4080     7.0660     0.0270 H     1 <1>   0.4570 
 43 H        5.4870     4.9450    -1.3170 H     1 <1>   0.0800 
 44 H        4.7780     3.4670    -0.7540 H     1 <1>   0.0800 
 45 H        1.2380     9.6350     1.6780 H     1 <1>   0.0800 
 46 H        0.3060     8.7410     0.5240 H     1 <1>   0.0800 
 47 H        4.5200     8.9430    -0.0900 H     1 <1>   0.0800 
 48 H        3.8700     9.7720     1.2960 H     1 <1>   0.0800 
 49 H        6.0380     5.5790     1.0360 H     1 <1>   0.0800 
 50 H        6.6930     4.0140     0.6460 H     1 <1>   0.0800 
 51 H        5.2430     4.1260     1.6040 H     1 <1>   0.0800 
 52 H        0.2570    11.1910     0.1000 H     1 <1>   0.0800 
 53 H        0.9100    10.3110    -1.2630 H     1 <1>   0.0800 
 54 H        3.2750    10.4220    -1.6130 H     1 <1>   0.0800 
 55 H        4.2150    11.3820    -0.4930 H     1 <1>   0.0800 
@<TRIPOS>BOND
  1   1   2  2   
  2   2   3  am  
  3   2   4  1   
  4   3   5  1   
  5   3  28  1   
  6   4   6  1   
  7   4  29  1   
  8   4  30  1   
  9   5   7  ar  
 10   5   8  ar  
 11   6   9  1   
 12   6  31  1   
 13   6  32  1   
 14   7  10  ar  
 15   7  33  1   
 16   8  11  ar  
 17   8  34  1   
 18   9  12  1   
 19   9  35  1   
 20  10  13  ar  
 21  10  36  1   
 22  11  13  ar  
 23  11  37  1   
 24  12  14  ar  
 25  12  15  ar  
 26  13  16  1   
 27  14  17  ar  
 28  15  18  ar  
 29  15  38  1   
 30  16  39  1   
 31  16  40  1   
 32  16  41  1   
 33  17  19  ar  
 34  17  20  1   
 35  18  19  ar  
 36  18  21  1   
 37  19  42  1   
 38  20  22  1   
 39  20  23  1   
 40  21  24  1   
 41  21  43  1   
 42  21  44  1   
 43  22  25  1   
 44  22  45  1   
 45  22  46  1   
 46  23  26  1   
 47  23  47  1   
 48  23  48  1   
 49  24  49  1   
 50  24  50  1   
 51  24  51  1   
 52  25  27  1   
 53  25  52  1   
 54  25  53  1   
 55  26  27  1   
 56  26  54  1   
 57  26  55  1   
@<TRIPOS>SUBSTRUCTURE
  1 ****   6 GROUP 4 **** **** 0

# MOE 2024.06 (io_trps.svl 2023.06)
