@<TRIPOS>MOLECULE
NONAME
50 54 1 0 0 
SMALL
USER_CHARGES


@<TRIPOS>ATOM
  1 O       -1.2240    -0.8890     2.1850 O.3   1 <1>  -0.0190 
  2 N       -0.2660    -0.0400     2.4030 N.2   1 <1>  -0.4100 
  3 C       -0.7360    -1.6930     1.2710 C.2   1 <1>   0.2980 
  4 C        0.7020    -0.3710     1.6480 C.2   1 <1>   0.3350 
  5 N        0.4570    -1.4360     0.9020 N.2   1 <1>  -0.5650 
  6 C       -1.6000    -2.8510     0.7730 C.3   1 <1>   0.2900 
  7 C        2.0290     0.3430     1.5680 C.3   1 <1>  -0.0590 
  8 N       -2.6300    -2.4620    -0.2250 N.3   1 <1>  -0.8100 
  9 C       -3.7150    -1.6460     0.3730 C.3   1 <1>   0.1100 
 10 C       -3.1760    -3.6470    -0.9030 C.3   1 <1>   0.1100 
 11 C       -4.7020    -1.1410    -0.6980 C.3   1 <1>   0.1430 
 12 C       -4.1310    -3.2250    -2.0260 C.3   1 <1>  -0.1600 
 13 C       -5.7890    -0.3310    -0.0140 C.ar  1 <1>   0.1670 
 14 C       -5.2660    -2.3380    -1.4910 C.3   1 <1>  -0.1600 
 15 C       -4.0330    -0.0880    -1.6220 C.3   1 <1>  -0.1600 
 16 N       -6.7710    -0.8220     0.7040 N.ar  1 <1>  -0.6200 
 17 C       -5.6200     1.0040    -0.2190 C.ar  1 <1>  -0.1440 
 18 C       -4.4030     1.2950    -1.0610 C.3   1 <1>  -0.0170 
 19 C       -7.6220     0.0740     1.2230 C.ar  1 <1>   0.6200 
 20 C       -6.5300     1.8570     0.3480 C.ar  1 <1>   0.1600 
 21 N       -7.5330     1.4030     1.0650 N.ar  1 <1>  -0.6200 
 22 C       -8.7290    -0.4370     2.0210 C.ar  1 <1>   0.0000 
 23 C       -9.9360     0.2600     2.1330 C.ar  1 <1>  -0.1500 
 24 C       -8.6370    -1.6480     2.7140 C.ar  1 <1>  -0.1500 
 25 C      -10.9890    -0.2220     2.8890 C.ar  1 <1>  -0.1500 
 26 C       -9.6850    -2.1360     3.4720 C.ar  1 <1>  -0.1500 
 27 C      -10.8660    -1.4230     3.5620 C.ar  1 <1>  -0.1500 
 28 H       -2.0680    -3.3300     1.6140 H     1 <1>   0.0800 
 29 H       -0.9330    -3.5620     0.3180 H     1 <1>   0.0800 
 30 H        2.0400     1.1780     2.2440 H     1 <1>   0.0800 
 31 H        2.1860     0.6960     0.5660 H     1 <1>   0.0800 
 32 H        2.8190    -0.3350     1.8310 H     1 <1>   0.0800 
 33 H       -3.3020    -0.7890     0.8730 H     1 <1>   0.0800 
 34 H       -4.2520    -2.2310     1.1010 H     1 <1>   0.0800 
 35 H       -3.6990    -4.2670    -0.1940 H     1 <1>   0.0800 
 36 H       -2.3710    -4.2210    -1.3310 H     1 <1>   0.0800 
 37 H       -4.5480    -4.1020    -2.4860 H     1 <1>   0.0800 
 38 H       -3.5710    -2.6960    -2.7770 H     1 <1>   0.0800 
 39 H       -5.8870    -1.9930    -2.2980 H     1 <1>   0.0800 
 40 H       -5.8850    -2.9270    -0.8360 H     1 <1>   0.0800 
 41 H       -4.4420    -0.1690    -2.6130 H     1 <1>   0.0800 
 42 H       -2.9670    -0.2190    -1.6860 H     1 <1>   0.0800 
 43 H       -4.6170     1.9970    -1.8480 H     1 <1>   0.0800 
 44 H       -3.6120     1.6730    -0.4370 H     1 <1>   0.0800 
 45 H       -6.4360     2.9210     0.2140 H     1 <1>   0.1500 
 46 H      -10.0510     1.1960     1.6150 H     1 <1>   0.1500 
 47 H       -7.7250    -2.2180     2.6580 H     1 <1>   0.1500 
 48 H      -11.9050     0.3400     2.9540 H     1 <1>   0.1500 
 49 H       -9.5820    -3.0720     3.9930 H     1 <1>   0.1500 
 50 H      -11.6840    -1.8000     4.1510 H     1 <1>   0.1500 
@<TRIPOS>BOND
  1   1   2  1   
  2   1   3  1   
  3   2   4  2   
  4   3   5  2   
  5   3   6  1   
  6   4   5  1   
  7   4   7  1   
  8   6   8  1   
  9   6  28  1   
 10   6  29  1   
 11   7  30  1   
 12   7  31  1   
 13   7  32  1   
 14   8   9  1   
 15   8  10  1   
 16   9  11  1   
 17   9  33  1   
 18   9  34  1   
 19  10  12  1   
 20  10  35  1   
 21  10  36  1   
 22  11  13  1   
 23  11  14  1   
 24  11  15  1   
 25  12  14  1   
 26  12  37  1   
 27  12  38  1   
 28  13  16  ar  
 29  13  17  ar  
 30  14  39  1   
 31  14  40  1   
 32  15  18  1   
 33  15  41  1   
 34  15  42  1   
 35  16  19  ar  
 36  17  18  1   
 37  17  20  ar  
 38  18  43  1   
 39  18  44  1   
 40  19  21  ar  
 41  19  22  1   
 42  20  21  ar  
 43  20  45  1   
 44  22  23  ar  
 45  22  24  ar  
 46  23  25  ar  
 47  23  46  1   
 48  24  26  ar  
 49  24  47  1   
 50  25  27  ar  
 51  25  48  1   
 52  26  27  ar  
 53  26  49  1   
 54  27  50  1   
@<TRIPOS>SUBSTRUCTURE
  1 ****  13 GROUP 4 **** **** 0

# MOE 2024.06 (io_trps.svl 2023.06)
