@<TRIPOS>MOLECULE
NONAME
44 47 1 0 0 
SMALL
USER_CHARGES


@<TRIPOS>ATOM
  1 N        0.6760    -0.0650     0.9930 N.ar  1 <1>  -0.6200 
  2 C        1.5800    -0.7820     0.3670 C.ar  1 <1>   0.4100 
  3 C       -0.1500    -0.7140     1.8300 C.ar  1 <1>   0.4700 
  4 N        2.4220    -0.1310    -0.5280 N.pl3 1 <1>  -0.8380 
  5 C        1.6950    -2.1570     0.6440 C.ar  1 <1>   0.0000 
  6 N       -0.1470    -1.9820     2.1460 N.ar  1 <1>  -0.5670 
  7 C        2.4630     1.3760    -0.6230 C.3   1 <1>   0.2090 
  8 C        2.8540    -0.8360    -1.7770 C.3   1 <1>   0.1290 
  9 C        0.8050    -2.6930     1.5300 C.ar  1 <1>   0.1050 
 10 C        2.5120    -3.2470     0.2930 C.2   1 <1>   0.1390 
 11 C        3.8600     1.9650    -0.2890 C.3   1 <1>   0.4230 
 12 N        1.1040    -4.0100     1.6430 N.pl3 1 <1>   0.3000 
 13 N        2.1740    -4.3480     0.8790 N.2   1 <1>  -0.7070 
 14 N        4.2340     1.9790     1.1750 N.4   1 <1>  -0.9590 
 15 C        3.9560     3.3990    -0.8290 C.3   1 <1>  -0.0170 
 16 C        5.6850     2.2760     1.3150 C.3   1 <1>   0.4860 
 17 C        3.8830     0.7320     1.9220 C.3   1 <1>   0.2630 
 18 C        5.2280     4.1070    -0.3880 C.ar  1 <1>  -0.1430 
 19 C        6.0280     3.5840     0.6230 C.ar  1 <1>  -0.1430 
 20 C        5.5830     5.2980    -1.0000 C.ar  1 <1>  -0.1500 
 21 C        7.1740     4.2640     1.0080 C.ar  1 <1>  -0.1500 
 22 C        6.7270     5.9700    -0.6120 C.ar  1 <1>  -0.1500 
 23 C        7.5230     5.4530     0.3930 C.ar  1 <1>  -0.1500 
 24 H       -0.9040    -0.1030     2.2990 H     1 <1>   0.1500 
 25 H        1.7350     1.8410     0.0170 H     1 <1>   0.0800 
 26 H        2.1970     1.6540    -1.6280 H     1 <1>   0.0800 
 27 H        2.2170    -1.6820    -1.9720 H     1 <1>   0.0800 
 28 H        3.8700    -1.1770    -1.6740 H     1 <1>   0.0800 
 29 H        2.7910    -0.1830    -2.6300 H     1 <1>   0.0800 
 30 H        3.3420    -3.1790    -0.3880 H     1 <1>   0.1500 
 31 H        4.5850     1.3710    -0.8200 H     1 <1>   0.0800 
 32 H        0.5940    -4.6740     2.2350 H     1 <1>   0.2700 
 33 H        3.7390     2.7700     1.6040 H     1 <1>   0.4500 
 34 H        3.1090     3.9720    -0.4950 H     1 <1>   0.0800 
 35 H        3.9240     3.3700    -1.9050 H     1 <1>   0.0800 
 36 H        6.2670     1.4820     0.8770 H     1 <1>   0.0800 
 37 H        5.9440     2.3500     2.3590 H     1 <1>   0.0800 
 38 H        4.2710    -0.1340     1.4110 H     1 <1>   0.0800 
 39 H        2.8130     0.6330     1.9920 H     1 <1>   0.0800 
 40 H        4.2840     0.7620     2.9210 H     1 <1>   0.0800 
 41 H        4.9730     5.7170    -1.7830 H     1 <1>   0.1500 
 42 H        7.8110     3.8820     1.7880 H     1 <1>   0.1500 
 43 H        6.9990     6.8950    -1.0910 H     1 <1>   0.1500 
 44 H        8.4140     5.9780     0.6940 H     1 <1>   0.1500 
@<TRIPOS>BOND
  1   1   2  ar  
  2   1   3  ar  
  3   2   4  1   
  4   2   5  ar  
  5   3   6  ar  
  6   3  24  1   
  7   4   7  1   
  8   4   8  1   
  9   5   9  ar  
 10   5  10  1   
 11   6   9  ar  
 12   7  11  1   
 13   7  25  1   
 14   7  26  1   
 15   8  27  1   
 16   8  28  1   
 17   8  29  1   
 18   9  12  1   
 19  10  13  2   
 20  10  30  1   
 21  11  14  1   
 22  11  15  1   
 23  11  31  1   
 24  12  13  1   
 25  12  32  1   
 26  14  16  1   
 27  14  17  1   
 28  14  33  1   
 29  15  18  1   
 30  15  34  1   
 31  15  35  1   
 32  16  19  1   
 33  16  36  1   
 34  16  37  1   
 35  17  38  1   
 36  17  39  1   
 37  17  40  1   
 38  18  19  ar  
 39  18  20  ar  
 40  19  21  ar  
 41  20  22  ar  
 42  20  41  1   
 43  21  23  ar  
 44  21  42  1   
 45  22  23  ar  
 46  22  43  1   
 47  23  44  1   
@<TRIPOS>SUBSTRUCTURE
  1 ****  11 GROUP 4 **** **** 0

# MOE 2024.06 (io_trps.svl 2023.06)
