@<TRIPOS>MOLECULE
NONAME
37 37 1 0 0 
SMALL
USER_CHARGES


@<TRIPOS>ATOM
  1 O        0.8040    -0.5800    -0.4970 O.co2 1 <1>  -0.9000 
  2 C        0.0730    -1.3240     0.1810 C.2   1 <1>   0.9060 
  3 O        0.3070    -1.5080     1.3860 O.co2 1 <1>  -0.9000 
  4 C       -1.1630    -1.9550    -0.5430 C.3   1 <1>   0.2280 
  5 N       -2.4660    -1.2180    -0.4580 N.3   1 <1>  -0.9000 
  6 C       -1.4470    -3.4220    -0.2080 C.ar  1 <1>  -0.1430 
  7 C       -2.2790     0.2130    -0.8130 C.3   1 <1>   0.1710 
  8 C       -1.7310    -3.8060     1.0940 C.ar  1 <1>  -0.1500 
  9 C       -1.4390    -4.3870    -1.2060 C.ar  1 <1>  -0.1500 
 10 C       -3.5770     1.0080    -0.9700 C.2   1 <1>   0.6590 
 11 C       -2.0030    -5.1290     1.3970 C.ar  1 <1>  -0.1500 
 12 C       -1.7110    -5.7110    -0.9070 C.ar  1 <1>  -0.1500 
 13 O       -4.1330     1.0900    -2.0380 O.2   1 <1>  -0.5700 
 14 O       -4.0340     1.5970     0.1330 O.3   1 <1>  -0.4300 
 15 C       -1.9950    -6.0840     0.3960 C.ar  1 <1>  -0.1500 
 16 C       -5.2080     2.3600     0.2880 C.3   1 <1>   0.2800 
 17 C       -5.1360     3.6160    -0.5870 C.3   1 <1>  -0.2400 
 18 C       -6.4350     1.4980    -0.0290 C.3   1 <1>  -0.2400 
 19 C       -5.2350     2.7640     1.7620 C.3   1 <1>  -0.2400 
 20 H       -0.8740    -1.9350    -1.5770 H     1 <1>   0.0800 
 21 H       -3.1030    -1.6590    -1.1280 H     1 <1>   0.3600 
 22 H       -1.6840     0.6880    -0.0510 H     1 <1>   0.0800 
 23 H       -1.7350     0.2820    -1.7390 H     1 <1>   0.0800 
 24 H       -1.7300    -3.0570     1.8690 H     1 <1>   0.1500 
 25 H       -1.2180    -4.1060    -2.2200 H     1 <1>   0.1500 
 26 H       -2.2170    -5.4060     2.4130 H     1 <1>   0.1500 
 27 H       -1.7010    -6.4500    -1.6880 H     1 <1>   0.1500 
 28 H       -2.2050    -7.1110     0.6310 H     1 <1>   0.1500 
 29 H       -5.9720     4.2580    -0.3770 H     1 <1>   0.0800 
 30 H       -5.1740     3.3620    -1.6310 H     1 <1>   0.0800 
 31 H       -4.2300     4.1580    -0.3880 H     1 <1>   0.0800 
 32 H       -7.3340     2.0350     0.2120 H     1 <1>   0.0800 
 33 H       -6.4120     0.5920     0.5500 H     1 <1>   0.0800 
 34 H       -6.4720     1.2480    -1.0730 H     1 <1>   0.0800 
 35 H       -6.1080     3.3530     1.9740 H     1 <1>   0.0800 
 36 H       -4.3640     3.3460     2.0040 H     1 <1>   0.0800 
 37 H       -5.2530     1.8880     2.3860 H     1 <1>   0.0800 
@<TRIPOS>BOND
  1   1   2  ar  
  2   2   3  ar  
  3   2   4  1   
  4   4   5  1   
  5   4   6  1   
  6   4  20  1   
  7   5   7  1   
  8   5  21  1   
  9   6   8  ar  
 10   6   9  ar  
 11   7  10  1   
 12   7  22  1   
 13   7  23  1   
 14   8  11  ar  
 15   8  24  1   
 16   9  12  ar  
 17   9  25  1   
 18  10  13  2   
 19  10  14  1   
 20  11  15  ar  
 21  11  26  1   
 22  12  15  ar  
 23  12  27  1   
 24  14  16  1   
 25  15  28  1   
 26  16  17  1   
 27  16  18  1   
 28  16  19  1   
 29  17  29  1   
 30  17  30  1   
 31  17  31  1   
 32  18  32  1   
 33  18  33  1   
 34  18  34  1   
 35  19  35  1   
 36  19  36  1   
 37  19  37  1   
@<TRIPOS>SUBSTRUCTURE
  1 ****   5 GROUP 4 **** **** 0

# MOE 2024.06 (io_trps.svl 2023.06)
