@<TRIPOS>MOLECULE
NONAME
39 41 1 0 0 
SMALL
USER_CHARGES


@<TRIPOS>ATOM
  1 O        0.8020     0.8670     0.4230 O.2   1 <1>  -0.5700 
  2 C        1.9110     0.5440     0.0590 C.2   1 <1>   0.7800 
  3 O        2.2340    -0.7200    -0.1790 O.3   1 <1>  -0.4300 
  4 N        2.9680     1.3670    -0.1090 N.am  1 <1>  -0.6600 
  5 C        3.5910    -0.8230    -0.5680 C.3   1 <1>   0.1200 
  6 C        4.1820     0.5750    -0.3290 C.3   1 <1>   0.2200 
  7 C        3.1100     2.7540     0.4060 C.3   1 <1>   0.1400 
  8 C        5.1010     0.6280     0.9130 C.3   1 <1>   0.2090 
  9 C        4.0660     2.8010     1.6140 C.3   1 <1>   0.2090 
 10 N        5.3330     2.0330     1.3670 N.pl3 1 <1>  -0.8380 
 11 C        6.4440     2.6940     0.9010 C.ar  1 <1>   0.4100 
 12 N        6.2520     3.6580     0.0080 N.ar  1 <1>  -0.6200 
 13 C        7.7080     2.3330     1.3560 C.ar  1 <1>  -0.1500 
 14 C        7.3380     4.2710    -0.4310 C.ar  1 <1>   0.1600 
 15 C        8.8260     2.9820     0.8890 C.ar  1 <1>  -0.1500 
 16 C        8.6510     4.0050    -0.0410 C.ar  1 <1>   0.0860 
 17 C        9.7490     4.7660    -0.5930 C.2   1 <1>   0.5440 
 18 O        9.6210     5.3530    -1.6500 O.2   1 <1>  -0.5700 
 19 N       10.9460     4.8580     0.0640 N.am  1 <1>  -0.7300 
 20 C       12.1300     5.5890    -0.4270 C.3   1 <1>   0.1400 
 21 C       13.3800     4.8130    -0.0280 C.3   1 <1>  -0.2400 
 22 H        3.6220    -1.0800    -1.6120 H     1 <1>   0.0800 
 23 H        4.0700    -1.5880     0.0160 H     1 <1>   0.0800 
 24 H        4.7130     0.9280    -1.1960 H     1 <1>   0.0800 
 25 H        2.1460     3.1390     0.6900 H     1 <1>   0.0800 
 26 H        3.5030     3.3780    -0.3770 H     1 <1>   0.0800 
 27 H        6.0400     0.1590     0.6800 H     1 <1>   0.0800 
 28 H        4.6470     0.0780     1.7190 H     1 <1>   0.0800 
 29 H        3.5680     2.3860     2.4720 H     1 <1>   0.0800 
 30 H        4.3020     3.8270     1.8390 H     1 <1>   0.0800 
 31 H        7.7860     1.5450     2.0800 H     1 <1>   0.1500 
 32 H        7.1860     5.0520    -1.1580 H     1 <1>   0.1500 
 33 H        9.8060     2.7030     1.2300 H     1 <1>   0.1500 
 34 H       11.0250     4.4910     1.0120 H     1 <1>   0.3700 
 35 H       12.1460     6.5750     0.0060 H     1 <1>   0.0800 
 36 H       12.0830     5.6870    -1.4990 H     1 <1>   0.0800 
 37 H       13.4510     4.7350     1.0410 H     1 <1>   0.0800 
 38 H       14.2520     5.3280    -0.3900 H     1 <1>   0.0800 
 39 H       13.3600     3.8310    -0.4640 H     1 <1>   0.0800 
@<TRIPOS>BOND
  1   1   2  2   
  2   2   3  1   
  3   2   4  am  
  4   3   5  1   
  5   4   6  1   
  6   4   7  1   
  7   5   6  1   
  8   5  22  1   
  9   5  23  1   
 10   6   8  1   
 11   6  24  1   
 12   7   9  1   
 13   7  25  1   
 14   7  26  1   
 15   8  10  1   
 16   8  27  1   
 17   8  28  1   
 18   9  10  1   
 19   9  29  1   
 20   9  30  1   
 21  10  11  1   
 22  11  12  ar  
 23  11  13  ar  
 24  12  14  ar  
 25  13  15  ar  
 26  13  31  1   
 27  14  16  ar  
 28  14  32  1   
 29  15  16  ar  
 30  15  33  1   
 31  16  17  1   
 32  17  18  2   
 33  17  19  am  
 34  19  20  1   
 35  19  34  1   
 36  20  21  1   
 37  20  35  1   
 38  20  36  1   
 39  21  37  1   
 40  21  38  1   
 41  21  39  1   
@<TRIPOS>SUBSTRUCTURE
  1 ****  11 GROUP 4 **** **** 0

# MOE 2024.06 (io_trps.svl 2023.06)
