@<TRIPOS>MOLECULE
NONAME
49 52 1 0 0 
SMALL
USER_CHARGES


@<TRIPOS>ATOM
  1 O       -1.2230     1.0910    -1.8910 O.2   1 <1>  -0.5700 
  2 C       -2.0000     1.2680    -0.9790 C.2   1 <1>   0.6300 
  3 N       -3.2540     0.7070    -0.9720 N.am  1 <1>  -0.6600 
  4 C       -1.5160     2.1230     0.1780 C.3   1 <1>   0.0000 
  5 C       -3.7200    -0.1740    -2.0780 C.3   1 <1>   0.1400 
  6 C       -4.2100     0.7710     0.1700 C.3   1 <1>   0.1400 
  7 C       -0.9660     1.2190     1.2610 C.2   1 <1>   0.6300 
  8 C       -0.7980     3.4200    -0.1060 C.3   1 <1>  -0.2000 
  9 C       -2.1650     3.4470     0.4970 C.3   1 <1>  -0.2000 
 10 C       -3.9100    -1.5970    -1.5430 C.3   1 <1>  -0.1600 
 11 C       -4.4000    -0.6340     0.7440 C.3   1 <1>  -0.1600 
 12 O       -1.5430     1.1030     2.3130 O.2   1 <1>  -0.5700 
 13 N        0.1790     0.5490     1.0370 N.am  1 <1>  -0.8000 
 14 C       -4.8600    -1.6390    -0.3320 C.3   1 <1>   0.4240 
 15 O       -6.0800    -1.1490    -0.8480 O.3   1 <1>  -0.5600 
 16 C       -5.0130    -3.0840     0.2250 C.ar  1 <1>  -0.1440 
 17 C       -7.2480    -1.4610    -0.1620 C.3   1 <1>   0.1200 
 18 C       -3.9250    -3.8030     0.7410 C.ar  1 <1>   0.0820 
 19 C       -6.2640    -3.6990     0.2290 C.ar  1 <1>  -0.1440 
 20 C       -7.4810    -2.9580    -0.2860 C.3   1 <1>  -0.0170 
 21 O       -2.7010    -3.2150     0.7730 O.3   1 <1>  -0.3620 
 22 C       -4.1030    -5.1010     1.2160 C.ar  1 <1>  -0.1500 
 23 C       -6.4290    -4.9890     0.7060 C.ar  1 <1>  -0.1500 
 24 C       -1.6290    -3.7350     1.5270 C.3   1 <1>   0.0400 
 25 C       -5.3490    -5.6920     1.1980 C.ar  1 <1>  -0.1500 
 26 H       -3.0080    -0.1840    -2.8850 H     1 <1>   0.0800 
 27 H       -4.6510     0.2050    -2.4630 H     1 <1>   0.0800 
 28 H       -5.1520     1.1550    -0.1820 H     1 <1>   0.0800 
 29 H       -3.8570     1.4230     0.9470 H     1 <1>   0.0800 
 30 H       -0.6740     3.7210    -1.1320 H     1 <1>   0.1000 
 31 H        0.0420     3.6930     0.5100 H     1 <1>   0.1000 
 32 H       -2.2770     3.7200     1.5320 H     1 <1>   0.1000 
 33 H       -2.9910     3.7750    -0.1100 H     1 <1>   0.1000 
 34 H       -2.9430    -1.9770    -1.2860 H     1 <1>   0.0800 
 35 H       -4.3040    -2.2280    -2.3180 H     1 <1>   0.0800 
 36 H       -5.1040    -0.6110     1.5520 H     1 <1>   0.0800 
 37 H       -3.4620    -0.9390     1.1640 H     1 <1>   0.0800 
 38 H        0.5500    -0.0780     1.7490 H     1 <1>   0.3700 
 39 H        0.6330     0.5440     0.1220 H     1 <1>   0.3700 
 40 H       -8.0550    -0.9130    -0.6160 H     1 <1>   0.0800 
 41 H       -7.1500    -1.1640     0.8680 H     1 <1>   0.0800 
 42 H       -7.6540    -3.2120    -1.3160 H     1 <1>   0.0800 
 43 H       -8.3520    -3.2280     0.2830 H     1 <1>   0.0800 
 44 H       -3.2820    -5.6720     1.6030 H     1 <1>   0.1500 
 45 H       -7.4010    -5.4530     0.6950 H     1 <1>   0.1500 
 46 H       -0.8240    -3.0230     1.4940 H     1 <1>   0.0800 
 47 H       -1.3120    -4.6640     1.0900 H     1 <1>   0.0800 
 48 H       -1.9520    -3.8730     2.5440 H     1 <1>   0.0800 
 49 H       -5.4800    -6.6950     1.5650 H     1 <1>   0.1500 
@<TRIPOS>BOND
  1   1   2  2   
  2   2   3  am  
  3   2   4  1   
  4   3   5  1   
  5   3   6  1   
  6   4   7  1   
  7   4   8  1   
  8   4   9  1   
  9   5  10  1   
 10   5  26  1   
 11   5  27  1   
 12   6  11  1   
 13   6  28  1   
 14   6  29  1   
 15   7  12  2   
 16   7  13  am  
 17   8   9  1   
 18   8  30  1   
 19   8  31  1   
 20   9  32  1   
 21   9  33  1   
 22  10  14  1   
 23  10  34  1   
 24  10  35  1   
 25  11  14  1   
 26  11  36  1   
 27  11  37  1   
 28  13  38  1   
 29  13  39  1   
 30  14  15  1   
 31  14  16  1   
 32  15  17  1   
 33  16  18  ar  
 34  16  19  ar  
 35  17  20  1   
 36  17  40  1   
 37  17  41  1   
 38  18  21  1   
 39  18  22  ar  
 40  19  20  1   
 41  19  23  ar  
 42  20  42  1   
 43  20  43  1   
 44  21  24  1   
 45  22  25  ar  
 46  22  44  1   
 47  23  25  ar  
 48  23  45  1   
 49  24  46  1   
 50  24  47  1   
 51  24  48  1   
 52  25  49  1   
@<TRIPOS>SUBSTRUCTURE
  1 ****  11 GROUP 4 **** **** 0

# MOE 2024.06 (io_trps.svl 2023.06)
