@<TRIPOS>MOLECULE
NONAME
49 51 1 0 0 
SMALL
USER_CHARGES


@<TRIPOS>ATOM
  1 O       -2.5240     0.0640    -0.3470 O.2   1 <1>  -0.5700 
  2 C       -2.4400     1.2190     0.0410 C.2   1 <1>   0.7160 
  3 N       -2.4490     1.4700     1.3970 N.am  1 <1>  -0.6600 
  4 C       -2.3630     2.2870    -0.9240 C.2   1 <1>  -0.0860 
  5 C       -2.1390     0.3880     2.3830 C.3   1 <1>   0.1400 
  6 C       -3.1150     2.6790     1.9620 C.3   1 <1>   0.1400 
  7 C       -1.5380     3.4130    -0.8400 C.2   1 <1>   0.1390 
  8 C       -3.0120     2.4700    -2.1090 C.2   1 <1>  -0.3020 
  9 C       -3.3690    -0.1000     3.1770 C.3   1 <1>   0.1400 
 10 C       -4.6430     2.5580     1.8580 C.3   1 <1>  -0.1600 
 11 N       -1.6710     4.2190    -1.8450 N.2   1 <1>  -0.7070 
 12 N       -2.5840     3.6280    -2.6350 N.pl3 1 <1>   0.3000 
 13 N       -4.6640     0.1400     2.4660 N.am  1 <1>  -0.6600 
 14 C       -5.2670     1.4730     2.7470 C.3   1 <1>   0.1400 
 15 C       -5.2220    -0.6960     1.5330 C.2   1 <1>   0.5690 
 16 O       -6.3010    -0.4590     1.0300 O.2   1 <1>  -0.5700 
 17 C       -4.5290    -1.9760     1.0700 C.3   1 <1>  -0.0190 
 18 C       -4.6210    -2.0410    -0.4620 C.3   1 <1>   0.3430 
 19 C       -5.1470    -3.2210     1.7560 C.3   1 <1>  -0.1600 
 20 N       -5.9780    -2.5240    -0.8530 N.4   1 <1>  -0.9590 
 21 C       -5.3830    -4.3670     0.7590 C.3   1 <1>  -0.1600 
 22 C       -6.2440    -3.9390    -0.4430 C.3   1 <1>   0.3430 
 23 C       -6.2630    -2.2780    -2.2930 C.3   1 <1>   0.2630 
 24 H       -1.3940     0.7440     3.0720 H     1 <1>   0.0800 
 25 H       -1.7020    -0.4520     1.8710 H     1 <1>   0.0800 
 26 H       -2.7970     3.5570     1.4280 H     1 <1>   0.0800 
 27 H       -2.8250     2.8090     2.9910 H     1 <1>   0.0800 
 28 H       -0.8570     3.5960    -0.0240 H     1 <1>   0.1500 
 29 H       -3.7380     1.8370    -2.5820 H     1 <1>   0.1500 
 30 H       -3.3890     0.4140     4.1230 H     1 <1>   0.0800 
 31 H       -3.2590    -1.1450     3.4060 H     1 <1>   0.0800 
 32 H       -4.9280     2.3880     0.8360 H     1 <1>   0.0800 
 33 H       -5.0720     3.5010     2.1450 H     1 <1>   0.0800 
 34 H       -2.8820     4.0450    -3.5260 H     1 <1>   0.2700 
 35 H       -6.3290     1.4380     2.5700 H     1 <1>   0.0800 
 36 H       -5.1270     1.7220     3.7850 H     1 <1>   0.0800 
 37 H       -3.4840    -1.9300     1.2990 H     1 <1>   0.0800 
 38 H       -3.8680    -2.7090    -0.8470 H     1 <1>   0.0800 
 39 H       -4.4440    -1.0580    -0.8690 H     1 <1>   0.0800 
 40 H       -6.0950    -2.9580     2.1990 H     1 <1>   0.0800 
 41 H       -4.5060    -3.5530     2.5550 H     1 <1>   0.0800 
 42 H       -6.6040    -1.9090    -0.2890 H     1 <1>   0.4500 
 43 H       -5.8640    -5.1910     1.2570 H     1 <1>   0.0800 
 44 H       -4.4360    -4.7300     0.3980 H     1 <1>   0.0800 
 45 H       -6.0430    -4.6060    -1.2660 H     1 <1>   0.0800 
 46 H       -7.2860    -4.0360    -0.1860 H     1 <1>   0.0800 
 47 H       -5.5990    -2.8600    -2.9110 H     1 <1>   0.0800 
 48 H       -6.1240    -1.2340    -2.5240 H     1 <1>   0.0800 
 49 H       -7.2810    -2.5470    -2.5230 H     1 <1>   0.0800 
@<TRIPOS>BOND
  1   1   2  2   
  2   2   3  am  
  3   2   4  1   
  4   3   5  1   
  5   3   6  1   
  6   4   7  1   
  7   4   8  2   
  8   5   9  1   
  9   5  24  1   
 10   5  25  1   
 11   6  10  1   
 12   6  26  1   
 13   6  27  1   
 14   7  11  2   
 15   7  28  1   
 16   8  12  1   
 17   8  29  1   
 18   9  13  1   
 19   9  30  1   
 20   9  31  1   
 21  10  14  1   
 22  10  32  1   
 23  10  33  1   
 24  11  12  1   
 25  12  34  1   
 26  13  14  1   
 27  13  15  am  
 28  14  35  1   
 29  14  36  1   
 30  15  16  2   
 31  15  17  1   
 32  17  18  1   
 33  17  19  1   
 34  17  37  1   
 35  18  20  1   
 36  18  38  1   
 37  18  39  1   
 38  19  21  1   
 39  19  40  1   
 40  19  41  1   
 41  20  22  1   
 42  20  23  1   
 43  20  42  1   
 44  21  22  1   
 45  21  43  1   
 46  21  44  1   
 47  22  45  1   
 48  22  46  1   
 49  23  47  1   
 50  23  48  1   
 51  23  49  1   
@<TRIPOS>SUBSTRUCTURE
  1 ****   1 GROUP 4 **** **** 0

# MOE 2024.06 (io_trps.svl 2023.06)
