@<TRIPOS>MOLECULE
NONAME
50 52 1 0 0 
SMALL
USER_CHARGES


@<TRIPOS>ATOM
  1 O       -0.6870     3.6210     3.7930 O.2   1 <1>  -0.5700 
  2 C       -0.6030     4.3130     2.8110 C.2   1 <1>   0.5690 
  3 N       -1.7050     4.6670     2.1170 N.am  1 <1>  -0.7300 
  4 C        0.7640     4.7740     2.3070 C.3   1 <1>   0.1810 
  5 C       -1.6720     5.4210     0.8380 C.3   1 <1>   0.3640 
  6 O        0.6700     5.9170     1.4890 O.3   1 <1>  -0.5600 
  7 C       -2.3760     4.5690    -0.2180 C.ar  1 <1>  -0.1440 
  8 C       -0.2300     5.7990     0.3890 C.3   1 <1>   0.2610 
  9 C       -2.0820     3.2180    -0.3680 C.ar  1 <1>  -0.1500 
 10 C       -3.3260     5.1420    -1.0510 C.ar  1 <1>  -0.1500 
 11 C       -0.2410     7.1050    -0.4200 C.2   1 <1>   0.5690 
 12 C       -2.7270     2.4580    -1.3280 C.ar  1 <1>  -0.1500 
 13 C       -3.9720     4.3840    -2.0120 C.ar  1 <1>  -0.1500 
 14 O       -1.0990     7.3040    -1.2470 O.2   1 <1>  -0.5700 
 15 N        0.7310     8.0240    -0.1950 N.am  1 <1>  -0.7300 
 16 C       -3.6740     3.0410    -2.1510 C.ar  1 <1>  -0.1500 
 17 C        0.9600     9.2510    -0.9690 C.3   1 <1>   0.3210 
 18 C        2.4440     9.3410    -1.2590 C.2   1 <1>  -0.1810 
 19 C        3.1030     8.6970    -2.3010 C.2   1 <1>   0.1080 
 20 C        3.4140    10.0250    -0.6080 C.2   1 <1>  -0.3320 
 21 N        4.3710     8.9530    -2.3110 N.2   1 <1>  -0.7070 
 22 C        2.4630     7.7940    -3.3330 C.3   1 <1>  -0.0590 
 23 N        4.5710     9.7740    -1.2660 N.pl3 1 <1>   0.3140 
 24 C        3.3040    10.9130     0.6220 C.3   1 <1>  -0.0600 
 25 C        5.9210    10.2940    -0.9610 C.3   1 <1>   0.0960 
 26 C        6.6610     9.3790     0.0250 C.3   1 <1>  -0.2400 
 27 H       -2.6110     4.3050     2.4180 H     1 <1>   0.3700 
 28 H        1.2280     3.9860     1.7440 H     1 <1>   0.0800 
 29 H        1.3880     5.0210     3.1460 H     1 <1>   0.0800 
 30 H       -2.2310     6.3300     0.9820 H     1 <1>   0.0800 
 31 H        0.1520     5.0260    -0.2530 H     1 <1>   0.0800 
 32 H       -1.3510     2.7440     0.2640 H     1 <1>   0.1500 
 33 H       -3.5660     6.1890    -0.9640 H     1 <1>   0.1500 
 34 H       -2.4950     1.4130    -1.4340 H     1 <1>   0.1500 
 35 H       -4.7060     4.8410    -2.6530 H     1 <1>   0.1500 
 36 H        1.4620     7.8020     0.4870 H     1 <1>   0.3700 
 37 H       -4.1760     2.4520    -2.8980 H     1 <1>   0.1500 
 38 H        0.4000     9.2300    -1.8890 H     1 <1>   0.0800 
 39 H        0.6390    10.1010    -0.3940 H     1 <1>   0.0800 
 40 H        1.6930     7.1960    -2.8840 H     1 <1>   0.0800 
 41 H        3.2070     7.1430    -3.7540 H     1 <1>   0.0800 
 42 H        2.0380     8.3910    -4.1180 H     1 <1>   0.0800 
 43 H        2.2960    10.9280     0.9940 H     1 <1>   0.0800 
 44 H        3.5910    11.9210     0.3780 H     1 <1>   0.0800 
 45 H        3.9450    10.5460     1.4030 H     1 <1>   0.0800 
 46 H        6.4690    10.3520    -1.8840 H     1 <1>   0.0800 
 47 H        5.8290    11.2840    -0.5580 H     1 <1>   0.0800 
 48 H        6.7580     8.3940    -0.3960 H     1 <1>   0.0800 
 49 H        6.1270     9.3170     0.9550 H     1 <1>   0.0800 
 50 H        7.6450     9.7680     0.2160 H     1 <1>   0.0800 
@<TRIPOS>BOND
  1   1   2  2   
  2   2   3  am  
  3   2   4  1   
  4   3   5  1   
  5   3  27  1   
  6   4   6  1   
  7   4  28  1   
  8   4  29  1   
  9   5   7  1   
 10   5   8  1   
 11   5  30  1   
 12   6   8  1   
 13   7   9  ar  
 14   7  10  ar  
 15   8  11  1   
 16   8  31  1   
 17   9  12  ar  
 18   9  32  1   
 19  10  13  ar  
 20  10  33  1   
 21  11  14  2   
 22  11  15  am  
 23  12  16  ar  
 24  12  34  1   
 25  13  16  ar  
 26  13  35  1   
 27  15  17  1   
 28  15  36  1   
 29  16  37  1   
 30  17  18  1   
 31  17  38  1   
 32  17  39  1   
 33  18  19  1   
 34  18  20  2   
 35  19  21  2   
 36  19  22  1   
 37  20  23  1   
 38  20  24  1   
 39  21  23  1   
 40  22  40  1   
 41  22  41  1   
 42  22  42  1   
 43  23  25  1   
 44  24  43  1   
 45  24  44  1   
 46  24  45  1   
 47  25  26  1   
 48  25  46  1   
 49  25  47  1   
 50  26  48  1   
 51  26  49  1   
 52  26  50  1   
@<TRIPOS>SUBSTRUCTURE
  1 ****  11 GROUP 4 **** **** 0

# MOE 2024.06 (io_trps.svl 2023.06)
