@<TRIPOS>MOLECULE
NONAME
51 54 1 0 0 
SMALL
USER_CHARGES


@<TRIPOS>ATOM
  1 O        0.0460    -0.5860     0.5900 O.co2 1 <1>  -0.9000 
  2 C        1.2010    -0.2000     0.7650 C.2   1 <1>   0.9060 
  3 O        1.6360     0.0530     1.9000 O.co2 1 <1>  -0.9000 
  4 C        2.1430    -0.1150    -0.4510 C.3   1 <1>  -0.1060 
  5 C        3.5070     0.4760    -0.0500 C.3   1 <1>   0.4230 
  6 C        1.4800     0.7970    -1.5320 C.3   1 <1>  -0.1600 
  7 C        2.4290    -1.5360    -0.9880 C.3   1 <1>  -0.1600 
  8 N        4.1110    -0.2880     1.0840 N.4   1 <1>  -0.9590 
  9 C        3.3480     2.0000     0.1000 C.3   1 <1>   0.1100 
 10 C        2.4500     1.7750    -2.2180 C.3   1 <1>   0.1100 
 11 C        3.1410    -2.3770     0.0910 C.3   1 <1>  -0.1600 
 12 C        4.3840    -1.6960     0.6840 C.3   1 <1>   0.3430 
 13 C        5.2930     0.3620     1.7100 C.3   1 <1>   0.2630 
 14 N        3.2070     2.6170    -1.2520 N.3   1 <1>  -0.8100 
 15 C        4.4920     3.0300    -1.8500 C.3   1 <1>   0.2480 
 16 C        5.2180     4.0680    -1.0100 C.2   1 <1>  -0.1240 
 17 C        6.3300     3.6380    -0.2150 C.2   1 <1>   0.6160 
 18 C        4.8430     5.3720    -1.0150 C.2   1 <1>  -0.1780 
 19 O        6.6760     2.4710    -0.1040 O.2   1 <1>  -0.5700 
 20 N        7.0230     4.5810     0.4830 N.am  1 <1>  -0.5470 
 21 C        5.5550     6.3470    -0.2450 C.ar  1 <1>   0.0280 
 22 C        6.6670     5.9250     0.5040 C.ar  1 <1>   0.1170 
 23 C        5.1940     7.6940    -0.2110 C.ar  1 <1>  -0.1500 
 24 C        7.3880     6.8520     1.2540 C.ar  1 <1>  -0.1500 
 25 C        5.9140     8.6010     0.5370 C.ar  1 <1>  -0.1500 
 26 C        7.0160     8.1790     1.2710 C.ar  1 <1>  -0.1500 
 27 H        4.1720     0.3480    -0.8850 H     1 <1>   0.0800 
 28 H        0.7100     1.3950    -1.0700 H     1 <1>   0.0800 
 29 H        0.9820     0.1940    -2.2700 H     1 <1>   0.0800 
 30 H        1.4990    -2.0130    -1.2520 H     1 <1>   0.0800 
 31 H        3.0390    -1.4820    -1.8730 H     1 <1>   0.0800 
 32 H        3.3090    -0.2930     1.7700 H     1 <1>   0.4500 
 33 H        4.1700     2.4350     0.6290 H     1 <1>   0.0800 
 34 H        2.4590     2.2120     0.6700 H     1 <1>   0.0800 
 35 H        1.8970     2.4200    -2.8810 H     1 <1>   0.0800 
 36 H        3.1330     1.1970    -2.8180 H     1 <1>   0.0800 
 37 H        3.4260    -3.3250    -0.3270 H     1 <1>   0.0800 
 38 H        2.4520    -2.5860     0.8930 H     1 <1>   0.0800 
 39 H        5.1710    -1.7040    -0.0520 H     1 <1>   0.0800 
 40 H        4.7190    -2.2570     1.5410 H     1 <1>   0.0800 
 41 H        6.0840     0.4750     0.9870 H     1 <1>   0.0800 
 42 H        5.6510    -0.2330     2.5320 H     1 <1>   0.0800 
 43 H        5.0260     1.3350     2.0870 H     1 <1>   0.0800 
 44 H        5.1200     2.1690    -2.0100 H     1 <1>   0.0800 
 45 H        4.2930     3.4670    -2.8140 H     1 <1>   0.0800 
 46 H        4.0020     5.7120    -1.5940 H     1 <1>   0.1500 
 47 H        7.8310     4.2490     1.0050 H     1 <1>   0.3700 
 48 H        4.3420     8.0240    -0.7780 H     1 <1>   0.1500 
 49 H        8.2400     6.5270     1.8230 H     1 <1>   0.1500 
 50 H        5.6280     9.6380     0.5560 H     1 <1>   0.1500 
 51 H        7.5740     8.8940     1.8520 H     1 <1>   0.1500 
@<TRIPOS>BOND
  1   1   2  ar  
  2   2   3  ar  
  3   2   4  1   
  4   4   5  1   
  5   4   6  1   
  6   4   7  1   
  7   5   8  1   
  8   5   9  1   
  9   5  27  1   
 10   6  10  1   
 11   6  28  1   
 12   6  29  1   
 13   7  11  1   
 14   7  30  1   
 15   7  31  1   
 16   8  12  1   
 17   8  13  1   
 18   8  32  1   
 19   9  14  1   
 20   9  33  1   
 21   9  34  1   
 22  10  14  1   
 23  10  35  1   
 24  10  36  1   
 25  11  12  1   
 26  11  37  1   
 27  11  38  1   
 28  12  39  1   
 29  12  40  1   
 30  13  41  1   
 31  13  42  1   
 32  13  43  1   
 33  14  15  1   
 34  15  16  1   
 35  15  44  1   
 36  15  45  1   
 37  16  17  1   
 38  16  18  2   
 39  17  19  2   
 40  17  20  am  
 41  18  21  1   
 42  18  46  1   
 43  20  22  1   
 44  20  47  1   
 45  21  22  ar  
 46  21  23  ar  
 47  22  24  ar  
 48  23  25  ar  
 49  23  48  1   
 50  24  26  ar  
 51  24  49  1   
 52  25  26  ar  
 53  25  50  1   
 54  26  51  1   
@<TRIPOS>SUBSTRUCTURE
  1 ****   9 GROUP 4 **** **** 0

# MOE 2024.06 (io_trps.svl 2023.06)
