@<TRIPOS>MOLECULE
NONAME
34 36 1 0 0 
SMALL
USER_CHARGES


@<TRIPOS>ATOM
  1 F        1.3070    -0.0180     1.0670 F     1 <1>  -0.3400 
  2 C        1.8330     0.5190    -0.0270 C.3   1 <1>   1.1640 
  3 F        0.8360     1.1650    -0.6240 F     1 <1>  -0.3400 
  4 F        2.1360    -0.4900    -0.8360 F     1 <1>  -0.3400 
  5 C        3.0360     1.4250     0.2840 C.ar  1 <1>  -0.1440 
  6 C        4.2340     0.8760     0.7750 C.ar  1 <1>   0.0280 
  7 C        2.9480     2.7980     0.0670 C.ar  1 <1>  -0.1500 
  8 C        5.3020     1.7430     1.0060 C.ar  1 <1>  -0.1500 
  9 C        4.3940    -0.5240     1.0600 C.2   1 <1>  -0.1780 
 10 C        4.0220     3.6330     0.3140 C.ar  1 <1>  -0.1500 
 11 C        5.2050     3.1000     0.7830 C.ar  1 <1>  -0.1500 
 12 C        5.4170    -1.3590     0.7270 C.2   1 <1>   0.1140 
 13 N        6.5350    -0.9300    -0.0170 N.pl3 1 <1>  -0.8380 
 14 C        5.4510    -2.7730     1.0570 C.2   1 <1>   0.4950 
 15 C        7.8110    -1.2060     0.7200 C.3   1 <1>   0.2090 
 16 C        6.5850    -1.6510    -1.3280 C.3   1 <1>   0.2090 
 17 O        4.6510    -3.3930     1.7120 O.2   1 <1>  -0.5700 
 18 C        6.6770    -3.4610     0.4570 C.3   1 <1>  -0.0190 
 19 C        7.9130    -2.7230     1.0210 C.3   1 <1>  -0.1600 
 20 C        6.6440    -3.1790    -1.0650 C.3   1 <1>  -0.1600 
 21 H        2.0400     3.2430    -0.3030 H     1 <1>   0.1500 
 22 H        6.2270     1.3360     1.3700 H     1 <1>   0.1500 
 23 H        3.5800    -0.9640     1.6080 H     1 <1>   0.1500 
 24 H        3.9380     4.6920     0.1400 H     1 <1>   0.1500 
 25 H        6.0490     3.7410     0.9730 H     1 <1>   0.1500 
 26 H        7.8150    -0.6460     1.6410 H     1 <1>   0.0800 
 27 H        8.6490    -0.8810     0.1280 H     1 <1>   0.0800 
 28 H        7.4470    -1.3280    -1.8880 H     1 <1>   0.0800 
 29 H        5.7040    -1.4050    -1.8990 H     1 <1>   0.0800 
 30 H        6.6880    -4.5130     0.6800 H     1 <1>   0.0800 
 31 H        7.9690    -2.8690     2.0860 H     1 <1>   0.0800 
 32 H        8.8160    -3.1180     0.5920 H     1 <1>   0.0800 
 33 H        7.5120    -3.5950    -1.5450 H     1 <1>   0.0800 
 34 H        5.7780    -3.6450    -1.5010 H     1 <1>   0.0800 
@<TRIPOS>BOND
  1   1   2  1   
  2   2   3  1   
  3   2   4  1   
  4   2   5  1   
  5   5   6  ar  
  6   5   7  ar  
  7   6   8  ar  
  8   6   9  1   
  9   7  10  ar  
 10   7  21  1   
 11   8  11  ar  
 12   8  22  1   
 13   9  12  2   
 14   9  23  1   
 15  10  11  ar  
 16  10  24  1   
 17  11  25  1   
 18  12  13  1   
 19  12  14  1   
 20  13  15  1   
 21  13  16  1   
 22  14  17  2   
 23  14  18  1   
 24  15  19  1   
 25  15  26  1   
 26  15  27  1   
 27  16  20  1   
 28  16  28  1   
 29  16  29  1   
 30  18  19  1   
 31  18  20  1   
 32  18  30  1   
 33  19  31  1   
 34  19  32  1   
 35  20  33  1   
 36  20  34  1   
@<TRIPOS>SUBSTRUCTURE
  1 ****   9 GROUP 4 **** **** 0

# MOE 2024.06 (io_trps.svl 2023.06)
