@<TRIPOS>MOLECULE
NONAME
43 45 1 0 0 
SMALL
USER_CHARGES


@<TRIPOS>ATOM
  1 CL      -1.1700     0.8110     0.0430 Cl    1 <1>  -0.1770 
  2 C       -0.7740     2.5090     0.1370 C.ar  1 <1>   0.1770 
  3 C       -0.7080     3.2810    -1.0150 C.ar  1 <1>  -0.1440 
  4 C       -0.5330     3.0590     1.3820 C.ar  1 <1>  -0.1500 
  5 C       -0.3870     4.6230    -0.8940 C.ar  1 <1>  -0.1500 
  6 C       -0.9850     2.6760    -2.3840 C.3   1 <1>  -0.0960 
  7 C       -0.2140     4.4010     1.4820 C.ar  1 <1>  -0.1500 
  8 C       -0.1250     5.2070     0.3460 C.ar  1 <1>   0.0860 
  9 C        0.2250     6.6090     0.4440 C.2   1 <1>   0.5440 
 10 O       -0.5970     7.4490     0.1310 O.2   1 <1>  -0.5700 
 11 N        1.4750     7.0190     0.8590 N.am  1 <1>  -0.6600 
 12 C        2.6500     6.1070     1.0270 C.3   1 <1>   0.1400 
 13 C        1.7880     8.4590     1.0580 C.3   1 <1>   0.1400 
 14 C        3.5940     6.1530    -0.1830 C.3   1 <1>   0.1400 
 15 C        2.1260     9.1490    -0.2690 C.3   1 <1>  -0.1600 
 16 N        4.0590     7.5450    -0.4950 N.am  1 <1>  -0.6600 
 17 C        3.0500     8.3720    -1.2180 C.3   1 <1>   0.1400 
 18 C        5.3830     7.9100    -0.3540 C.2   1 <1>   0.7160 
 19 O        6.1890     7.0810     0.0240 O.2   1 <1>  -0.5700 
 20 C        5.8440     9.2430    -0.6550 C.2   1 <1>  -0.0860 
 21 C        6.7940     9.6200    -1.5510 C.2   1 <1>  -0.0100 
 22 C        5.4230    10.4560    -0.0710 C.2   1 <1>  -0.1500 
 23 O        6.9520    10.9220    -1.5630 O.3   1 <1>  -0.2800 
 24 C        6.1320    11.4340    -0.6700 C.2   1 <1>  -0.0100 
 25 H       -0.5990     2.4390     2.2580 H     1 <1>   0.1500 
 26 H       -0.3390     5.2500    -1.7680 H     1 <1>   0.1500 
 27 H       -0.2930     1.8760    -2.5810 H     1 <1>   0.0800 
 28 H       -0.8860     3.4130    -3.1600 H     1 <1>   0.0800 
 29 H       -1.9850     2.2820    -2.4140 H     1 <1>   0.0800 
 30 H       -0.0320     4.8400     2.4480 H     1 <1>   0.1500 
 31 H        2.3240     5.0940     1.1660 H     1 <1>   0.0800 
 32 H        3.1980     6.3870     1.9090 H     1 <1>   0.0800 
 33 H        2.6200     8.5540     1.7340 H     1 <1>   0.0800 
 34 H        0.9420     8.9500     1.5110 H     1 <1>   0.0800 
 35 H        3.0880     5.7440    -1.0400 H     1 <1>   0.0800 
 36 H        4.4330     5.5110     0.0190 H     1 <1>   0.0800 
 37 H        2.5610    10.1060    -0.0550 H     1 <1>   0.0800 
 38 H        1.2070     9.3490    -0.7900 H     1 <1>   0.0800 
 39 H        3.5390     9.0580    -1.8890 H     1 <1>   0.0800 
 40 H        2.4430     7.7210    -1.8250 H     1 <1>   0.0800 
 41 H        7.3920     9.0120    -2.2070 H     1 <1>   0.1500 
 42 H        4.6890    10.5430     0.7080 H     1 <1>   0.1500 
 43 H        6.1250    12.5000    -0.5240 H     1 <1>   0.1500 
@<TRIPOS>BOND
  1   1   2  1   
  2   2   3  ar  
  3   2   4  ar  
  4   3   5  ar  
  5   3   6  1   
  6   4   7  ar  
  7   4  25  1   
  8   5   8  ar  
  9   5  26  1   
 10   6  27  1   
 11   6  28  1   
 12   6  29  1   
 13   7   8  ar  
 14   7  30  1   
 15   8   9  1   
 16   9  10  2   
 17   9  11  am  
 18  11  12  1   
 19  11  13  1   
 20  12  14  1   
 21  12  31  1   
 22  12  32  1   
 23  13  15  1   
 24  13  33  1   
 25  13  34  1   
 26  14  16  1   
 27  14  35  1   
 28  14  36  1   
 29  15  17  1   
 30  15  37  1   
 31  15  38  1   
 32  16  17  1   
 33  16  18  am  
 34  17  39  1   
 35  17  40  1   
 36  18  19  2   
 37  18  20  1   
 38  20  21  2   
 39  20  22  1   
 40  21  23  1   
 41  21  41  1   
 42  22  24  2   
 43  22  42  1   
 44  23  24  1   
 45  24  43  1   
@<TRIPOS>SUBSTRUCTURE
  1 ****  14 GROUP 4 **** **** 0

# MOE 2024.06 (io_trps.svl 2023.06)
