@<TRIPOS>MOLECULE
NONAME
54 57 1 0 0 
SMALL
USER_CHARGES


@<TRIPOS>ATOM
  1 O       -0.6410     0.4290     0.3480 O.2   1 <1>  -0.5700 
  2 C       -1.2400     1.2910    -0.2820 C.2   1 <1>   0.7160 
  3 N       -2.5790     1.0440    -0.5590 N.am  1 <1>  -0.6600 
  4 C       -0.5280     2.5060    -0.6880 C.2   1 <1>   0.2030 
  5 C       -3.1080    -0.3530    -0.5030 C.3   1 <1>   0.1400 
  6 C       -3.5310     2.1370    -0.9120 C.3   1 <1>   0.1400 
  7 N       -0.8920     3.4120    -1.5940 N.2   1 <1>  -0.7070 
  8 C        0.7110     2.8860    -0.1520 C.2   1 <1>  -0.1810 
  9 C       -3.6620    -0.6690     0.8930 C.3   1 <1>   0.1400 
 10 C       -4.9460     1.9600    -0.3420 C.3   1 <1>  -0.1600 
 11 N        0.0960     4.3280    -1.6240 N.pl3 1 <1>   0.3000 
 12 C        1.0640     4.0130    -0.7510 C.2   1 <1>  -0.3320 
 13 C        1.7370     2.4250     0.8460 C.3   1 <1>   0.0210 
 14 N       -5.0020    -0.0360     1.1070 N.am  1 <1>  -0.6600 
 15 C       -4.9870     1.4530     1.1050 C.3   1 <1>   0.1400 
 16 C        2.3860     4.5670    -0.3010 C.3   1 <1>   0.0200 
 17 C        2.7780     3.5760     0.8230 C.3   1 <1>  -0.1600 
 18 C       -6.1950    -0.7260     1.1650 C.2   1 <1>   0.5690 
 19 O       -7.2330    -0.1420     1.3950 O.2   1 <1>  -0.5700 
 20 C       -6.2560    -2.2540     0.9750 C.3   1 <1>   0.2610 
 21 O       -5.6320    -2.6540    -0.2400 O.3   1 <1>  -0.2170 
 22 C       -7.6490    -2.8880     0.8780 C.3   1 <1>  -0.0990 
 23 N       -6.3350    -3.5650    -0.8860 N.2   1 <1>  -0.5130 
 24 C       -7.4480    -3.7450    -0.3370 C.2   1 <1>   0.3280 
 25 C       -8.5310    -4.7130    -0.8080 C.3   1 <1>  -0.0190 
 26 C       -9.8330    -3.9810    -1.1660 C.3   1 <1>  -0.2400 
 27 C       -8.8050    -5.8140     0.2270 C.3   1 <1>  -0.2400 
 28 H       -2.3070    -1.0400    -0.7180 H     1 <1>   0.0800 
 29 H       -3.8680    -0.5030    -1.2490 H     1 <1>   0.0800 
 30 H       -3.5780     2.2280    -1.9830 H     1 <1>   0.0800 
 31 H       -3.1470     3.0650    -0.5240 H     1 <1>   0.0800 
 32 H       -2.9700    -0.3130     1.6380 H     1 <1>   0.0800 
 33 H       -3.7220    -1.7340     1.0070 H     1 <1>   0.0800 
 34 H       -5.5240     1.3110    -0.9750 H     1 <1>   0.0800 
 35 H       -5.4230     2.9220    -0.3740 H     1 <1>   0.0800 
 36 H        0.0830     5.1450    -2.2460 H     1 <1>   0.2700 
 37 H        2.1720     1.4960     0.5230 H     1 <1>   0.0800 
 38 H        1.2970     2.3050     1.8200 H     1 <1>   0.0800 
 39 H       -5.8780     1.8240     1.5840 H     1 <1>   0.0800 
 40 H       -4.1420     1.8180     1.6630 H     1 <1>   0.0800 
 41 H        2.2820     5.5690     0.0770 H     1 <1>   0.0800 
 42 H        3.0990     4.5430    -1.1070 H     1 <1>   0.0800 
 43 H        3.7660     3.1870     0.6570 H     1 <1>   0.0800 
 44 H        2.7610     4.0860     1.7690 H     1 <1>   0.0800 
 45 H       -5.7070    -2.7220     1.7700 H     1 <1>   0.0800 
 46 H       -8.4230    -2.1660     0.6970 H     1 <1>   0.0800 
 47 H       -7.8720    -3.4620     1.7560 H     1 <1>   0.0800 
 48 H       -8.1630    -5.1870    -1.7030 H     1 <1>   0.0800 
 49 H      -10.2720    -3.5270    -0.2970 H     1 <1>   0.0800 
 50 H      -10.5430    -4.6710    -1.5880 H     1 <1>   0.0800 
 51 H       -9.6340    -3.2130    -1.8940 H     1 <1>   0.0800 
 52 H       -9.2260    -5.4030     1.1270 H     1 <1>   0.0800 
 53 H       -7.8890    -6.3220     0.4730 H     1 <1>   0.0800 
 54 H       -9.4940    -6.5360    -0.1730 H     1 <1>   0.0800 
@<TRIPOS>BOND
  1   1   2  2   
  2   2   3  am  
  3   2   4  1   
  4   3   5  1   
  5   3   6  1   
  6   4   7  2   
  7   4   8  1   
  8   5   9  1   
  9   5  28  1   
 10   5  29  1   
 11   6  10  1   
 12   6  30  1   
 13   6  31  1   
 14   7  11  1   
 15   8  12  2   
 16   8  13  1   
 17   9  14  1   
 18   9  32  1   
 19   9  33  1   
 20  10  15  1   
 21  10  34  1   
 22  10  35  1   
 23  11  12  1   
 24  11  36  1   
 25  12  16  1   
 26  13  17  1   
 27  13  37  1   
 28  13  38  1   
 29  14  15  1   
 30  14  18  am  
 31  15  39  1   
 32  15  40  1   
 33  16  17  1   
 34  16  41  1   
 35  16  42  1   
 36  17  43  1   
 37  17  44  1   
 38  18  19  2   
 39  18  20  1   
 40  20  21  1   
 41  20  22  1   
 42  20  45  1   
 43  21  23  1   
 44  22  24  1   
 45  22  46  1   
 46  22  47  1   
 47  23  24  2   
 48  24  25  1   
 49  25  26  1   
 50  25  27  1   
 51  25  48  1   
 52  26  49  1   
 53  26  50  1   
 54  26  51  1   
 55  27  52  1   
 56  27  53  1   
 57  27  54  1   
@<TRIPOS>SUBSTRUCTURE
  1 ****   5 GROUP 4 **** **** 0

# MOE 2024.06 (io_trps.svl 2023.06)
