@<TRIPOS>MOLECULE
NONAME
30 31 1 0 0 
SMALL
USER_CHARGES


@<TRIPOS>ATOM
  1 CL       0.1510    -0.0920    -0.6180 Cl    1 <1>  -0.1770 
  2 C        1.6440     0.7930    -0.4060 C.ar  1 <1>   0.1770 
  3 C        1.6210     2.1600    -0.2030 C.ar  1 <1>   0.1600 
  4 C        2.8420     0.1190    -0.4420 C.ar  1 <1>  -0.1500 
  5 N        2.7020     2.9100    -0.0330 N.ar  1 <1>  -0.6200 
  6 C        3.9610     0.8980    -0.2650 C.ar  1 <1>   0.1900 
  7 C        3.8900     2.2980    -0.0580 C.ar  1 <1>   0.4100 
  8 F        5.1060     0.2590    -0.3060 F     1 <1>  -0.1900 
  9 N        4.9930     3.1510     0.1440 N.pl3 1 <1>  -0.8380 
 10 C        4.8640     4.6340    -0.1800 C.3   1 <1>   0.3500 
 11 C        6.3990     2.6290     0.2480 C.3   1 <1>   0.2090 
 12 C        6.1340     5.2830    -0.7850 C.2   1 <1>   0.5690 
 13 C        4.4630     5.3640     1.1070 C.3   1 <1>  -0.2400 
 14 C        7.4590     3.6990     0.5700 C.3   1 <1>   0.1400 
 15 O        6.0120     6.1770    -1.5940 O.2   1 <1>  -0.5700 
 16 N        7.3690     4.8480    -0.3690 N.am  1 <1>  -0.6600 
 17 C        8.6460     5.4670    -0.8140 C.3   1 <1>   0.0600 
 18 H        0.6670     2.6570    -0.1810 H     1 <1>   0.1500 
 19 H        2.8960    -0.9420    -0.5990 H     1 <1>   0.1500 
 20 H        4.0840     4.7700    -0.9080 H     1 <1>   0.0800 
 21 H        6.6670     2.1680    -0.6880 H     1 <1>   0.0800 
 22 H        6.4370     1.8750     1.0150 H     1 <1>   0.0800 
 23 H        5.2280     5.2600     1.8530 H     1 <1>   0.0800 
 24 H        3.5390     4.9690     1.4870 H     1 <1>   0.0800 
 25 H        4.3240     6.4090     0.8980 H     1 <1>   0.0800 
 26 H        8.4350     3.2510     0.5040 H     1 <1>   0.0800 
 27 H        7.3200     4.0500     1.5770 H     1 <1>   0.0800 
 28 H        8.4530     6.3140    -1.4500 H     1 <1>   0.0800 
 29 H        9.2260     4.7480    -1.3660 H     1 <1>   0.0800 
 30 H        9.2070     5.8000     0.0410 H     1 <1>   0.0800 
@<TRIPOS>BOND
  1   1   2  1   
  2   2   3  ar  
  3   2   4  ar  
  4   3   5  ar  
  5   3  18  1   
  6   4   6  ar  
  7   4  19  1   
  8   5   7  ar  
  9   6   7  ar  
 10   6   8  1   
 11   7   9  1   
 12   9  10  1   
 13   9  11  1   
 14  10  12  1   
 15  10  13  1   
 16  10  20  1   
 17  11  14  1   
 18  11  21  1   
 19  11  22  1   
 20  12  15  2   
 21  12  16  am  
 22  13  23  1   
 23  13  24  1   
 24  13  25  1   
 25  14  16  1   
 26  14  26  1   
 27  14  27  1   
 28  16  17  1   
 29  17  28  1   
 30  17  29  1   
 31  17  30  1   
@<TRIPOS>SUBSTRUCTURE
  1 ****   9 GROUP 4 **** **** 0

# MOE 2024.06 (io_trps.svl 2023.06)
