@<TRIPOS>MOLECULE
NONAME
62 66 1 0 0 
SMALL
USER_CHARGES


@<TRIPOS>ATOM
  1 O       -0.4460     0.6980     1.5510 O.2   1 <1>  -0.5700 
  2 C       -0.9480     0.8080     0.4570 C.2   1 <1>   0.5690 
  3 N       -1.5880    -0.2400    -0.1210 N.am  1 <1>  -0.7300 
  4 C       -0.8700     2.1370    -0.3060 C.3   1 <1>   0.0610 
  5 C       -1.8830    -1.5180     0.5450 C.3   1 <1>   0.2840 
  6 C       -0.6920     3.3540     0.6340 C.3   1 <1>   0.2890 
  7 C       -2.1880     2.5280    -1.0430 C.3   1 <1>  -0.1600 
  8 C        0.2830     2.0530    -1.3410 C.3   1 <1>  -0.0220 
  9 C       -3.3570    -1.8030     0.3300 C.ar  1 <1>  -0.1440 
 10 N       -1.1330     4.4350    -0.2570 N.pl3 1 <1>  -0.8380 
 11 C       -1.8010     3.4580     1.7000 C.3   1 <1>  -0.1600 
 12 C       -2.4820     3.9490    -0.5400 C.3   1 <1>   0.2890 
 13 C        1.6590     1.8830    -0.7080 C.2   1 <1>  -0.2880 
 14 C       -3.7640    -2.6520    -0.6950 C.ar  1 <1>  -0.1500 
 15 C       -4.3040    -1.1960     1.1540 C.ar  1 <1>  -0.1500 
 16 C       -0.5240     5.5530    -0.7110 C.ar  1 <1>   0.4100 
 17 C       -3.0390     3.8630     0.8810 C.3   1 <1>  -0.1600 
 18 C        2.3910     0.7690    -0.6000 C.2   1 <1>  -0.2760 
 19 C       -5.1180    -2.8640    -0.8630 C.ar  1 <1>   0.0820 
 20 C       -5.6620    -1.4240     0.9700 C.ar  1 <1>  -0.1500 
 21 N       -1.1850     6.2980    -1.5780 N.ar  1 <1>  -0.6200 
 22 C        0.7690     5.9030    -0.2760 C.ar  1 <1>  -0.1500 
 23 C        3.7580     0.7770     0.0630 C.3   1 <1>  -0.1020 
 24 C        1.9980    -0.6230    -1.0780 C.3   1 <1>  -0.1020 
 25 O       -5.7290    -3.6270    -1.7740 O.3   1 <1>  -0.3620 
 26 C       -6.0410    -2.2670    -0.0540 C.ar  1 <1>   0.0820 
 27 C       -0.5970     7.3860    -2.0230 C.ar  1 <1>   0.7710 
 28 C        1.3450     7.0290    -0.7580 C.ar  1 <1>   0.2110 
 29 C       -7.1300    -3.5210    -1.5230 C.3   1 <1>   0.4000 
 30 O       -7.2750    -2.6290    -0.4190 O.3   1 <1>  -0.3630 
 31 N        0.6350     7.7700    -1.6450 N.ar  1 <1>  -0.1790 
 32 N       -1.2900     8.1180    -2.8910 N.pl3 1 <1>  -0.9000 
 33 H       -2.0420    -0.1270    -1.0270 H     1 <1>   0.3700 
 34 H       -1.2770    -2.2960     0.1150 H     1 <1>   0.0800 
 35 H       -1.6640    -1.4560     1.5980 H     1 <1>   0.0800 
 36 H        0.2970     3.4560     1.0420 H     1 <1>   0.0800 
 37 H       -3.0120     1.8770    -0.8120 H     1 <1>   0.0800 
 38 H       -2.0630     2.5480    -2.1110 H     1 <1>   0.0800 
 39 H        0.0850     1.2400    -2.0140 H     1 <1>   0.0800 
 40 H        0.3060     2.9420    -1.9460 H     1 <1>   0.0800 
 41 H       -1.9570     2.5470     2.2480 H     1 <1>   0.0800 
 42 H       -1.5490     4.2340     2.4010 H     1 <1>   0.0800 
 43 H       -3.0600     4.5610    -1.2130 H     1 <1>   0.0800 
 44 H        2.0260     2.8160    -0.3180 H     1 <1>   0.1500 
 45 H       -3.0630    -3.1370    -1.3490 H     1 <1>   0.1500 
 46 H       -3.9810    -0.5370     1.9430 H     1 <1>   0.1500 
 47 H       -3.4000     4.8280     1.1900 H     1 <1>   0.0800 
 48 H       -3.8370     3.1460     0.9600 H     1 <1>   0.0800 
 49 H       -6.4040    -0.9640     1.5980 H     1 <1>   0.1500 
 50 H        1.2740     5.2740     0.4310 H     1 <1>   0.1500 
 51 H        3.7560     0.1270     0.9200 H     1 <1>   0.0800 
 52 H        4.0200     1.7670     0.3920 H     1 <1>   0.0800 
 53 H        4.5090     0.4390    -0.6280 H     1 <1>   0.0800 
 54 H        2.7010    -0.9730    -1.8120 H     1 <1>   0.0800 
 55 H        1.0190    -0.6450    -1.5140 H     1 <1>   0.0800 
 56 H        2.0000    -1.3050    -0.2460 H     1 <1>   0.0800 
 57 H        2.3320     7.3530    -0.4650 H     1 <1>   0.1500 
 58 H       -7.6220    -3.1100    -2.3870 H     1 <1>   0.0800 
 59 H       -7.5240    -4.4860    -1.2610 H     1 <1>   0.0800 
 60 H        0.9980     8.6280    -2.0500 H     1 <1>   0.4570 
 61 H       -1.0340     8.9910    -3.3550 H     1 <1>   0.4000 
 62 H       -2.2240     7.7760    -3.1420 H     1 <1>   0.4000 
@<TRIPOS>BOND
  1   1   2  2   
  2   2   3  am  
  3   2   4  1   
  4   3   5  1   
  5   3  33  1   
  6   4   6  1   
  7   4   7  1   
  8   4   8  1   
  9   5   9  1   
 10   5  34  1   
 11   5  35  1   
 12   6  10  1   
 13   6  11  1   
 14   6  36  1   
 15   7  12  1   
 16   7  37  1   
 17   7  38  1   
 18   8  13  1   
 19   8  39  1   
 20   8  40  1   
 21   9  14  ar  
 22   9  15  ar  
 23  10  12  1   
 24  10  16  1   
 25  11  17  1   
 26  11  41  1   
 27  11  42  1   
 28  12  17  1   
 29  12  43  1   
 30  13  18  2   
 31  13  44  1   
 32  14  19  ar  
 33  14  45  1   
 34  15  20  ar  
 35  15  46  1   
 36  16  21  ar  
 37  16  22  ar  
 38  17  47  1   
 39  17  48  1   
 40  18  23  1   
 41  18  24  1   
 42  19  25  1   
 43  19  26  ar  
 44  20  26  ar  
 45  20  49  1   
 46  21  27  ar  
 47  22  28  ar  
 48  22  50  1   
 49  23  51  1   
 50  23  52  1   
 51  23  53  1   
 52  24  54  1   
 53  24  55  1   
 54  24  56  1   
 55  25  29  1   
 56  26  30  1   
 57  27  31  ar  
 58  27  32  1   
 59  28  31  ar  
 60  28  57  1   
 61  29  30  1   
 62  29  58  1   
 63  29  59  1   
 64  31  60  1   
 65  32  61  1   
 66  32  62  1   
@<TRIPOS>SUBSTRUCTURE
  1 ****   4 GROUP 4 **** **** 0

# MOE 2024.06 (io_trps.svl 2023.06)
