@<TRIPOS>MOLECULE
NONAME
47 49 1 0 0 
SMALL
USER_CHARGES


@<TRIPOS>ATOM
  1 CL      -0.5910     2.8110     2.5400 Cl    1 <1>  -0.1770 
  2 C       -0.8390     2.3840     0.8530 C.ar  1 <1>   0.1770 
  3 C       -1.3230     3.3840    -0.0270 C.ar  1 <1>   0.4100 
  4 C       -0.5830     1.1340     0.3810 C.ar  1 <1>   0.2170 
  5 N       -1.5040     3.1490    -1.3150 N.ar  1 <1>  -0.6200 
  6 N       -1.6260     4.6240     0.4300 N.pl3 1 <1>  -0.8690 
  7 N       -0.8110     0.9300    -0.9450 N.ar  1 <1>  -0.1790 
  8 C       -0.0700    -0.0390     1.2080 C.3   1 <1>  -0.0970 
  9 C       -1.2560     1.9210    -1.7440 C.ar  1 <1>   0.7710 
 10 C       -2.4720     5.6290    -0.2780 C.3   1 <1>   0.2890 
 11 N       -1.4660     1.6900    -3.0360 N.pl3 1 <1>  -0.9000 
 12 C       -1.6140     6.4650    -1.2550 C.3   1 <1>   0.3430 
 13 C       -3.1150     6.5590     0.7650 C.3   1 <1>  -0.1600 
 14 N       -0.4620     7.1430    -0.5520 N.4   1 <1>  -0.9590 
 15 C       -2.3040     7.8510     1.0160 C.3   1 <1>  -0.1600 
 16 C       -0.7940     7.6710     0.8180 C.3   1 <1>   0.3430 
 17 C        0.1680     8.1810    -1.4160 C.3   1 <1>   0.4860 
 18 C        1.5170     8.5620    -0.8400 C.ar  1 <1>  -0.1430 
 19 C        1.6780     9.7690    -0.1790 C.ar  1 <1>   0.1900 
 20 C        2.6230     7.7310    -0.9620 C.ar  1 <1>  -0.1500 
 21 F        0.6460    10.5610    -0.0540 F     1 <1>  -0.1900 
 22 C        2.8840    10.1680     0.3640 C.ar  1 <1>  -0.1500 
 23 C        3.8420     8.1130    -0.4210 C.ar  1 <1>  -0.1500 
 24 C        3.9740     9.3250     0.2400 C.ar  1 <1>  -0.1500 
 25 H       -1.5650     4.7830     1.4450 H     1 <1>   0.4000 
 26 H       -0.6550     0.0220    -1.3770 H     1 <1>   0.4570 
 27 H        0.0730     0.2360     2.2370 H     1 <1>   0.0800 
 28 H        0.8760    -0.3840     0.8270 H     1 <1>   0.0800 
 29 H       -0.7730    -0.8540     1.1820 H     1 <1>   0.0800 
 30 H       -3.2470     5.1160    -0.8240 H     1 <1>   0.0800 
 31 H       -1.3420     0.8190    -3.5570 H     1 <1>   0.4000 
 32 H       -1.8260     2.4530    -3.6200 H     1 <1>   0.4000 
 33 H       -2.2490     7.2090    -1.7060 H     1 <1>   0.0800 
 34 H       -1.2460     5.8220    -2.0370 H     1 <1>   0.0800 
 35 H       -3.2680     6.0250     1.6880 H     1 <1>   0.0800 
 36 H       -4.0920     6.8470     0.4130 H     1 <1>   0.0800 
 37 H        0.2480     6.4160    -0.3980 H     1 <1>   0.4500 
 38 H       -2.4900     8.1970     2.0180 H     1 <1>   0.0800 
 39 H       -2.6430     8.6290     0.3530 H     1 <1>   0.0800 
 40 H       -0.2930     8.6080     0.9960 H     1 <1>   0.0800 
 41 H       -0.4380     6.9710     1.5570 H     1 <1>   0.0800 
 42 H       -0.4680     9.0490    -1.4780 H     1 <1>   0.0800 
 43 H        0.3120     7.7950    -2.4120 H     1 <1>   0.0800 
 44 H        2.5590     6.7890    -1.4780 H     1 <1>   0.1500 
 45 H        2.9680    11.1140     0.8700 H     1 <1>   0.1500 
 46 H        4.6990     7.4670    -0.5170 H     1 <1>   0.1500 
 47 H        4.9270     9.6120     0.6550 H     1 <1>   0.1500 
@<TRIPOS>BOND
  1   1   2  1   
  2   2   3  ar  
  3   2   4  ar  
  4   3   5  ar  
  5   3   6  1   
  6   4   7  ar  
  7   4   8  1   
  8   5   9  ar  
  9   6  10  1   
 10   6  25  1   
 11   7   9  ar  
 12   7  26  1   
 13   8  27  1   
 14   8  28  1   
 15   8  29  1   
 16   9  11  1   
 17  10  12  1   
 18  10  13  1   
 19  10  30  1   
 20  11  31  1   
 21  11  32  1   
 22  12  14  1   
 23  12  33  1   
 24  12  34  1   
 25  13  15  1   
 26  13  35  1   
 27  13  36  1   
 28  14  16  1   
 29  14  17  1   
 30  14  37  1   
 31  15  16  1   
 32  15  38  1   
 33  15  39  1   
 34  16  40  1   
 35  16  41  1   
 36  17  18  1   
 37  17  42  1   
 38  17  43  1   
 39  18  19  ar  
 40  18  20  ar  
 41  19  21  1   
 42  19  22  ar  
 43  20  23  ar  
 44  20  44  1   
 45  22  24  ar  
 46  22  45  1   
 47  23  24  ar  
 48  23  46  1   
 49  24  47  1   
@<TRIPOS>SUBSTRUCTURE
  1 ****  14 GROUP 4 **** **** 0

# MOE 2024.06 (io_trps.svl 2023.06)
