@<TRIPOS>MOLECULE
NONAME
51 55 1 0 0 
SMALL
USER_CHARGES


@<TRIPOS>ATOM
  1 O       -0.1130    -0.9670     1.4960 O.2   1 <1>  -0.5700 
  2 C       -0.1870    -0.4580     0.4040 C.2   1 <1>   0.5690 
  3 N       -0.9620    -1.0310    -0.5810 N.am  1 <1>  -0.6600 
  4 C        0.5430     0.8670     0.1980 C.3   1 <1>   0.0820 
  5 C       -1.2640    -0.3980    -1.9020 C.3   1 <1>   0.1400 
  6 C       -1.9340    -2.1260    -0.2500 C.3   1 <1>   0.1400 
  7 C       -0.4100     1.9970    -0.1820 C.2   1 <1>  -0.1810 
  8 C       -2.6410     0.3160    -1.8530 C.3   1 <1>   0.4230 
  9 C       -3.3920    -1.7010    -0.5570 C.3   1 <1>   0.3430 
 10 C       -1.5930     2.3200     0.5220 C.ar  1 <1>   0.0000 
 11 C       -0.3160     2.8470    -1.2340 C.2   1 <1>  -0.3020 
 12 N       -3.5140    -0.2070    -0.7250 N.4   1 <1>  -0.9590 
 13 C       -3.3520     0.2370    -3.2190 C.3   1 <1>   0.1200 
 14 C       -2.2010     3.3510    -0.1880 C.ar  1 <1>  -0.1520 
 15 C       -2.1970     1.8410     1.6910 C.ar  1 <1>  -0.1500 
 16 N       -1.3940     3.6870    -1.2440 N.pl3 1 <1>   0.0330 
 17 C       -4.9020     0.3540    -0.7940 C.3   1 <1>   0.5180 
 18 O       -4.5930     0.8750    -3.1560 O.3   1 <1>  -0.5600 
 19 C       -3.4260     3.8820     0.2200 C.ar  1 <1>  -0.1500 
 20 C       -3.3950     2.3790     2.1020 C.ar  1 <1>  -0.1500 
 21 C       -5.8320    -0.3870     0.1810 C.3   1 <1>  -0.1950 
 22 C       -5.4830     0.3200    -2.2270 C.3   1 <1>   0.1200 
 23 C       -4.0160     3.3920     1.3610 C.ar  1 <1>  -0.1500 
 24 C       -6.7070     0.4200     1.0930 C.3   1 <1>  -0.2000 
 25 C       -5.6200    -0.4380     1.6650 C.3   1 <1>  -0.2000 
 26 H        1.0450     1.1330     1.1110 H     1 <1>   0.0800 
 27 H        1.2930     0.7410    -0.5600 H     1 <1>   0.0800 
 28 H       -0.4960     0.2960    -2.1920 H     1 <1>   0.0800 
 29 H       -1.2790    -1.1700    -2.6520 H     1 <1>   0.0800 
 30 H       -1.6870    -3.0100    -0.8120 H     1 <1>   0.0800 
 31 H       -1.8670    -2.3890     0.7930 H     1 <1>   0.0800 
 32 H       -2.4530     1.3590    -1.6730 H     1 <1>   0.0800 
 33 H       -4.0210    -2.0440     0.2480 H     1 <1>   0.0800 
 34 H       -3.7200    -2.1930    -1.4570 H     1 <1>   0.0800 
 35 H        0.4590     2.9150    -1.9800 H     1 <1>   0.1500 
 36 H       -3.0950     0.2000     0.1260 H     1 <1>   0.4500 
 37 H       -3.5020    -0.7830    -3.5290 H     1 <1>   0.0800 
 38 H       -2.7690     0.7420    -3.9700 H     1 <1>   0.0800 
 39 H       -1.7080     1.0750     2.2680 H     1 <1>   0.1500 
 40 H       -1.5530     4.4730    -1.8860 H     1 <1>   0.2700 
 41 H       -4.8550     1.3870    -0.4900 H     1 <1>   0.0800 
 42 H       -3.8870     4.6750    -0.3450 H     1 <1>   0.1500 
 43 H       -3.8610     2.0390     3.0120 H     1 <1>   0.1500 
 44 H       -6.2900    -1.2530    -0.2660 H     1 <1>   0.1000 
 45 H       -6.3920     0.8950    -2.2630 H     1 <1>   0.0800 
 46 H       -5.7080    -0.6880    -2.5300 H     1 <1>   0.0800 
 47 H       -4.9520     3.7960     1.7080 H     1 <1>   0.1500 
 48 H       -6.5900     1.4890     1.1600 H     1 <1>   0.1000 
 49 H       -7.7310     0.1150     1.2390 H     1 <1>   0.1000 
 50 H       -5.9140    -1.3180     2.2120 H     1 <1>   0.1000 
 51 H       -4.7610     0.0380     2.1030 H     1 <1>   0.1000 
@<TRIPOS>BOND
  1   1   2  2   
  2   2   3  am  
  3   2   4  1   
  4   3   5  1   
  5   3   6  1   
  6   4   7  1   
  7   4  26  1   
  8   4  27  1   
  9   5   8  1   
 10   5  28  1   
 11   5  29  1   
 12   6   9  1   
 13   6  30  1   
 14   6  31  1   
 15   7  10  1   
 16   7  11  2   
 17   8  12  1   
 18   8  13  1   
 19   8  32  1   
 20   9  12  1   
 21   9  33  1   
 22   9  34  1   
 23  10  14  ar  
 24  10  15  ar  
 25  11  16  1   
 26  11  35  1   
 27  12  17  1   
 28  12  36  1   
 29  13  18  1   
 30  13  37  1   
 31  13  38  1   
 32  14  16  1   
 33  14  19  ar  
 34  15  20  ar  
 35  15  39  1   
 36  16  40  1   
 37  17  21  1   
 38  17  22  1   
 39  17  41  1   
 40  18  22  1   
 41  19  23  ar  
 42  19  42  1   
 43  20  23  ar  
 44  20  43  1   
 45  21  24  1   
 46  21  25  1   
 47  21  44  1   
 48  22  45  1   
 49  22  46  1   
 50  23  47  1   
 51  24  25  1   
 52  24  48  1   
 53  24  49  1   
 54  25  50  1   
 55  25  51  1   
@<TRIPOS>SUBSTRUCTURE
  1 ****  12 GROUP 4 **** **** 0

# MOE 2024.06 (io_trps.svl 2023.06)
