@<TRIPOS>MOLECULE
NONAME
51 54 1 0 0 
SMALL
USER_CHARGES


@<TRIPOS>ATOM
  1 CL      -0.2410    -0.7410    -1.2400 Cl    1 <1>  -0.1770 
  2 C       -1.5150    -1.2090    -0.1370 C.ar  1 <1>   0.1770 
  3 C       -2.5270    -0.3130     0.1860 C.ar  1 <1>   0.0830 
  4 C       -1.4860    -2.4870     0.3880 C.ar  1 <1>  -0.1500 
  5 O       -2.4960     0.9160    -0.3860 O.3   1 <1>  -0.3630 
  6 C       -3.5210    -0.7230     1.0710 C.ar  1 <1>  -0.1500 
  7 C       -2.4910    -2.8970     1.2530 C.ar  1 <1>  -0.1430 
  8 C       -3.5460     1.8590    -0.2060 C.3   1 <1>   0.1810 
  9 C       -3.4990    -2.0050     1.5960 C.ar  1 <1>  -0.1500 
 10 C       -2.4980    -4.3100     1.8030 C.3   1 <1>   0.4870 
 11 C       -3.3330     3.0890    -1.0800 C.2   1 <1>   0.5690 
 12 N       -3.5480    -5.0750     1.0850 N.4   1 <1>  -0.9590 
 13 O       -4.1210     3.9980    -1.0170 O.2   1 <1>  -0.5700 
 14 N       -2.2790     3.1620    -1.9170 N.am  1 <1>  -0.8000 
 15 C       -3.8900    -6.3730     1.7220 C.3   1 <1>   0.3430 
 16 C       -3.2810    -5.2090    -0.3810 C.3   1 <1>   0.3430 
 17 C       -5.1990    -6.9200     1.1390 C.3   1 <1>  -0.1600 
 18 C       -4.3340    -6.0880    -1.0600 C.3   1 <1>  -0.1600 
 19 C       -5.5880    -6.2800    -0.2040 C.3   1 <1>   0.4600 
 20 O       -6.0980    -4.9800     0.0510 O.3   1 <1>  -0.5600 
 21 C       -6.6300    -7.0920    -0.9540 C.2   1 <1>  -0.1400 
 22 C       -7.4770    -4.8500     0.3420 C.3   1 <1>   0.1200 
 23 S       -6.3130    -8.7100    -1.5610 S.3   1 <1>  -0.0800 
 24 C       -7.8750    -6.7070    -1.2560 C.2   1 <1>  -0.1810 
 25 C       -8.3620    -5.3460    -0.8180 C.3   1 <1>   0.0210 
 26 C       -7.9330    -8.8060    -2.2370 C.2   1 <1>  -0.1100 
 27 C       -8.6260    -7.6770    -1.9930 C.2   1 <1>  -0.1500 
 28 H       -0.6780    -3.1400     0.1060 H     1 <1>   0.1500 
 29 H       -4.3160    -0.0600     1.3610 H     1 <1>   0.1500 
 30 H       -3.5670     2.1540     0.8270 H     1 <1>   0.0800 
 31 H       -4.4750     1.3950    -0.4790 H     1 <1>   0.0800 
 32 H       -4.2830    -2.2950     2.2770 H     1 <1>   0.1500 
 33 H       -2.7170    -4.2800     2.8590 H     1 <1>   0.0800 
 34 H       -1.5350    -4.7720     1.6640 H     1 <1>   0.0800 
 35 H       -4.4160    -4.5090     1.1140 H     1 <1>   0.4500 
 36 H       -2.1340     3.9850    -2.5000 H     1 <1>   0.3700 
 37 H       -1.5920     2.4070    -1.9840 H     1 <1>   0.3700 
 38 H       -3.9990    -6.2520     2.7880 H     1 <1>   0.0800 
 39 H       -3.0950    -7.0790     1.5420 H     1 <1>   0.0800 
 40 H       -2.3020    -5.6270    -0.5480 H     1 <1>   0.0800 
 41 H       -3.3080    -4.2290    -0.8320 H     1 <1>   0.0800 
 42 H       -5.9970    -6.8030     1.8480 H     1 <1>   0.0800 
 43 H       -5.0720    -7.9780     1.0020 H     1 <1>   0.0800 
 44 H       -3.8970    -7.0480    -1.2680 H     1 <1>   0.0800 
 45 H       -4.6070    -5.6610    -2.0080 H     1 <1>   0.0800 
 46 H       -7.6770    -3.8110     0.5380 H     1 <1>   0.0800 
 47 H       -7.6930    -5.4140     1.2330 H     1 <1>   0.0800 
 48 H       -8.3140    -4.6570    -1.6420 H     1 <1>   0.0800 
 49 H       -9.3830    -5.4080    -0.4860 H     1 <1>   0.0800 
 50 H       -8.2000    -9.7110    -2.7550 H     1 <1>   0.1500 
 51 H       -9.6390    -7.4850    -2.3020 H     1 <1>   0.1500 
@<TRIPOS>BOND
  1   1   2  1   
  2   2   3  ar  
  3   2   4  ar  
  4   3   5  1   
  5   3   6  ar  
  6   4   7  ar  
  7   4  28  1   
  8   5   8  1   
  9   6   9  ar  
 10   6  29  1   
 11   7   9  ar  
 12   7  10  1   
 13   8  11  1   
 14   8  30  1   
 15   8  31  1   
 16   9  32  1   
 17  10  12  1   
 18  10  33  1   
 19  10  34  1   
 20  11  13  2   
 21  11  14  am  
 22  12  15  1   
 23  12  16  1   
 24  12  35  1   
 25  14  36  1   
 26  14  37  1   
 27  15  17  1   
 28  15  38  1   
 29  15  39  1   
 30  16  18  1   
 31  16  40  1   
 32  16  41  1   
 33  17  19  1   
 34  17  42  1   
 35  17  43  1   
 36  18  19  1   
 37  18  44  1   
 38  18  45  1   
 39  19  20  1   
 40  19  21  1   
 41  20  22  1   
 42  21  23  1   
 43  21  24  2   
 44  22  25  1   
 45  22  46  1   
 46  22  47  1   
 47  23  26  1   
 48  24  25  1   
 49  24  27  1   
 50  25  48  1   
 51  25  49  1   
 52  26  27  2   
 53  26  50  1   
 54  27  51  1   
@<TRIPOS>SUBSTRUCTURE
  1 ****  16 GROUP 4 **** **** 0

# MOE 2024.06 (io_trps.svl 2023.06)
