@<TRIPOS>MOLECULE
NONAME
52 53 1 0 0 
SMALL
USER_CHARGES


@<TRIPOS>ATOM
  1 S        0.3890     1.0810    -0.3270 S.o2  1 <1>   1.3330 
  2 O       -0.9620     1.4490     0.0300 O.2   1 <1>  -0.6500 
  3 O        1.3350     0.7390     0.7120 O.2   1 <1>  -0.6500 
  4 N        0.3210    -0.2190    -1.4170 N.am  1 <1>  -0.8490 
  5 C        1.0710     2.3980    -1.3310 C.3   1 <1>  -0.0550 
  6 C        1.5780    -0.9690    -1.5130 C.3   1 <1>   0.1160 
  7 C       -0.7850    -1.1350    -1.1240 C.3   1 <1>   0.1160 
  8 C        1.1090     3.7530    -0.6070 C.3   1 <1>  -0.0800 
  9 C        1.6760     4.8650    -1.4920 C.3   1 <1>   0.2000 
 10 C        2.0060     3.7570     0.6370 C.3   1 <1>   0.1100 
 11 O        0.6590     5.7470    -1.8210 O.3   1 <1>  -0.6800 
 12 C        2.7320     5.5650    -0.6330 C.3   1 <1>   0.1100 
 13 N        2.5230     5.1210     0.7590 N.3   1 <1>  -0.8100 
 14 C        1.5710     5.9920     1.5220 C.3   1 <1>   0.1710 
 15 C        2.0420     7.4390     1.6920 C.2   1 <1>   0.5690 
 16 O        1.2280     8.3290     1.7670 O.2   1 <1>  -0.5700 
 17 N        3.3750     7.6680     1.6920 N.am  1 <1>  -0.7300 
 18 C        4.0150     8.9580     1.4010 C.3   1 <1>   0.2840 
 19 C        4.7520     8.8050     0.0770 C.ar  1 <1>  -0.1440 
 20 C        4.1660     9.1260    -1.1450 C.ar  1 <1>  -0.1440 
 21 C        6.0480     8.3080     0.1020 C.ar  1 <1>  -0.1500 
 22 C        4.8870     8.9430    -2.3160 C.ar  1 <1>  -0.1500 
 23 C        2.7470     9.6720    -1.2400 C.3   1 <1>  -0.0970 
 24 C        6.7600     8.1300    -1.0700 C.ar  1 <1>  -0.1500 
 25 C        6.1780     8.4480    -2.2810 C.ar  1 <1>  -0.1500 
 26 H        2.0610     2.1320    -1.6440 H     1 <1>   0.0800 
 27 H        0.4660     2.5040    -2.2110 H     1 <1>   0.0800 
 28 H        1.5040    -1.7160    -2.2850 H     1 <1>   0.0800 
 29 H        1.8000    -1.4540    -0.5760 H     1 <1>   0.0800 
 30 H        2.3890    -0.3060    -1.7590 H     1 <1>   0.0800 
 31 H       -0.8070    -1.9370    -1.8420 H     1 <1>   0.0800 
 32 H       -1.7240    -0.6090    -1.1800 H     1 <1>   0.0800 
 33 H       -0.6790    -1.5470    -0.1340 H     1 <1>   0.0800 
 34 H        0.1090     4.0010    -0.2940 H     1 <1>   0.0800 
 35 H        2.1080     4.5010    -2.4090 H     1 <1>   0.0800 
 36 H        2.8410     3.0910     0.4930 H     1 <1>   0.0800 
 37 H        1.4750     3.4460     1.5230 H     1 <1>   0.0800 
 38 H        0.3390     6.1990    -1.0170 H     1 <1>   0.4000 
 39 H        2.7020     6.6350    -0.7460 H     1 <1>   0.0800 
 40 H        3.7050     5.2260    -0.9460 H     1 <1>   0.0800 
 41 H        0.6110     6.0060     1.0400 H     1 <1>   0.0800 
 42 H        1.4370     5.5820     2.5070 H     1 <1>   0.0800 
 43 H        3.9500     6.8470     1.4760 H     1 <1>   0.3700 
 44 H        3.2800     9.7420     1.3540 H     1 <1>   0.0800 
 45 H        4.7080     9.1970     2.1880 H     1 <1>   0.0800 
 46 H        6.5110     8.0530     1.0400 H     1 <1>   0.1500 
 47 H        4.4470     9.1870    -3.2670 H     1 <1>   0.1500 
 48 H        2.4450     9.7920    -2.2640 H     1 <1>   0.0800 
 49 H        2.6870    10.6300    -0.7570 H     1 <1>   0.0800 
 50 H        2.0540     9.0010    -0.7660 H     1 <1>   0.0800 
 51 H        7.7640     7.7450    -1.0390 H     1 <1>   0.1500 
 52 H        6.7270     8.3130    -3.1960 H     1 <1>   0.1500 
@<TRIPOS>BOND
  1   1   2  2   
  2   1   3  2   
  3   1   4  am  
  4   1   5  1   
  5   4   6  1   
  6   4   7  1   
  7   5   8  1   
  8   5  26  1   
  9   5  27  1   
 10   6  28  1   
 11   6  29  1   
 12   6  30  1   
 13   7  31  1   
 14   7  32  1   
 15   7  33  1   
 16   8   9  1   
 17   8  10  1   
 18   8  34  1   
 19   9  11  1   
 20   9  12  1   
 21   9  35  1   
 22  10  13  1   
 23  10  36  1   
 24  10  37  1   
 25  11  38  1   
 26  12  13  1   
 27  12  39  1   
 28  12  40  1   
 29  13  14  1   
 30  14  15  1   
 31  14  41  1   
 32  14  42  1   
 33  15  16  2   
 34  15  17  am  
 35  17  18  1   
 36  17  43  1   
 37  18  19  1   
 38  18  44  1   
 39  18  45  1   
 40  19  20  ar  
 41  19  21  ar  
 42  20  22  ar  
 43  20  23  1   
 44  21  24  ar  
 45  21  46  1   
 46  22  25  ar  
 47  22  47  1   
 48  23  48  1   
 49  23  49  1   
 50  23  50  1   
 51  24  25  ar  
 52  24  51  1   
 53  25  52  1   
@<TRIPOS>SUBSTRUCTURE
  1 ****  12 GROUP 4 **** **** 0

# MOE 2024.06 (io_trps.svl 2023.06)
