@<TRIPOS>MOLECULE
NONAME
45 48 1 0 0 
SMALL
USER_CHARGES


@<TRIPOS>ATOM
  1 S       -0.0210    -0.5850     1.0990 S.3   1 <1>  -0.0800 
  2 C        1.1560    -0.1270    -0.1240 C.2   1 <1>   0.1980 
  3 C       -0.9170     0.8650     0.7530 C.2   1 <1>  -0.1100 
  4 N        0.8930     0.9820    -0.6980 N.2   1 <1>  -0.5650 
  5 C        2.3580    -1.0440    -0.3750 C.3   1 <1>   0.4000 
  6 C       -0.2780     1.5430    -0.2110 C.2   1 <1>   0.0770 
  7 N        2.0150    -2.4840    -0.2530 N.am  1 <1>  -0.6600 
  8 C        3.4570    -0.8400     0.6700 C.3   1 <1>  -0.1600 
  9 C        1.6040    -3.2260    -1.3310 C.2   1 <1>   0.7160 
 10 C        2.5800    -3.0790     0.9790 C.3   1 <1>   0.1400 
 11 C        3.2230    -1.9170     1.7290 C.3   1 <1>  -0.1600 
 12 O        1.5560    -2.7000    -2.4260 O.2   1 <1>  -0.5700 
 13 C        1.2680    -4.6210    -1.1750 C.2   1 <1>  -0.0860 
 14 C        1.8840    -5.6800    -1.8490 C.2   1 <1>   0.1080 
 15 C        0.3460    -5.2450    -0.3880 C.2   1 <1>  -0.3320 
 16 N        1.4190    -6.8330    -1.5050 N.2   1 <1>  -0.7070 
 17 C        2.9860    -5.5270    -2.8750 C.3   1 <1>  -0.0590 
 18 N        0.4450    -6.5800    -0.6030 N.pl3 1 <1>   0.5930 
 19 C       -0.6530    -4.6110     0.5710 C.3   1 <1>  -0.0600 
 20 C       -0.3160    -7.6150     0.0080 C.ar  1 <1>  -0.0230 
 21 C       -1.6870    -7.7190    -0.2230 C.ar  1 <1>  -0.1500 
 22 C        0.3060    -8.5370     0.8490 C.ar  1 <1>  -0.1500 
 23 C       -2.4310    -8.7150     0.3860 C.ar  1 <1>  -0.1500 
 24 C       -0.4260    -9.5380     1.4640 C.ar  1 <1>  -0.1500 
 25 C       -1.7850    -9.6060     1.2210 C.ar  1 <1>   0.1900 
 26 F       -2.4830   -10.5450     1.8010 F     1 <1>  -0.1900 
 27 H       -1.8200     1.0510     1.3040 H     1 <1>   0.1500 
 28 H        2.7480    -0.8290    -1.3550 H     1 <1>   0.0800 
 29 H       -0.5960     2.4810    -0.6350 H     1 <1>   0.1500 
 30 H        3.4400     0.1540     1.0820 H     1 <1>   0.0800 
 31 H        4.4090    -0.9980     0.1960 H     1 <1>   0.0800 
 32 H        3.3210    -3.8140     0.7130 H     1 <1>   0.0800 
 33 H        1.8090    -3.5430     1.5700 H     1 <1>   0.0800 
 34 H        2.5350    -1.5560     2.4730 H     1 <1>   0.0800 
 35 H        4.1350    -2.2140     2.2170 H     1 <1>   0.0800 
 36 H        3.8150    -4.9940    -2.4490 H     1 <1>   0.0800 
 37 H        2.6160    -4.9840    -3.7250 H     1 <1>   0.0800 
 38 H        3.3220    -6.4950    -3.2010 H     1 <1>   0.0800 
 39 H       -0.5410    -3.5420     0.5840 H     1 <1>   0.0800 
 40 H       -0.5030    -4.9840     1.5690 H     1 <1>   0.0800 
 41 H       -1.6590    -4.8350     0.2650 H     1 <1>   0.0800 
 42 H       -2.1700    -7.0210    -0.8860 H     1 <1>   0.1500 
 43 H        1.3690    -8.4690     1.0140 H     1 <1>   0.1500 
 44 H       -3.4890    -8.8050     0.2170 H     1 <1>   0.1500 
 45 H        0.0420   -10.2540     2.1140 H     1 <1>   0.1500 
@<TRIPOS>BOND
  1   1   2  1   
  2   1   3  1   
  3   2   4  2   
  4   2   5  1   
  5   3   6  2   
  6   3  27  1   
  7   4   6  1   
  8   5   7  1   
  9   5   8  1   
 10   5  28  1   
 11   6  29  1   
 12   7   9  am  
 13   7  10  1   
 14   8  11  1   
 15   8  30  1   
 16   8  31  1   
 17   9  12  2   
 18   9  13  1   
 19  10  11  1   
 20  10  32  1   
 21  10  33  1   
 22  11  34  1   
 23  11  35  1   
 24  13  14  1   
 25  13  15  2   
 26  14  16  2   
 27  14  17  1   
 28  15  18  1   
 29  15  19  1   
 30  16  18  1   
 31  17  36  1   
 32  17  37  1   
 33  17  38  1   
 34  18  20  1   
 35  19  39  1   
 36  19  40  1   
 37  19  41  1   
 38  20  21  ar  
 39  20  22  ar  
 40  21  23  ar  
 41  21  42  1   
 42  22  24  ar  
 43  22  43  1   
 44  23  25  ar  
 45  23  44  1   
 46  24  25  ar  
 47  24  45  1   
 48  25  26  1   
@<TRIPOS>SUBSTRUCTURE
  1 ****  15 GROUP 4 **** **** 0

# MOE 2024.06 (io_trps.svl 2023.06)
