@<TRIPOS>MOLECULE
NONAME
30 31 1 0 0 
SMALL
USER_CHARGES


@<TRIPOS>ATOM
  1 O        0.1820     0.0080    -0.7460 O.2   1 <1>  -0.5700 
  2 C        1.3130    -0.4140    -0.8120 C.2   1 <1>   0.4240 
  3 C        2.4870     0.1710    -0.2520 C.ar  1 <1>   0.0860 
  4 C        2.6280     1.5190     0.0650 C.ar  1 <1>   0.3920 
  5 C        3.6150    -0.6120     0.0030 C.ar  1 <1>   0.4100 
  6 O        1.5970     2.3570    -0.1550 O.3   1 <1>  -0.3630 
  7 N        3.7330     2.0340     0.5590 N.ar  1 <1>  -0.6200 
  8 N        4.7350    -0.1070     0.4760 N.ar  1 <1>  -0.6200 
  9 N        3.6060    -1.9760    -0.2050 N.pl3 1 <1>  -0.8380 
 10 C        1.6580     3.7390     0.1390 C.3   1 <1>   0.0400 
 11 C        4.7190     1.1800     0.7160 C.ar  1 <1>   0.7200 
 12 C        4.8010    -2.6880    -0.7320 C.3   1 <1>   0.2090 
 13 C        2.8720    -2.8520     0.7440 C.3   1 <1>   0.2090 
 14 N        5.8470     1.6910     1.2040 N.pl3 1 <1>  -0.9000 
 15 C        4.6090    -4.1400    -0.3170 C.3   1 <1>  -0.1600 
 16 C        3.7760    -4.0590     0.9570 C.3   1 <1>  -0.1600 
 17 H        1.4400    -1.3420    -1.3390 H     1 <1>   0.0600 
 18 H        0.7140     4.1800    -0.1230 H     1 <1>   0.0800 
 19 H        2.4490     4.1830    -0.4400 H     1 <1>   0.0800 
 20 H        1.8460     3.8620     1.1910 H     1 <1>   0.0800 
 21 H        5.6980    -2.2960    -0.2810 H     1 <1>   0.0800 
 22 H        4.8650    -2.5860    -1.8020 H     1 <1>   0.0800 
 23 H        1.9430    -3.1610     0.2940 H     1 <1>   0.0800 
 24 H        2.6730    -2.3440     1.6730 H     1 <1>   0.0800 
 25 H        6.5400     1.0390     1.5600 H     1 <1>   0.4000 
 26 H        5.8020     2.6150     1.6250 H     1 <1>   0.4000 
 27 H        5.5490    -4.6380    -0.1640 H     1 <1>   0.0800 
 28 H        4.0580    -4.6520    -1.0860 H     1 <1>   0.0800 
 29 H        3.2120    -4.9550     1.1390 H     1 <1>   0.0800 
 30 H        4.4170    -3.8670     1.8000 H     1 <1>   0.0800 
@<TRIPOS>BOND
  1   1   2  2   
  2   2   3  1   
  3   2  17  1   
  4   3   4  ar  
  5   3   5  ar  
  6   4   6  1   
  7   4   7  ar  
  8   5   8  ar  
  9   5   9  1   
 10   6  10  1   
 11   7  11  ar  
 12   8  11  ar  
 13   9  12  1   
 14   9  13  1   
 15  10  18  1   
 16  10  19  1   
 17  10  20  1   
 18  11  14  1   
 19  12  15  1   
 20  12  21  1   
 21  12  22  1   
 22  13  16  1   
 23  13  23  1   
 24  13  24  1   
 25  14  25  1   
 26  14  26  1   
 27  15  16  1   
 28  15  27  1   
 29  15  28  1   
 30  16  29  1   
 31  16  30  1   
@<TRIPOS>SUBSTRUCTURE
  1 ****   5 GROUP 4 **** **** 0

# MOE 2024.06 (io_trps.svl 2023.06)
