@<TRIPOS>MOLECULE
NONAME
46 48 1 0 0 
SMALL
USER_CHARGES


@<TRIPOS>ATOM
  1 O       -0.1440    -0.6550     2.5550 O.2   1 <1>  -0.5700 
  2 C       -0.7510     0.2540     2.0380 C.2   1 <1>   0.5690 
  3 N       -1.7040     0.0140     1.0840 N.am  1 <1>  -0.6600 
  4 C       -0.4350     1.6730     2.4920 C.3   1 <1>   0.0440 
  5 C       -2.4350     1.0300     0.2840 C.3   1 <1>   0.1400 
  6 C       -2.0540    -1.3530     0.6400 C.3   1 <1>   0.1400 
  7 C        0.1840     2.5300     1.3940 C.ar  1 <1>  -0.1440 
  8 C       -3.2780     0.2280    -0.7100 C.3   1 <1>   0.2000 
  9 C       -3.3500    -1.1940    -0.1540 C.3   1 <1>  -0.0800 
 10 C       -0.3790     3.7490     1.0490 C.ar  1 <1>  -0.1500 
 11 C        1.3170     2.0940     0.7240 C.ar  1 <1>  -0.1500 
 12 O       -4.5560     0.7510    -0.8310 O.3   1 <1>  -0.6800 
 13 C       -3.5380    -2.2530    -1.2500 C.3   1 <1>  -0.0170 
 14 C        0.1680     4.5240     0.0400 C.ar  1 <1>   0.0820 
 15 C        1.8730     2.8630    -0.2840 C.ar  1 <1>  -0.1500 
 16 C       -3.6020    -3.6520    -0.6570 C.ar  1 <1>  -0.1440 
 17 O       -0.4580     5.6960    -0.2350 O.3   1 <1>  -0.3630 
 18 C        1.3030     4.0760    -0.6300 C.ar  1 <1>  -0.1500 
 19 C       -2.5000    -4.4820    -0.6090 C.ar  1 <1>  -0.1500 
 20 C       -4.7720    -4.1610    -0.1310 C.ar  1 <1>  -0.1500 
 21 C        0.0260     6.5690    -1.2310 C.3   1 <1>   0.0400 
 22 C       -2.6190    -5.7450    -0.0510 C.ar  1 <1>   0.1600 
 23 C       -4.7830    -5.4390     0.4040 C.ar  1 <1>   0.1600 
 24 N       -3.7340    -6.2430     0.4570 N.ar  1 <1>  -0.6200 
 25 H       -1.3400     2.1210     2.8550 H     1 <1>   0.0800 
 26 H        0.2530     1.6230     3.3170 H     1 <1>   0.0800 
 27 H       -3.0550     1.6230     0.9330 H     1 <1>   0.0800 
 28 H       -1.7420     1.6580    -0.2470 H     1 <1>   0.0800 
 29 H       -1.2600    -1.7270     0.0160 H     1 <1>   0.0800 
 30 H       -2.1830    -2.0120     1.4840 H     1 <1>   0.0800 
 31 H       -2.8100     0.2490    -1.6800 H     1 <1>   0.0800 
 32 H       -4.1610    -1.2630     0.5510 H     1 <1>   0.0800 
 33 H       -1.2520     4.1170     1.5570 H     1 <1>   0.1500 
 34 H        1.7690     1.1510     0.9830 H     1 <1>   0.1500 
 35 H       -5.0150     0.7310     0.0300 H     1 <1>   0.4000 
 36 H       -2.7300    -2.1970    -1.9590 H     1 <1>   0.0800 
 37 H       -4.4500    -2.0530    -1.7850 H     1 <1>   0.0800 
 38 H        2.7520     2.5150    -0.7980 H     1 <1>   0.1500 
 39 H        1.7530     4.6520    -1.4150 H     1 <1>   0.1500 
 40 H       -1.5510    -4.1630    -0.9990 H     1 <1>   0.1500 
 41 H       -5.6740    -3.5780    -0.1320 H     1 <1>   0.1500 
 42 H       -0.6200     7.4280    -1.2640 H     1 <1>   0.0800 
 43 H        0.0080     6.0610    -2.1790 H     1 <1>   0.0800 
 44 H        1.0250     6.8720    -0.9730 H     1 <1>   0.0800 
 45 H       -1.7490    -6.3780    -0.0210 H     1 <1>   0.1500 
 46 H       -5.7050    -5.8190     0.8090 H     1 <1>   0.1500 
@<TRIPOS>BOND
  1   1   2  2   
  2   2   3  am  
  3   2   4  1   
  4   3   5  1   
  5   3   6  1   
  6   4   7  1   
  7   4  25  1   
  8   4  26  1   
  9   5   8  1   
 10   5  27  1   
 11   5  28  1   
 12   6   9  1   
 13   6  29  1   
 14   6  30  1   
 15   7  10  ar  
 16   7  11  ar  
 17   8   9  1   
 18   8  12  1   
 19   8  31  1   
 20   9  13  1   
 21   9  32  1   
 22  10  14  ar  
 23  10  33  1   
 24  11  15  ar  
 25  11  34  1   
 26  12  35  1   
 27  13  16  1   
 28  13  36  1   
 29  13  37  1   
 30  14  17  1   
 31  14  18  ar  
 32  15  18  ar  
 33  15  38  1   
 34  16  19  ar  
 35  16  20  ar  
 36  17  21  1   
 37  18  39  1   
 38  19  22  ar  
 39  19  40  1   
 40  20  23  ar  
 41  20  41  1   
 42  21  42  1   
 43  21  43  1   
 44  21  44  1   
 45  22  24  ar  
 46  22  45  1   
 47  23  24  ar  
 48  23  46  1   
@<TRIPOS>SUBSTRUCTURE
  1 ****   3 GROUP 4 **** **** 0

# MOE 2024.06 (io_trps.svl 2023.06)
