@<TRIPOS>MOLECULE
NONAME
41 43 1 0 0 
SMALL
USER_CHARGES


@<TRIPOS>ATOM
  1 O        2.7810    -1.0960    -2.4290 O.2   1 <1>  -0.5700 
  2 C        2.4440    -1.1890    -1.2650 C.2   1 <1>   0.5440 
  3 N        2.4620    -0.0650    -0.4770 N.am  1 <1>  -0.4940 
  4 C        2.0480    -2.4830    -0.7330 C.ar  1 <1>   0.0860 
  5 C        2.9090     1.2350    -0.7360 C.2   1 <1>   0.2040 
  6 C        1.3100    -2.6620     0.4590 C.ar  1 <1>   0.3930 
  7 C        2.4090    -3.6370    -1.4260 C.ar  1 <1>  -0.1500 
  8 O        3.5650     1.5570    -1.8260 O.3   1 <1>  -0.0190 
  9 C        2.7930     2.3500     0.0130 C.2   1 <1>  -0.1810 
 10 O        0.9240    -1.5700     1.1600 O.3   1 <1>  -0.3620 
 11 N        0.9470    -3.8410     0.9700 N.ar  1 <1>  -0.6200 
 12 C        2.0310    -4.8490    -0.9020 C.ar  1 <1>  -0.1430 
 13 N        3.8930     2.8250    -1.8410 N.2   1 <1>  -0.4100 
 14 C        3.4400     3.3230    -0.7470 C.2   1 <1>   0.1080 
 15 C        2.1250     2.5390     1.3650 C.3   1 <1>  -0.0590 
 16 C        0.1350    -1.6670     2.3340 C.3   1 <1>   0.0400 
 17 C        1.3200    -4.8880     0.2680 C.ar  1 <1>   0.1670 
 18 C        2.2950    -6.2320    -1.4430 C.3   1 <1>  -0.0170 
 19 C        3.6110     4.7840    -0.3680 C.3   1 <1>   0.0210 
 20 C        1.0060    -6.3060     0.6670 C.3   1 <1>  -0.0170 
 21 C        1.4070    -7.1360    -0.5680 C.3   1 <1>  -0.1600 
 22 C        4.8430     4.9890     0.5190 C.3   1 <1>  -0.2400 
 23 H        2.0350    -0.2000     0.4400 H     1 <1>   0.3700 
 24 H        2.9690    -3.5810    -2.3450 H     1 <1>   0.1500 
 25 H        1.6980     1.6140     1.7100 H     1 <1>   0.0800 
 26 H        1.3410     3.2700     1.2870 H     1 <1>   0.0800 
 27 H        2.8470     2.8740     2.0880 H     1 <1>   0.0800 
 28 H       -0.0600    -0.6760     2.7000 H     1 <1>   0.0800 
 29 H        0.6760    -2.2350     3.0720 H     1 <1>   0.0800 
 30 H       -0.7910    -2.1600     2.0910 H     1 <1>   0.0800 
 31 H        3.3340    -6.4780    -1.3130 H     1 <1>   0.0800 
 32 H        2.0300    -6.3060    -2.4830 H     1 <1>   0.0800 
 33 H        2.7300     5.1300     0.1410 H     1 <1>   0.0800 
 34 H        3.7200     5.3640    -1.2680 H     1 <1>   0.0800 
 35 H       -0.0380    -6.4190     0.8990 H     1 <1>   0.0800 
 36 H        1.6000    -6.5720     1.5230 H     1 <1>   0.0800 
 37 H        1.9150    -8.0430    -0.2890 H     1 <1>   0.0800 
 38 H        0.5180    -7.3900    -1.1190 H     1 <1>   0.0800 
 39 H        4.7500     4.4250     1.4290 H     1 <1>   0.0800 
 40 H        4.9550     6.0300     0.7640 H     1 <1>   0.0800 
 41 H        5.7260     4.6590    -0.0020 H     1 <1>   0.0800 
@<TRIPOS>BOND
  1   1   2  2   
  2   2   3  am  
  3   2   4  1   
  4   3   5  1   
  5   3  23  1   
  6   4   6  ar  
  7   4   7  ar  
  8   5   8  1   
  9   5   9  2   
 10   6  10  1   
 11   6  11  ar  
 12   7  12  ar  
 13   7  24  1   
 14   8  13  1   
 15   9  14  1   
 16   9  15  1   
 17  10  16  1   
 18  11  17  ar  
 19  12  17  ar  
 20  12  18  1   
 21  13  14  2   
 22  14  19  1   
 23  15  25  1   
 24  15  26  1   
 25  15  27  1   
 26  16  28  1   
 27  16  29  1   
 28  16  30  1   
 29  17  20  1   
 30  18  21  1   
 31  18  31  1   
 32  18  32  1   
 33  19  22  1   
 34  19  33  1   
 35  19  34  1   
 36  20  21  1   
 37  20  35  1   
 38  20  36  1   
 39  21  37  1   
 40  21  38  1   
 41  22  39  1   
 42  22  40  1   
 43  22  41  1   
@<TRIPOS>SUBSTRUCTURE
  1 ****   2 GROUP 4 **** **** 0

# MOE 2024.06 (io_trps.svl 2023.06)
