@<TRIPOS>MOLECULE
NONAME
43 44 1 0 0 
SMALL
USER_CHARGES


@<TRIPOS>ATOM
  1 S        0.5110     0.0280    -1.0460 S.o2  1 <1>   1.3330 
  2 O       -0.5600     0.8390    -1.5770 O.2   1 <1>  -0.6500 
  3 O        0.7910    -1.2640    -1.6310 O.2   1 <1>  -0.6500 
  4 N        0.1900    -0.2100     0.6070 N.am  1 <1>  -0.8490 
  5 C        2.0330     0.9780    -1.0580 C.3   1 <1>  -0.0550 
  6 C       -0.5980    -1.4230     0.8460 C.3   1 <1>   0.1160 
  7 C       -0.4670     0.9390     1.2410 C.3   1 <1>   0.1160 
  8 C        3.2650     0.2080    -0.5330 C.3   1 <1>  -0.0800 
  9 C        4.5960     0.9120    -0.7470 C.3   1 <1>   0.2200 
 10 C        3.2650    -0.0720     0.9760 C.3   1 <1>   0.1200 
 11 N        4.4850     2.3600    -0.4470 N.am  1 <1>  -0.7300 
 12 C        5.4390     0.2520     0.3340 C.3   1 <1>   0.1200 
 13 O        4.5780     0.1150     1.4210 O.3   1 <1>  -0.5600 
 14 C        4.4530     3.3500    -1.3750 C.2   1 <1>   0.5690 
 15 O        4.4220     3.1010    -2.5550 O.2   1 <1>  -0.5700 
 16 C        4.4350     4.7940    -0.9140 C.3   1 <1>   0.0820 
 17 C        5.7120     5.1890    -0.1940 C.2   1 <1>   0.0460 
 18 N        5.6490     6.3280     0.5930 N.2   1 <1>  -0.5650 
 19 C        6.8980     4.5600    -0.2330 C.2   1 <1>  -0.1100 
 20 C        6.7670     6.5700     1.1490 C.2   1 <1>   0.1980 
 21 S        8.0280     5.4190     0.7700 S.3   1 <1>  -0.0800 
 22 C        7.1210     7.7080     2.0770 C.3   1 <1>  -0.0600 
 23 H        2.2340     1.2710    -2.0710 H     1 <1>   0.0800 
 24 H        1.8960     1.8760    -0.4890 H     1 <1>   0.0800 
 25 H       -0.7750    -1.5520     1.9000 H     1 <1>   0.0800 
 26 H       -0.0630    -2.2870     0.4880 H     1 <1>   0.0800 
 27 H       -1.5420    -1.3640     0.3310 H     1 <1>   0.0800 
 28 H       -0.5630     0.7700     2.3000 H     1 <1>   0.0800 
 29 H       -1.4470     1.0930     0.8200 H     1 <1>   0.0800 
 30 H        0.1160     1.8310     1.0920 H     1 <1>   0.0800 
 31 H        3.3130    -0.7410    -1.0390 H     1 <1>   0.0800 
 32 H        4.9970     0.7560    -1.7350 H     1 <1>   0.0800 
 33 H        2.9610    -1.0810     1.1940 H     1 <1>   0.0800 
 34 H        2.6400     0.6190     1.5140 H     1 <1>   0.0800 
 35 H        4.5260     2.5800     0.5530 H     1 <1>   0.3700 
 36 H        6.2950     0.8380     0.6170 H     1 <1>   0.0800 
 37 H        5.7490    -0.7330     0.0300 H     1 <1>   0.0800 
 38 H        4.2950     5.4410    -1.7590 H     1 <1>   0.0800 
 39 H        3.6010     4.9260    -0.2520 H     1 <1>   0.0800 
 40 H        7.2450     3.6800    -0.7450 H     1 <1>   0.1500 
 41 H        6.2610     8.3350     2.2270 H     1 <1>   0.0800 
 42 H        7.9120     8.2950     1.6480 H     1 <1>   0.0800 
 43 H        7.4410     7.3190     3.0260 H     1 <1>   0.0800 
@<TRIPOS>BOND
  1   1   2  2   
  2   1   3  2   
  3   1   4  am  
  4   1   5  1   
  5   4   6  1   
  6   4   7  1   
  7   5   8  1   
  8   5  23  1   
  9   5  24  1   
 10   6  25  1   
 11   6  26  1   
 12   6  27  1   
 13   7  28  1   
 14   7  29  1   
 15   7  30  1   
 16   8   9  1   
 17   8  10  1   
 18   8  31  1   
 19   9  11  1   
 20   9  12  1   
 21   9  32  1   
 22  10  13  1   
 23  10  33  1   
 24  10  34  1   
 25  11  14  am  
 26  11  35  1   
 27  12  13  1   
 28  12  36  1   
 29  12  37  1   
 30  14  15  2   
 31  14  16  1   
 32  16  17  1   
 33  16  38  1   
 34  16  39  1   
 35  17  18  1   
 36  17  19  2   
 37  18  20  2   
 38  19  21  1   
 39  19  40  1   
 40  20  21  1   
 41  20  22  1   
 42  22  41  1   
 43  22  42  1   
 44  22  43  1   
@<TRIPOS>SUBSTRUCTURE
  1 ****  11 GROUP 4 **** **** 0

# MOE 2024.06 (io_trps.svl 2023.06)
