@<TRIPOS>MOLECULE
NONAME
55 58 1 0 0 
SMALL
USER_CHARGES


@<TRIPOS>ATOM
  1 S       -1.0370     2.2750    -2.6120 S.3   1 <1>  -0.0800 
  2 C       -0.9580     1.7420    -0.9400 C.2   1 <1>  -0.1400 
  3 C       -2.2050     1.0160    -2.9910 C.2   1 <1>  -0.1100 
  4 C       -1.7770     0.7020    -0.7350 C.2   1 <1>  -0.1810 
  5 C       -0.0620     2.4090     0.0980 C.3   1 <1>   0.4600 
  6 C       -2.4870     0.2770    -1.9010 C.2   1 <1>  -0.1500 
  7 C       -1.8760     0.0940     0.6460 C.3   1 <1>   0.0210 
  8 O       -0.1190     1.6590     1.2960 O.3   1 <1>  -0.5600 
  9 C       -0.5120     3.8470     0.3910 C.3   1 <1>  -0.1600 
 10 C        1.4030     2.3910    -0.3510 C.3   1 <1>  -0.1600 
 11 C       -1.3590     1.1120     1.6810 C.3   1 <1>   0.1200 
 12 C        0.4170     4.5320     1.3960 C.3   1 <1>   0.1400 
 13 C        2.3100     3.0980     0.6570 C.3   1 <1>   0.1400 
 14 N        1.8170     4.4890     0.8800 N.am  1 <1>  -0.6600 
 15 C        2.6060     5.5850     0.6200 C.2   1 <1>   0.5690 
 16 O        3.7160     5.4550     0.1460 O.2   1 <1>  -0.5700 
 17 C        2.0830     7.0080     0.9080 C.3   1 <1>   0.1710 
 18 N        3.0480     8.1500     0.8640 N.3   1 <1>  -0.8100 
 19 C        3.2920     8.8890    -0.3920 C.3   1 <1>   0.1100 
 20 C        3.9070     8.4180     2.0200 C.3   1 <1>   0.1100 
 21 C        4.3780     8.2780    -1.3050 C.3   1 <1>   0.3430 
 22 C        5.3090     7.8190     1.8660 C.3   1 <1>  -0.1600 
 23 N        5.4140     7.5020    -0.5610 N.4   1 <1>  -0.9590 
 24 C        6.0300     8.2190     0.5790 C.3   1 <1>   0.3430 
 25 C        6.4060     6.8600    -1.4640 C.3   1 <1>   0.2630 
 26 H       -2.5600     0.9610    -4.0040 H     1 <1>   0.1500 
 27 H       -3.1690    -0.5550    -1.8670 H     1 <1>   0.1500 
 28 H       -1.2890    -0.8050     0.6910 H     1 <1>   0.0800 
 29 H       -2.8980    -0.1540     0.8690 H     1 <1>   0.0800 
 30 H       -1.5210     3.8490     0.7560 H     1 <1>   0.0800 
 31 H       -0.5060     4.4110    -0.5240 H     1 <1>   0.0800 
 32 H        1.4990     2.8830    -1.3010 H     1 <1>   0.0800 
 33 H        1.7190     1.3720    -0.4790 H     1 <1>   0.0800 
 34 H       -1.2240     0.6330     2.6350 H     1 <1>   0.0800 
 35 H       -2.0650     1.9160     1.7980 H     1 <1>   0.0800 
 36 H        0.3750     4.0140     2.3400 H     1 <1>   0.0800 
 37 H        0.0810     5.5390     1.5550 H     1 <1>   0.0800 
 38 H        3.3220     3.0990     0.2900 H     1 <1>   0.0800 
 39 H        2.3000     2.5650     1.5940 H     1 <1>   0.0800 
 40 H        1.6440     6.9980     1.8890 H     1 <1>   0.0800 
 41 H        1.2890     7.2070     0.2120 H     1 <1>   0.0800 
 42 H        3.5840     9.8950    -0.1450 H     1 <1>   0.0800 
 43 H        2.3730     8.9650    -0.9480 H     1 <1>   0.0800 
 44 H        3.4470     8.0230     2.9110 H     1 <1>   0.0800 
 45 H        3.9870     9.4850     2.1510 H     1 <1>   0.0800 
 46 H        4.8420     9.0650    -1.8760 H     1 <1>   0.0800 
 47 H        3.8890     7.6170    -2.0010 H     1 <1>   0.0800 
 48 H        5.2620     6.7480     1.9490 H     1 <1>   0.0800 
 49 H        5.8980     8.1660     2.6960 H     1 <1>   0.0800 
 50 H        4.8500     6.7400    -0.1180 H     1 <1>   0.4500 
 51 H        7.0660     7.9370     0.6640 H     1 <1>   0.0800 
 52 H        5.9770     9.2860     0.4310 H     1 <1>   0.0800 
 53 H        6.9980     7.6080    -1.9640 H     1 <1>   0.0800 
 54 H        5.8990     6.2610    -2.2030 H     1 <1>   0.0800 
 55 H        7.0590     6.2170    -0.8970 H     1 <1>   0.0800 
@<TRIPOS>BOND
  1   1   2  1   
  2   1   3  1   
  3   2   4  2   
  4   2   5  1   
  5   3   6  2   
  6   3  26  1   
  7   4   6  1   
  8   4   7  1   
  9   5   8  1   
 10   5   9  1   
 11   5  10  1   
 12   6  27  1   
 13   7  11  1   
 14   7  28  1   
 15   7  29  1   
 16   8  11  1   
 17   9  12  1   
 18   9  30  1   
 19   9  31  1   
 20  10  13  1   
 21  10  32  1   
 22  10  33  1   
 23  11  34  1   
 24  11  35  1   
 25  12  14  1   
 26  12  36  1   
 27  12  37  1   
 28  13  14  1   
 29  13  38  1   
 30  13  39  1   
 31  14  15  am  
 32  15  16  2   
 33  15  17  1   
 34  17  18  1   
 35  17  40  1   
 36  17  41  1   
 37  18  19  1   
 38  18  20  1   
 39  19  21  1   
 40  19  42  1   
 41  19  43  1   
 42  20  22  1   
 43  20  44  1   
 44  20  45  1   
 45  21  23  1   
 46  21  46  1   
 47  21  47  1   
 48  22  24  1   
 49  22  48  1   
 50  22  49  1   
 51  23  24  1   
 52  23  25  1   
 53  23  50  1   
 54  24  51  1   
 55  24  52  1   
 56  25  53  1   
 57  25  54  1   
 58  25  55  1   
@<TRIPOS>SUBSTRUCTURE
  1 ****  14 GROUP 4 **** **** 0

# MOE 2024.06 (io_trps.svl 2023.06)
