@<TRIPOS>MOLECULE
NONAME
46 48 1 0 0 
SMALL
USER_CHARGES


@<TRIPOS>ATOM
  1 O       -1.9190     0.4520    -1.8310 O.2   1 <1>  -0.5700 
  2 C       -1.6550     0.2680    -0.6670 C.2   1 <1>   0.5770 
  3 N       -1.6410    -0.9920    -0.1590 N.am  1 <1>  -0.7300 
  4 C       -1.3510     1.4800     0.2230 C.3   1 <1>   0.0530 
  5 C       -1.9400    -2.2270    -0.9180 C.3   1 <1>   0.2200 
  6 C       -2.6590     2.1180     0.7820 C.3   1 <1>   0.0000 
  7 C       -0.9630     1.1660     1.7050 C.3   1 <1>   0.0000 
  8 C       -0.4160     2.4620    -0.5090 C.3   1 <1>   0.1200 
  9 C       -3.3500    -2.7260    -0.6260 C.3   1 <1>  -0.0800 
 10 C       -1.1190    -3.3670    -0.3340 C.3   1 <1>   0.1200 
 11 C       -2.4730     1.2460     2.0530 C.3   1 <1>   0.0000 
 12 O       -0.1130     3.5680     0.2870 O.3   1 <1>  -0.5600 
 13 C       -3.1710    -3.5170     0.6750 C.3   1 <1>   0.1200 
 14 C       -4.4510    -1.6500    -0.5700 C.3   1 <1>  -0.0160 
 15 O       -1.7990    -3.7450     0.8240 O.3   1 <1>  -0.5600 
 16 C        0.6940     4.5100    -0.3420 C.3   1 <1>   0.0400 
 17 C       -5.8160    -2.2830    -0.3490 C.ar  1 <1>  -0.1440 
 18 C       -6.4100    -2.3280     0.8960 C.ar  1 <1>  -0.1500 
 19 C       -6.5310    -2.8460    -1.3860 C.ar  1 <1>  -0.1500 
 20 C       -7.6520    -2.9240     1.0410 C.ar  1 <1>   0.1600 
 21 C       -7.7670    -3.4170    -1.1340 C.ar  1 <1>   0.1600 
 22 N       -8.3440    -3.4720     0.0550 N.ar  1 <1>  -0.6200 
 23 H       -1.4540    -1.1530     0.8340 H     1 <1>   0.3700 
 24 H       -1.7570    -2.0840    -1.9700 H     1 <1>   0.0800 
 25 H       -2.5730     3.1680     1.0000 H     1 <1>   0.0000 
 26 H       -3.5450     1.8760     0.2220 H     1 <1>   0.0000 
 27 H       -0.5260     0.1980     1.8760 H     1 <1>   0.0000 
 28 H       -0.4090     1.9510     2.1900 H     1 <1>   0.0000 
 29 H       -0.8920     2.8120    -1.4100 H     1 <1>   0.0800 
 30 H        0.5040     1.9660    -0.7650 H     1 <1>   0.0800 
 31 H       -3.6120    -3.4310    -1.3950 H     1 <1>   0.0800 
 32 H       -0.1130    -3.0760    -0.0880 H     1 <1>   0.0800 
 33 H       -1.1060    -4.2120    -1.0010 H     1 <1>   0.0800 
 34 H       -2.9700     0.2940     1.9850 H     1 <1>   0.0000 
 35 H       -2.6780     1.7700     2.9700 H     1 <1>   0.0000 
 36 H       -3.6840    -4.4630     0.6400 H     1 <1>   0.0800 
 37 H       -3.5020    -2.9560     1.5310 H     1 <1>   0.0800 
 38 H       -4.4580    -1.0980    -1.4950 H     1 <1>   0.0800 
 39 H       -4.2540    -0.9490     0.2200 H     1 <1>   0.0800 
 40 H        0.8700     5.3140     0.3510 H     1 <1>   0.0800 
 41 H        0.1870     4.8870    -1.2140 H     1 <1>   0.0800 
 42 H        1.6290     4.0520    -0.6130 H     1 <1>   0.0800 
 43 H       -5.9210    -1.9070     1.7550 H     1 <1>   0.1500 
 44 H       -6.1390    -2.8450    -2.3870 H     1 <1>   0.1500 
 45 H       -8.1000    -2.9510     2.0190 H     1 <1>   0.1500 
 46 H       -8.3110    -3.8510    -1.9560 H     1 <1>   0.1500 
@<TRIPOS>BOND
  1   1   2  2   
  2   2   3  am  
  3   2   4  1   
  4   3   5  1   
  5   3  23  1   
  6   4   6  1   
  7   4   7  1   
  8   4   8  1   
  9   5   9  1   
 10   5  10  1   
 11   5  24  1   
 12   6  11  1   
 13   6  25  1   
 14   6  26  1   
 15   7  11  1   
 16   7  27  1   
 17   7  28  1   
 18   8  12  1   
 19   8  29  1   
 20   8  30  1   
 21   9  13  1   
 22   9  14  1   
 23   9  31  1   
 24  10  15  1   
 25  10  32  1   
 26  10  33  1   
 27  11  34  1   
 28  11  35  1   
 29  12  16  1   
 30  13  15  1   
 31  13  36  1   
 32  13  37  1   
 33  14  17  1   
 34  14  38  1   
 35  14  39  1   
 36  16  40  1   
 37  16  41  1   
 38  16  42  1   
 39  17  18  ar  
 40  17  19  ar  
 41  18  20  ar  
 42  18  43  1   
 43  19  21  ar  
 44  19  44  1   
 45  20  22  ar  
 46  20  45  1   
 47  21  22  ar  
 48  21  46  1   
@<TRIPOS>SUBSTRUCTURE
  1 ****  14 GROUP 4 **** **** 0

# MOE 2024.06 (io_trps.svl 2023.06)
