@<TRIPOS>MOLECULE
NONAME
39 41 1 0 0 
SMALL
USER_CHARGES


@<TRIPOS>ATOM
  1 CL      -0.4120     0.2330    -1.4250 Cl    1 <1>  -0.1230 
  2 C       -1.8200     0.6330    -0.4510 C.2   1 <1>   0.1230 
  3 C       -2.8050    -0.2530     0.0050 C.2   1 <1>   0.2030 
  4 C       -2.1450     1.8670    -0.0260 C.2   1 <1>  -0.3320 
  5 N       -3.7150     0.4380     0.6840 N.2   1 <1>  -0.7070 
  6 C       -2.7960    -1.6920    -0.2420 C.2   1 <1>   0.7160 
  7 N       -3.2950     1.7160     0.6610 N.pl3 1 <1>   0.3000 
  8 C       -1.4380     3.1970    -0.2280 C.3   1 <1>  -0.0600 
  9 O       -1.7430    -2.2860    -0.4060 O.2   1 <1>  -0.5700 
 10 N       -3.9520    -2.4520    -0.3010 N.am  1 <1>  -0.6600 
 11 C       -5.3350    -1.9490    -0.1120 C.3   1 <1>   0.1400 
 12 C       -3.9500    -3.9140    -0.5300 C.3   1 <1>   0.1400 
 13 C       -6.2290    -3.1700    -0.3350 C.3   1 <1>   0.2000 
 14 C       -5.3360    -4.3840    -0.0840 C.3   1 <1>  -0.0800 
 15 O       -7.3060    -3.1830     0.5370 O.3   1 <1>  -0.6800 
 16 C       -5.8290    -5.6420    -0.8160 C.3   1 <1>   0.0200 
 17 C       -4.9650    -6.8640    -0.5540 C.2   1 <1>  -0.0400 
 18 O       -5.1580    -7.9340    -1.2780 O.3   1 <1>  -0.0190 
 19 C       -3.9730    -7.1320     0.3120 C.2   1 <1>  -0.1500 
 20 N       -4.3490    -8.8990    -0.9490 N.2   1 <1>  -0.4100 
 21 C       -3.6230    -8.4440     0.0070 C.2   1 <1>   0.1080 
 22 C       -2.5370    -9.2360     0.7010 C.3   1 <1>  -0.0590 
 23 H       -3.8160     2.4730     1.1230 H     1 <1>   0.2700 
 24 H       -0.5410     3.0590    -0.8070 H     1 <1>   0.0800 
 25 H       -1.1650     3.6230     0.7220 H     1 <1>   0.0800 
 26 H       -2.0780     3.8850    -0.7510 H     1 <1>   0.0800 
 27 H       -5.4420    -1.5720     0.8900 H     1 <1>   0.0800 
 28 H       -5.5540    -1.1730    -0.8250 H     1 <1>   0.0800 
 29 H       -3.7960    -4.1020    -1.5790 H     1 <1>   0.0800 
 30 H       -3.1650    -4.3890     0.0340 H     1 <1>   0.0800 
 31 H       -6.6080    -3.1630    -1.3430 H     1 <1>   0.0800 
 32 H       -5.2880    -4.5770     0.9740 H     1 <1>   0.0800 
 33 H       -6.9970    -3.1430     1.4630 H     1 <1>   0.4000 
 34 H       -5.8480    -5.4560    -1.8750 H     1 <1>   0.0800 
 35 H       -6.8350    -5.8650    -0.5060 H     1 <1>   0.0800 
 36 H       -3.5260    -6.5200     1.0720 H     1 <1>   0.1500 
 37 H       -2.7480    -9.3020     1.7520 H     1 <1>   0.0800 
 38 H       -1.5870    -8.7550     0.5580 H     1 <1>   0.0800 
 39 H       -2.4900   -10.2290     0.2920 H     1 <1>   0.0800 
@<TRIPOS>BOND
  1   1   2  1   
  2   2   3  1   
  3   2   4  2   
  4   3   5  2   
  5   3   6  1   
  6   4   7  1   
  7   4   8  1   
  8   5   7  1   
  9   6   9  2   
 10   6  10  am  
 11   7  23  1   
 12   8  24  1   
 13   8  25  1   
 14   8  26  1   
 15  10  11  1   
 16  10  12  1   
 17  11  13  1   
 18  11  27  1   
 19  11  28  1   
 20  12  14  1   
 21  12  29  1   
 22  12  30  1   
 23  13  14  1   
 24  13  15  1   
 25  13  31  1   
 26  14  16  1   
 27  14  32  1   
 28  15  33  1   
 29  16  17  1   
 30  16  34  1   
 31  16  35  1   
 32  17  18  1   
 33  17  19  2   
 34  18  20  1   
 35  19  21  1   
 36  19  36  1   
 37  20  21  2   
 38  21  22  1   
 39  22  37  1   
 40  22  38  1   
 41  22  39  1   
@<TRIPOS>SUBSTRUCTURE
  1 ****  10 GROUP 4 **** **** 0

# MOE 2024.06 (io_trps.svl 2023.06)
