@<TRIPOS>MOLECULE
NONAME
47 49 1 0 0 
SMALL
USER_CHARGES


@<TRIPOS>ATOM
  1 O        0.8960     0.2930     0.4040 O.co2 1 <1>  -0.9000 
  2 C        0.0900     0.3500    -0.5300 C.2   1 <1>   0.9060 
  3 O        0.4520     0.5170    -1.7000 O.co2 1 <1>  -0.9000 
  4 C       -1.4360     0.4060    -0.2380 C.3   1 <1>   0.3170 
  5 N       -1.9760     1.8220    -0.0960 N.4   1 <1>  -0.9590 
  6 C       -1.8100    -0.4050     1.0180 C.3   1 <1>  -0.1600 
  7 C       -3.4230     1.9180     0.2110 C.3   1 <1>   0.3430 
  8 C       -1.5890     2.6520    -1.2690 C.3   1 <1>   0.4860 
  9 C       -3.3060    -0.3390     1.3450 C.3   1 <1>  -0.1600 
 10 C       -3.7500     1.1220     1.4730 C.3   1 <1>  -0.1600 
 11 C       -1.6680     4.1080    -0.8550 C.ar  1 <1>  -0.1430 
 12 C       -0.7530     4.5880     0.0730 C.ar  1 <1>   0.0830 
 13 C       -2.6190     4.9650    -1.3880 C.ar  1 <1>  -0.1500 
 14 O        0.1560     3.7210     0.5760 O.3   1 <1>  -0.3630 
 15 C       -0.7900     5.9190     0.4690 C.ar  1 <1>  -0.1500 
 16 C       -2.6540     6.2920    -0.9930 C.ar  1 <1>  -0.1500 
 17 C        1.5080     4.1210     0.6690 C.3   1 <1>   0.1200 
 18 C       -1.7420     6.7680    -0.0660 C.ar  1 <1>  -0.1500 
 19 C        2.4010     2.8800     0.6370 C.3   1 <1>   0.0960 
 20 N        3.8070     3.2960     0.7880 N.pl3 1 <1>   0.0480 
 21 C        4.5500     3.3080     1.9180 C.2   1 <1>   0.0360 
 22 C        4.6150     3.8140    -0.1550 C.2   1 <1>  -0.3020 
 23 N        5.7410     3.7920     1.7630 N.2   1 <1>  -0.5650 
 24 C        5.7850     4.1070     0.4550 C.2   1 <1>   0.0770 
 25 H       -1.9110    -0.0540    -1.0850 H     1 <1>   0.0800 
 26 H       -1.4280     2.2350     0.6760 H     1 <1>   0.4500 
 27 H       -1.2390    -0.0400     1.8540 H     1 <1>   0.0800 
 28 H       -1.5190    -1.4300     0.8650 H     1 <1>   0.0800 
 29 H       -3.9920     1.5250    -0.6160 H     1 <1>   0.0800 
 30 H       -3.6990     2.9510     0.3550 H     1 <1>   0.0800 
 31 H       -2.2320     2.4490    -2.1080 H     1 <1>   0.0800 
 32 H       -0.5730     2.4480    -1.5630 H     1 <1>   0.0800 
 33 H       -3.4980    -0.8620     2.2670 H     1 <1>   0.0800 
 34 H       -3.8680    -0.8260     0.5650 H     1 <1>   0.0800 
 35 H       -4.8110     1.1600     1.6470 H     1 <1>   0.0800 
 36 H       -3.2660     1.5810     2.3170 H     1 <1>   0.0800 
 37 H       -3.3310     4.6140    -2.1160 H     1 <1>   0.1500 
 38 H       -0.0900     6.2930     1.1940 H     1 <1>   0.1500 
 39 H       -3.3910     6.9590    -1.4080 H     1 <1>   0.1500 
 40 H        1.6350     4.6590     1.5920 H     1 <1>   0.0800 
 41 H        1.7340     4.7580    -0.1690 H     1 <1>   0.0800 
 42 H       -1.7750     7.8000     0.2380 H     1 <1>   0.1500 
 43 H        2.2910     2.3590    -0.2980 H     1 <1>   0.0800 
 44 H        2.1470     2.2150     1.4420 H     1 <1>   0.0800 
 45 H        4.1640     2.9440     2.8540 H     1 <1>   0.1500 
 46 H        4.3230     3.9370    -1.1810 H     1 <1>   0.1500 
 47 H        6.6700     4.5330     0.0130 H     1 <1>   0.1500 
@<TRIPOS>BOND
  1   1   2  ar  
  2   2   3  ar  
  3   2   4  1   
  4   4   5  1   
  5   4   6  1   
  6   4  25  1   
  7   5   7  1   
  8   5   8  1   
  9   5  26  1   
 10   6   9  1   
 11   6  27  1   
 12   6  28  1   
 13   7  10  1   
 14   7  29  1   
 15   7  30  1   
 16   8  11  1   
 17   8  31  1   
 18   8  32  1   
 19   9  10  1   
 20   9  33  1   
 21   9  34  1   
 22  10  35  1   
 23  10  36  1   
 24  11  12  ar  
 25  11  13  ar  
 26  12  14  1   
 27  12  15  ar  
 28  13  16  ar  
 29  13  37  1   
 30  14  17  1   
 31  15  18  ar  
 32  15  38  1   
 33  16  18  ar  
 34  16  39  1   
 35  17  19  1   
 36  17  40  1   
 37  17  41  1   
 38  18  42  1   
 39  19  20  1   
 40  19  43  1   
 41  19  44  1   
 42  20  21  1   
 43  20  22  1   
 44  21  23  2   
 45  21  45  1   
 46  22  24  2   
 47  22  46  1   
 48  23  24  1   
 49  24  47  1   
@<TRIPOS>SUBSTRUCTURE
  1 ****  14 GROUP 4 **** **** 0

# MOE 2024.06 (io_trps.svl 2023.06)
