@<TRIPOS>MOLECULE
NONAME
50 52 1 0 0 
SMALL
USER_CHARGES


@<TRIPOS>ATOM
  1 CL       1.3260    -0.5200     0.0710 Cl    1 <1>  -0.1770 
  2 C        0.9350    -2.2200     0.0700 C.ar  1 <1>   0.1770 
  3 C        1.1370    -2.9630     1.2160 C.ar  1 <1>  -0.1500 
  4 C        0.4330    -2.7980    -1.0770 C.ar  1 <1>  -0.1500 
  5 C        0.8240    -4.3140     1.2310 C.ar  1 <1>  -0.1440 
  6 C        0.1180    -4.1450    -1.0680 C.ar  1 <1>  -0.1500 
  7 C        0.2960    -4.9060     0.0820 C.ar  1 <1>  -0.1430 
  8 C        1.0880    -5.1050     2.5080 C.3   1 <1>  -0.0960 
  9 C       -0.0890    -6.3820     0.0600 C.3   1 <1>   0.4870 
 10 N       -1.5570    -6.5510     0.1780 N.4   1 <1>  -0.9590 
 11 C       -2.3300    -6.3180    -1.0790 C.3   1 <1>   0.3430 
 12 C       -2.1800    -5.8580     1.3550 C.3   1 <1>   0.3430 
 13 C       -3.7530    -6.9240    -0.9830 C.3   1 <1>   0.2000 
 14 C       -3.7190    -5.8590     1.2630 C.3   1 <1>  -0.1600 
 15 O       -3.7660    -8.1420    -1.6420 O.3   1 <1>  -0.6800 
 16 C       -4.2360    -7.1020     0.4900 C.3   1 <1>  -0.1060 
 17 C       -3.6010    -8.3280     1.1720 C.2   1 <1>   0.9060 
 18 C       -5.7770    -7.2410     0.5700 C.3   1 <1>  -0.0170 
 19 O       -3.8170    -8.5170     2.3650 O.co2 1 <1>  -0.9000 
 20 O       -2.7130    -8.9600     0.5740 O.co2 1 <1>  -0.9000 
 21 C       -6.5480    -6.0580    -0.0090 C.ar  1 <1>  -0.1430 
 22 C       -6.8520    -4.9610     0.7830 C.ar  1 <1>  -0.1500 
 23 C       -6.9660    -6.0740    -1.3310 C.ar  1 <1>  -0.1500 
 24 C       -7.5460    -3.8860     0.2550 C.ar  1 <1>  -0.1500 
 25 C       -7.6600    -5.0010    -1.8610 C.ar  1 <1>  -0.1500 
 26 C       -7.9480    -3.9040    -1.0690 C.ar  1 <1>  -0.1500 
 27 H        1.5420    -2.4720     2.0840 H     1 <1>   0.1500 
 28 H        0.2950    -2.1980    -1.9590 H     1 <1>   0.1500 
 29 H       -0.2630    -4.5890    -1.9710 H     1 <1>   0.1500 
 30 H        1.4950    -4.4690     3.2750 H     1 <1>   0.0800 
 31 H        1.8020    -5.8870     2.3200 H     1 <1>   0.0800 
 32 H        0.1830    -5.5390     2.8880 H     1 <1>   0.0800 
 33 H        0.3910    -6.8930     0.8780 H     1 <1>   0.0800 
 34 H        0.2570    -6.8350    -0.8550 H     1 <1>   0.0800 
 35 H       -1.7170    -7.5770     0.3620 H     1 <1>   0.4500 
 36 H       -2.4160    -5.2570    -1.2390 H     1 <1>   0.0800 
 37 H       -1.8250    -6.7550    -1.9250 H     1 <1>   0.0800 
 38 H       -1.8910    -6.3820     2.2540 H     1 <1>   0.0800 
 39 H       -1.8280    -4.8420     1.4260 H     1 <1>   0.0800 
 40 H       -4.4080    -6.2730    -1.5300 H     1 <1>   0.0800 
 41 H       -4.1170    -5.8550     2.2630 H     1 <1>   0.0800 
 42 H       -4.0470    -4.9530     0.7850 H     1 <1>   0.0800 
 43 H       -3.3620    -8.8110    -1.0160 H     1 <1>   0.4000 
 44 H       -6.0710    -8.1390     0.0550 H     1 <1>   0.0800 
 45 H       -6.0670    -7.3730     1.5990 H     1 <1>   0.0800 
 46 H       -6.5530    -4.9430     1.8160 H     1 <1>   0.1500 
 47 H       -6.7500    -6.9270    -1.9530 H     1 <1>   0.1500 
 48 H       -7.7770    -3.0380     0.8750 H     1 <1>   0.1500 
 49 H       -7.9780    -5.0220    -2.8890 H     1 <1>   0.1500 
 50 H       -8.4890    -3.0690    -1.4800 H     1 <1>   0.1500 
@<TRIPOS>BOND
  1   1   2  1   
  2   2   3  ar  
  3   2   4  ar  
  4   3   5  ar  
  5   3  27  1   
  6   4   6  ar  
  7   4  28  1   
  8   5   7  ar  
  9   5   8  1   
 10   6   7  ar  
 11   6  29  1   
 12   7   9  1   
 13   8  30  1   
 14   8  31  1   
 15   8  32  1   
 16   9  10  1   
 17   9  33  1   
 18   9  34  1   
 19  10  11  1   
 20  10  12  1   
 21  10  35  1   
 22  11  13  1   
 23  11  36  1   
 24  11  37  1   
 25  12  14  1   
 26  12  38  1   
 27  12  39  1   
 28  13  15  1   
 29  13  16  1   
 30  13  40  1   
 31  14  16  1   
 32  14  41  1   
 33  14  42  1   
 34  15  43  1   
 35  16  17  1   
 36  16  18  1   
 37  17  19  ar  
 38  17  20  ar  
 39  18  21  1   
 40  18  44  1   
 41  18  45  1   
 42  21  22  ar  
 43  21  23  ar  
 44  22  24  ar  
 45  22  46  1   
 46  23  25  ar  
 47  23  47  1   
 48  24  26  ar  
 49  24  48  1   
 50  25  26  ar  
 51  25  49  1   
 52  26  50  1   
@<TRIPOS>SUBSTRUCTURE
  1 ****  12 GROUP 4 **** **** 0

# MOE 2024.06 (io_trps.svl 2023.06)
