@<TRIPOS>MOLECULE
NONAME
41 43 1 0 0 
SMALL
USER_CHARGES


@<TRIPOS>ATOM
  1 O       -9.0600    -0.8210     1.1900 O.3   1 <1>  -0.2800 
  2 C       -9.5330    -1.5080     0.1780 C.2   1 <1>   0.2980 
  3 C       -7.9460    -0.2930     0.7610 C.2   1 <1>  -0.0400 
  4 N       -8.8090    -1.4760    -0.8810 N.2   1 <1>  -0.5650 
  5 C      -10.8420    -2.2540     0.3380 C.3   1 <1>   0.1000 
  6 C       -7.7770    -0.6850    -0.5110 C.2   1 <1>   0.0770 
  7 C       -7.1170     0.5880     1.6790 C.3   1 <1>   0.1640 
  8 C      -11.0710    -3.1090    -0.9180 C.3   1 <1>   0.3430 
  9 C      -12.0120    -1.2760     0.5580 C.3   1 <1>  -0.1600 
 10 C       -5.8190     1.0170     1.0040 C.ar  1 <1>  -0.1440 
 11 N      -12.4130    -3.7830    -0.9060 N.4   1 <1>  -0.9060 
 12 C      -13.3660    -2.0030     0.5150 C.3   1 <1>  -0.1600 
 13 C       -5.7970     2.0920     0.1180 C.ar  1 <1>   0.0820 
 14 C       -4.6490     0.3200     1.2650 C.ar  1 <1>  -0.1500 
 15 C      -13.5390    -2.8170    -0.7710 C.3   1 <1>   0.3430 
 16 O       -6.9690     2.7380    -0.1180 O.3   1 <1>  -0.3620 
 17 C       -4.5980     2.4570    -0.4900 C.ar  1 <1>  -0.1500 
 18 C       -3.4620     0.6870     0.6560 C.ar  1 <1>  -0.1500 
 19 C       -7.0610     3.7920    -1.0510 C.3   1 <1>   0.0400 
 20 C       -3.4370     1.7560    -0.2210 C.ar  1 <1>  -0.1500 
 21 H      -10.7460    -2.9030     1.1900 H     1 <1>   0.0800 
 22 H       -6.9710    -0.4410    -1.1840 H     1 <1>   0.1500 
 23 H       -6.8970     0.0420     2.5790 H     1 <1>   0.0800 
 24 H       -7.6930     1.4520     1.9590 H     1 <1>   0.0800 
 25 H      -10.2840    -3.8430    -0.9920 H     1 <1>   0.0800 
 26 H      -10.9990    -2.4680    -1.7820 H     1 <1>   0.0800 
 27 H      -11.9880    -0.5180    -0.2080 H     1 <1>   0.0800 
 28 H      -11.8930    -0.7790     1.5060 H     1 <1>   0.0800 
 29 H      -12.4510    -4.4550    -0.1310 H     1 <1>   0.4500 
 30 H      -12.5270    -4.3230    -1.7740 H     1 <1>   0.4500 
 31 H      -14.1580    -1.2750     0.5760 H     1 <1>   0.0800 
 32 H      -13.4650    -2.6520     1.3690 H     1 <1>   0.0800 
 33 H       -4.6540    -0.5170     1.9420 H     1 <1>   0.1500 
 34 H      -14.4810    -3.3430    -0.7460 H     1 <1>   0.0800 
 35 H      -13.5480    -2.1470    -1.6170 H     1 <1>   0.0800 
 36 H       -4.5480     3.2820    -1.1750 H     1 <1>   0.1500 
 37 H       -2.5590     0.1400     0.8640 H     1 <1>   0.1500 
 38 H       -8.0840     4.1210    -1.0830 H     1 <1>   0.0800 
 39 H       -6.7650     3.4280    -2.0190 H     1 <1>   0.0800 
 40 H       -6.4280     4.5990    -0.7310 H     1 <1>   0.0800 
 41 H       -2.5130     2.0410    -0.6930 H     1 <1>   0.1500 
@<TRIPOS>BOND
  1   1   2  1   
  2   1   3  1   
  3   2   4  2   
  4   2   5  1   
  5   3   6  2   
  6   3   7  1   
  7   4   6  1   
  8   5   8  1   
  9   5   9  1   
 10   5  21  1   
 11   6  22  1   
 12   7  10  1   
 13   7  23  1   
 14   7  24  1   
 15   8  11  1   
 16   8  25  1   
 17   8  26  1   
 18   9  12  1   
 19   9  27  1   
 20   9  28  1   
 21  10  13  ar  
 22  10  14  ar  
 23  11  15  1   
 24  11  29  1   
 25  11  30  1   
 26  12  15  1   
 27  12  31  1   
 28  12  32  1   
 29  13  16  1   
 30  13  17  ar  
 31  14  18  ar  
 32  14  33  1   
 33  15  34  1   
 34  15  35  1   
 35  16  19  1   
 36  17  20  ar  
 37  17  36  1   
 38  18  20  ar  
 39  18  37  1   
 40  19  38  1   
 41  19  39  1   
 42  19  40  1   
 43  20  41  1   
@<TRIPOS>SUBSTRUCTURE
  1 ****   3 GROUP 4 **** **** 0

# MOE 2024.06 (io_trps.svl 2023.06)
