@<TRIPOS>MOLECULE
NONAME
50 52 1 0 0 
SMALL
USER_CHARGES


@<TRIPOS>ATOM
  1 O        0.1290     0.9350     1.7450 O.2   1 <1>  -0.5700 
  2 C       -0.1370     1.5890     0.7550 C.2   1 <1>   0.5440 
  3 N       -1.4440     1.6500     0.3660 N.am  1 <1>  -0.7300 
  4 C        0.9040     2.2530    -0.0110 C.ar  1 <1>   0.0860 
  5 C       -2.6000     1.1020     1.1210 C.3   1 <1>   0.2200 
  6 C        0.6480     3.3960    -0.7720 C.ar  1 <1>  -0.1500 
  7 C        2.2120     1.7640    -0.0150 C.ar  1 <1>  -0.1500 
  8 C       -2.7430    -0.4240     0.9140 C.3   1 <1>   0.2000 
  9 C       -3.8610     1.8490     0.6740 C.3   1 <1>  -0.1600 
 10 C        1.6430     4.0120    -1.5100 C.ar  1 <1>  -0.1500 
 11 C        3.2120     2.3750    -0.7490 C.ar  1 <1>  -0.1500 
 12 O       -1.6710    -1.0870     1.4940 O.3   1 <1>  -0.6800 
 13 C       -4.0320    -0.9610     1.5470 C.3   1 <1>   0.1400 
 14 C       -5.1100     1.2840     1.3540 C.3   1 <1>   0.1400 
 15 C        2.9280     3.5000    -1.5010 C.ar  1 <1>  -0.1500 
 16 N       -5.2110    -0.1740     1.0660 N.am  1 <1>  -0.6600 
 17 C       -6.2870    -0.6910     0.3850 C.2   1 <1>   0.5690 
 18 O       -7.1670     0.0240    -0.0320 O.2   1 <1>  -0.5700 
 19 C       -6.3890    -2.1930     0.1340 C.3   1 <1>  -0.0990 
 20 C       -7.6850    -2.6340    -0.5740 C.3   1 <1>  -0.1600 
 21 C       -7.7370    -4.1520    -0.7920 C.3   1 <1>   0.0210 
 22 C       -9.0150    -4.5910    -1.4890 C.2   1 <1>  -0.1810 
 23 C       -9.3480    -5.9040    -1.8120 C.2   1 <1>   0.1390 
 24 C      -10.0600    -3.8600    -1.9330 C.2   1 <1>  -0.3020 
 25 N      -10.5000    -5.9920    -2.4050 N.2   1 <1>  -0.7070 
 26 N      -10.9390    -4.7220    -2.4790 N.pl3 1 <1>   0.3000 
 27 H       -1.6640     2.0350    -0.5530 H     1 <1>   0.3700 
 28 H       -2.4520     1.2860     2.1720 H     1 <1>   0.0800 
 29 H       -0.3410     3.8180    -0.7820 H     1 <1>   0.1500 
 30 H        2.4430     0.8900     0.5710 H     1 <1>   0.1500 
 31 H       -2.7410    -0.6520    -0.1370 H     1 <1>   0.0800 
 32 H       -3.7700     2.8900     0.9270 H     1 <1>   0.0800 
 33 H       -3.9890     1.7650    -0.3910 H     1 <1>   0.0800 
 34 H        1.4220     4.8910    -2.0900 H     1 <1>   0.1500 
 35 H        4.2110     1.9750    -0.7350 H     1 <1>   0.1500 
 36 H       -0.9080    -0.4540     1.5790 H     1 <1>   0.4000 
 37 H       -3.9680    -0.8660     2.6180 H     1 <1>   0.0800 
 38 H       -4.1270    -2.0030     1.3060 H     1 <1>   0.0800 
 39 H       -5.9820     1.8080     0.9980 H     1 <1>   0.0800 
 40 H       -5.0520     1.4290     2.4190 H     1 <1>   0.0800 
 41 H        3.7050     3.9770    -2.0740 H     1 <1>   0.1500 
 42 H       -5.5480    -2.4890    -0.4660 H     1 <1>   0.0800 
 43 H       -6.3270    -2.6950     1.0820 H     1 <1>   0.0800 
 44 H       -8.5320    -2.3310     0.0180 H     1 <1>   0.0800 
 45 H       -7.7540    -2.1370    -1.5270 H     1 <1>   0.0800 
 46 H       -7.6750    -4.6540     0.1580 H     1 <1>   0.0800 
 47 H       -6.8960    -4.4590    -1.3890 H     1 <1>   0.0800 
 48 H       -8.7300    -6.7600    -1.5990 H     1 <1>   0.1500 
 49 H      -10.2280    -2.7990    -1.8940 H     1 <1>   0.1500 
 50 H      -11.8400    -4.4780    -2.9060 H     1 <1>   0.2700 
@<TRIPOS>BOND
  1   1   2  2   
  2   2   3  am  
  3   2   4  1   
  4   3   5  1   
  5   3  27  1   
  6   4   6  ar  
  7   4   7  ar  
  8   5   8  1   
  9   5   9  1   
 10   5  28  1   
 11   6  10  ar  
 12   6  29  1   
 13   7  11  ar  
 14   7  30  1   
 15   8  12  1   
 16   8  13  1   
 17   8  31  1   
 18   9  14  1   
 19   9  32  1   
 20   9  33  1   
 21  10  15  ar  
 22  10  34  1   
 23  11  15  ar  
 24  11  35  1   
 25  12  36  1   
 26  13  16  1   
 27  13  37  1   
 28  13  38  1   
 29  14  16  1   
 30  14  39  1   
 31  14  40  1   
 32  15  41  1   
 33  16  17  am  
 34  17  18  2   
 35  17  19  1   
 36  19  20  1   
 37  19  42  1   
 38  19  43  1   
 39  20  21  1   
 40  20  44  1   
 41  20  45  1   
 42  21  22  1   
 43  21  46  1   
 44  21  47  1   
 45  22  23  1   
 46  22  24  2   
 47  23  25  2   
 48  23  48  1   
 49  24  26  1   
 50  24  49  1   
 51  25  26  1   
 52  26  50  1   
@<TRIPOS>SUBSTRUCTURE
  1 ****   8 GROUP 4 **** **** 0

# MOE 2024.06 (io_trps.svl 2023.06)
