@<TRIPOS>MOLECULE
NONAME
46 48 1 0 0 
SMALL
USER_CHARGES


@<TRIPOS>ATOM
  1 O       -0.4050    -0.9560     1.1320 O.2   1 <1>  -0.5700 
  2 C        0.2870    -1.9040     0.8480 C.2   1 <1>   0.5690 
  3 N       -0.1920    -3.0290     0.2360 N.am  1 <1>  -0.6600 
  4 C        1.7650    -1.8640     1.1850 C.3   1 <1>  -0.0990 
  5 C        0.7140    -4.1710    -0.0490 C.3   1 <1>   0.1400 
  6 C       -1.6270    -3.2040    -0.1140 C.3   1 <1>   0.0600 
  7 C        2.6020    -2.3780    -0.0010 C.3   1 <1>  -0.0800 
  8 C        2.0430    -3.6640    -0.6420 C.3   1 <1>  -0.0800 
  9 C        4.0600    -2.6780     0.3720 C.3   1 <1>  -0.1600 
 10 C        3.1690    -4.6970    -0.5390 C.3   1 <1>  -0.1600 
 11 C        4.4650    -3.8830    -0.4810 C.3   1 <1>   0.2200 
 12 N        5.6140    -4.6520     0.1010 N.am  1 <1>  -0.6600 
 13 C        6.7470    -4.0620     0.6330 C.2   1 <1>   0.6160 
 14 C        5.6420    -6.1240    -0.1590 C.3   1 <1>   0.0600 
 15 O        7.4010    -4.7060     1.4350 O.2   1 <1>  -0.5700 
 16 C        7.1770    -2.7250     0.3330 C.2   1 <1>   0.0290 
 17 C        7.3460    -2.3280    -1.0320 C.2   1 <1>   0.6160 
 18 C        7.4580    -1.8090     1.3190 C.2   1 <1>  -0.1500 
 19 O        7.1580    -3.0490    -2.0020 O.2   1 <1>  -0.5700 
 20 N        7.7440    -1.0440    -1.2940 N.am  1 <1>  -0.5390 
 21 C        7.8720    -0.5000     0.9930 C.2   1 <1>  -0.1500 
 22 C        8.0090    -0.1320    -0.3100 C.2   1 <1>  -0.0290 
 23 C        8.4500     1.2500    -0.7470 C.3   1 <1>  -0.1020 
 24 H        2.0510    -0.8580     1.4310 H     1 <1>   0.0800 
 25 H        1.9180    -2.4800     2.0510 H     1 <1>   0.0800 
 26 H        0.8940    -4.6920     0.8760 H     1 <1>   0.0800 
 27 H        0.2470    -4.8540    -0.7370 H     1 <1>   0.0800 
 28 H       -2.0290    -4.0520     0.4110 H     1 <1>   0.0800 
 29 H       -1.7260    -3.3580    -1.1740 H     1 <1>   0.0800 
 30 H       -2.1920    -2.3290     0.1600 H     1 <1>   0.0800 
 31 H        2.5950    -1.6140    -0.7610 H     1 <1>   0.0800 
 32 H        1.8760    -3.4590    -1.6870 H     1 <1>   0.0800 
 33 H        4.1280    -2.9460     1.4120 H     1 <1>   0.0800 
 34 H        4.6730    -1.8170     0.1780 H     1 <1>   0.0800 
 35 H        3.1570    -5.3700    -1.3770 H     1 <1>   0.0800 
 36 H        3.0610    -5.2500     0.3790 H     1 <1>   0.0800 
 37 H        4.7140    -3.5570    -1.4780 H     1 <1>   0.0800 
 38 H        5.3720    -6.3240    -1.1810 H     1 <1>   0.0800 
 39 H        4.9590    -6.6260     0.5030 H     1 <1>   0.0800 
 40 H        6.6290    -6.5210     0.0070 H     1 <1>   0.0800 
 41 H        7.3660    -2.0820     2.3570 H     1 <1>   0.1500 
 42 H        7.8530    -0.8280    -2.2860 H     1 <1>   0.3700 
 43 H        8.0760     0.1870     1.7970 H     1 <1>   0.1500 
 44 H        7.6870     1.7070    -1.3520 H     1 <1>   0.0800 
 45 H        9.3570     1.1820    -1.3200 H     1 <1>   0.0800 
 46 H        8.6310     1.8780     0.1070 H     1 <1>   0.0800 
@<TRIPOS>BOND
  1   1   2  2   
  2   2   3  am  
  3   2   4  1   
  4   3   5  1   
  5   3   6  1   
  6   4   7  1   
  7   4  24  1   
  8   4  25  1   
  9   5   8  1   
 10   5  26  1   
 11   5  27  1   
 12   6  28  1   
 13   6  29  1   
 14   6  30  1   
 15   7   8  1   
 16   7   9  1   
 17   7  31  1   
 18   8  10  1   
 19   8  32  1   
 20   9  11  1   
 21   9  33  1   
 22   9  34  1   
 23  10  11  1   
 24  10  35  1   
 25  10  36  1   
 26  11  12  1   
 27  11  37  1   
 28  12  13  am  
 29  12  14  1   
 30  13  15  2   
 31  13  16  1   
 32  14  38  1   
 33  14  39  1   
 34  14  40  1   
 35  16  17  1   
 36  16  18  2   
 37  17  19  2   
 38  17  20  am  
 39  18  21  1   
 40  18  41  1   
 41  20  22  1   
 42  20  42  1   
 43  21  22  2   
 44  21  43  1   
 45  22  23  1   
 46  23  44  1   
 47  23  45  1   
 48  23  46  1   
@<TRIPOS>SUBSTRUCTURE
  1 ****   9 GROUP 4 **** **** 0

# MOE 2024.06 (io_trps.svl 2023.06)
