@<TRIPOS>MOLECULE
NONAME
49 50 1 0 0 
SMALL
USER_CHARGES


@<TRIPOS>ATOM
  1 S        0.2420     0.2760    -0.5850 S.o2  1 <1>   1.3330 
  2 O       -1.1570     0.1820    -0.9370 O.2   1 <1>  -0.6500 
  3 O        1.1810     0.8050    -1.5490 O.2   1 <1>  -0.6500 
  4 N        0.7800    -1.2670    -0.1280 N.am  1 <1>  -0.8490 
  5 C        0.3550     1.2200     0.9320 C.3   1 <1>  -0.0550 
  6 C        2.2410    -1.3780    -0.0630 C.3   1 <1>   0.1160 
  7 C        0.2390    -2.3190    -0.9940 C.3   1 <1>   0.1160 
  8 C       -0.1350     2.6730     0.7740 C.3   1 <1>  -0.0800 
  9 C       -0.1870     3.4620     2.0800 C.3   1 <1>   0.2000 
 10 C        0.7430     3.5260    -0.1540 C.3   1 <1>   0.2090 
 11 O        0.9750     3.2270     2.7990 O.3   1 <1>  -0.6800 
 12 C       -0.1590     4.9120     1.6040 C.3   1 <1>   0.2090 
 13 N        0.7470     4.9000     0.4210 N.pl3 1 <1>  -0.8380 
 14 C        1.9740     5.5120     0.5460 C.ar  1 <1>   0.4100 
 15 N        2.7320     5.1040     1.5450 N.ar  1 <1>  -0.6200 
 16 C        2.3950     6.4940    -0.3410 C.ar  1 <1>  -0.1430 
 17 C        3.9020     5.6980     1.6560 C.ar  1 <1>   0.4770 
 18 C        3.6390     7.0280    -0.1110 C.ar  1 <1>   0.1600 
 19 C        1.4790     6.9170    -1.4920 C.3   1 <1>  -0.0170 
 20 N        4.4090     6.6420     0.8880 N.ar  1 <1>  -0.6200 
 21 C        4.7740     5.2420     2.8000 C.3   1 <1>  -0.0970 
 22 C        2.0400     8.0130    -2.4110 C.3   1 <1>  -0.1600 
 23 C        1.0530     8.3590    -3.5300 C.3   1 <1>  -0.2400 
 24 H       -0.2390     0.7370     1.6830 H     1 <1>   0.0800 
 25 H        1.3710     1.2230     1.2750 H     1 <1>   0.0800 
 26 H        2.5220    -2.3490     0.3080 H     1 <1>   0.0800 
 27 H        2.6420    -0.6330     0.6030 H     1 <1>   0.0800 
 28 H        2.6750    -1.2370    -1.0400 H     1 <1>   0.0800 
 29 H        0.5830    -3.2850    -0.6670 H     1 <1>   0.0800 
 30 H        0.5450    -2.1580    -2.0140 H     1 <1>   0.0800 
 31 H       -0.8370    -2.3140    -0.9510 H     1 <1>   0.0800 
 32 H       -1.1270     2.6580     0.3580 H     1 <1>   0.0800 
 33 H       -1.0350     3.2260     2.6990 H     1 <1>   0.0800 
 34 H        0.3490     3.5400    -1.1560 H     1 <1>   0.0800 
 35 H        1.7510     3.1440    -0.1830 H     1 <1>   0.0800 
 36 H        1.6860     3.7860     2.3840 H     1 <1>   0.4000 
 37 H        0.1890     5.5780     2.3760 H     1 <1>   0.0800 
 38 H       -1.1400     5.2180     1.2880 H     1 <1>   0.0800 
 39 H        4.0380     7.7960    -0.7500 H     1 <1>   0.1500 
 40 H        1.2620     6.0450    -2.0850 H     1 <1>   0.0800 
 41 H        0.5480     7.2570    -1.0720 H     1 <1>   0.0800 
 42 H        5.2840     6.0850     3.2290 H     1 <1>   0.0800 
 43 H        5.4990     4.5400     2.4340 H     1 <1>   0.0800 
 44 H        4.1790     4.7720     3.5610 H     1 <1>   0.0800 
 45 H        2.2390     8.9010    -1.8340 H     1 <1>   0.0800 
 46 H        2.9630     7.6770    -2.8520 H     1 <1>   0.0800 
 47 H        0.1270     8.7190    -3.1180 H     1 <1>   0.0800 
 48 H        0.8500     7.4920    -4.1350 H     1 <1>   0.0800 
 49 H        1.4670     9.1250    -4.1620 H     1 <1>   0.0800 
@<TRIPOS>BOND
  1   1   2  2   
  2   1   3  2   
  3   1   4  am  
  4   1   5  1   
  5   4   6  1   
  6   4   7  1   
  7   5   8  1   
  8   5  24  1   
  9   5  25  1   
 10   6  26  1   
 11   6  27  1   
 12   6  28  1   
 13   7  29  1   
 14   7  30  1   
 15   7  31  1   
 16   8   9  1   
 17   8  10  1   
 18   8  32  1   
 19   9  11  1   
 20   9  12  1   
 21   9  33  1   
 22  10  13  1   
 23  10  34  1   
 24  10  35  1   
 25  11  36  1   
 26  12  13  1   
 27  12  37  1   
 28  12  38  1   
 29  13  14  1   
 30  14  15  ar  
 31  14  16  ar  
 32  15  17  ar  
 33  16  18  ar  
 34  16  19  1   
 35  17  20  ar  
 36  17  21  1   
 37  18  20  ar  
 38  18  39  1   
 39  19  22  1   
 40  19  40  1   
 41  19  41  1   
 42  21  42  1   
 43  21  43  1   
 44  21  44  1   
 45  22  23  1   
 46  22  45  1   
 47  22  46  1   
 48  23  47  1   
 49  23  48  1   
 50  23  49  1   
@<TRIPOS>SUBSTRUCTURE
  1 ****  10 GROUP 4 **** **** 0

# MOE 2024.06 (io_trps.svl 2023.06)
