@<TRIPOS>MOLECULE
NONAME
57 60 1 0 0 
SMALL
USER_CHARGES


@<TRIPOS>ATOM
  1 O       -2.0700     0.7490    -2.2020 O.2   1 <1>  -0.5700 
  2 C       -2.3580     0.8920    -1.0280 C.2   1 <1>   0.7160 
  3 N       -2.9770    -0.1470    -0.3750 N.am  1 <1>  -0.6600 
  4 C       -1.9590     2.0570    -0.3150 C.2   1 <1>  -0.0860 
  5 C       -3.1720    -1.4910    -0.9600 C.3   1 <1>   0.1400 
  6 C       -3.2690    -0.1690     1.0750 C.3   1 <1>   0.1400 
  7 C       -2.7400     3.1550     0.0410 C.2   1 <1>   0.3720 
  8 C       -0.7680     2.2990     0.2820 C.2   1 <1>   0.0870 
  9 C       -2.9620    -2.4620     0.2100 C.3   1 <1>   0.4230 
 10 C       -3.4380    -1.6520     1.4250 C.3   1 <1>  -0.1600 
 11 N       -2.0720     3.9620     0.7920 N.2   1 <1>  -0.4100 
 12 N       -4.0810     3.3250    -0.3300 N.pl3 1 <1>  -0.8210 
 13 O       -0.8800     3.4330     0.9210 O.3   1 <1>  -0.0190 
 14 C        0.4150     1.4890     0.3370 C.ar  1 <1>   0.0530 
 15 N       -1.5220    -2.9140     0.3360 N.4   1 <1>  -0.9590 
 16 C       -4.3700     3.2660    -1.7910 C.3   1 <1>   0.2090 
 17 C       -4.8170     4.4760     0.2590 C.3   1 <1>   0.2090 
 18 C        1.0170     1.1820     1.5560 C.ar  1 <1>  -0.1500 
 19 C        0.9660     0.9390    -0.8200 C.ar  1 <1>  -0.1500 
 20 C       -1.3550    -3.9730     1.3790 C.3   1 <1>   0.2630 
 21 C       -0.5280    -1.8090     0.5540 C.3   1 <1>   0.2630 
 22 C       -5.2550     4.4680    -2.0950 C.3   1 <1>  -0.1600 
 23 C       -5.8920     4.8220    -0.7590 C.3   1 <1>  -0.1600 
 24 C        2.0960     0.3210     1.6200 C.ar  1 <1>  -0.1500 
 25 C        2.0510     0.0830    -0.7640 C.ar  1 <1>  -0.1500 
 26 C        2.6140    -0.2430     0.4650 C.ar  1 <1>   0.0830 
 27 O        3.6520    -1.0960     0.6090 O.3   1 <1>  -0.3620 
 28 C        4.4850    -1.4290    -0.4810 C.3   1 <1>   0.0400 
 29 H       -4.1840    -1.5610    -1.3190 H     1 <1>   0.0800 
 30 H       -2.4940    -1.6800    -1.7750 H     1 <1>   0.0800 
 31 H       -2.4530     0.2660     1.6280 H     1 <1>   0.0800 
 32 H       -4.1690     0.3900     1.2790 H     1 <1>   0.0800 
 33 H       -3.5870    -3.3290     0.0710 H     1 <1>   0.0800 
 34 H       -4.4890    -1.8340     1.5660 H     1 <1>   0.0800 
 35 H       -2.9380    -1.9030     2.3420 H     1 <1>   0.0800 
 36 H       -1.2770    -3.3410    -0.5700 H     1 <1>   0.4500 
 37 H       -3.4660     3.2970    -2.3770 H     1 <1>   0.0800 
 38 H       -4.8990     2.3520    -2.0030 H     1 <1>   0.0800 
 39 H       -5.2430     4.2090     1.2100 H     1 <1>   0.0800 
 40 H       -4.1570     5.3180     0.3850 H     1 <1>   0.0800 
 41 H        0.6300     1.6220     2.4590 H     1 <1>   0.1500 
 42 H        0.5370     1.1890    -1.7770 H     1 <1>   0.1500 
 43 H       -1.5660    -3.5740     2.3580 H     1 <1>   0.0800 
 44 H       -0.3440    -4.3460     1.3730 H     1 <1>   0.0800 
 45 H       -2.0250    -4.7960     1.1900 H     1 <1>   0.0800 
 46 H       -0.7190    -1.3050     1.4870 H     1 <1>   0.0800 
 47 H       -0.5900    -1.0860    -0.2430 H     1 <1>   0.0800 
 48 H        0.4770    -2.2000     0.5770 H     1 <1>   0.0800 
 49 H       -4.6340     5.2800    -2.4310 H     1 <1>   0.0800 
 50 H       -5.9840     4.2460    -2.8540 H     1 <1>   0.0800 
 51 H       -6.7530     4.2010    -0.5840 H     1 <1>   0.0800 
 52 H       -6.1810     5.8560    -0.7000 H     1 <1>   0.0800 
 53 H        2.5530     0.0860     2.5660 H     1 <1>   0.1500 
 54 H        2.4440    -0.3180    -1.6800 H     1 <1>   0.1500 
 55 H        5.3150    -2.0010    -0.1060 H     1 <1>   0.0800 
 56 H        4.8440    -0.5220    -0.9360 H     1 <1>   0.0800 
 57 H        3.9260    -2.0180    -1.1860 H     1 <1>   0.0800 
@<TRIPOS>BOND
  1   1   2  2   
  2   2   3  am  
  3   2   4  1   
  4   3   5  1   
  5   3   6  1   
  6   4   7  1   
  7   4   8  2   
  8   5   9  1   
  9   5  29  1   
 10   5  30  1   
 11   6  10  1   
 12   6  31  1   
 13   6  32  1   
 14   7  11  2   
 15   7  12  1   
 16   8  13  1   
 17   8  14  1   
 18   9  10  1   
 19   9  15  1   
 20   9  33  1   
 21  10  34  1   
 22  10  35  1   
 23  11  13  1   
 24  12  16  1   
 25  12  17  1   
 26  14  18  ar  
 27  14  19  ar  
 28  15  20  1   
 29  15  21  1   
 30  15  36  1   
 31  16  22  1   
 32  16  37  1   
 33  16  38  1   
 34  17  23  1   
 35  17  39  1   
 36  17  40  1   
 37  18  24  ar  
 38  18  41  1   
 39  19  25  ar  
 40  19  42  1   
 41  20  43  1   
 42  20  44  1   
 43  20  45  1   
 44  21  46  1   
 45  21  47  1   
 46  21  48  1   
 47  22  23  1   
 48  22  49  1   
 49  22  50  1   
 50  23  51  1   
 51  23  52  1   
 52  24  26  ar  
 53  24  53  1   
 54  25  26  ar  
 55  25  54  1   
 56  26  27  1   
 57  27  28  1   
 58  28  55  1   
 59  28  56  1   
 60  28  57  1   
@<TRIPOS>SUBSTRUCTURE
  1 ****   4 GROUP 4 **** **** 0

# MOE 2024.06 (io_trps.svl 2023.06)
