@<TRIPOS>MOLECULE
NONAME
52 55 1 0 0 
SMALL
USER_CHARGES


@<TRIPOS>ATOM
  1 O        1.4610    -0.3210    -2.1070 O.2   1 <1>  -0.5700 
  2 C        2.1220    -0.7760    -1.1950 C.2   1 <1>   0.7150 
  3 N        3.0360     0.0480    -0.5740 N.am  1 <1>  -0.6600 
  4 C        1.9490    -2.1510    -0.7990 C.2   1 <1>  -0.2370 
  5 C        3.6390    -0.2920     0.7710 C.3   1 <1>   0.2200 
  6 C        3.3660     1.3660    -1.2090 C.3   1 <1>   0.1400 
  7 N        0.7120    -2.7250    -0.5880 N.pl3 1 <1>   0.0480 
  8 C        2.8970    -3.1110    -0.5790 C.2   1 <1>  -0.1500 
  9 C        3.4170     0.8240     1.8060 C.3   1 <1>   0.1200 
 10 C        5.1390    -0.6540     0.6460 C.3   1 <1>   0.3430 
 11 C        4.6080     2.0860    -0.6490 C.3   1 <1>  -0.0800 
 12 C        0.8950    -4.0350    -0.2140 C.ar  1 <1>  -0.1520 
 13 C       -0.6000    -2.0750    -0.7950 C.3   1 <1>   0.0160 
 14 C        2.2580    -4.3000    -0.1980 C.ar  1 <1>   0.0000 
 15 O        4.4250     1.7860     1.7450 O.3   1 <1>  -0.5600 
 16 N        5.7230    -0.2040    -0.6640 N.4   1 <1>  -0.9590 
 17 C        4.3350     2.7200     0.7240 C.3   1 <1>   0.1200 
 18 C        5.9230     1.2790    -0.6700 C.3   1 <1>   0.3430 
 19 C       -0.0200    -5.0410     0.1150 C.ar  1 <1>  -0.1500 
 20 C        2.7210    -5.5740     0.1530 C.ar  1 <1>  -0.1500 
 21 C        7.0690    -0.8850    -0.8630 C.3   1 <1>   0.2370 
 22 C        0.4470    -6.2880     0.4580 C.ar  1 <1>  -0.1500 
 23 C        1.8210    -6.5620     0.4800 C.ar  1 <1>  -0.1440 
 24 C        8.0920    -0.5940     0.2390 C.2   1 <1>   0.9060 
 25 C        2.2860    -7.9540     0.8650 C.3   1 <1>  -0.0970 
 26 O        8.0710    -1.3100     1.2440 O.co2 1 <1>  -0.9000 
 27 O        8.7890     0.4170     0.1230 O.co2 1 <1>  -0.9000 
 28 H        3.1340    -1.1490     1.1760 H     1 <1>   0.0800 
 29 H        3.5130     1.2040    -2.2640 H     1 <1>   0.0800 
 30 H        2.5080     2.0110    -1.1120 H     1 <1>   0.0800 
 31 H        3.9630    -3.0280    -0.6790 H     1 <1>   0.1500 
 32 H        3.4700     0.3980     2.7930 H     1 <1>   0.0800 
 33 H        2.4540     1.2900     1.6900 H     1 <1>   0.0800 
 34 H        5.2400    -1.7230     0.7300 H     1 <1>   0.0800 
 35 H        5.6940    -0.2250     1.4670 H     1 <1>   0.0800 
 36 H        4.7730     2.9250    -1.3000 H     1 <1>   0.0800 
 37 H       -0.5640    -1.0630    -0.4370 H     1 <1>   0.0800 
 38 H       -1.3640    -2.6100    -0.2630 H     1 <1>   0.0800 
 39 H       -0.8280    -2.0730    -1.8450 H     1 <1>   0.0800 
 40 H        5.0520    -0.4550    -1.4000 H     1 <1>   0.4500 
 41 H        3.3680     3.1920     0.7630 H     1 <1>   0.0800 
 42 H        5.0820     3.4690     0.9290 H     1 <1>   0.0800 
 43 H        6.5360     1.5640     0.1730 H     1 <1>   0.0800 
 44 H        6.4720     1.5430    -1.5590 H     1 <1>   0.0800 
 45 H       -1.0760    -4.8410     0.0970 H     1 <1>   0.1500 
 46 H        3.7800    -5.7560     0.1590 H     1 <1>   0.1500 
 47 H        6.9380    -1.9510    -0.8950 H     1 <1>   0.0800 
 48 H        7.5060    -0.5690    -1.7920 H     1 <1>   0.0800 
 49 H       -0.2470    -7.0700     0.7130 H     1 <1>   0.1500 
 50 H        1.8790    -8.6770     0.1810 H     1 <1>   0.0800 
 51 H        1.9530    -8.1890     1.8600 H     1 <1>   0.0800 
 52 H        3.3590    -8.0220     0.8370 H     1 <1>   0.0800 
@<TRIPOS>BOND
  1   1   2  2   
  2   2   3  am  
  3   2   4  1   
  4   3   5  1   
  5   3   6  1   
  6   4   7  1   
  7   4   8  2   
  8   5   9  1   
  9   5  10  1   
 10   5  28  1   
 11   6  11  1   
 12   6  29  1   
 13   6  30  1   
 14   7  12  1   
 15   7  13  1   
 16   8  14  1   
 17   8  31  1   
 18   9  15  1   
 19   9  32  1   
 20   9  33  1   
 21  10  16  1   
 22  10  34  1   
 23  10  35  1   
 24  11  17  1   
 25  11  18  1   
 26  11  36  1   
 27  12  14  ar  
 28  12  19  ar  
 29  13  37  1   
 30  13  38  1   
 31  13  39  1   
 32  14  20  ar  
 33  15  17  1   
 34  16  18  1   
 35  16  21  1   
 36  16  40  1   
 37  17  41  1   
 38  17  42  1   
 39  18  43  1   
 40  18  44  1   
 41  19  22  ar  
 42  19  45  1   
 43  20  23  ar  
 44  20  46  1   
 45  21  24  1   
 46  21  47  1   
 47  21  48  1   
 48  22  23  ar  
 49  22  49  1   
 50  23  25  1   
 51  24  26  ar  
 52  24  27  ar  
 53  25  50  1   
 54  25  51  1   
 55  25  52  1   
@<TRIPOS>SUBSTRUCTURE
  1 ****   5 GROUP 4 **** **** 0

# MOE 2024.06 (io_trps.svl 2023.06)
