@<TRIPOS>MOLECULE
NONAME
48 50 1 0 0 
SMALL
USER_CHARGES


@<TRIPOS>ATOM
  1 O       -2.7050     1.0920    -3.1490 O.2   1 <1>  -0.5700 
  2 C       -1.8900     1.1100    -2.2600 C.2   1 <1>   0.5690 
  3 N       -1.6130     0.0080    -1.5200 N.am  1 <1>  -0.7300 
  4 C       -1.1630     2.4070    -1.9440 C.3   1 <1>   0.0440 
  5 C       -2.2960    -1.2970    -1.6210 C.3   1 <1>   0.2200 
  6 C       -0.5530     2.3980    -0.5400 C.ar  1 <1>  -0.1440 
  7 C       -3.2310    -1.4530    -0.4350 C.3   1 <1>  -0.0800 
  8 C       -1.2920    -2.4270    -1.3920 C.3   1 <1>   0.1200 
  9 C       -1.3210     2.6210     0.5990 C.ar  1 <1>  -0.1440 
 10 C        0.8020     2.1270    -0.4090 C.ar  1 <1>  -0.1500 
 11 C       -2.2710    -1.9560     0.6430 C.3   1 <1>   0.1200 
 12 C       -4.3570    -2.4610    -0.7310 C.3   1 <1>  -0.0160 
 13 O       -1.2910    -2.6990    -0.0180 O.3   1 <1>  -0.5600 
 14 C       -0.7180     2.5680     1.8450 C.ar  1 <1>  -0.1500 
 15 C       -2.8130     2.9190     0.5200 C.3   1 <1>  -0.0970 
 16 C        1.4010     2.0730     0.8380 C.ar  1 <1>  -0.1440 
 17 C       -5.3100    -2.5930     0.4480 C.ar  1 <1>  -0.1440 
 18 C        0.6320     2.2940     1.9660 C.ar  1 <1>  -0.1500 
 19 C        2.8820     1.7700     0.9660 C.3   1 <1>  -0.0970 
 20 C       -5.2690    -3.6740     1.3050 C.ar  1 <1>  -0.1500 
 21 C       -6.2660    -1.6360     0.7190 C.ar  1 <1>  -0.1500 
 22 C       -6.1590    -3.7410     2.3650 C.ar  1 <1>   0.1600 
 23 C       -7.1080    -1.7980     1.8060 C.ar  1 <1>   0.1600 
 24 N       -7.0770    -2.8270     2.6370 N.ar  1 <1>  -0.6200 
 25 H       -0.9660     0.1090    -0.7290 H     1 <1>   0.3700 
 26 H       -0.3950     2.5460    -2.6820 H     1 <1>   0.0800 
 27 H       -1.8500     3.2250    -2.0450 H     1 <1>   0.0800 
 28 H       -2.7950    -1.3820    -2.5720 H     1 <1>   0.0800 
 29 H       -3.6700    -0.5120    -0.1550 H     1 <1>   0.0800 
 30 H       -0.2980    -2.1630    -1.7070 H     1 <1>   0.0800 
 31 H       -1.6080    -3.3220    -1.8970 H     1 <1>   0.0800 
 32 H        1.4020     1.9500    -1.2840 H     1 <1>   0.1500 
 33 H       -2.7430    -2.5730     1.3860 H     1 <1>   0.0800 
 34 H       -1.7790    -1.1290     1.1270 H     1 <1>   0.0800 
 35 H       -3.9420    -3.4250    -0.9690 H     1 <1>   0.0800 
 36 H       -4.9160    -2.1290    -1.5890 H     1 <1>   0.0800 
 37 H       -1.2960     2.7390     2.7360 H     1 <1>   0.1500 
 38 H       -3.2450     2.9860     1.5020 H     1 <1>   0.0800 
 39 H       -3.3240     2.1400    -0.0160 H     1 <1>   0.0800 
 40 H       -2.9750     3.8560     0.0180 H     1 <1>   0.0800 
 41 H        1.0800     2.2550     2.9430 H     1 <1>   0.1500 
 42 H        3.2840     2.2220     1.8550 H     1 <1>   0.0800 
 43 H        3.4190     2.1570     0.1190 H     1 <1>   0.0800 
 44 H        3.0330     0.7070     1.0180 H     1 <1>   0.0800 
 45 H       -4.5540    -4.4640     1.1610 H     1 <1>   0.1500 
 46 H       -6.3630    -0.7660     0.0950 H     1 <1>   0.1500 
 47 H       -6.1120    -4.5910     3.0240 H     1 <1>   0.1500 
 48 H       -7.8480    -1.0410     2.0020 H     1 <1>   0.1500 
@<TRIPOS>BOND
  1   1   2  2   
  2   2   3  am  
  3   2   4  1   
  4   3   5  1   
  5   3  25  1   
  6   4   6  1   
  7   4  26  1   
  8   4  27  1   
  9   5   7  1   
 10   5   8  1   
 11   5  28  1   
 12   6   9  ar  
 13   6  10  ar  
 14   7  11  1   
 15   7  12  1   
 16   7  29  1   
 17   8  13  1   
 18   8  30  1   
 19   8  31  1   
 20   9  14  ar  
 21   9  15  1   
 22  10  16  ar  
 23  10  32  1   
 24  11  13  1   
 25  11  33  1   
 26  11  34  1   
 27  12  17  1   
 28  12  35  1   
 29  12  36  1   
 30  14  18  ar  
 31  14  37  1   
 32  15  38  1   
 33  15  39  1   
 34  15  40  1   
 35  16  18  ar  
 36  16  19  1   
 37  17  20  ar  
 38  17  21  ar  
 39  18  41  1   
 40  19  42  1   
 41  19  43  1   
 42  19  44  1   
 43  20  22  ar  
 44  20  45  1   
 45  21  23  ar  
 46  21  46  1   
 47  22  24  ar  
 48  22  47  1   
 49  23  24  ar  
 50  23  48  1   
@<TRIPOS>SUBSTRUCTURE
  1 ****   7 GROUP 4 **** **** 0

# MOE 2024.06 (io_trps.svl 2023.06)
