@<TRIPOS>MOLECULE
NONAME
42 44 1 0 0 
SMALL
USER_CHARGES


@<TRIPOS>ATOM
  1 O        1.8030     0.7100     0.6850 O.co2 1 <1>  -0.9000 
  2 C        2.2060     1.8750     0.8480 C.2   1 <1>   1.0330 
  3 O        3.2030     2.0810     1.5660 O.co2 1 <1>  -0.9000 
  4 C        1.5220     2.9770     0.1740 C.2   1 <1>  -0.0060 
  5 N        1.8000     4.3130     0.3120 N.2   1 <1>  -0.5650 
  6 C        0.5110     2.8790    -0.7140 C.2   1 <1>  -0.0100 
  7 C        0.9820     4.8840    -0.4850 C.2   1 <1>   0.2980 
  8 O        0.1790     4.0730    -1.1240 O.3   1 <1>  -0.2800 
  9 C        0.9290     6.3870    -0.7100 C.3   1 <1>   0.5230 
 10 N        2.0990     7.0430    -0.0310 N.4   1 <1>  -0.8520 
 11 C        1.9860     8.4880     0.2750 C.3   1 <1>   0.2960 
 12 C        3.3800     6.7090    -0.7190 C.3   1 <1>   0.5240 
 13 C        0.6750     9.1100     0.6260 C.3   1 <1>  -0.2000 
 14 C        1.3230     9.4060    -0.6980 C.3   1 <1>  -0.2000 
 15 C        4.5340     7.1850     0.1350 C.2   1 <1>  -0.1810 
 16 C        5.0840     6.4940     1.2110 C.2   1 <1>   0.1080 
 17 C        5.2510     8.3320     0.0510 C.2   1 <1>  -0.3320 
 18 N        6.0400     7.1640     1.7680 N.2   1 <1>  -0.7070 
 19 C        4.6790     5.1210     1.7170 C.3   1 <1>  -0.0590 
 20 N        6.1570     8.2900     1.0550 N.pl3 1 <1>   0.3140 
 21 C        5.1460     9.4860    -0.9370 C.3   1 <1>  -0.0600 
 22 C        7.1820     9.2880     1.3880 C.3   1 <1>   0.0160 
 23 H        0.0070     2.0010    -1.0840 H     1 <1>   0.1500 
 24 H        0.0050     6.7490    -0.2980 H     1 <1>   0.0800 
 25 H        0.9430     6.5960    -1.7650 H     1 <1>   0.0800 
 26 H        2.1910     6.5320     0.8640 H     1 <1>   0.4500 
 27 H        2.8480     8.8580     0.8110 H     1 <1>   0.1000 
 28 H        3.4200     7.1910    -1.6800 H     1 <1>   0.0800 
 29 H        3.4680     5.6440    -0.8620 H     1 <1>   0.0800 
 30 H        0.6660     9.8950     1.3630 H     1 <1>   0.1000 
 31 H       -0.2320     8.5350     0.6440 H     1 <1>   0.1000 
 32 H        0.8550     9.0310    -1.5890 H     1 <1>   0.1000 
 33 H        1.7330    10.3920    -0.8390 H     1 <1>   0.1000 
 34 H        4.5790     4.4250     0.9040 H     1 <1>   0.0800 
 35 H        3.7510     5.1690     2.2530 H     1 <1>   0.0800 
 36 H        5.4310     4.7400     2.3830 H     1 <1>   0.0800 
 37 H        4.3790     9.3040    -1.6650 H     1 <1>   0.0800 
 38 H        6.0810     9.6090    -1.4570 H     1 <1>   0.0800 
 39 H        4.9180    10.4000    -0.4180 H     1 <1>   0.0800 
 40 H        6.7090    10.2300     1.5900 H     1 <1>   0.0800 
 41 H        7.8620     9.3840     0.5630 H     1 <1>   0.0800 
 42 H        7.7200     8.9610     2.2590 H     1 <1>   0.0800 
@<TRIPOS>BOND
  1   1   2  ar  
  2   2   3  ar  
  3   2   4  1   
  4   4   5  1   
  5   4   6  2   
  6   5   7  2   
  7   6   8  1   
  8   6  23  1   
  9   7   8  1   
 10   7   9  1   
 11   9  10  1   
 12   9  24  1   
 13   9  25  1   
 14  10  11  1   
 15  10  12  1   
 16  10  26  1   
 17  11  13  1   
 18  11  14  1   
 19  11  27  1   
 20  12  15  1   
 21  12  28  1   
 22  12  29  1   
 23  13  14  1   
 24  13  30  1   
 25  13  31  1   
 26  14  32  1   
 27  14  33  1   
 28  15  16  1   
 29  15  17  2   
 30  16  18  2   
 31  16  19  1   
 32  17  20  1   
 33  17  21  1   
 34  18  20  1   
 35  19  34  1   
 36  19  35  1   
 37  19  36  1   
 38  20  22  1   
 39  21  37  1   
 40  21  38  1   
 41  21  39  1   
 42  22  40  1   
 43  22  41  1   
 44  22  42  1   
@<TRIPOS>SUBSTRUCTURE
  1 ****  12 GROUP 4 **** **** 0

# MOE 2024.06 (io_trps.svl 2023.06)
