@<TRIPOS>MOLECULE
NONAME
51 55 1 0 0 
SMALL
USER_CHARGES


@<TRIPOS>ATOM
  1 O        0.1470    -2.6850     1.4430 O.2   1 <1>  -0.5700 
  2 C       -0.7810    -2.1300     0.8770 C.2   1 <1>   0.7670 
  3 N       -1.4060    -1.1140     1.5600 N.2   1 <1>  -0.6610 
  4 C       -1.2260    -2.5280    -0.4190 C.2   1 <1>   0.0290 
  5 C       -2.3770    -0.5080     0.9900 C.2   1 <1>   0.4400 
  6 C       -0.5660    -3.5950    -1.1110 C.2   1 <1>   0.6160 
  7 C       -2.2610    -1.8330    -0.9730 C.2   1 <1>  -0.0500 
  8 N       -2.8350    -0.8240    -0.2580 N.pl3 1 <1>  -0.5500 
  9 O       -0.0990    -3.3410    -2.2070 O.2   1 <1>  -0.5700 
 10 N       -0.4870    -4.9000    -0.6530 N.am  1 <1>  -0.6600 
 11 C       -1.1880    -5.3960     0.5790 C.3   1 <1>   0.2200 
 12 C        0.4090    -5.8450    -1.3730 C.3   1 <1>   0.1400 
 13 C       -0.1940    -5.8970     1.6560 C.3   1 <1>   0.1200 
 14 C       -2.3680    -6.3350     0.2250 C.3   1 <1>   0.1100 
 15 C        0.3220    -7.3120    -0.9440 C.3   1 <1>  -0.0800 
 16 O        0.1980    -7.2330     1.5280 O.3   1 <1>  -0.5600 
 17 N       -2.0380    -7.7350    -0.1010 N.3   1 <1>  -0.8100 
 18 C        0.9790    -7.5760     0.4290 C.3   1 <1>   0.1200 
 19 C       -1.0700    -7.9270    -1.1900 C.3   1 <1>   0.1100 
 20 C       -3.2400    -8.5700    -0.2820 C.3   1 <1>   0.2900 
 21 C       -2.9510   -10.0190     0.0780 C.2   1 <1>  -0.0400 
 22 O       -3.8100   -10.9530    -0.3220 O.3   1 <1>  -0.2800 
 23 C       -1.9310   -10.5610     0.7710 C.2   1 <1>  -0.1500 
 24 C       -3.3450   -12.1270     0.1110 C.ar  1 <1>   0.1400 
 25 C       -2.1630   -11.9500     0.8080 C.ar  1 <1>   0.0000 
 26 C       -3.9080   -13.3830    -0.0710 C.ar  1 <1>  -0.1500 
 27 C       -1.5100   -13.0590     1.3470 C.ar  1 <1>  -0.1500 
 28 C       -3.2570   -14.4770     0.4650 C.ar  1 <1>  -0.1500 
 29 C       -2.0620   -14.3130     1.1720 C.ar  1 <1>  -0.1500 
 30 H       -2.8780     0.2980     1.5010 H     1 <1>   0.0600 
 31 H       -2.6320    -2.0540    -1.9630 H     1 <1>   0.1500 
 32 H       -3.6050    -0.2690    -0.6470 H     1 <1>   0.4000 
 33 H       -1.6620    -4.5500     1.0330 H     1 <1>   0.0800 
 34 H        0.1800    -5.7910    -2.4240 H     1 <1>   0.0800 
 35 H        1.4220    -5.5020    -1.2520 H     1 <1>   0.0800 
 36 H       -0.6720    -5.8230     2.6160 H     1 <1>   0.0800 
 37 H        0.6850    -5.2770     1.6770 H     1 <1>   0.0800 
 38 H       -2.9220    -5.9000    -0.5880 H     1 <1>   0.0800 
 39 H       -3.0140    -6.3520     1.0850 H     1 <1>   0.0800 
 40 H        0.9650    -7.8140    -1.6440 H     1 <1>   0.0800 
 41 H        1.9140    -7.0510     0.5100 H     1 <1>   0.0800 
 42 H        1.1780    -8.6290     0.5220 H     1 <1>   0.0800 
 43 H       -0.9300    -8.9850    -1.3310 H     1 <1>   0.0800 
 44 H       -1.4800    -7.5340    -2.1050 H     1 <1>   0.0800 
 45 H       -4.0320    -8.2260     0.3590 H     1 <1>   0.0800 
 46 H       -3.5780    -8.5070    -1.3020 H     1 <1>   0.0800 
 47 H       -1.0960   -10.0540     1.2220 H     1 <1>   0.1500 
 48 H       -4.8270   -13.4780    -0.6180 H     1 <1>   0.1500 
 49 H       -0.5930   -12.9200     1.8900 H     1 <1>   0.1500 
 50 H       -3.6670   -15.4640     0.3410 H     1 <1>   0.1500 
 51 H       -1.5710   -15.1780     1.5820 H     1 <1>   0.1500 
@<TRIPOS>BOND
  1   1   2  2   
  2   2   3  1   
  3   2   4  1   
  4   3   5  2   
  5   4   6  1   
  6   4   7  2   
  7   5   8  1   
  8   5  30  1   
  9   6   9  2   
 10   6  10  am  
 11   7   8  1   
 12   7  31  1   
 13   8  32  1   
 14  10  11  1   
 15  10  12  1   
 16  11  13  1   
 17  11  14  1   
 18  11  33  1   
 19  12  15  1   
 20  12  34  1   
 21  12  35  1   
 22  13  16  1   
 23  13  36  1   
 24  13  37  1   
 25  14  17  1   
 26  14  38  1   
 27  14  39  1   
 28  15  18  1   
 29  15  19  1   
 30  15  40  1   
 31  16  18  1   
 32  17  19  1   
 33  17  20  1   
 34  18  41  1   
 35  18  42  1   
 36  19  43  1   
 37  19  44  1   
 38  20  21  1   
 39  20  45  1   
 40  20  46  1   
 41  21  22  1   
 42  21  23  2   
 43  22  24  1   
 44  23  25  1   
 45  23  47  1   
 46  24  25  ar  
 47  24  26  ar  
 48  25  27  ar  
 49  26  28  ar  
 50  26  48  1   
 51  27  29  ar  
 52  27  49  1   
 53  28  29  ar  
 54  28  50  1   
 55  29  51  1   
@<TRIPOS>SUBSTRUCTURE
  1 ****  17 GROUP 4 **** **** 0

# MOE 2024.06 (io_trps.svl 2023.06)
