@<TRIPOS>MOLECULE
NONAME
48 51 1 0 0 
SMALL
USER_CHARGES


@<TRIPOS>ATOM
  1 CL      -0.7940    -0.3980     1.1680 Cl    1 <1>  -0.1230 
  2 C       -1.2980    -1.8390     0.3150 C.2   1 <1>   0.4120 
  3 N       -2.0600    -1.8310    -0.7170 N.2   1 <1>  -0.4100 
  4 C       -0.9160    -3.1220     0.6860 C.2   1 <1>  -0.1500 
  5 O       -2.1910    -3.0870    -1.0460 O.3   1 <1>  -0.0190 
  6 C       -1.5300    -3.8810    -0.2360 C.2   1 <1>  -0.0400 
  7 C       -1.5600    -5.3830    -0.4500 C.3   1 <1>   0.0200 
  8 C       -2.9980    -5.9230    -0.3810 C.3   1 <1>  -0.0990 
  9 C       -3.0900    -7.4300    -0.5730 C.2   1 <1>   0.5690 
 10 O       -2.0650    -8.0700    -0.5570 O.2   1 <1>  -0.5700 
 11 N       -4.3100    -8.0300    -0.7530 N.am  1 <1>  -0.6600 
 12 C       -5.6420    -7.3480    -0.7020 C.3   1 <1>   0.1400 
 13 C       -4.4230    -9.5010    -1.0080 C.3   1 <1>   0.1400 
 14 C       -6.5940    -8.0610     0.2800 C.3   1 <1>   0.1900 
 15 C       -5.4120   -10.1600    -0.0330 C.3   1 <1>   0.1100 
 16 N       -6.7340    -9.4960    -0.0690 N.3   1 <1>  -0.8100 
 17 C       -7.9720    -7.3710     0.2890 C.3   1 <1>   0.1200 
 18 C       -7.7040   -10.1470     0.8460 C.3   1 <1>   0.3330 
 19 O       -8.8350    -8.0140     1.1810 O.3   1 <1>  -0.5600 
 20 C       -7.9710   -11.5920     0.4280 C.ar  1 <1>  -0.1430 
 21 C       -9.0370    -9.3690     0.8740 C.3   1 <1>   0.1200 
 22 C       -7.9490   -12.6060     1.3760 C.ar  1 <1>  -0.1500 
 23 C       -8.2450   -11.9130    -0.8950 C.ar  1 <1>  -0.1500 
 24 C       -8.1970   -13.9170     1.0080 C.ar  1 <1>  -0.1500 
 25 C       -8.4930   -13.2230    -1.2650 C.ar  1 <1>  -0.1500 
 26 C       -8.4690   -14.2260    -0.3130 C.ar  1 <1>  -0.1500 
 27 H       -0.2850    -3.3840     1.5120 H     1 <1>   0.1500 
 28 H       -1.1340    -5.6120    -1.4120 H     1 <1>   0.0800 
 29 H       -0.9560    -5.8600     0.3030 H     1 <1>   0.0800 
 30 H       -3.5760    -5.4450    -1.1500 H     1 <1>   0.0800 
 31 H       -3.4210    -5.6750     0.5740 H     1 <1>   0.0800 
 32 H       -5.5390    -6.3230    -0.3980 H     1 <1>   0.0800 
 33 H       -6.0780    -7.3620    -1.6860 H     1 <1>   0.0800 
 34 H       -4.7680    -9.6570    -2.0150 H     1 <1>   0.0800 
 35 H       -3.4650    -9.9790    -0.9110 H     1 <1>   0.0800 
 36 H       -6.1760    -7.9730     1.2680 H     1 <1>   0.0800 
 37 H       -5.0040   -10.1210     0.9630 H     1 <1>   0.0800 
 38 H       -5.5160   -11.1960    -0.3080 H     1 <1>   0.0800 
 39 H       -8.4150    -7.3900    -0.6920 H     1 <1>   0.0800 
 40 H       -7.8780    -6.3490     0.6100 H     1 <1>   0.0800 
 41 H       -7.2990   -10.1410     1.8440 H     1 <1>   0.0800 
 42 H       -9.6870    -9.7830     1.6220 H     1 <1>   0.0800 
 43 H       -9.5270    -9.4350    -0.0810 H     1 <1>   0.0800 
 44 H       -7.7390   -12.3810     2.4070 H     1 <1>   0.1500 
 45 H       -8.2580   -11.1350    -1.6390 H     1 <1>   0.1500 
 46 H       -8.1780   -14.6970     1.7490 H     1 <1>   0.1500 
 47 H       -8.7030   -13.4600    -2.2930 H     1 <1>   0.1500 
 48 H       -8.6620   -15.2450    -0.6000 H     1 <1>   0.1500 
@<TRIPOS>BOND
  1   1   2  1   
  2   2   3  2   
  3   2   4  1   
  4   3   5  1   
  5   4   6  2   
  6   4  27  1   
  7   5   6  1   
  8   6   7  1   
  9   7   8  1   
 10   7  28  1   
 11   7  29  1   
 12   8   9  1   
 13   8  30  1   
 14   8  31  1   
 15   9  10  2   
 16   9  11  am  
 17  11  12  1   
 18  11  13  1   
 19  12  14  1   
 20  12  32  1   
 21  12  33  1   
 22  13  15  1   
 23  13  34  1   
 24  13  35  1   
 25  14  16  1   
 26  14  17  1   
 27  14  36  1   
 28  15  16  1   
 29  15  37  1   
 30  15  38  1   
 31  16  18  1   
 32  17  19  1   
 33  17  39  1   
 34  17  40  1   
 35  18  20  1   
 36  18  21  1   
 37  18  41  1   
 38  19  21  1   
 39  20  22  ar  
 40  20  23  ar  
 41  21  42  1   
 42  21  43  1   
 43  22  24  ar  
 44  22  44  1   
 45  23  25  ar  
 46  23  45  1   
 47  24  26  ar  
 48  24  46  1   
 49  25  26  ar  
 50  25  47  1   
 51  26  48  1   
@<TRIPOS>SUBSTRUCTURE
  1 ****  12 GROUP 4 **** **** 0

# MOE 2024.06 (io_trps.svl 2023.06)
