@<TRIPOS>MOLECULE
NONAME
50 52 1 0 0 
SMALL
USER_CHARGES


@<TRIPOS>ATOM
  1 F        1.9880    -1.0850     0.6730 F     1 <1>  -0.3400 
  2 C        1.7320    -2.0170     1.5840 C.3   1 <1>   1.3000 
  3 F        2.3820    -1.6870     2.6910 F     1 <1>  -0.3400 
  4 F        2.2280    -3.1710     1.1530 F     1 <1>  -0.3400 
  5 O        0.3470    -2.1160     1.8480 O.3   1 <1>  -0.3630 
  6 C       -0.4580    -2.4910     0.8320 C.ar  1 <1>   0.0830 
  7 C       -0.8070    -3.8230     0.6890 C.ar  1 <1>  -0.1500 
  8 C       -0.9480    -1.5410    -0.0490 C.ar  1 <1>  -0.1500 
  9 C       -1.6460    -4.2440    -0.3420 C.ar  1 <1>   0.0860 
 10 C       -1.7740    -1.9360    -1.0850 C.ar  1 <1>  -0.1500 
 11 C       -2.0110    -5.6450    -0.4850 C.2   1 <1>   0.5440 
 12 C       -2.1110    -3.2700    -1.2290 C.ar  1 <1>  -0.1500 
 13 O       -1.2460    -6.5230    -0.1260 O.2   1 <1>  -0.5700 
 14 N       -3.2300    -6.0430    -0.9890 N.am  1 <1>  -0.6600 
 15 C       -3.3840    -7.4350    -1.4860 C.3   1 <1>   0.1400 
 16 C       -4.4940    -5.4500    -0.4750 C.3   1 <1>   0.1400 
 17 C       -3.8460    -8.3290    -0.3140 C.3   1 <1>   0.4230 
 18 C       -4.9950    -6.3190     0.6870 C.3   1 <1>  -0.1600 
 19 N       -3.8290    -9.8190    -0.6260 N.4   1 <1>  -0.9590 
 20 C       -5.1790    -7.8220     0.3170 C.3   1 <1>   0.0000 
 21 C       -4.6360   -10.6520     0.3230 C.3   1 <1>   0.3430 
 22 C       -4.1540   -10.1890    -2.0420 C.3   1 <1>   0.2630 
 23 C       -5.4680    -8.6260     1.6210 C.3   1 <1>  -0.1600 
 24 C       -6.3480    -7.9900    -0.6940 C.3   1 <1>   0.1200 
 25 C       -4.7370    -9.9800     1.6920 C.3   1 <1>  -0.1600 
 26 O       -7.5030    -7.3690    -0.2510 O.3   1 <1>  -0.6800 
 27 H       -0.4220    -4.5490     1.3840 H     1 <1>   0.1500 
 28 H       -0.6870    -0.5030     0.0720 H     1 <1>   0.1500 
 29 H       -2.1520    -1.2050    -1.7800 H     1 <1>   0.1500 
 30 H       -2.7460    -3.5640    -2.0470 H     1 <1>   0.1500 
 31 H       -4.0900    -7.4390    -2.2960 H     1 <1>   0.0800 
 32 H       -2.4360    -7.7840    -1.8590 H     1 <1>   0.0800 
 33 H       -4.3260    -4.4450    -0.1250 H     1 <1>   0.0800 
 34 H       -5.2270    -5.4070    -1.2640 H     1 <1>   0.0800 
 35 H       -3.1000    -8.1780     0.4500 H     1 <1>   0.0800 
 36 H       -4.2770    -6.2260     1.4840 H     1 <1>   0.0800 
 37 H       -5.9160    -5.9030     1.0580 H     1 <1>   0.0800 
 38 H       -2.8440   -10.0850    -0.4680 H     1 <1>   0.4500 
 39 H       -5.6330   -10.7840    -0.0650 H     1 <1>   0.0800 
 40 H       -4.1880   -11.6270     0.4270 H     1 <1>   0.0800 
 41 H       -5.1590    -9.8910    -2.2900 H     1 <1>   0.0800 
 42 H       -4.0700   -11.2560    -2.1770 H     1 <1>   0.0800 
 43 H       -3.4720    -9.7090    -2.7250 H     1 <1>   0.0800 
 44 H       -5.1750    -8.0590     2.4890 H     1 <1>   0.0800 
 45 H       -6.5260    -8.7960     1.7230 H     1 <1>   0.0800 
 46 H       -6.5830    -9.0270    -0.8570 H     1 <1>   0.0800 
 47 H       -6.1140    -7.5430    -1.6430 H     1 <1>   0.0800 
 48 H       -5.2660   -10.6300     2.3680 H     1 <1>   0.0800 
 49 H       -3.7470    -9.8470     2.0940 H     1 <1>   0.0800 
 50 H       -7.8360    -7.7550     0.5840 H     1 <1>   0.4000 
@<TRIPOS>BOND
  1   1   2  1   
  2   2   3  1   
  3   2   4  1   
  4   2   5  1   
  5   5   6  1   
  6   6   7  ar  
  7   6   8  ar  
  8   7   9  ar  
  9   7  27  1   
 10   8  10  ar  
 11   8  28  1   
 12   9  11  1   
 13   9  12  ar  
 14  10  12  ar  
 15  10  29  1   
 16  11  13  2   
 17  11  14  am  
 18  12  30  1   
 19  14  15  1   
 20  14  16  1   
 21  15  17  1   
 22  15  31  1   
 23  15  32  1   
 24  16  18  1   
 25  16  33  1   
 26  16  34  1   
 27  17  19  1   
 28  17  20  1   
 29  17  35  1   
 30  18  20  1   
 31  18  36  1   
 32  18  37  1   
 33  19  21  1   
 34  19  22  1   
 35  19  38  1   
 36  20  23  1   
 37  20  24  1   
 38  21  25  1   
 39  21  39  1   
 40  21  40  1   
 41  22  41  1   
 42  22  42  1   
 43  22  43  1   
 44  23  25  1   
 45  23  44  1   
 46  23  45  1   
 47  24  26  1   
 48  24  46  1   
 49  24  47  1   
 50  25  48  1   
 51  25  49  1   
 52  26  50  1   
@<TRIPOS>SUBSTRUCTURE
  1 ****  11 GROUP 4 **** **** 0

# MOE 2024.06 (io_trps.svl 2023.06)
