@<TRIPOS>MOLECULE
NONAME
56 59 1 0 0 
SMALL
USER_CHARGES


@<TRIPOS>ATOM
  1 O       -0.8180     0.9290    -2.9150 O.2   1 <1>  -0.5700 
  2 C       -0.2780     0.1400    -2.1770 C.2   1 <1>   0.5690 
  3 N        0.8920     0.3620    -1.5120 N.am  1 <1>  -0.4940 
  4 C       -0.9200    -1.2280    -1.9290 C.3   1 <1>   0.1710 
  5 C        1.7940     1.4340    -1.3390 C.2   1 <1>  -0.0880 
  6 N       -0.3750    -1.9060    -0.7120 N.3   1 <1>  -0.8100 
  7 N        1.9030     2.5960    -2.0380 N.pl3 1 <1>   0.3140 
  8 C        2.7600     1.4590    -0.3780 C.2   1 <1>  -0.0540 
  9 C       -0.5480    -3.3670    -0.7620 C.3   1 <1>   0.2530 
 10 C       -0.9620    -1.3350     0.5240 C.3   1 <1>   0.1100 
 11 N        2.9080     3.3630    -1.5610 N.2   1 <1>  -0.7070 
 12 C        1.1260     3.0610    -3.1930 C.3   1 <1>   0.0160 
 13 C        3.0380     0.4340     0.6030 C.ar  1 <1>   0.0540 
 14 C        3.4050     2.6840    -0.5800 C.2   1 <1>   0.1080 
 15 C        0.5190    -4.0580     0.0720 C.ar  1 <1>  -0.1430 
 16 C       -0.1980    -1.7200     1.7990 C.3   1 <1>   0.1200 
 17 C        2.9700     0.6620     1.9850 C.ar  1 <1>   0.0820 
 18 C        3.3650    -0.8470     0.1650 C.ar  1 <1>  -0.1500 
 19 C        4.5720     3.1990     0.2330 C.3   1 <1>  -0.0590 
 20 C        0.5470    -3.9130     1.4540 C.ar  1 <1>   0.0820 
 21 C        1.4660    -4.8700    -0.5360 C.ar  1 <1>  -0.1500 
 22 O       -0.3210    -3.0990     2.0850 O.3   1 <1>  -0.3630 
 23 O        2.6260     1.9110     2.4020 O.3   1 <1>  -0.3630 
 24 C        3.2330    -0.3730     2.8790 C.ar  1 <1>  -0.1500 
 25 C        3.6140    -1.8740     1.0550 C.ar  1 <1>  -0.1500 
 26 C        1.4770    -4.6010     2.2170 C.ar  1 <1>  -0.1500 
 27 C        2.4080    -5.5440     0.2250 C.ar  1 <1>  -0.1500 
 28 C        2.5350     2.2490     3.7680 C.3   1 <1>   0.0400 
 29 C        3.5520    -1.6360     2.4150 C.ar  1 <1>  -0.1500 
 30 C        2.4100    -5.4150     1.6030 C.ar  1 <1>  -0.1500 
 31 H        1.0900    -0.4450    -0.9020 H     1 <1>   0.3700 
 32 H       -0.7180    -1.8240    -2.8000 H     1 <1>   0.0800 
 33 H       -1.9870    -1.1110    -1.8450 H     1 <1>   0.0800 
 34 H       -0.4590    -3.7120    -1.7780 H     1 <1>   0.0800 
 35 H       -1.5260    -3.6430    -0.4050 H     1 <1>   0.0800 
 36 H       -1.9930    -1.6310     0.6230 H     1 <1>   0.0800 
 37 H       -0.9410    -0.2600     0.4590 H     1 <1>   0.0800 
 38 H        1.0980     2.2860    -3.9350 H     1 <1>   0.0800 
 39 H        1.5920     3.9370    -3.6040 H     1 <1>   0.0800 
 40 H        0.1300     3.3000    -2.8720 H     1 <1>   0.0800 
 41 H       -0.6050    -1.1870     2.6380 H     1 <1>   0.0800 
 42 H        0.8440    -1.4720     1.7060 H     1 <1>   0.0800 
 43 H        3.4230    -1.0380    -0.8920 H     1 <1>   0.1500 
 44 H        5.1260     2.3800     0.6520 H     1 <1>   0.0800 
 45 H        4.2050     3.8220     1.0260 H     1 <1>   0.0800 
 46 H        5.2230     3.7780    -0.3960 H     1 <1>   0.0800 
 47 H        1.4730    -4.9870    -1.6050 H     1 <1>   0.1500 
 48 H        3.1920    -0.2200     3.9400 H     1 <1>   0.1500 
 49 H        3.8500    -2.8590     0.6900 H     1 <1>   0.1500 
 50 H        1.4650    -4.4880     3.2860 H     1 <1>   0.1500 
 51 H        3.1360    -6.1730    -0.2570 H     1 <1>   0.1500 
 52 H        2.2560     3.2860     3.8350 H     1 <1>   0.0800 
 53 H        3.4950     2.0990     4.2300 H     1 <1>   0.0800 
 54 H        1.7810     1.6380     4.2300 H     1 <1>   0.0800 
 55 H        3.7460    -2.4370     3.1070 H     1 <1>   0.1500 
 56 H        3.1350    -5.9470     2.1950 H     1 <1>   0.1500 
@<TRIPOS>BOND
  1   1   2  2   
  2   2   3  am  
  3   2   4  1   
  4   3   5  1   
  5   3  31  1   
  6   4   6  1   
  7   4  32  1   
  8   4  33  1   
  9   5   7  1   
 10   5   8  2   
 11   6   9  1   
 12   6  10  1   
 13   7  11  1   
 14   7  12  1   
 15   8  13  1   
 16   8  14  1   
 17   9  15  1   
 18   9  34  1   
 19   9  35  1   
 20  10  16  1   
 21  10  36  1   
 22  10  37  1   
 23  11  14  2   
 24  12  38  1   
 25  12  39  1   
 26  12  40  1   
 27  13  17  ar  
 28  13  18  ar  
 29  14  19  1   
 30  15  20  ar  
 31  15  21  ar  
 32  16  22  1   
 33  16  41  1   
 34  16  42  1   
 35  17  23  1   
 36  17  24  ar  
 37  18  25  ar  
 38  18  43  1   
 39  19  44  1   
 40  19  45  1   
 41  19  46  1   
 42  20  22  1   
 43  20  26  ar  
 44  21  27  ar  
 45  21  47  1   
 46  23  28  1   
 47  24  29  ar  
 48  24  48  1   
 49  25  29  ar  
 50  25  49  1   
 51  26  30  ar  
 52  26  50  1   
 53  27  30  ar  
 54  27  51  1   
 55  28  52  1   
 56  28  53  1   
 57  28  54  1   
 58  29  55  1   
 59  30  56  1   
@<TRIPOS>SUBSTRUCTURE
  1 ****  18 GROUP 4 **** **** 0

# MOE 2024.06 (io_trps.svl 2023.06)
