@<TRIPOS>MOLECULE
NONAME
44 46 1 0 0 
SMALL
USER_CHARGES


@<TRIPOS>ATOM
  1 CL       2.8630     0.6060     1.7360 Cl    1 <1>  -0.1770 
  2 C        2.6730    -0.7060     0.6030 C.ar  1 <1>   0.1770 
  3 C        2.3520    -1.9640     1.0770 C.ar  1 <1>  -0.1500 
  4 C        2.8470    -0.4580    -0.7490 C.ar  1 <1>  -0.1500 
  5 C        2.1920    -3.0290     0.1920 C.ar  1 <1>   0.0860 
  6 C        2.6910    -1.4990    -1.6480 C.ar  1 <1>  -0.1500 
  7 C        2.3660    -2.7550    -1.1640 C.ar  1 <1>   0.1900 
  8 C        1.8550    -4.3510     0.6610 C.2   1 <1>   0.5440 
  9 F        2.2060    -3.7160    -2.0320 F     1 <1>  -0.1900 
 10 O        2.7360    -5.1760     0.8130 O.2   1 <1>  -0.5700 
 11 N        0.5550    -4.7090     0.9380 N.am  1 <1>  -0.6600 
 12 C        0.2260    -6.0770     1.4360 C.3   1 <1>   0.1400 
 13 C       -0.6290    -3.9980     0.3780 C.3   1 <1>   0.1400 
 14 C       -0.2550    -6.9240     0.2350 C.3   1 <1>   0.4230 
 15 C       -1.1730    -4.8210    -0.8000 C.3   1 <1>  -0.1600 
 16 N       -0.5050    -8.3710     0.5530 N.4   1 <1>  -0.9590 
 17 C       -1.5170    -6.2830    -0.3860 C.3   1 <1>  -0.1060 
 18 C       -0.8400    -9.1550    -0.6620 C.3   1 <1>   0.3430 
 19 C        0.5440    -9.0260     1.3800 C.3   1 <1>   0.2630 
 20 C       -2.6450    -6.2990     0.6650 C.2   1 <1>   0.9060 
 21 C       -1.9320    -7.0740    -1.6490 C.3   1 <1>  -0.1600 
 22 C       -2.0780    -8.5740    -1.3500 C.3   1 <1>  -0.1600 
 23 O       -2.6890    -7.2310     1.4840 O.co2 1 <1>  -0.9000 
 24 O       -3.4680    -5.3850     0.6860 O.co2 1 <1>  -0.9000 
 25 H        2.2260    -2.1230     2.1330 H     1 <1>   0.1500 
 26 H        3.0990     0.5340    -1.0850 H     1 <1>   0.1500 
 27 H        2.8160    -1.3440    -2.7050 H     1 <1>   0.1500 
 28 H        1.0980    -6.5140     1.8840 H     1 <1>   0.0800 
 29 H       -0.5390    -6.0050     2.1900 H     1 <1>   0.0800 
 30 H       -1.3830    -3.8980     1.1420 H     1 <1>   0.0800 
 31 H       -0.3700    -3.0090     0.0440 H     1 <1>   0.0800 
 32 H        0.5320    -6.8830    -0.4980 H     1 <1>   0.0800 
 33 H       -2.0580    -4.3360    -1.1760 H     1 <1>   0.0800 
 34 H       -0.4440    -4.8150    -1.5900 H     1 <1>   0.0800 
 35 H       -1.3980    -8.2970     1.1130 H     1 <1>   0.4500 
 36 H       -0.0060    -9.1350    -1.3450 H     1 <1>   0.0800 
 37 H       -1.0360   -10.1800    -0.3920 H     1 <1>   0.0800 
 38 H        1.4930    -8.9980     0.8700 H     1 <1>   0.0800 
 39 H        0.2770   -10.0520     1.5720 H     1 <1>   0.0800 
 40 H        0.6410    -8.5200     2.3260 H     1 <1>   0.0800 
 41 H       -2.8690    -6.6900    -2.0190 H     1 <1>   0.0800 
 42 H       -1.1940    -6.9410    -2.4210 H     1 <1>   0.0800 
 43 H       -2.2530    -9.1060    -2.2690 H     1 <1>   0.0800 
 44 H       -2.9370    -8.7380    -0.7210 H     1 <1>   0.0800 
@<TRIPOS>BOND
  1   1   2  1   
  2   2   3  ar  
  3   2   4  ar  
  4   3   5  ar  
  5   3  25  1   
  6   4   6  ar  
  7   4  26  1   
  8   5   7  ar  
  9   5   8  1   
 10   6   7  ar  
 11   6  27  1   
 12   7   9  1   
 13   8  10  2   
 14   8  11  am  
 15  11  12  1   
 16  11  13  1   
 17  12  14  1   
 18  12  28  1   
 19  12  29  1   
 20  13  15  1   
 21  13  30  1   
 22  13  31  1   
 23  14  16  1   
 24  14  17  1   
 25  14  32  1   
 26  15  17  1   
 27  15  33  1   
 28  15  34  1   
 29  16  18  1   
 30  16  19  1   
 31  16  35  1   
 32  17  20  1   
 33  17  21  1   
 34  18  22  1   
 35  18  36  1   
 36  18  37  1   
 37  19  38  1   
 38  19  39  1   
 39  19  40  1   
 40  20  23  ar  
 41  20  24  ar  
 42  21  22  1   
 43  21  41  1   
 44  21  42  1   
 45  22  43  1   
 46  22  44  1   
@<TRIPOS>SUBSTRUCTURE
  1 ****  11 GROUP 4 **** **** 0

# MOE 2024.06 (io_trps.svl 2023.06)
