@<TRIPOS>MOLECULE
NONAME
49 52 1 0 0 
SMALL
USER_CHARGES


@<TRIPOS>ATOM
  1 O       -1.4490     0.6170     1.9550 O.2   1 <1>  -0.5700 
  2 C       -1.8820     0.9690     0.8720 C.2   1 <1>   0.6160 
  3 N       -2.5400     0.0280     0.1120 N.am  1 <1>  -0.6600 
  4 C       -1.7570     2.3440     0.4820 C.2   1 <1>   0.0290 
  5 C       -3.2770     0.2680    -1.1550 C.3   1 <1>   0.1400 
  6 C       -2.5970    -1.4080     0.4770 C.3   1 <1>   0.1400 
  7 C       -1.1110     2.6720    -0.7510 C.2   1 <1>   0.6160 
  8 C       -2.2210     3.3690     1.2700 C.2   1 <1>  -0.1500 
  9 C       -4.1760    -0.9570    -1.3010 C.3   1 <1>   0.2000 
 10 C       -3.3460    -2.0860    -0.6790 C.3   1 <1>  -0.0800 
 11 O       -0.6420     1.8580    -1.5330 O.2   1 <1>  -0.5700 
 12 N       -1.0070     3.9900    -1.1020 N.am  1 <1>  -0.5390 
 13 C       -2.0910     4.7160     0.8680 C.2   1 <1>  -0.1380 
 14 O       -5.3170    -0.7470    -0.5400 O.3   1 <1>  -0.6800 
 15 C       -4.1520    -3.3290    -0.2600 C.3   1 <1>   0.0200 
 16 C       -1.4780     5.0090    -0.3170 C.2   1 <1>  -0.0290 
 17 C       -2.6370     5.8010     1.7880 C.3   1 <1>  -0.0220 
 18 C       -3.2750    -4.4790     0.2100 C.2   1 <1>  -0.0400 
 19 C       -1.2850     6.4280    -0.8320 C.3   1 <1>  -0.0220 
 20 C       -2.7860     7.1500     1.0700 C.3   1 <1>  -0.1600 
 21 O       -3.8480    -5.5420     0.7080 O.3   1 <1>  -0.0190 
 22 C       -1.9470    -4.6830     0.2350 C.2   1 <1>  -0.1500 
 23 C       -1.5250     7.4780     0.2610 C.3   1 <1>  -0.1600 
 24 N       -2.9800    -6.4420     1.0670 N.2   1 <1>  -0.4100 
 25 C       -1.8250    -5.9520     0.7940 C.2   1 <1>   0.1080 
 26 C       -0.5160    -6.6640     1.0500 C.3   1 <1>  -0.0590 
 27 H       -3.8430     1.1840    -1.1300 H     1 <1>   0.0800 
 28 H       -2.5750     0.2960    -1.9710 H     1 <1>   0.0800 
 29 H       -1.6030    -1.8040     0.5980 H     1 <1>   0.0800 
 30 H       -3.1360    -1.5140     1.4040 H     1 <1>   0.0800 
 31 H       -2.6900     3.1510     2.2150 H     1 <1>   0.1500 
 32 H       -4.4710    -1.1480    -2.3180 H     1 <1>   0.0800 
 33 H       -2.6150    -2.3840    -1.4100 H     1 <1>   0.0800 
 34 H       -0.5280     4.1590    -1.9860 H     1 <1>   0.3700 
 35 H       -5.0480    -0.4250     0.3440 H     1 <1>   0.4000 
 36 H       -4.7400    -3.6700    -1.0930 H     1 <1>   0.0800 
 37 H       -4.8320    -3.0760     0.5340 H     1 <1>   0.0800 
 38 H       -3.5950     5.5030     2.1770 H     1 <1>   0.0800 
 39 H       -1.9620     5.9130     2.6190 H     1 <1>   0.0800 
 40 H       -0.2870     6.5440    -1.2160 H     1 <1>   0.0800 
 41 H       -1.9750     6.5910    -1.6420 H     1 <1>   0.0800 
 42 H       -3.6330     7.1070     0.4060 H     1 <1>   0.0800 
 43 H       -2.9700     7.9240     1.7940 H     1 <1>   0.0800 
 44 H       -1.1370    -4.0570    -0.0870 H     1 <1>   0.1500 
 45 H       -0.6770     7.4990     0.9240 H     1 <1>   0.0800 
 46 H       -1.6190     8.4510    -0.1890 H     1 <1>   0.0800 
 47 H        0.0800    -6.0930     1.7390 H     1 <1>   0.0800 
 48 H        0.0220    -6.7820     0.1280 H     1 <1>   0.0800 
 49 H       -0.7020    -7.6350     1.4720 H     1 <1>   0.0800 
@<TRIPOS>BOND
  1   1   2  2   
  2   2   3  am  
  3   2   4  1   
  4   3   5  1   
  5   3   6  1   
  6   4   7  1   
  7   4   8  2   
  8   5   9  1   
  9   5  27  1   
 10   5  28  1   
 11   6  10  1   
 12   6  29  1   
 13   6  30  1   
 14   7  11  2   
 15   7  12  am  
 16   8  13  1   
 17   8  31  1   
 18   9  10  1   
 19   9  14  1   
 20   9  32  1   
 21  10  15  1   
 22  10  33  1   
 23  12  16  1   
 24  12  34  1   
 25  13  16  2   
 26  13  17  1   
 27  14  35  1   
 28  15  18  1   
 29  15  36  1   
 30  15  37  1   
 31  16  19  1   
 32  17  20  1   
 33  17  38  1   
 34  17  39  1   
 35  18  21  1   
 36  18  22  2   
 37  19  23  1   
 38  19  40  1   
 39  19  41  1   
 40  20  23  1   
 41  20  42  1   
 42  20  43  1   
 43  21  24  1   
 44  22  25  1   
 45  22  44  1   
 46  23  45  1   
 47  23  46  1   
 48  24  25  2   
 49  25  26  1   
 50  26  47  1   
 51  26  48  1   
 52  26  49  1   
@<TRIPOS>SUBSTRUCTURE
  1 ****   3 GROUP 4 **** **** 0

# MOE 2024.06 (io_trps.svl 2023.06)
