@<TRIPOS>MOLECULE
NONAME
50 52 1 0 0 
SMALL
USER_CHARGES


@<TRIPOS>ATOM
  1 CL      -0.4200     0.3460     0.8690 Cl    1 <1>  -0.1770 
  2 C       -2.0840     0.6790     0.4730 C.ar  1 <1>   0.1770 
  3 C       -2.7750    -0.1850    -0.3550 C.ar  1 <1>  -0.1500 
  4 C       -2.6950     1.8050     0.9900 C.ar  1 <1>  -0.1500 
  5 C       -4.0960     0.0840    -0.6650 C.ar  1 <1>  -0.1500 
  6 C       -4.0170     2.0630     0.6750 C.ar  1 <1>  -0.1500 
  7 C       -4.7500     1.2070    -0.1530 C.ar  1 <1>   0.0530 
  8 C       -6.1320     1.4840    -0.4580 C.2   1 <1>   0.0870 
  9 O       -6.5970     2.7080    -0.4210 O.3   1 <1>  -0.0190 
 10 C       -7.1810     0.6840    -0.7800 C.2   1 <1>  -0.0860 
 11 N       -7.8730     2.7810    -0.7060 N.2   1 <1>  -0.4100 
 12 C       -8.2400     1.5750    -0.9490 C.2   1 <1>   0.3720 
 13 C       -7.3240    -0.7290    -0.8750 C.2   1 <1>   0.7160 
 14 N       -9.5350     1.2000    -1.3190 N.pl3 1 <1>  -0.8520 
 15 O       -7.0140    -1.3070    -1.8980 O.2   1 <1>  -0.5700 
 16 N       -7.9120    -1.4500     0.1450 N.am  1 <1>  -0.6600 
 17 C      -10.6000     2.2290    -1.1130 C.3   1 <1>   0.2090 
 18 C       -8.8550    -2.5440    -0.2120 C.3   1 <1>   0.1400 
 19 C       -8.2280    -0.8500     1.4740 C.3   1 <1>   0.1400 
 20 C      -12.0180     1.6710    -1.3280 C.3   1 <1>   0.1200 
 21 C      -10.2740    -1.9460    -0.3310 C.3   1 <1>   0.4230 
 22 C       -9.6650    -0.2860     1.4900 C.3   1 <1>   0.3430 
 23 O      -12.3060     0.6080    -0.4510 O.3   1 <1>  -0.5600 
 24 N      -10.6920    -1.2120     0.8970 N.4   1 <1>  -0.9060 
 25 C      -11.3180    -3.0210    -0.6050 C.3   1 <1>  -0.2400 
 26 C      -13.6450     0.2130    -0.5200 C.3   1 <1>   0.0400 
 27 H       -2.2790    -1.0530    -0.7520 H     1 <1>   0.1500 
 28 H       -2.1380     2.4670     1.6280 H     1 <1>   0.1500 
 29 H       -4.6150    -0.5900    -1.3240 H     1 <1>   0.1500 
 30 H       -4.4890     2.9430     1.0780 H     1 <1>   0.1500 
 31 H       -9.5250     0.9310    -2.3110 H     1 <1>   0.4000 
 32 H      -10.5310     2.6320    -0.1160 H     1 <1>   0.0800 
 33 H      -10.4370     3.0430    -1.8010 H     1 <1>   0.0800 
 34 H       -8.5730    -2.9950    -1.1480 H     1 <1>   0.0800 
 35 H       -8.8270    -3.3110     0.5420 H     1 <1>   0.0800 
 36 H       -8.1270    -1.6050     2.2340 H     1 <1>   0.0800 
 37 H       -7.5280    -0.0650     1.7090 H     1 <1>   0.0800 
 38 H      -12.1260     1.3230    -2.3410 H     1 <1>   0.0800 
 39 H      -12.7300     2.4610    -1.1540 H     1 <1>   0.0800 
 40 H      -10.2650    -1.2540    -1.1590 H     1 <1>   0.0800 
 41 H       -9.6670     0.6350     0.9340 H     1 <1>   0.0800 
 42 H       -9.9400    -0.0370     2.5020 H     1 <1>   0.0800 
 43 H      -11.4760    -0.6020     0.5890 H     1 <1>   0.4500 
 44 H      -11.0470    -1.8690     1.5950 H     1 <1>   0.4500 
 45 H      -11.3550    -3.7420     0.1930 H     1 <1>   0.0800 
 46 H      -11.0680    -3.5400    -1.5140 H     1 <1>   0.0800 
 47 H      -12.2890    -2.5790    -0.7380 H     1 <1>   0.0800 
 48 H      -13.8040    -0.6000     0.1660 H     1 <1>   0.0800 
 49 H      -13.8730    -0.1090    -1.5230 H     1 <1>   0.0800 
 50 H      -14.2770     1.0410    -0.2430 H     1 <1>   0.0800 
@<TRIPOS>BOND
  1   1   2  1   
  2   2   3  ar  
  3   2   4  ar  
  4   3   5  ar  
  5   3  27  1   
  6   4   6  ar  
  7   4  28  1   
  8   5   7  ar  
  9   5  29  1   
 10   6   7  ar  
 11   6  30  1   
 12   7   8  1   
 13   8   9  1   
 14   8  10  2   
 15   9  11  1   
 16  10  12  1   
 17  10  13  1   
 18  11  12  2   
 19  12  14  1   
 20  13  15  2   
 21  13  16  am  
 22  14  17  1   
 23  14  31  1   
 24  16  18  1   
 25  16  19  1   
 26  17  20  1   
 27  17  32  1   
 28  17  33  1   
 29  18  21  1   
 30  18  34  1   
 31  18  35  1   
 32  19  22  1   
 33  19  36  1   
 34  19  37  1   
 35  20  23  1   
 36  20  38  1   
 37  20  39  1   
 38  21  24  1   
 39  21  25  1   
 40  21  40  1   
 41  22  24  1   
 42  22  41  1   
 43  22  42  1   
 44  23  26  1   
 45  24  43  1   
 46  24  44  1   
 47  25  45  1   
 48  25  46  1   
 49  25  47  1   
 50  26  48  1   
 51  26  49  1   
 52  26  50  1   
@<TRIPOS>SUBSTRUCTURE
  1 ****  10 GROUP 4 **** **** 0

# MOE 2024.06 (io_trps.svl 2023.06)
