@<TRIPOS>MOLECULE
NONAME
50 53 1 0 0 
SMALL
USER_CHARGES


@<TRIPOS>ATOM
  1 F        4.1360     1.9730    -2.2500 F     1 <1>  -0.1900 
  2 C        4.5120     0.9320    -1.5620 C.ar  1 <1>   0.1900 
  3 C        5.0700    -0.1430    -2.2280 C.ar  1 <1>  -0.1500 
  4 C        4.3540     0.9450    -0.1900 C.ar  1 <1>  -0.1500 
  5 C        5.4990    -1.2300    -1.4860 C.ar  1 <1>  -0.1500 
  6 C        4.7900    -0.1490     0.5360 C.ar  1 <1>  -0.1500 
  7 C        5.3810    -1.2460    -0.0950 C.ar  1 <1>   0.0000 
  8 C        5.8560    -2.3780     0.6660 C.ar  1 <1>   0.0000 
  9 C        6.9060    -2.2650     1.5940 C.ar  1 <1>   0.0860 
 10 C        5.2670    -3.6230     0.4640 C.ar  1 <1>  -0.1500 
 11 C        7.5750    -1.0070     1.8490 C.2   1 <1>   0.5440 
 12 C        7.3220    -3.4050     2.2790 C.ar  1 <1>  -0.1500 
 13 C        5.6960    -4.7420     1.1500 C.ar  1 <1>  -0.1500 
 14 O        7.1190    -0.2330     2.6690 O.2   1 <1>  -0.5700 
 15 N        8.7220    -0.6380     1.1780 N.am  1 <1>  -0.6600 
 16 C        6.7290    -4.6330     2.0620 C.ar  1 <1>  -0.1500 
 17 C        9.6250     0.4300     1.7220 C.3   1 <1>   0.1400 
 18 C        9.1180    -1.2020    -0.1440 C.3   1 <1>   0.1400 
 19 C        9.7170     1.7280     0.8700 C.3   1 <1>   0.4230 
 20 C        8.9910    -0.1440    -1.2620 C.3   1 <1>  -0.0800 
 21 N        8.5020     2.0560     0.0210 N.4   1 <1>  -0.9590 
 22 C       11.0130     1.7680     0.0310 C.3   1 <1>   0.1200 
 23 C       10.3450     0.3720    -1.7740 C.3   1 <1>   0.1200 
 24 C        8.0030     0.9800    -0.9040 C.3   1 <1>   0.3430 
 25 C        7.3680     2.4820     0.9000 C.3   1 <1>   0.2630 
 26 O       11.2170     0.6110    -0.7190 O.3   1 <1>  -0.5600 
 27 H        5.1540    -0.1270    -3.3010 H     1 <1>   0.1500 
 28 H        3.8920     1.7870     0.2940 H     1 <1>   0.1500 
 29 H        5.9260    -2.0820    -1.9870 H     1 <1>   0.1500 
 30 H        4.6690    -0.1630     1.6080 H     1 <1>   0.1500 
 31 H        4.4570    -3.7160    -0.2390 H     1 <1>   0.1500 
 32 H        8.1220    -3.3220     2.9940 H     1 <1>   0.1500 
 33 H        5.2270    -5.6960     0.9800 H     1 <1>   0.1500 
 34 H        7.0650    -5.5030     2.6030 H     1 <1>   0.1500 
 35 H        9.3000     0.7070     2.7100 H     1 <1>   0.0800 
 36 H       10.6100     0.0150     1.8440 H     1 <1>   0.0800 
 37 H       10.1260    -1.5790    -0.0860 H     1 <1>   0.0800 
 38 H        8.4860    -2.0390    -0.3850 H     1 <1>   0.0800 
 39 H        9.8290     2.5320     1.5780 H     1 <1>   0.0800 
 40 H        8.5490    -0.6550    -2.0990 H     1 <1>   0.0800 
 41 H        8.7620     2.8580    -0.5650 H     1 <1>   0.4500 
 42 H       11.8540     1.8440     0.6980 H     1 <1>   0.0800 
 43 H       11.0350     2.6210    -0.6240 H     1 <1>   0.0800 
 44 H       10.2470     1.2630    -2.3720 H     1 <1>   0.0800 
 45 H       10.8070    -0.3880    -2.3820 H     1 <1>   0.0800 
 46 H        7.1450     0.5130    -0.4520 H     1 <1>   0.0800 
 47 H        7.6610     1.4420    -1.8160 H     1 <1>   0.0800 
 48 H        7.0440     1.6610     1.5160 H     1 <1>   0.0800 
 49 H        6.5310     2.8060     0.3020 H     1 <1>   0.0800 
 50 H        7.6680     3.2940     1.5410 H     1 <1>   0.0800 
@<TRIPOS>BOND
  1   1   2  1   
  2   2   3  ar  
  3   2   4  ar  
  4   3   5  ar  
  5   3  27  1   
  6   4   6  ar  
  7   4  28  1   
  8   5   7  ar  
  9   5  29  1   
 10   6   7  ar  
 11   6  30  1   
 12   7   8  1   
 13   8   9  ar  
 14   8  10  ar  
 15   9  11  1   
 16   9  12  ar  
 17  10  13  ar  
 18  10  31  1   
 19  11  14  2   
 20  11  15  am  
 21  12  16  ar  
 22  12  32  1   
 23  13  16  ar  
 24  13  33  1   
 25  15  17  1   
 26  15  18  1   
 27  16  34  1   
 28  17  19  1   
 29  17  35  1   
 30  17  36  1   
 31  18  20  1   
 32  18  37  1   
 33  18  38  1   
 34  19  21  1   
 35  19  22  1   
 36  19  39  1   
 37  20  23  1   
 38  20  24  1   
 39  20  40  1   
 40  21  24  1   
 41  21  25  1   
 42  21  41  1   
 43  22  26  1   
 44  22  42  1   
 45  22  43  1   
 46  23  26  1   
 47  23  44  1   
 48  23  45  1   
 49  24  46  1   
 50  24  47  1   
 51  25  48  1   
 52  25  49  1   
 53  25  50  1   
@<TRIPOS>SUBSTRUCTURE
  1 ****  11 GROUP 4 **** **** 0

# MOE 2024.06 (io_trps.svl 2023.06)
