@<TRIPOS>MOLECULE
NONAME
48 50 1 0 0 
SMALL
USER_CHARGES


@<TRIPOS>ATOM
  1 O       -2.2370     0.2580     1.4900 O.co2 1 <1>  -0.9000 
  2 C       -2.2630    -0.0020     0.2850 C.2   1 <1>   0.9060 
  3 O       -1.2640     0.0110    -0.4400 O.co2 1 <1>  -0.9000 
  4 C       -3.5570    -0.5830    -0.2870 C.3   1 <1>   0.2370 
  5 N       -3.6260    -2.1030    -0.2750 N.4   1 <1>  -0.9590 
  6 C       -3.5210    -2.6370     1.1330 C.3   1 <1>   0.4230 
  7 C       -2.6540    -2.6720    -1.2560 C.3   1 <1>   0.3430 
  8 C       -2.0860    -2.9050     1.6580 C.3   1 <1>   0.1200 
  9 C       -4.3940    -3.9150     1.2260 C.3   1 <1>   0.1400 
 10 C       -2.2700    -4.1500    -1.0390 C.3   1 <1>  -0.0800 
 11 O       -1.6140    -4.1700     1.2830 O.3   1 <1>  -0.5600 
 12 N       -4.6170    -4.5860    -0.1060 N.am  1 <1>  -0.6600 
 13 C       -1.1320    -4.2620    -0.0130 C.3   1 <1>   0.1200 
 14 C       -3.4170    -5.1640    -0.7840 C.3   1 <1>   0.1400 
 15 C       -5.7780    -4.3400    -0.7840 C.2   1 <1>   0.5690 
 16 O       -6.2110    -3.2100    -0.8250 O.2   1 <1>  -0.5700 
 17 C       -6.5210    -5.4470    -1.5140 C.3   1 <1>   0.0440 
 18 C       -7.5780    -6.0760    -0.6090 C.ar  1 <1>  -0.1430 
 19 C       -7.3540    -7.2380     0.1270 C.ar  1 <1>  -0.1430 
 20 C       -8.8080    -5.4410    -0.5200 C.ar  1 <1>  -0.1500 
 21 C       -8.3680    -7.7430     0.9270 C.ar  1 <1>  -0.1500 
 22 C       -6.0260    -7.9830     0.0900 C.3   1 <1>  -0.0970 
 23 C       -9.8130    -5.9510     0.2810 C.ar  1 <1>  -0.1500 
 24 C       -9.5930    -7.1060     1.0060 C.ar  1 <1>  -0.1500 
 25 H       -3.6540    -0.2210    -1.2930 H     1 <1>   0.0800 
 26 H       -4.3650    -0.1810     0.2960 H     1 <1>   0.0800 
 27 H       -4.5750    -2.3990    -0.5780 H     1 <1>   0.4500 
 28 H       -3.9470    -1.9020     1.7950 H     1 <1>   0.0800 
 29 H       -3.0710    -2.5640    -2.2430 H     1 <1>   0.0800 
 30 H       -1.7480    -2.0870    -1.2310 H     1 <1>   0.0800 
 31 H       -2.1160    -2.9010     2.7330 H     1 <1>   0.0800 
 32 H       -1.3820    -2.1500     1.3550 H     1 <1>   0.0800 
 33 H       -5.3500    -3.6310     1.6310 H     1 <1>   0.0800 
 34 H       -3.9660    -4.6180     1.9200 H     1 <1>   0.0800 
 35 H       -1.8110    -4.4540    -1.9630 H     1 <1>   0.0800 
 36 H       -0.3820    -3.5010    -0.1610 H     1 <1>   0.0800 
 37 H       -0.6550    -5.2230    -0.0980 H     1 <1>   0.0800 
 38 H       -3.0480    -5.9880    -0.1950 H     1 <1>   0.0800 
 39 H       -3.7170    -5.5660    -1.7350 H     1 <1>   0.0800 
 40 H       -7.0020    -5.0220    -2.3750 H     1 <1>   0.0800 
 41 H       -5.8390    -6.1900    -1.8740 H     1 <1>   0.0800 
 42 H       -8.9920    -4.5360    -1.0740 H     1 <1>   0.1500 
 43 H       -8.2130    -8.6410     1.5000 H     1 <1>   0.1500 
 44 H       -6.0320    -8.8130     0.7740 H     1 <1>   0.0800 
 45 H       -5.2260    -7.3250     0.3740 H     1 <1>   0.0800 
 46 H       -5.8440    -8.3650    -0.8970 H     1 <1>   0.0800 
 47 H      -10.7630    -5.4490     0.3410 H     1 <1>   0.1500 
 48 H      -10.3710    -7.5070     1.6300 H     1 <1>   0.1500 
@<TRIPOS>BOND
  1   1   2  ar  
  2   2   3  ar  
  3   2   4  1   
  4   4   5  1   
  5   4  25  1   
  6   4  26  1   
  7   5   6  1   
  8   5   7  1   
  9   5  27  1   
 10   6   8  1   
 11   6   9  1   
 12   6  28  1   
 13   7  10  1   
 14   7  29  1   
 15   7  30  1   
 16   8  11  1   
 17   8  31  1   
 18   8  32  1   
 19   9  12  1   
 20   9  33  1   
 21   9  34  1   
 22  10  13  1   
 23  10  14  1   
 24  10  35  1   
 25  11  13  1   
 26  12  14  1   
 27  12  15  am  
 28  13  36  1   
 29  13  37  1   
 30  14  38  1   
 31  14  39  1   
 32  15  16  2   
 33  15  17  1   
 34  17  18  1   
 35  17  40  1   
 36  17  41  1   
 37  18  19  ar  
 38  18  20  ar  
 39  19  21  ar  
 40  19  22  1   
 41  20  23  ar  
 42  20  42  1   
 43  21  24  ar  
 44  21  43  1   
 45  22  44  1   
 46  22  45  1   
 47  22  46  1   
 48  23  24  ar  
 49  23  47  1   
 50  24  48  1   
@<TRIPOS>SUBSTRUCTURE
  1 ****  12 GROUP 4 **** **** 0

# MOE 2024.06 (io_trps.svl 2023.06)
