@<TRIPOS>MOLECULE
NONAME
35 35 1 0 0 
SMALL
USER_CHARGES


@<TRIPOS>ATOM
  1 O        0.4300     0.1200     1.2150 O.2   1 <1>  -0.5700 
  2 C        1.2760    -0.4930     0.5980 C.2   1 <1>   0.6340 
  3 O        1.0200    -1.7450     0.2080 O.3   1 <1>  -0.4300 
  4 C        2.5690     0.0720     0.2620 C.ar  1 <1>   0.0860 
  5 C       -0.2040    -2.3950     0.4610 C.3   1 <1>   0.2000 
  6 C        2.9050     1.3740     0.6440 C.ar  1 <1>  -0.1500 
  7 C        3.5310    -0.6470    -0.4540 C.ar  1 <1>  -0.1500 
  8 C        0.0750    -3.8950     0.4730 C.3   1 <1>  -0.2400 
  9 C       -1.1900    -2.0190    -0.6460 C.3   1 <1>  -0.2400 
 10 C        4.1320     1.9520     0.3470 C.ar  1 <1>   0.0730 
 11 C        4.7590    -0.0960    -0.7600 C.ar  1 <1>  -0.1500 
 12 C        4.4110     3.3000     0.7500 C.1   1 <1>   0.4840 
 13 C        5.0690     1.1910    -0.3540 C.ar  1 <1>   0.0830 
 14 N        4.6310     4.3630     1.1010 N.1   1 <1>  -0.5570 
 15 O        6.2770     1.6830    -0.6860 O.3   1 <1>  -0.3630 
 16 C        7.2710     1.8030     0.3090 C.3   1 <1>   0.2000 
 17 C        8.1510     2.9910    -0.0680 C.3   1 <1>  -0.2400 
 18 C        8.0680     0.5000     0.3540 C.3   1 <1>  -0.2400 
 19 H       -0.5750    -2.0870     1.4260 H     1 <1>   0.0800 
 20 H        2.1770     1.9510     1.1900 H     1 <1>   0.1500 
 21 H        3.3130    -1.6510    -0.7770 H     1 <1>   0.1500 
 22 H        0.4690    -4.2130    -0.4760 H     1 <1>   0.0800 
 23 H       -0.8340    -4.4350     0.6660 H     1 <1>   0.0800 
 24 H        0.7800    -4.1310     1.2490 H     1 <1>   0.0800 
 25 H       -0.8000    -2.2960    -1.6090 H     1 <1>   0.0800 
 26 H       -1.3810    -0.9610    -0.6260 H     1 <1>   0.0800 
 27 H       -2.1230    -2.5300    -0.4920 H     1 <1>   0.0800 
 28 H        5.4880    -0.6600    -1.3170 H     1 <1>   0.1500 
 29 H        6.8000     1.9860     1.2600 H     1 <1>   0.0800 
 30 H        8.6050     2.8330    -1.0300 H     1 <1>   0.0800 
 31 H        8.9280     3.1210     0.6630 H     1 <1>   0.0800 
 32 H        7.5600     3.8890    -0.0970 H     1 <1>   0.0800 
 33 H        8.5050     0.2950    -0.6070 H     1 <1>   0.0800 
 34 H        7.4300    -0.3160     0.6390 H     1 <1>   0.0800 
 35 H        8.8560     0.5800     1.0800 H     1 <1>   0.0800 
@<TRIPOS>BOND
  1   1   2  2   
  2   2   3  1   
  3   2   4  1   
  4   3   5  1   
  5   4   6  ar  
  6   4   7  ar  
  7   5   8  1   
  8   5   9  1   
  9   5  19  1   
 10   6  10  ar  
 11   6  20  1   
 12   7  11  ar  
 13   7  21  1   
 14   8  22  1   
 15   8  23  1   
 16   8  24  1   
 17   9  25  1   
 18   9  26  1   
 19   9  27  1   
 20  10  12  1   
 21  10  13  ar  
 22  11  13  ar  
 23  11  28  1   
 24  12  14  3   
 25  13  15  1   
 26  15  16  1   
 27  16  17  1   
 28  16  18  1   
 29  16  29  1   
 30  17  30  1   
 31  17  31  1   
 32  17  32  1   
 33  18  33  1   
 34  18  34  1   
 35  18  35  1   
@<TRIPOS>SUBSTRUCTURE
  1 ****   4 GROUP 4 **** **** 0

# MOE 2024.06 (io_trps.svl 2023.06)
