@<TRIPOS>MOLECULE
NONAME
61 64 1 0 0 
SMALL
USER_CHARGES


@<TRIPOS>ATOM
  1 O        0.5160     1.0780     1.2080 O.3   1 <1>  -0.5600 
  2 C        0.2740     1.7760    -0.0070 C.3   1 <1>   0.7110 
  3 C        0.9430    -0.2640     1.1590 C.3   1 <1>   0.1200 
  4 C        1.5260     1.7300    -0.9160 C.ar  1 <1>  -0.1440 
  5 C       -1.0120     1.1050    -0.5640 C.ar  1 <1>  -0.1440 
  6 C        0.0270     3.2590     0.3370 C.ar  1 <1>  -0.1440 
  7 C       -0.0470    -1.1870     1.9080 C.3   1 <1>   0.4230 
  8 C        2.8020     1.7530    -0.3570 C.ar  1 <1>  -0.1500 
  9 C        1.4250     1.7170    -2.3050 C.ar  1 <1>  -0.1500 
 10 C       -2.2690     1.5670    -0.1730 C.ar  1 <1>  -0.1500 
 11 C       -0.9650    -0.0160    -1.3930 C.ar  1 <1>  -0.1500 
 12 C        0.2210     3.7790     1.6160 C.ar  1 <1>  -0.1500 
 13 C       -0.4020     4.1270    -0.6630 C.ar  1 <1>  -0.1500 
 14 N       -1.4620    -0.7330     1.8130 N.4   1 <1>  -0.9060 
 15 C       -0.0520    -2.6240     1.3880 C.3   1 <1>  -0.1600 
 16 C        3.9360     1.7160    -1.1490 C.ar  1 <1>  -0.1500 
 17 C        2.5560     1.6780    -3.1010 C.ar  1 <1>  -0.1500 
 18 C       -3.4290     0.9280    -0.5720 C.ar  1 <1>  -0.1500 
 19 C       -2.1220    -0.6600    -1.7900 C.ar  1 <1>  -0.1500 
 20 C       -0.0200     5.1150     1.8850 C.ar  1 <1>  -0.1500 
 21 C       -0.6440     5.4630    -0.3960 C.ar  1 <1>  -0.1500 
 22 C       -2.3430    -1.9100     1.5510 C.3   1 <1>   0.3430 
 23 C       -1.4470    -3.1410     1.7050 C.3   1 <1>   0.2000 
 24 C        3.8170     1.6700    -2.5330 C.ar  1 <1>   0.0820 
 25 C       -3.3580    -0.2030    -1.3740 C.ar  1 <1>   0.0820 
 26 C       -0.4550     5.9580     0.8800 C.ar  1 <1>  -0.1500 
 27 O       -1.4710    -3.5790     3.0210 O.3   1 <1>  -0.6800 
 28 O        4.8720     1.6270    -3.3840 O.3   1 <1>  -0.3620 
 29 O       -4.4400    -0.9100    -1.7720 O.3   1 <1>  -0.3620 
 30 C        6.1990     1.7080    -2.9130 C.3   1 <1>   0.0400 
 31 C       -5.7280    -0.3320    -1.7640 C.3   1 <1>   0.0400 
 32 H        1.0740    -0.5810     0.1410 H     1 <1>   0.0800 
 33 H        1.9080    -0.3180     1.6340 H     1 <1>   0.0800 
 34 H        0.2340    -1.2080     2.9490 H     1 <1>   0.0800 
 35 H        2.9230     1.8130     0.7110 H     1 <1>   0.1500 
 36 H        0.4660     1.7480    -2.7920 H     1 <1>   0.1500 
 37 H       -2.3670     2.4380     0.4580 H     1 <1>   0.1500 
 38 H       -0.0270    -0.4090    -1.7460 H     1 <1>   0.1500 
 39 H        0.5670     3.1570     2.4220 H     1 <1>   0.1500 
 40 H       -0.5540     3.7680    -1.6670 H     1 <1>   0.1500 
 41 H       -1.7340    -0.2140     2.6540 H     1 <1>   0.4500 
 42 H       -1.5340    -0.0650     1.0280 H     1 <1>   0.4500 
 43 H        0.7230    -3.2270     1.8300 H     1 <1>   0.0800 
 44 H        0.0830    -2.6280     0.3210 H     1 <1>   0.0800 
 45 H        4.8990     1.7320    -0.6750 H     1 <1>   0.1500 
 46 H        2.4690     1.6610    -4.1730 H     1 <1>   0.1500 
 47 H       -4.3770     1.3200    -0.2490 H     1 <1>   0.1500 
 48 H       -2.0750    -1.5220    -2.4350 H     1 <1>   0.1500 
 49 H        0.1350     5.5030     2.8770 H     1 <1>   0.1500 
 50 H       -0.9760     6.1180    -1.1830 H     1 <1>   0.1500 
 51 H       -3.1800    -1.9550     2.2290 H     1 <1>   0.0800 
 52 H       -2.7110    -1.8640     0.5380 H     1 <1>   0.0800 
 53 H       -1.7570    -3.9580     1.0740 H     1 <1>   0.0800 
 54 H       -0.6410     6.9980     1.0890 H     1 <1>   0.1500 
 55 H       -1.0710    -2.9550     3.6560 H     1 <1>   0.4000 
 56 H        6.8560     1.6800    -3.7630 H     1 <1>   0.0800 
 57 H        6.3940     0.8660    -2.2730 H     1 <1>   0.0800 
 58 H        6.3250     2.6350    -2.3830 H     1 <1>   0.0800 
 59 H       -6.4020    -1.0100    -2.2580 H     1 <1>   0.0800 
 60 H       -5.6970     0.6020    -2.2970 H     1 <1>   0.0800 
 61 H       -6.0440    -0.1850    -0.7470 H     1 <1>   0.0800 
@<TRIPOS>BOND
  1   1   2  1   
  2   1   3  1   
  3   2   4  1   
  4   2   5  1   
  5   2   6  1   
  6   3   7  1   
  7   3  32  1   
  8   3  33  1   
  9   4   8  ar  
 10   4   9  ar  
 11   5  10  ar  
 12   5  11  ar  
 13   6  12  ar  
 14   6  13  ar  
 15   7  14  1   
 16   7  15  1   
 17   7  34  1   
 18   8  16  ar  
 19   8  35  1   
 20   9  17  ar  
 21   9  36  1   
 22  10  18  ar  
 23  10  37  1   
 24  11  19  ar  
 25  11  38  1   
 26  12  20  ar  
 27  12  39  1   
 28  13  21  ar  
 29  13  40  1   
 30  14  22  1   
 31  14  41  1   
 32  14  42  1   
 33  15  23  1   
 34  15  43  1   
 35  15  44  1   
 36  16  24  ar  
 37  16  45  1   
 38  17  24  ar  
 39  17  46  1   
 40  18  25  ar  
 41  18  47  1   
 42  19  25  ar  
 43  19  48  1   
 44  20  26  ar  
 45  20  49  1   
 46  21  26  ar  
 47  21  50  1   
 48  22  23  1   
 49  22  51  1   
 50  22  52  1   
 51  23  27  1   
 52  23  53  1   
 53  24  28  1   
 54  25  29  1   
 55  26  54  1   
 56  27  55  1   
 57  28  30  1   
 58  29  31  1   
 59  30  56  1   
 60  30  57  1   
 61  30  58  1   
 62  31  59  1   
 63  31  60  1   
 64  31  61  1   
@<TRIPOS>SUBSTRUCTURE
  1 ****   2 GROUP 4 **** **** 0

# MOE 2024.06 (io_trps.svl 2023.06)
