@<TRIPOS>MOLECULE
NONAME
59 62 1 0 0 
SMALL
USER_CHARGES


@<TRIPOS>ATOM
  1 O        3.0840    -1.4640    -1.2550 O.2   1 <1>  -0.5700 
  2 C        3.0650    -1.5440    -0.0400 C.2   1 <1>   0.7030 
  3 N        4.2440    -1.2420     0.6160 N.am  1 <1>  -0.6600 
  4 C        1.8420    -1.9370     0.6610 C.2   1 <1>   0.2770 
  5 C        5.5520    -1.5900    -0.0280 C.3   1 <1>   0.1400 
  6 C        4.2950    -0.3700     1.8220 C.3   1 <1>   0.1400 
  7 N        0.5280    -1.9060     0.1770 N.pl3 1 <1>  -0.7640 
  8 C        1.7460    -2.4350     1.9220 C.2   1 <1>   0.2000 
  9 C        5.9470    -0.5850    -1.1300 C.3   1 <1>   0.3430 
 10 C        5.2290     0.8330     1.6310 C.3   1 <1>  -0.1600 
 11 C       -0.2770    -2.3620     1.1270 C.cat 1 <1>   0.6500 
 12 C        0.1250    -1.4840    -1.1980 C.3   1 <1>   0.2740 
 13 N        0.4310    -2.6820     2.1980 N.pl3 1 <1>  -0.7000 
 14 N        6.2650     0.7970    -0.6330 N.4   1 <1>  -0.9590 
 15 C        5.2140     1.4310     0.2220 C.3   1 <1>   0.3430 
 16 C        6.6070     1.6810    -1.7770 C.3   1 <1>   0.5240 
 17 C        7.3050     2.8920    -1.2040 C.2   1 <1>  -0.1810 
 18 C        6.7860     4.1830    -1.1620 C.2   1 <1>   0.1080 
 19 C        8.5170     2.9870    -0.6080 C.2   1 <1>  -0.3320 
 20 N        7.5840     5.0010    -0.5680 N.2   1 <1>  -0.7070 
 21 C        5.4570     4.6530    -1.7170 C.3   1 <1>  -0.0590 
 22 N        8.6830     4.2880    -0.2300 N.pl3 1 <1>   0.5930 
 23 C        9.5750     1.9170    -0.3570 C.3   1 <1>  -0.0600 
 24 C        9.7900     4.8520     0.4610 C.ar  1 <1>  -0.0230 
 25 C        9.6450     5.3130     1.7650 C.ar  1 <1>  -0.1500 
 26 C       11.0380     4.9480    -0.1480 C.ar  1 <1>  -0.1500 
 27 C       10.7240     5.8390     2.4520 C.ar  1 <1>  -0.1500 
 28 C       12.1190     5.4740     0.5380 C.ar  1 <1>  -0.1500 
 29 C       11.9630     5.9170     1.8400 C.ar  1 <1>  -0.1500 
 30 H        5.4580    -2.5620    -0.4840 H     1 <1>   0.0800 
 31 H        6.3300    -1.6600     0.7120 H     1 <1>   0.0800 
 32 H        4.6220    -0.9470     2.6730 H     1 <1>   0.0800 
 33 H        3.3050     0.0000     2.0360 H     1 <1>   0.0800 
 34 H        2.5400    -2.6300     2.6250 H     1 <1>   0.1500 
 35 H        5.1420    -0.5360    -1.8460 H     1 <1>   0.0800 
 36 H        6.8080    -0.9770    -1.6460 H     1 <1>   0.0800 
 37 H        6.2330     0.5780     1.9210 H     1 <1>   0.0800 
 38 H        4.9050     1.5960     2.3180 H     1 <1>   0.0800 
 39 H       -1.3520    -2.4640     1.0400 H     1 <1>   0.1500 
 40 H        0.4610    -0.4790    -1.3890 H     1 <1>   0.0800 
 41 H       -0.9460    -1.5180    -1.3080 H     1 <1>   0.0800 
 42 H        0.5680    -2.1410    -1.9280 H     1 <1>   0.0800 
 43 H        0.0540    -3.0670     3.0730 H     1 <1>   0.4500 
 44 H        7.1240     0.7780    -0.0700 H     1 <1>   0.4500 
 45 H        5.4210     2.4860     0.3120 H     1 <1>   0.0800 
 46 H        4.2400     1.3200    -0.2280 H     1 <1>   0.0800 
 47 H        5.7200     1.9690    -2.3170 H     1 <1>   0.0800 
 48 H        7.2790     1.1780    -2.4530 H     1 <1>   0.0800 
 49 H        5.2500     4.1870    -2.6620 H     1 <1>   0.0800 
 50 H        5.4910     5.7180    -1.8680 H     1 <1>   0.0800 
 51 H        4.6670     4.4370    -1.0230 H     1 <1>   0.0800 
 52 H        9.2610     0.9570    -0.7220 H     1 <1>   0.0800 
 53 H        9.7820     1.8390     0.6970 H     1 <1>   0.0800 
 54 H       10.4900     2.1790    -0.8600 H     1 <1>   0.0800 
 55 H        8.6810     5.2660     2.2410 H     1 <1>   0.1500 
 56 H       11.1660     4.6170    -1.1640 H     1 <1>   0.1500 
 57 H       10.6010     6.1920     3.4620 H     1 <1>   0.1500 
 58 H       13.0800     5.5430     0.0600 H     1 <1>   0.1500 
 59 H       12.8030     6.3270     2.3740 H     1 <1>   0.1500 
@<TRIPOS>BOND
  1   1   2  2   
  2   2   3  am  
  3   2   4  1   
  4   3   5  1   
  5   3   6  1   
  6   4   7  1   
  7   4   8  2   
  8   5   9  1   
  9   5  30  1   
 10   5  31  1   
 11   6  10  1   
 12   6  32  1   
 13   6  33  1   
 14   7  11  ar  
 15   7  12  1   
 16   8  13  1   
 17   8  34  1   
 18   9  14  1   
 19   9  35  1   
 20   9  36  1   
 21  10  15  1   
 22  10  37  1   
 23  10  38  1   
 24  11  13  ar  
 25  11  39  1   
 26  12  40  1   
 27  12  41  1   
 28  12  42  1   
 29  13  43  1   
 30  14  15  1   
 31  14  16  1   
 32  14  44  1   
 33  15  45  1   
 34  15  46  1   
 35  16  17  1   
 36  16  47  1   
 37  16  48  1   
 38  17  18  1   
 39  17  19  2   
 40  18  20  2   
 41  18  21  1   
 42  19  22  1   
 43  19  23  1   
 44  20  22  1   
 45  21  49  1   
 46  21  50  1   
 47  21  51  1   
 48  22  24  1   
 49  23  52  1   
 50  23  53  1   
 51  23  54  1   
 52  24  25  ar  
 53  24  26  ar  
 54  25  27  ar  
 55  25  55  1   
 56  26  28  ar  
 57  26  56  1   
 58  27  29  ar  
 59  27  57  1   
 60  28  29  ar  
 61  28  58  1   
 62  29  59  1   
@<TRIPOS>SUBSTRUCTURE
  1 ****  15 GROUP 4 **** **** 0

# MOE 2024.06 (io_trps.svl 2023.06)
