@<TRIPOS>MOLECULE
NONAME
48 49 1 0 0 
SMALL
USER_CHARGES


@<TRIPOS>ATOM
  1 CL       1.2060     2.2010     3.3700 Cl    1 <1>  -0.1770 
  2 C        1.9310     2.3940     1.7950 C.ar  1 <1>   0.1770 
  3 C        2.3660     3.6450     1.4000 C.ar  1 <1>  -0.1500 
  4 C        2.0600     1.2930     0.9690 C.ar  1 <1>  -0.1500 
  5 C        2.9450     3.8050     0.1500 C.ar  1 <1>  -0.1440 
  6 C        2.6380     1.4520    -0.2790 C.ar  1 <1>  -0.1500 
  7 C        3.0770     2.7030    -0.6840 C.ar  1 <1>  -0.1500 
  8 C        3.4350     5.1710    -0.3040 C.3   1 <1>  -0.0160 
  9 C        4.9290     5.3190    -0.0190 C.3   1 <1>   0.1400 
 10 N        5.3840     6.6660    -0.4240 N.am  1 <1>  -0.7300 
 11 C        6.0700     6.9740    -1.5550 C.2   1 <1>   0.5690 
 12 O        6.3590     6.1420    -2.3810 O.2   1 <1>  -0.5700 
 13 C        6.4710     8.4370    -1.7790 C.3   1 <1>   0.1710 
 14 N        6.5380     9.2610    -0.5320 N.3   1 <1>  -0.8100 
 15 C        6.5720    10.6950    -0.8750 C.3   1 <1>   0.1100 
 16 C        7.7200     8.8930     0.2670 C.3   1 <1>   0.1100 
 17 C        6.5250    11.5560     0.3970 C.3   1 <1>  -0.0190 
 18 C        7.7220     9.6750     1.5840 C.3   1 <1>  -0.1600 
 19 C        6.5380    13.0410     0.0480 C.2   1 <1>   0.4480 
 20 C        7.6910    11.1900     1.3350 C.3   1 <1>  -0.1600 
 21 O        7.0150    13.4420    -0.9730 O.2   1 <1>  -0.5700 
 22 C        5.9080    13.9820     1.0720 C.3   1 <1>  -0.0990 
 23 C        5.9600    15.4670     0.6760 C.3   1 <1>  -0.2400 
 24 H        2.2490     4.4770     2.0700 H     1 <1>   0.1500 
 25 H        1.7140     0.3310     1.3000 H     1 <1>   0.1500 
 26 H        2.7460     0.6050    -0.9350 H     1 <1>   0.1500 
 27 H        3.5270     2.8160    -1.6560 H     1 <1>   0.1500 
 28 H        2.8900     5.9420     0.2100 H     1 <1>   0.0800 
 29 H        3.2630     5.2810    -1.3600 H     1 <1>   0.0800 
 30 H        5.4760     4.5710    -0.5690 H     1 <1>   0.0800 
 31 H        5.1230     5.1770     1.0300 H     1 <1>   0.0800 
 32 H        5.2290     7.4470     0.2230 H     1 <1>   0.3700 
 33 H        5.7380     8.8580    -2.4420 H     1 <1>   0.0800 
 34 H        7.4210     8.4600    -2.2850 H     1 <1>   0.0800 
 35 H        5.7240    10.9400    -1.4920 H     1 <1>   0.0800 
 36 H        7.4680    10.9170    -1.4340 H     1 <1>   0.0800 
 37 H        8.6190     9.1090    -0.2860 H     1 <1>   0.0800 
 38 H        7.7040     7.8380     0.4860 H     1 <1>   0.0800 
 39 H        5.5960    11.3380     0.8920 H     1 <1>   0.0800 
 40 H        8.6020     9.4200     2.1470 H     1 <1>   0.0800 
 41 H        6.8640     9.3810     2.1630 H     1 <1>   0.0800 
 42 H        7.5960    11.7080     2.2720 H     1 <1>   0.0800 
 43 H        8.6180    11.4920     0.8780 H     1 <1>   0.0800 
 44 H        6.4160    13.8580     2.0110 H     1 <1>   0.0800 
 45 H        4.8810    13.6970     1.2100 H     1 <1>   0.0800 
 46 H        6.9810    15.7830     0.5500 H     1 <1>   0.0800 
 47 H        5.5020    16.0740     1.4370 H     1 <1>   0.0800 
 48 H        5.4380    15.6230    -0.2520 H     1 <1>   0.0800 
@<TRIPOS>BOND
  1   1   2  1   
  2   2   3  ar  
  3   2   4  ar  
  4   3   5  ar  
  5   3  24  1   
  6   4   6  ar  
  7   4  25  1   
  8   5   7  ar  
  9   5   8  1   
 10   6   7  ar  
 11   6  26  1   
 12   7  27  1   
 13   8   9  1   
 14   8  28  1   
 15   8  29  1   
 16   9  10  1   
 17   9  30  1   
 18   9  31  1   
 19  10  11  am  
 20  10  32  1   
 21  11  12  2   
 22  11  13  1   
 23  13  14  1   
 24  13  33  1   
 25  13  34  1   
 26  14  15  1   
 27  14  16  1   
 28  15  17  1   
 29  15  35  1   
 30  15  36  1   
 31  16  18  1   
 32  16  37  1   
 33  16  38  1   
 34  17  19  1   
 35  17  20  1   
 36  17  39  1   
 37  18  20  1   
 38  18  40  1   
 39  18  41  1   
 40  19  21  2   
 41  19  22  1   
 42  20  42  1   
 43  20  43  1   
 44  22  23  1   
 45  22  44  1   
 46  22  45  1   
 47  23  46  1   
 48  23  47  1   
 49  23  48  1   
@<TRIPOS>SUBSTRUCTURE
  1 ****  10 GROUP 4 **** **** 0

# MOE 2024.06 (io_trps.svl 2023.06)
