@<TRIPOS>MOLECULE
NONAME
48 50 1 0 0 
SMALL
USER_CHARGES


@<TRIPOS>ATOM
  1 N        1.1810    -1.1790     2.3200 N.ar  1 <1>  -0.1790 
  2 C        1.9180    -1.0490     1.2070 C.ar  1 <1>   0.4610 
  3 C       -0.1020    -1.6810     2.3300 C.ar  1 <1>   0.2110 
  4 N        3.0340    -0.2720     1.2840 N.pl3 1 <1>  -0.8380 
  5 C        1.4260    -1.6870     0.0070 C.ar  1 <1>   0.0000 
  6 C       -0.6610    -2.1190     1.1800 C.ar  1 <1>  -0.1500 
  7 C        3.5840     0.5080     0.1110 C.3   1 <1>   0.2090 
  8 C        3.8940    -0.1830     2.5170 C.3   1 <1>   0.1290 
  9 C        0.0870    -2.1300    -0.0270 C.ar  1 <1>   0.0000 
 10 C        2.2130    -1.9620    -1.1280 C.ar  1 <1>  -0.1500 
 11 C        3.7280     2.0210     0.4020 C.3   1 <1>   0.3430 
 12 C       -0.4570    -2.6320    -1.2150 C.ar  1 <1>  -0.1500 
 13 C        1.6750    -2.4860    -2.2780 C.ar  1 <1>  -0.1500 
 14 N        4.2660     2.8130    -0.7650 N.4   1 <1>  -0.9590 
 15 C        0.3220    -2.8000    -2.3310 C.ar  1 <1>  -0.1500 
 16 C        4.6700     4.1880    -0.3390 C.3   1 <1>   0.4230 
 17 C        3.2710     2.8700    -1.8920 C.3   1 <1>   0.2630 
 18 C        5.2220     5.0050    -1.5110 C.3   1 <1>  -0.1600 
 19 C        5.8050     4.1530     0.6980 C.3   1 <1>  -0.1600 
 20 C        6.2630     5.9320    -0.8940 C.3   1 <1>  -0.1600 
 21 C        6.9110     5.0850     0.1930 C.3   1 <1>  -0.1600 
 22 H        1.5620    -0.7810     3.1740 H     1 <1>   0.4570 
 23 H       -0.6340    -1.6920     3.2690 H     1 <1>   0.1500 
 24 H       -1.6720    -2.4900     1.1530 H     1 <1>   0.1500 
 25 H        2.9190     0.4090    -0.7270 H     1 <1>   0.0800 
 26 H        4.5440     0.1010    -0.1590 H     1 <1>   0.0800 
 27 H        3.7020    -1.0070     3.1840 H     1 <1>   0.0800 
 28 H        3.7160     0.7420     3.0400 H     1 <1>   0.0800 
 29 H        4.9360    -0.2330     2.2450 H     1 <1>   0.0800 
 30 H        3.2710    -1.7790    -1.1050 H     1 <1>   0.1500 
 31 H        4.3890     2.1340     1.2440 H     1 <1>   0.0800 
 32 H        2.7640     2.4130     0.6820 H     1 <1>   0.0800 
 33 H       -1.4970    -2.9080    -1.2500 H     1 <1>   0.1500 
 34 H        2.2890    -2.6710    -3.1440 H     1 <1>   0.1500 
 35 H        5.1310     2.3740    -1.1120 H     1 <1>   0.4500 
 36 H       -0.0980    -3.1930    -3.2430 H     1 <1>   0.1500 
 37 H        3.8280     4.7140     0.0840 H     1 <1>   0.0800 
 38 H        2.3700     3.3710    -1.5730 H     1 <1>   0.0800 
 39 H        3.0150     1.8790    -2.2270 H     1 <1>   0.0800 
 40 H        3.6800     3.4100    -2.7310 H     1 <1>   0.0800 
 41 H        4.4520     5.5730    -2.0040 H     1 <1>   0.0800 
 42 H        5.7190     4.3680    -2.2220 H     1 <1>   0.0800 
 43 H        6.2150     3.1700     0.8480 H     1 <1>   0.0800 
 44 H        5.4320     4.5270     1.6350 H     1 <1>   0.0800 
 45 H        5.7780     6.7850    -0.4480 H     1 <1>   0.0800 
 46 H        6.9820     6.2790    -1.6180 H     1 <1>   0.0800 
 47 H        7.7090     4.5030    -0.2390 H     1 <1>   0.0800 
 48 H        7.3200     5.6960     0.9820 H     1 <1>   0.0800 
@<TRIPOS>BOND
  1   1   2  ar  
  2   1   3  ar  
  3   1  22  1   
  4   2   4  1   
  5   2   5  ar  
  6   3   6  ar  
  7   3  23  1   
  8   4   7  1   
  9   4   8  1   
 10   5   9  ar  
 11   5  10  ar  
 12   6   9  ar  
 13   6  24  1   
 14   7  11  1   
 15   7  25  1   
 16   7  26  1   
 17   8  27  1   
 18   8  28  1   
 19   8  29  1   
 20   9  12  ar  
 21  10  13  ar  
 22  10  30  1   
 23  11  14  1   
 24  11  31  1   
 25  11  32  1   
 26  12  15  ar  
 27  12  33  1   
 28  13  15  ar  
 29  13  34  1   
 30  14  16  1   
 31  14  17  1   
 32  14  35  1   
 33  15  36  1   
 34  16  18  1   
 35  16  19  1   
 36  16  37  1   
 37  17  38  1   
 38  17  39  1   
 39  17  40  1   
 40  18  20  1   
 41  18  41  1   
 42  18  42  1   
 43  19  21  1   
 44  19  43  1   
 45  19  44  1   
 46  20  21  1   
 47  20  45  1   
 48  20  46  1   
 49  21  47  1   
 50  21  48  1   
@<TRIPOS>SUBSTRUCTURE
  1 ****   7 GROUP 4 **** **** 0

# MOE 2024.06 (io_trps.svl 2023.06)
