@<TRIPOS>MOLECULE
NONAME
45 48 1 0 0 
SMALL
USER_CHARGES


@<TRIPOS>ATOM
  1 O       -0.5430     0.7560     2.5470 O.3   1 <1>  -0.5600 
  2 C        0.5630     0.7220     1.7060 C.3   1 <1>   0.1200 
  3 C       -1.7140     0.7040     1.7870 C.3   1 <1>   0.1200 
  4 C        0.1320     1.5470     0.4990 C.3   1 <1>   0.2890 
  5 C       -1.3120     1.0690     0.3490 C.3   1 <1>  -0.0800 
  6 N        0.1690     2.9830     0.8960 N.pl3 1 <1>  -0.8690 
  7 C       -2.2920     2.0370    -0.3420 C.3   1 <1>  -0.0170 
  8 C        0.6720     4.0930     0.3320 C.ar  1 <1>   0.4610 
  9 C       -3.6820     1.4270    -0.4360 C.ar  1 <1>  -0.1440 
 10 N        1.3170     4.0630    -0.8440 N.ar  1 <1>  -0.1790 
 11 C        0.5570     5.3600     0.9280 C.ar  1 <1>   0.0000 
 12 C       -3.9940     0.4580    -1.3700 C.ar  1 <1>  -0.1500 
 13 C       -4.7050     1.8090     0.4090 C.ar  1 <1>  -0.1500 
 14 C        1.8350     5.1950    -1.4330 C.ar  1 <1>   0.5280 
 15 C        1.0890     6.4500     0.2890 C.ar  1 <1>   0.1050 
 16 C       -0.0030     5.8940     2.0960 C.2   1 <1>   0.1390 
 17 C       -5.2740    -0.0700    -1.4070 C.ar  1 <1>   0.1600 
 18 C       -5.9510     1.2180     0.2880 C.ar  1 <1>   0.1600 
 19 N        1.7410     6.3690    -0.9110 N.ar  1 <1>  -0.5670 
 20 C        2.5470     5.0300    -2.7600 C.3   1 <1>  -0.0970 
 21 N        0.8330     7.5270     1.0660 N.pl3 1 <1>   0.3140 
 22 N        0.1540     7.1730     2.1820 N.2   1 <1>  -0.7070 
 23 N       -6.2580     0.2860    -0.5990 N.ar  1 <1>  -0.6200 
 24 C        1.2030     8.9270     0.8130 C.3   1 <1>   0.0160 
 25 H        1.4190     1.1290     2.2160 H     1 <1>   0.0800 
 26 H        0.7470    -0.3050     1.4360 H     1 <1>   0.0800 
 27 H       -2.1230    -0.2900     1.8450 H     1 <1>   0.0800 
 28 H       -2.4110     1.4060     2.2100 H     1 <1>   0.0800 
 29 H        0.7350     1.3470    -0.3690 H     1 <1>   0.0800 
 30 H       -1.3000     0.1510    -0.2120 H     1 <1>   0.0800 
 31 H       -0.2700     3.0600     1.8300 H     1 <1>   0.4000 
 32 H       -1.9440     2.2630    -1.3340 H     1 <1>   0.0800 
 33 H       -2.3570     2.9630     0.2010 H     1 <1>   0.0800 
 34 H        1.4300     3.1710    -1.3090 H     1 <1>   0.4570 
 35 H       -3.2600     0.1060    -2.0700 H     1 <1>   0.1500 
 36 H       -4.5530     2.5600     1.1620 H     1 <1>   0.1500 
 37 H       -0.5110     5.3120     2.8480 H     1 <1>   0.1500 
 38 H       -5.5010    -0.8240    -2.1410 H     1 <1>   0.1500 
 39 H       -6.7380     1.5270     0.9550 H     1 <1>   0.1500 
 40 H        2.9050     5.9840    -3.1070 H     1 <1>   0.0800 
 41 H        1.8750     4.6350    -3.5010 H     1 <1>   0.0800 
 42 H        3.3920     4.3740    -2.6550 H     1 <1>   0.0800 
 43 H        1.7430     9.0020    -0.1120 H     1 <1>   0.0800 
 44 H        1.8180     9.2780     1.6220 H     1 <1>   0.0800 
 45 H        0.3090     9.5210     0.7620 H     1 <1>   0.0800 
@<TRIPOS>BOND
  1   1   2  1   
  2   1   3  1   
  3   2   4  1   
  4   2  25  1   
  5   2  26  1   
  6   3   5  1   
  7   3  27  1   
  8   3  28  1   
  9   4   5  1   
 10   4   6  1   
 11   4  29  1   
 12   5   7  1   
 13   5  30  1   
 14   6   8  1   
 15   6  31  1   
 16   7   9  1   
 17   7  32  1   
 18   7  33  1   
 19   8  10  ar  
 20   8  11  ar  
 21   9  12  ar  
 22   9  13  ar  
 23  10  14  ar  
 24  10  34  1   
 25  11  15  ar  
 26  11  16  1   
 27  12  17  ar  
 28  12  35  1   
 29  13  18  ar  
 30  13  36  1   
 31  14  19  ar  
 32  14  20  1   
 33  15  19  ar  
 34  15  21  1   
 35  16  22  2   
 36  16  37  1   
 37  17  23  ar  
 38  17  38  1   
 39  18  23  ar  
 40  18  39  1   
 41  20  40  1   
 42  20  41  1   
 43  20  42  1   
 44  21  22  1   
 45  21  24  1   
 46  24  43  1   
 47  24  44  1   
 48  24  45  1   
@<TRIPOS>SUBSTRUCTURE
  1 ****   6 GROUP 4 **** **** 0

# MOE 2024.06 (io_trps.svl 2023.06)
