@<TRIPOS>MOLECULE
NONAME
43 45 1 0 0 
SMALL
USER_CHARGES


@<TRIPOS>ATOM
  1 O       -0.2770     0.1600     0.4620 O.2   1 <1>  -0.5700 
  2 C       -1.3180     0.7560     0.3230 C.2   1 <1>   0.5690 
  3 N       -2.4850     0.1070     0.0370 N.am  1 <1>  -0.6600 
  4 C       -1.3060     2.2660     0.4540 C.3   1 <1>  -0.0990 
  5 C       -3.8150     0.7260    -0.1910 C.3   1 <1>   0.1400 
  6 C       -2.5630    -1.3680    -0.1080 C.3   1 <1>   0.1400 
  7 C       -0.0680     2.7620     1.2160 C.3   1 <1>   0.0960 
  8 C       -4.7370    -0.4380    -0.5620 C.3   1 <1>   0.2000 
  9 C       -4.0560    -1.6950    -0.0250 C.3   1 <1>  -0.0800 
 10 N       -0.0630     4.2340     1.2850 N.pl3 1 <1>   0.3140 
 11 O       -5.9900    -0.2940     0.0120 O.3   1 <1>  -0.6800 
 12 C       -4.4660    -2.9640    -0.7920 C.3   1 <1>  -0.0160 
 13 N       -0.8850     4.9100     2.0570 N.2   1 <1>  -0.4180 
 14 C        0.6760     5.1110     0.6230 C.2   1 <1>   0.0060 
 15 C       -3.7980    -4.2050    -0.2250 C.ar  1 <1>   0.1670 
 16 N       -0.6330     6.1530     1.8550 N.2   1 <1>   0.0000 
 17 N        0.3390     6.2960     0.9600 N.2   1 <1>  -0.3380 
 18 C        1.7570     4.7790    -0.3880 C.3   1 <1>  -0.0600 
 19 N       -2.5660    -4.4510    -0.6410 N.ar  1 <1>  -0.6200 
 20 C       -4.4850    -5.0030     0.6800 C.ar  1 <1>  -0.1500 
 21 C       -1.9940    -5.5330    -0.1360 C.ar  1 <1>   0.1600 
 22 C       -3.8770    -6.1260     1.1970 C.ar  1 <1>  -0.1500 
 23 C       -2.5930    -6.3890     0.7710 C.ar  1 <1>  -0.1500 
 24 H       -1.3170     2.6880    -0.5340 H     1 <1>   0.0800 
 25 H       -2.1850     2.5830     0.9830 H     1 <1>   0.0800 
 26 H       -4.1480     1.2030     0.7140 H     1 <1>   0.0800 
 27 H       -3.7650     1.4390    -0.9950 H     1 <1>   0.0800 
 28 H       -2.1600    -1.6490    -1.0660 H     1 <1>   0.0800 
 29 H       -2.0050    -1.8670     0.6670 H     1 <1>   0.0800 
 30 H        0.8300     2.4290     0.7290 H     1 <1>   0.0800 
 31 H       -0.0740     2.3730     2.2190 H     1 <1>   0.0800 
 32 H       -4.8550    -0.4810    -1.6310 H     1 <1>   0.0800 
 33 H       -4.2940    -1.8180     1.0170 H     1 <1>   0.0800 
 34 H       -5.9240    -0.3120     0.9860 H     1 <1>   0.4000 
 35 H       -4.2020    -2.8700    -1.8300 H     1 <1>   0.0800 
 36 H       -5.5340    -3.0780    -0.7410 H     1 <1>   0.0800 
 37 H        2.1680     5.6860    -0.7930 H     1 <1>   0.0800 
 38 H        1.3480     4.1980    -1.1950 H     1 <1>   0.0800 
 39 H        2.5490     4.2260     0.0840 H     1 <1>   0.0800 
 40 H       -5.4850    -4.7490     0.9780 H     1 <1>   0.1500 
 41 H       -0.9910    -5.7470    -0.4630 H     1 <1>   0.1500 
 42 H       -4.3800    -6.7670     1.9010 H     1 <1>   0.1500 
 43 H       -2.0600    -7.2490     1.1350 H     1 <1>   0.1500 
@<TRIPOS>BOND
  1   1   2  2   
  2   2   3  am  
  3   2   4  1   
  4   3   5  1   
  5   3   6  1   
  6   4   7  1   
  7   4  24  1   
  8   4  25  1   
  9   5   8  1   
 10   5  26  1   
 11   5  27  1   
 12   6   9  1   
 13   6  28  1   
 14   6  29  1   
 15   7  10  1   
 16   7  30  1   
 17   7  31  1   
 18   8   9  1   
 19   8  11  1   
 20   8  32  1   
 21   9  12  1   
 22   9  33  1   
 23  10  13  1   
 24  10  14  1   
 25  11  34  1   
 26  12  15  1   
 27  12  35  1   
 28  12  36  1   
 29  13  16  2   
 30  14  17  2   
 31  14  18  1   
 32  15  19  ar  
 33  15  20  ar  
 34  16  17  1   
 35  18  37  1   
 36  18  38  1   
 37  18  39  1   
 38  19  21  ar  
 39  20  22  ar  
 40  20  40  1   
 41  21  23  ar  
 42  21  41  1   
 43  22  23  ar  
 44  22  42  1   
 45  23  43  1   
@<TRIPOS>SUBSTRUCTURE
  1 ****   3 GROUP 4 **** **** 0

# MOE 2024.06 (io_trps.svl 2023.06)
