@<TRIPOS>MOLECULE
NONAME
55 58 1 0 0 
SMALL
USER_CHARGES


@<TRIPOS>ATOM
  1 O        0.7040     5.4170    -0.4930 O.2   1 <1>  -0.5700 
  2 C        1.1150     4.2840    -0.4590 C.2   1 <1>   0.5690 
  3 N        0.8400     3.3800     0.5020 N.am  1 <1>  -0.6600 
  4 C        1.9960     3.6950    -1.5240 C.3   1 <1>  -0.0990 
  5 C        1.4480     2.0640     0.2400 C.3   1 <1>   0.1400 
  6 C       -0.0660     3.5840     1.6760 C.3   1 <1>   0.2010 
  7 C        2.3700     2.3060    -0.9710 C.3   1 <1>   0.0630 
  8 C       -1.2960     2.6700     1.6580 C.2   1 <1>   0.5690 
  9 C        3.8430     2.2490    -0.5680 C.ar  1 <1>  -0.1440 
 10 O       -1.2570     1.6910     2.3700 O.2   1 <1>  -0.5700 
 11 N       -2.3900     2.9390     0.8660 N.am  1 <1>  -0.6600 
 12 C        4.3480     3.0870     0.4180 C.ar  1 <1>  -0.1500 
 13 C        4.7000     1.3520    -1.1900 C.ar  1 <1>  -0.1500 
 14 C       -3.5680     2.0260     0.8280 C.3   1 <1>   0.1400 
 15 C       -2.5030     4.0900    -0.0750 C.3   1 <1>   0.1400 
 16 C        5.6830     3.0280     0.7760 C.ar  1 <1>  -0.1500 
 17 C        6.0360     1.2910    -0.8330 C.ar  1 <1>  -0.1500 
 18 C       -4.8360     2.8150     1.1630 C.3   1 <1>  -0.1600 
 19 C       -3.7580     4.8960     0.2630 C.3   1 <1>  -0.1600 
 20 C        6.5290     2.1290     0.1500 C.ar  1 <1>  -0.1500 
 21 C       -5.0170     4.0190     0.2350 C.3   1 <1>   0.4180 
 22 O       -5.1940     3.4950    -1.0590 O.3   1 <1>  -0.5600 
 23 C       -6.2490     4.8150     0.6600 C.2   1 <1>  -0.2880 
 24 C       -5.7920     4.3260    -2.0150 C.3   1 <1>   0.1200 
 25 C       -7.2680     5.1100    -0.1520 C.2   1 <1>  -0.2760 
 26 C       -7.2290     4.6750    -1.6050 C.3   1 <1>  -0.0220 
 27 C       -8.5150     5.8660     0.2710 C.3   1 <1>  -0.1020 
 28 H        2.8560     4.3170    -1.6880 H     1 <1>   0.0800 
 29 H        1.4320     3.6070    -2.4330 H     1 <1>   0.0800 
 30 H        0.6780     1.3520    -0.0020 H     1 <1>   0.0800 
 31 H        1.9990     1.7200     1.0990 H     1 <1>   0.0800 
 32 H       -0.3830     4.6090     1.7190 H     1 <1>   0.0800 
 33 H        0.4890     3.3830     2.5740 H     1 <1>   0.0800 
 34 H        2.1750     1.5530    -1.7140 H     1 <1>   0.0800 
 35 H        3.7040     3.7920     0.9140 H     1 <1>   0.1500 
 36 H        4.3350     0.6920    -1.9580 H     1 <1>   0.1500 
 37 H       -3.4510     1.2190     1.5310 H     1 <1>   0.0800 
 38 H       -3.6520     1.6000    -0.1570 H     1 <1>   0.0800 
 39 H       -2.5700     3.7140    -1.0820 H     1 <1>   0.0800 
 40 H       -1.6470     4.7330    -0.0190 H     1 <1>   0.0800 
 41 H        6.0630     3.6820     1.5410 H     1 <1>   0.1500 
 42 H        6.6930     0.5930    -1.3220 H     1 <1>   0.1500 
 43 H       -4.7730     3.1480     2.1820 H     1 <1>   0.0800 
 44 H       -5.6960     2.1750     1.0810 H     1 <1>   0.0800 
 45 H       -3.8620     5.7180    -0.4190 H     1 <1>   0.0800 
 46 H       -3.6410     5.3150     1.2450 H     1 <1>   0.0800 
 47 H        7.5680     2.0830     0.4280 H     1 <1>   0.1500 
 48 H       -6.2170     5.1090     1.6930 H     1 <1>   0.1500 
 49 H       -5.7890     3.8020    -2.9550 H     1 <1>   0.0800 
 50 H       -5.2020     5.2180    -2.1150 H     1 <1>   0.0800 
 51 H       -7.8650     3.8190    -1.7460 H     1 <1>   0.0800 
 52 H       -7.5830     5.4650    -2.2410 H     1 <1>   0.0800 
 53 H       -8.6120     6.7730    -0.2980 H     1 <1>   0.0800 
 54 H       -8.4650     6.1210     1.3140 H     1 <1>   0.0800 
 55 H       -9.3870     5.2580     0.1100 H     1 <1>   0.0800 
@<TRIPOS>BOND
  1   1   2  2   
  2   2   3  am  
  3   2   4  1   
  4   3   5  1   
  5   3   6  1   
  6   4   7  1   
  7   4  28  1   
  8   4  29  1   
  9   5   7  1   
 10   5  30  1   
 11   5  31  1   
 12   6   8  1   
 13   6  32  1   
 14   6  33  1   
 15   7   9  1   
 16   7  34  1   
 17   8  10  2   
 18   8  11  am  
 19   9  12  ar  
 20   9  13  ar  
 21  11  14  1   
 22  11  15  1   
 23  12  16  ar  
 24  12  35  1   
 25  13  17  ar  
 26  13  36  1   
 27  14  18  1   
 28  14  37  1   
 29  14  38  1   
 30  15  19  1   
 31  15  39  1   
 32  15  40  1   
 33  16  20  ar  
 34  16  41  1   
 35  17  20  ar  
 36  17  42  1   
 37  18  21  1   
 38  18  43  1   
 39  18  44  1   
 40  19  21  1   
 41  19  45  1   
 42  19  46  1   
 43  20  47  1   
 44  21  22  1   
 45  21  23  1   
 46  22  24  1   
 47  23  25  2   
 48  23  48  1   
 49  24  26  1   
 50  24  49  1   
 51  24  50  1   
 52  25  26  1   
 53  25  27  1   
 54  26  51  1   
 55  26  52  1   
 56  27  53  1   
 57  27  54  1   
 58  27  55  1   
@<TRIPOS>SUBSTRUCTURE
  1 ****  15 GROUP 4 **** **** 0

# MOE 2024.06 (io_trps.svl 2023.06)
