@<TRIPOS>MOLECULE
NONAME
38 40 1 0 0 
SMALL
USER_CHARGES


@<TRIPOS>ATOM
  1 S       -0.0120    -0.2310    -0.5070 S.3   1 <1>  -0.0800 
  2 C       -0.7550     1.1680     0.2620 C.2   1 <1>   0.4620 
  3 C       -1.2380    -1.2480     0.1950 C.2   1 <1>  -0.1400 
  4 N       -1.7920     0.8770     0.9590 N.2   1 <1>  -0.5650 
  5 N       -0.2090     2.4110     0.0670 N.pl3 1 <1>  -0.8220 
  6 C       -2.0580    -0.4770     0.9270 C.2   1 <1>   0.0770 
  7 C       -1.1770    -2.7230    -0.1220 C.3   1 <1>   0.5230 
  8 C       -0.7620     3.6130     0.7190 C.3   1 <1>   0.2090 
  9 C        1.0680     2.6960    -0.6160 C.3   1 <1>   0.2090 
 10 N       -2.5390    -3.2780    -0.0680 N.4   1 <1>  -0.9590 
 11 C        0.0980     4.7580     0.1970 C.3   1 <1>  -0.1600 
 12 C        1.4320     4.1070    -0.1660 C.3   1 <1>  -0.1600 
 13 C       -2.7000    -4.7410    -0.0140 C.3   1 <1>   0.3430 
 14 C       -3.5320    -2.7610    -1.0370 C.3   1 <1>   0.3430 
 15 C       -4.2030    -4.8610     0.0080 C.3   1 <1>  -0.1860 
 16 C       -4.6690    -3.7800    -0.9850 C.3   1 <1>  -0.1600 
 17 C       -4.5920    -4.5680     1.4410 C.2   1 <1>   0.9060 
 18 O       -4.3020    -3.4520     1.9030 O.co2 1 <1>  -0.9000 
 19 O       -5.0680    -5.4740     2.1130 O.co2 1 <1>  -0.9000 
 20 H       -2.9100    -0.8250     1.4940 H     1 <1>   0.1500 
 21 H       -0.5430    -3.2170     0.5970 H     1 <1>   0.0800 
 22 H       -0.7660    -2.8690    -1.1070 H     1 <1>   0.0800 
 23 H       -0.6590     3.5140     1.7870 H     1 <1>   0.0800 
 24 H       -1.8010     3.7440     0.4660 H     1 <1>   0.0800 
 25 H        0.9120     2.6680    -1.6810 H     1 <1>   0.0800 
 26 H        1.8290     1.9880    -0.3360 H     1 <1>   0.0800 
 27 H       -2.9610    -3.0060     0.8590 H     1 <1>   0.4500 
 28 H        0.2060     5.5400     0.9260 H     1 <1>   0.0800 
 29 H       -0.3640     5.1620    -0.6870 H     1 <1>   0.0800 
 30 H        1.9580     4.6470    -0.9330 H     1 <1>   0.0800 
 31 H        2.0540     4.0410     0.7080 H     1 <1>   0.0800 
 32 H       -2.2630    -5.1620     0.8780 H     1 <1>   0.0800 
 33 H       -2.2910    -5.2060    -0.8960 H     1 <1>   0.0800 
 34 H       -3.1110    -2.7190    -2.0280 H     1 <1>   0.0800 
 35 H       -3.8760    -1.7820    -0.7430 H     1 <1>   0.0800 
 36 H       -4.5390    -5.8470    -0.2550 H     1 <1>   0.0800 
 37 H       -4.8220    -4.1990    -1.9640 H     1 <1>   0.0800 
 38 H       -5.5860    -3.3190    -0.6580 H     1 <1>   0.0800 
@<TRIPOS>BOND
  1   1   2  1   
  2   1   3  1   
  3   2   4  2   
  4   2   5  1   
  5   3   6  2   
  6   3   7  1   
  7   4   6  1   
  8   5   8  1   
  9   5   9  1   
 10   6  20  1   
 11   7  10  1   
 12   7  21  1   
 13   7  22  1   
 14   8  11  1   
 15   8  23  1   
 16   8  24  1   
 17   9  12  1   
 18   9  25  1   
 19   9  26  1   
 20  10  13  1   
 21  10  14  1   
 22  10  27  1   
 23  11  12  1   
 24  11  28  1   
 25  11  29  1   
 26  12  30  1   
 27  12  31  1   
 28  13  15  1   
 29  13  32  1   
 30  13  33  1   
 31  14  16  1   
 32  14  34  1   
 33  14  35  1   
 34  15  16  1   
 35  15  17  1   
 36  15  36  1   
 37  16  37  1   
 38  16  38  1   
 39  17  18  ar  
 40  17  19  ar  
@<TRIPOS>SUBSTRUCTURE
  1 ****   3 GROUP 4 **** **** 0

# MOE 2024.06 (io_trps.svl 2023.06)
