@<TRIPOS>MOLECULE
NONAME
46 49 1 0 0 
SMALL
USER_CHARGES


@<TRIPOS>ATOM
  1 O        1.6410    -0.3380    -1.5660 O.3   1 <1>  -0.0190 
  2 N        1.7730     0.9500    -1.4700 N.2   1 <1>  -0.4100 
  3 C        1.9770    -0.9490    -0.4640 C.2   1 <1>  -0.0400 
  4 C        2.2100     1.1940    -0.2720 C.2   1 <1>   0.2350 
  5 C        2.3590    -0.0160     0.4170 C.2   1 <1>  -0.1500 
  6 C        1.8910    -2.4630    -0.3720 C.3   1 <1>   0.2900 
  7 C        2.4890     2.5160     0.2540 C.ar  1 <1>   0.0540 
  8 N        0.5500    -2.8930     0.0510 N.3   1 <1>  -0.8100 
  9 C        2.0100     3.6570    -0.3920 C.ar  1 <1>   0.1600 
 10 C        3.2340     2.7180     1.4090 C.ar  1 <1>  -0.1500 
 11 C       -0.5220    -2.4940    -0.8750 C.3   1 <1>   0.1100 
 12 C        0.4430    -4.3560     0.2050 C.3   1 <1>   0.1100 
 13 N        2.1960     4.9100    -0.0020 N.ar  1 <1>  -0.6200 
 14 C        3.4410     4.0130     1.8320 C.ar  1 <1>  -0.1500 
 15 C       -1.6720    -3.4330    -0.5360 C.3   1 <1>   0.2000 
 16 C       -0.9440    -4.7590    -0.3230 C.3   1 <1>  -0.0800 
 17 C        2.9070     5.0600     1.1020 C.ar  1 <1>   0.1600 
 18 O       -2.2100    -3.0040     0.6640 O.3   1 <1>  -0.6800 
 19 C       -1.6750    -5.7770     0.5720 C.3   1 <1>   0.0210 
 20 C       -0.9930    -7.1330     0.5350 C.2   1 <1>   0.1080 
 21 N        0.1560    -7.3710     1.0900 N.2   1 <1>  -0.7070 
 22 C       -1.5150    -8.2600    -0.0900 C.2   1 <1>  -0.1500 
 23 N        0.3950    -8.6710     0.8350 N.pl3 1 <1>   0.3000 
 24 C       -0.6010    -9.2310     0.1180 C.2   1 <1>  -0.3320 
 25 C       -0.6210   -10.6810    -0.3260 C.3   1 <1>  -0.0600 
 26 H        2.6930    -0.1460     1.4280 H     1 <1>   0.1500 
 27 H        2.6050    -2.8050     0.3560 H     1 <1>   0.0800 
 28 H        2.1430    -2.8980    -1.3240 H     1 <1>   0.0800 
 29 H        1.4330     3.5200    -1.2910 H     1 <1>   0.1500 
 30 H        3.6460     1.8940     1.9620 H     1 <1>   0.1500 
 31 H       -0.7970    -1.4600    -0.7460 H     1 <1>   0.0800 
 32 H       -0.2130    -2.6570    -1.8940 H     1 <1>   0.0800 
 33 H        1.2060    -4.8760    -0.3500 H     1 <1>   0.0800 
 34 H        0.5470    -4.6090     1.2480 H     1 <1>   0.0800 
 35 H        4.0110     4.2150     2.7210 H     1 <1>   0.1500 
 36 H       -2.4470    -3.4690    -1.2810 H     1 <1>   0.0800 
 37 H       -0.8010    -5.2100    -1.2890 H     1 <1>   0.0800 
 38 H        3.0730     6.0680     1.4410 H     1 <1>   0.1500 
 39 H       -1.4440    -2.7670     1.2320 H     1 <1>   0.4000 
 40 H       -2.6900    -5.8840     0.2350 H     1 <1>   0.0800 
 41 H       -1.7010    -5.4300     1.5890 H     1 <1>   0.0800 
 42 H       -2.4500    -8.3160    -0.6180 H     1 <1>   0.1500 
 43 H        1.2440    -9.1460     1.1660 H     1 <1>   0.2700 
 44 H       -1.5200   -10.8860    -0.8810 H     1 <1>   0.0800 
 45 H       -0.5910   -11.3330     0.5290 H     1 <1>   0.0800 
 46 H        0.2250   -10.8900    -0.9570 H     1 <1>   0.0800 
@<TRIPOS>BOND
  1   1   2  1   
  2   1   3  1   
  3   2   4  2   
  4   3   5  2   
  5   3   6  1   
  6   4   5  1   
  7   4   7  1   
  8   5  26  1   
  9   6   8  1   
 10   6  27  1   
 11   6  28  1   
 12   7   9  ar  
 13   7  10  ar  
 14   8  11  1   
 15   8  12  1   
 16   9  13  ar  
 17   9  29  1   
 18  10  14  ar  
 19  10  30  1   
 20  11  15  1   
 21  11  31  1   
 22  11  32  1   
 23  12  16  1   
 24  12  33  1   
 25  12  34  1   
 26  13  17  ar  
 27  14  17  ar  
 28  14  35  1   
 29  15  16  1   
 30  15  18  1   
 31  15  36  1   
 32  16  19  1   
 33  16  37  1   
 34  17  38  1   
 35  18  39  1   
 36  19  20  1   
 37  19  40  1   
 38  19  41  1   
 39  20  21  2   
 40  20  22  1   
 41  21  23  1   
 42  22  24  2   
 43  22  42  1   
 44  23  24  1   
 45  23  43  1   
 46  24  25  1   
 47  25  44  1   
 48  25  45  1   
 49  25  46  1   
@<TRIPOS>SUBSTRUCTURE
  1 ****   8 GROUP 4 **** **** 0

# MOE 2024.06 (io_trps.svl 2023.06)
