@<TRIPOS>MOLECULE
NONAME
35 36 1 0 0 
SMALL
USER_CHARGES


@<TRIPOS>ATOM
  1 O       -0.3460     0.0370    -0.0830 O.2   1 <1>  -0.5700 
  2 C       -1.3900     0.6340     0.0400 C.2   1 <1>   0.5690 
  3 N       -2.5850    -0.0290     0.0380 N.am  1 <1>  -0.6600 
  4 C       -1.3770     2.1530     0.1880 C.3   1 <1>  -0.0990 
  5 C       -3.9370     0.5780     0.0900 C.3   1 <1>   0.1400 
  6 C       -2.6710    -1.5010    -0.0980 C.3   1 <1>   0.1400 
  7 C        0.0180     2.7670     0.4030 C.3   1 <1>  -0.2400 
  8 C       -4.8970    -0.5800    -0.1850 C.3   1 <1>   0.2000 
  9 C       -4.1320    -1.8490     0.1910 C.3   1 <1>  -0.0800 
 10 O       -6.0510    -0.4750     0.5750 O.3   1 <1>  -0.6800 
 11 C       -4.6320    -3.0920    -0.5610 C.3   1 <1>  -0.0170 
 12 C       -3.8540    -4.3320    -0.1500 C.ar  1 <1>  -0.1440 
 13 C       -4.1870    -5.0540     0.9780 C.ar  1 <1>  -0.1500 
 14 C       -2.7760    -4.7990    -0.8760 C.ar  1 <1>  -0.1500 
 15 C       -3.4470    -6.1750     1.3160 C.ar  1 <1>   0.1600 
 16 C       -2.1020    -5.9310    -0.4490 C.ar  1 <1>   0.1600 
 17 N       -2.4120    -6.6310     0.6300 N.ar  1 <1>  -0.6200 
 18 H       -1.8090     2.5780    -0.6990 H     1 <1>   0.0800 
 19 H       -1.9960     2.4180     1.0240 H     1 <1>   0.0800 
 20 H       -4.1030     0.9900     1.0700 H     1 <1>   0.0800 
 21 H       -4.0390     1.3420    -0.6610 H     1 <1>   0.0800 
 22 H       -2.3990    -1.7700    -1.1050 H     1 <1>   0.0800 
 23 H       -2.0030    -1.9900     0.5920 H     1 <1>   0.0800 
 24 H        0.6540     2.5460    -0.4360 H     1 <1>   0.0800 
 25 H        0.4700     2.3580     1.2900 H     1 <1>   0.0800 
 26 H       -0.0550     3.8350     0.5100 H     1 <1>   0.0800 
 27 H       -5.1750    -0.5820    -1.2250 H     1 <1>   0.0800 
 28 H       -4.2130    -2.0150     1.2500 H     1 <1>   0.0800 
 29 H       -5.8390    -0.5250     1.5270 H     1 <1>   0.4000 
 30 H       -4.5420    -2.9420    -1.6230 H     1 <1>   0.0800 
 31 H       -5.6760    -3.2420    -0.3450 H     1 <1>   0.0800 
 32 H       -5.0140    -4.7570     1.5950 H     1 <1>   0.1500 
 33 H       -2.4520    -4.2950    -1.7680 H     1 <1>   0.1500 
 34 H       -3.7220    -6.7270     2.1990 H     1 <1>   0.1500 
 35 H       -1.2630    -6.2790    -1.0270 H     1 <1>   0.1500 
@<TRIPOS>BOND
  1   1   2  2   
  2   2   3  am  
  3   2   4  1   
  4   3   5  1   
  5   3   6  1   
  6   4   7  1   
  7   4  18  1   
  8   4  19  1   
  9   5   8  1   
 10   5  20  1   
 11   5  21  1   
 12   6   9  1   
 13   6  22  1   
 14   6  23  1   
 15   7  24  1   
 16   7  25  1   
 17   7  26  1   
 18   8   9  1   
 19   8  10  1   
 20   8  27  1   
 21   9  11  1   
 22   9  28  1   
 23  10  29  1   
 24  11  12  1   
 25  11  30  1   
 26  11  31  1   
 27  12  13  ar  
 28  12  14  ar  
 29  13  15  ar  
 30  13  32  1   
 31  14  16  ar  
 32  14  33  1   
 33  15  17  ar  
 34  15  34  1   
 35  16  17  ar  
 36  16  35  1   
@<TRIPOS>SUBSTRUCTURE
  1 ****   6 GROUP 4 **** **** 0

# MOE 2024.06 (io_trps.svl 2023.06)
