@<TRIPOS>MOLECULE
NONAME
48 51 1 0 0 
SMALL
USER_CHARGES


@<TRIPOS>ATOM
  1 S       -0.6820     0.4140     0.1640 S.o2  1 <1>   1.0900 
  2 O       -1.1620     1.6880     0.6430 O.2   1 <1>  -0.6500 
  3 O        0.6960     0.0090     0.3160 O.2   1 <1>  -0.6500 
  4 C       -1.6920    -0.9050     0.7720 C.3   1 <1>  -0.0550 
  5 C       -1.1410     0.1690    -1.5450 C.3   1 <1>  -0.0550 
  6 C       -1.6370    -1.9550    -0.3360 C.3   1 <1>   0.1760 
  7 C       -1.8100    -1.2120    -1.6770 C.3   1 <1>  -0.1600 
  8 N       -2.6760    -3.0000    -0.1540 N.pl3 1 <1>   0.3140 
  9 N       -3.9520    -2.6680     0.1050 N.2   1 <1>  -0.7070 
 10 C       -2.5250    -4.3450    -0.2620 C.2   1 <1>  -0.3320 
 11 C       -4.5930    -3.7930     0.1510 C.2   1 <1>   0.1080 
 12 C       -3.7500    -4.8880    -0.0740 C.2   1 <1>   0.0630 
 13 C       -1.2020    -5.0380    -0.5580 C.3   1 <1>  -0.0600 
 14 C       -6.0790    -3.8300     0.4340 C.3   1 <1>  -0.0590 
 15 N       -4.0370    -6.2770    -0.0940 N.am  1 <1>  -0.4930 
 16 C       -5.0810    -6.9430    -0.6780 C.2   1 <1>   0.5440 
 17 O       -5.9730    -6.3290    -1.2250 O.2   1 <1>  -0.5700 
 18 C       -5.1210    -8.3870    -0.6260 C.ar  1 <1>   0.0860 
 19 C       -6.2340    -9.0960    -0.1420 C.ar  1 <1>  -0.0230 
 20 C       -4.0190    -9.1150    -1.0780 C.ar  1 <1>  -0.1500 
 21 N       -7.3910    -8.4310     0.3550 N.pl3 1 <1>   0.5930 
 22 C       -6.2050   -10.4890    -0.1330 C.ar  1 <1>  -0.1500 
 23 C       -4.0010   -10.4960    -1.0530 C.ar  1 <1>  -0.1500 
 24 N       -8.6440    -8.8270     0.0970 N.2   1 <1>  -0.7070 
 25 C       -7.4760    -7.4380     1.2600 C.2   1 <1>   0.0360 
 26 C       -5.1000   -11.1860    -0.5790 C.ar  1 <1>  -0.1500 
 27 C       -9.3590    -8.0390     0.8260 C.2   1 <1>   0.3660 
 28 N       -8.6870    -7.1590     1.5780 N.2   1 <1>  -0.5650 
 29 H       -2.6990    -0.5560     0.8990 H     1 <1>   0.0800 
 30 H       -1.3200    -1.2910     1.7010 H     1 <1>   0.0800 
 31 H       -0.2690     0.2270    -2.1690 H     1 <1>   0.0800 
 32 H       -1.8310     0.9310    -1.8550 H     1 <1>   0.0800 
 33 H       -0.6670    -2.4180    -0.3140 H     1 <1>   0.0800 
 34 H       -1.3780    -1.7750    -2.4850 H     1 <1>   0.0800 
 35 H       -2.8590    -1.0670    -1.8760 H     1 <1>   0.0800 
 36 H       -0.7950    -4.6790    -1.4860 H     1 <1>   0.0800 
 37 H       -1.3370    -6.1010    -0.6430 H     1 <1>   0.0800 
 38 H       -0.4960    -4.8480     0.2320 H     1 <1>   0.0800 
 39 H       -6.3700    -2.9510     0.9790 H     1 <1>   0.0800 
 40 H       -6.3280    -4.6960     1.0160 H     1 <1>   0.0800 
 41 H       -6.6210    -3.8590    -0.4930 H     1 <1>   0.0800 
 42 H       -3.2920    -6.8540     0.2910 H     1 <1>   0.3700 
 43 H       -3.1630    -8.5920    -1.4700 H     1 <1>   0.1500 
 44 H       -7.0620   -11.0360     0.2270 H     1 <1>   0.1500 
 45 H       -3.1400   -11.0370    -1.4090 H     1 <1>   0.1500 
 46 H       -6.6060    -6.9540     1.6610 H     1 <1>   0.1500 
 47 H       -5.0960   -12.2640    -0.5640 H     1 <1>   0.1500 
 48 H      -10.4370    -8.0700     0.8510 H     1 <1>   0.1500 
@<TRIPOS>BOND
  1   1   2  2   
  2   1   3  2   
  3   1   4  1   
  4   1   5  1   
  5   4   6  1   
  6   4  29  1   
  7   4  30  1   
  8   5   7  1   
  9   5  31  1   
 10   5  32  1   
 11   6   7  1   
 12   6   8  1   
 13   6  33  1   
 14   7  34  1   
 15   7  35  1   
 16   8   9  1   
 17   8  10  1   
 18   9  11  2   
 19  10  12  2   
 20  10  13  1   
 21  11  12  1   
 22  11  14  1   
 23  12  15  1   
 24  13  36  1   
 25  13  37  1   
 26  13  38  1   
 27  14  39  1   
 28  14  40  1   
 29  14  41  1   
 30  15  16  am  
 31  15  42  1   
 32  16  17  2   
 33  16  18  1   
 34  18  19  ar  
 35  18  20  ar  
 36  19  21  1   
 37  19  22  ar  
 38  20  23  ar  
 39  20  43  1   
 40  21  24  1   
 41  21  25  1   
 42  22  26  ar  
 43  22  44  1   
 44  23  26  ar  
 45  23  45  1   
 46  24  27  2   
 47  25  28  2   
 48  25  46  1   
 49  26  47  1   
 50  27  28  1   
 51  27  48  1   
@<TRIPOS>SUBSTRUCTURE
  1 ****  12 GROUP 4 **** **** 0

# MOE 2024.06 (io_trps.svl 2023.06)
