@<TRIPOS>MOLECULE
NONAME
44 46 1 0 0 
SMALL
USER_CHARGES


@<TRIPOS>ATOM
  1 O       -2.0790     0.7670    -1.4640 O.2   1 <1>  -0.5700 
  2 C       -1.9780     0.8420    -0.2620 C.2   1 <1>   0.5690 
  3 N       -1.9910    -0.2500     0.5470 N.am  1 <1>  -0.5790 
  4 C       -1.8320     2.2160     0.3940 C.3   1 <1>  -0.0190 
  5 C       -2.2560    -1.6300     0.1230 C.3   1 <1>   0.1810 
  6 C       -2.6480     3.3100    -0.3270 C.3   1 <1>  -0.1600 
  7 C       -0.3440     2.6250     0.4990 C.3   1 <1>  -0.1600 
  8 C       -3.7370    -1.9710     0.1730 C.ar  1 <1>  -0.0320 
  9 C       -1.3880    -2.2320    -0.9350 C.3   1 <1>  -0.2000 
 10 C       -1.2230    -2.6490     0.4910 C.3   1 <1>  -0.2000 
 11 C       -2.6160     4.6560     0.4280 C.3   1 <1>   0.2000 
 12 C       -0.1280     4.1410     0.6880 C.3   1 <1>  -0.1600 
 13 C       -4.5630    -1.5820    -0.8700 C.ar  1 <1>  -0.1500 
 14 C       -4.2800    -2.6540     1.2510 C.ar  1 <1>  -0.1500 
 15 O       -2.6530     5.7000    -0.5150 O.3   1 <1>  -0.5600 
 16 C       -1.3520     4.8170     1.3130 C.3   1 <1>   0.2000 
 17 C       -5.9150    -1.8750    -0.8410 C.ar  1 <1>  -0.1500 
 18 C       -5.6330    -2.9480     1.2830 C.ar  1 <1>  -0.1500 
 19 C       -3.9030     5.9500    -1.0780 C.3   1 <1>   0.0400 
 20 O       -1.0700     6.1580     1.4660 O.3   1 <1>  -0.6800 
 21 C       -6.4510    -2.5590     0.2360 C.ar  1 <1>  -0.1500 
 22 H       -1.9780    -0.1280     1.5560 H     1 <1>   0.3700 
 23 H       -2.2290     2.1350     1.3910 H     1 <1>   0.0800 
 24 H       -3.6670     2.9840    -0.4340 H     1 <1>   0.0800 
 25 H       -2.2330     3.4420    -1.3130 H     1 <1>   0.0800 
 26 H        0.1020     2.0940     1.3220 H     1 <1>   0.0800 
 27 H        0.1740     2.3220    -0.3960 H     1 <1>   0.0800 
 28 H       -1.8340    -2.9250    -1.6260 H     1 <1>   0.1000 
 29 H       -0.6480    -1.6030    -1.4000 H     1 <1>   0.1000 
 30 H       -0.3360    -2.3360     1.0110 H     1 <1>   0.1000 
 31 H       -1.5280    -3.6480     0.7480 H     1 <1>   0.1000 
 32 H       -3.4770     4.7420     1.0690 H     1 <1>   0.0800 
 33 H        0.0480     4.5880    -0.2760 H     1 <1>   0.0800 
 34 H        0.7390     4.3110     1.3020 H     1 <1>   0.0800 
 35 H       -4.1430    -1.0450    -1.7050 H     1 <1>   0.1500 
 36 H       -3.6510    -2.9580     2.0670 H     1 <1>   0.1500 
 37 H       -1.5260     4.4040     2.2920 H     1 <1>   0.0800 
 38 H       -6.5470    -1.5690    -1.6570 H     1 <1>   0.1500 
 39 H       -6.0490    -3.4800     2.1200 H     1 <1>   0.1500 
 40 H       -3.8050     6.7830    -1.7520 H     1 <1>   0.0800 
 41 H       -4.6030     6.1960    -0.2990 H     1 <1>   0.0800 
 42 H       -4.2330     5.0830    -1.6250 H     1 <1>   0.0800 
 43 H       -1.3730     6.5900     0.6340 H     1 <1>   0.4000 
 44 H       -7.5020    -2.7880     0.2590 H     1 <1>   0.1500 
@<TRIPOS>BOND
  1   1   2  2   
  2   2   3  am  
  3   2   4  1   
  4   3   5  1   
  5   3  22  1   
  6   4   6  1   
  7   4   7  1   
  8   4  23  1   
  9   5   8  1   
 10   5   9  1   
 11   5  10  1   
 12   6  11  1   
 13   6  24  1   
 14   6  25  1   
 15   7  12  1   
 16   7  26  1   
 17   7  27  1   
 18   8  13  ar  
 19   8  14  ar  
 20   9  10  1   
 21   9  28  1   
 22   9  29  1   
 23  10  30  1   
 24  10  31  1   
 25  11  15  1   
 26  11  16  1   
 27  11  32  1   
 28  12  16  1   
 29  12  33  1   
 30  12  34  1   
 31  13  17  ar  
 32  13  35  1   
 33  14  18  ar  
 34  14  36  1   
 35  15  19  1   
 36  16  20  1   
 37  16  37  1   
 38  17  21  ar  
 39  17  38  1   
 40  18  21  ar  
 41  18  39  1   
 42  19  40  1   
 43  19  41  1   
 44  19  42  1   
 45  20  43  1   
 46  21  44  1   
@<TRIPOS>SUBSTRUCTURE
  1 ****   2 GROUP 4 **** **** 0

# MOE 2024.06 (io_trps.svl 2023.06)
