@<TRIPOS>MOLECULE
NONAME
44 45 1 0 0 
SMALL
USER_CHARGES


@<TRIPOS>ATOM
  1 CL      -0.6840    -4.0610     2.1160 Cl    1 <1>  -0.1770 
  2 C       -2.1550    -3.3080     1.5550 C.ar  1 <1>   0.1770 
  3 C       -2.3310    -3.0880     0.2030 C.ar  1 <1>  -0.1500 
  4 C       -3.1220    -2.9420     2.4720 C.ar  1 <1>  -0.1500 
  5 C       -3.4980    -2.4870    -0.2380 C.ar  1 <1>  -0.1500 
  6 C       -4.2860    -2.3390     2.0260 C.ar  1 <1>  -0.1500 
  7 C       -4.4800    -2.1110     0.6690 C.ar  1 <1>  -0.1430 
  8 C       -5.7610    -1.4510     0.1670 C.3   1 <1>   0.0440 
  9 C       -6.4620    -2.2550    -0.9220 C.2   1 <1>   0.5690 
 10 O       -6.4960    -1.7630    -2.0270 O.2   1 <1>  -0.5700 
 11 N       -7.0370    -3.4730    -0.6590 N.am  1 <1>  -0.6600 
 12 C       -7.6570    -4.2650    -1.7790 C.3   1 <1>   0.1400 
 13 C       -7.0370    -4.1360     0.6870 C.3   1 <1>   0.1400 
 14 C       -7.7130    -5.7590    -1.4300 C.3   1 <1>   0.2000 
 15 C       -8.3510    -4.8970     0.8790 C.3   1 <1>  -0.1600 
 16 O       -8.1940    -6.5110    -2.4890 O.3   1 <1>  -0.6800 
 17 C       -8.5090    -6.0750    -0.1350 C.3   1 <1>  -0.1060 
 18 C       -7.8370    -7.3640     0.3740 C.2   1 <1>   0.9060 
 19 C      -10.0350    -6.3630    -0.3310 C.3   1 <1>  -0.1600 
 20 O       -7.2370    -7.3740     1.4560 O.co2 1 <1>  -0.9000 
 21 O       -7.8730    -8.3640    -0.3580 O.co2 1 <1>  -0.9000 
 22 C      -10.8600    -5.3070    -1.0930 C.3   1 <1>  -0.1600 
 23 C      -12.3390    -5.7000    -1.1330 C.3   1 <1>  -0.2400 
 24 H       -1.5670    -3.3850    -0.4920 H     1 <1>   0.1500 
 25 H       -2.9630    -3.1290     3.5190 H     1 <1>   0.1500 
 26 H       -3.6420    -2.3150    -1.2930 H     1 <1>   0.1500 
 27 H       -5.0380    -2.0540     2.7410 H     1 <1>   0.1500 
 28 H       -5.5090    -0.4860    -0.2340 H     1 <1>   0.0800 
 29 H       -6.4500    -1.2860     0.9720 H     1 <1>   0.0800 
 30 H       -8.6470    -3.8920    -1.9600 H     1 <1>   0.0800 
 31 H       -7.0720    -4.1390    -2.6730 H     1 <1>   0.0800 
 32 H       -6.2060    -4.8200     0.7580 H     1 <1>   0.0800 
 33 H       -6.9420    -3.4100     1.4720 H     1 <1>   0.0800 
 34 H       -6.6910    -6.0730    -1.2950 H     1 <1>   0.0800 
 35 H       -8.4040    -5.2700     1.8860 H     1 <1>   0.0800 
 36 H       -9.1460    -4.1840     0.7810 H     1 <1>   0.0800 
 37 H       -8.2180    -7.4430    -2.1490 H     1 <1>   0.4000 
 38 H      -10.1430    -7.2970    -0.8550 H     1 <1>   0.0800 
 39 H      -10.4690    -6.5140     0.6420 H     1 <1>   0.0800 
 40 H      -10.7720    -4.3410    -0.6340 H     1 <1>   0.0800 
 41 H      -10.4990    -5.2310    -2.1040 H     1 <1>   0.0800 
 42 H      -12.7370    -5.7660    -0.1360 H     1 <1>   0.0800 
 43 H      -12.4570    -6.6530    -1.6180 H     1 <1>   0.0800 
 44 H      -12.9010    -4.9640    -1.6810 H     1 <1>   0.0800 
@<TRIPOS>BOND
  1   1   2  1   
  2   2   3  ar  
  3   2   4  ar  
  4   3   5  ar  
  5   3  24  1   
  6   4   6  ar  
  7   4  25  1   
  8   5   7  ar  
  9   5  26  1   
 10   6   7  ar  
 11   6  27  1   
 12   7   8  1   
 13   8   9  1   
 14   8  28  1   
 15   8  29  1   
 16   9  10  2   
 17   9  11  am  
 18  11  12  1   
 19  11  13  1   
 20  12  14  1   
 21  12  30  1   
 22  12  31  1   
 23  13  15  1   
 24  13  32  1   
 25  13  33  1   
 26  14  16  1   
 27  14  17  1   
 28  14  34  1   
 29  15  17  1   
 30  15  35  1   
 31  15  36  1   
 32  16  37  1   
 33  17  18  1   
 34  17  19  1   
 35  18  20  ar  
 36  18  21  ar  
 37  19  22  1   
 38  19  38  1   
 39  19  39  1   
 40  22  23  1   
 41  22  40  1   
 42  22  41  1   
 43  23  42  1   
 44  23  43  1   
 45  23  44  1   
@<TRIPOS>SUBSTRUCTURE
  1 ****  13 GROUP 4 **** **** 0

# MOE 2024.06 (io_trps.svl 2023.06)
