@<TRIPOS>MOLECULE
NONAME
44 45 1 0 0 
SMALL
USER_CHARGES


@<TRIPOS>ATOM
  1 F       -0.4170     0.2670    -0.1110 F     1 <1>  -0.1900 
  2 C       -1.2090     1.3160    -0.1720 C.ar  1 <1>   0.1900 
  3 C       -0.6780     2.5800    -0.4330 C.ar  1 <1>   0.4100 
  4 C       -2.5600     1.1830     0.0360 C.ar  1 <1>   0.1660 
  5 N       -1.4620     3.6430    -0.4540 N.ar  1 <1>  -0.6200 
  6 N        0.6590     2.8390    -0.6820 N.pl3 1 <1>  -0.8380 
  7 N       -3.3470     2.2470    -0.0100 N.ar  1 <1>  -0.6200 
  8 C       -3.2230    -0.1570     0.3290 C.3   1 <1>  -0.0170 
  9 C       -2.7530     3.4010    -0.2570 C.ar  1 <1>   0.4700 
 10 C        1.5300     3.2250     0.4780 C.3   1 <1>   0.2090 
 11 C        1.3240     2.0640    -1.7680 C.3   1 <1>   0.2090 
 12 C       -3.4660    -0.3450     1.8310 C.3   1 <1>  -0.2400 
 13 C        1.9580     4.7010     0.3590 C.3   1 <1>   0.3430 
 14 C        2.0410     3.0260    -2.7080 C.3   1 <1>  -0.2400 
 15 N        0.8040     5.5130    -0.1160 N.4   1 <1>  -0.9590 
 16 C        1.1570     6.4850    -1.1970 C.3   1 <1>   0.3430 
 17 C        0.0230     6.1570     0.9900 C.3   1 <1>   0.3430 
 18 C       -0.0750     7.2980    -1.6370 C.3   1 <1>   0.1200 
 19 C       -1.1390     7.0050     0.4380 C.3   1 <1>   0.1200 
 20 O       -0.6770     7.9040    -0.5290 O.3   1 <1>  -0.5600 
 21 H       -2.6140    -0.9640    -0.0370 H     1 <1>   0.0800 
 22 H       -4.1630    -0.2010    -0.1930 H     1 <1>   0.0800 
 23 H       -3.4080     4.2560    -0.3000 H     1 <1>   0.1500 
 24 H        2.4020     2.5940     0.5250 H     1 <1>   0.0800 
 25 H        0.9840     3.0920     1.3960 H     1 <1>   0.0800 
 26 H        0.5850     1.5160    -2.3300 H     1 <1>   0.0800 
 27 H        2.0180     1.3530    -1.3520 H     1 <1>   0.0800 
 28 H       -2.5340    -0.3230     2.3670 H     1 <1>   0.0800 
 29 H       -3.9470    -1.2900     2.0120 H     1 <1>   0.0800 
 30 H       -4.1000     0.4410     2.2040 H     1 <1>   0.0800 
 31 H        2.7590     4.7590    -0.3580 H     1 <1>   0.0800 
 32 H        2.3270     5.0670     1.3030 H     1 <1>   0.0800 
 33 H        1.3450     3.7430    -3.1030 H     1 <1>   0.0800 
 34 H        2.4560     2.4720    -3.5310 H     1 <1>   0.0800 
 35 H        2.8460     3.5270    -2.2060 H     1 <1>   0.0800 
 36 H        0.1730     4.7880    -0.5430 H     1 <1>   0.4500 
 37 H        1.5570     5.9580    -2.0470 H     1 <1>   0.0800 
 38 H        1.9080     7.1710    -0.8420 H     1 <1>   0.0800 
 39 H        0.6680     6.7980     1.5660 H     1 <1>   0.0800 
 40 H       -0.3730     5.3990     1.6450 H     1 <1>   0.0800 
 41 H       -0.7990     6.6670    -2.1250 H     1 <1>   0.0800 
 42 H        0.2170     8.0770    -2.3190 H     1 <1>   0.0800 
 43 H       -1.5890     7.5780     1.2310 H     1 <1>   0.0800 
 44 H       -1.8960     6.3810    -0.0040 H     1 <1>   0.0800 
@<TRIPOS>BOND
  1   1   2  1   
  2   2   3  ar  
  3   2   4  ar  
  4   3   5  ar  
  5   3   6  1   
  6   4   7  ar  
  7   4   8  1   
  8   5   9  ar  
  9   6  10  1   
 10   6  11  1   
 11   7   9  ar  
 12   8  12  1   
 13   8  21  1   
 14   8  22  1   
 15   9  23  1   
 16  10  13  1   
 17  10  24  1   
 18  10  25  1   
 19  11  14  1   
 20  11  26  1   
 21  11  27  1   
 22  12  28  1   
 23  12  29  1   
 24  12  30  1   
 25  13  15  1   
 26  13  31  1   
 27  13  32  1   
 28  14  33  1   
 29  14  34  1   
 30  14  35  1   
 31  15  16  1   
 32  15  17  1   
 33  15  36  1   
 34  16  18  1   
 35  16  37  1   
 36  16  38  1   
 37  17  19  1   
 38  17  39  1   
 39  17  40  1   
 40  18  20  1   
 41  18  41  1   
 42  18  42  1   
 43  19  20  1   
 44  19  43  1   
 45  19  44  1   
@<TRIPOS>SUBSTRUCTURE
  1 ****   5 GROUP 4 **** **** 0

# MOE 2024.06 (io_trps.svl 2023.06)
