@<TRIPOS>MOLECULE
NONAME
46 47 1 0 0 
SMALL
USER_CHARGES


@<TRIPOS>ATOM
  1 O       -0.9720     0.1720     1.8240 O.2   1 <1>  -0.5700 
  2 C       -1.3780     0.7270     0.8320 C.2   1 <1>   0.5690 
  3 N       -1.9530     0.0420    -0.1910 N.am  1 <1>  -0.7300 
  4 C       -1.2580     2.2460     0.7360 C.3   1 <1>  -0.0190 
  5 C       -2.1250    -1.4290    -0.2320 C.3   1 <1>   0.1400 
  6 C       -2.6350     2.9250     0.5970 C.3   1 <1>  -0.1600 
  7 C       -0.2950     2.6820    -0.3960 C.3   1 <1>  -0.1600 
  8 C       -3.5500    -1.7980     0.1800 C.3   1 <1>  -0.0170 
  9 C       -2.5340     4.4630     0.6590 C.3   1 <1>   0.2000 
 10 C       -0.5370     4.1200    -0.8970 C.3   1 <1>  -0.1600 
 11 C       -3.7510    -3.3010     0.0760 C.ar  1 <1>  -0.1440 
 12 O       -3.5410     4.9930    -0.1680 O.3   1 <1>  -0.5600 
 13 C       -1.1540     4.9990     0.1940 C.3   1 <1>   0.2000 
 14 C       -3.3370    -4.1300     1.1070 C.ar  1 <1>  -0.1500 
 15 C       -4.3430    -3.8590    -1.0460 C.ar  1 <1>  -0.1500 
 16 C       -4.8010     5.0850     0.4210 C.3   1 <1>   0.0400 
 17 O       -1.3110     6.2700    -0.3210 O.3   1 <1>  -0.6800 
 18 C       -3.5110    -5.5000     1.0160 C.ar  1 <1>  -0.1500 
 19 C       -4.5170    -5.2290    -1.1360 C.ar  1 <1>  -0.1500 
 20 C       -4.1010    -6.0570    -0.1070 C.ar  1 <1>  -0.1440 
 21 C       -4.2930    -7.5590    -0.2050 C.3   1 <1>  -0.0970 
 22 H       -2.2990     0.5560    -1.0020 H     1 <1>   0.3700 
 23 H       -0.8350     2.5780     1.6690 H     1 <1>   0.0800 
 24 H       -1.9250    -1.7860    -1.2280 H     1 <1>   0.0800 
 25 H       -1.4250    -1.8980     0.4390 H     1 <1>   0.0800 
 26 H       -3.2820     2.5820     1.3850 H     1 <1>   0.0800 
 27 H       -3.0680     2.6360    -0.3450 H     1 <1>   0.0800 
 28 H        0.7130     2.5980    -0.0270 H     1 <1>   0.0800 
 29 H       -0.3770     2.0160    -1.2380 H     1 <1>   0.0800 
 30 H       -3.7190    -1.4840     1.1950 H     1 <1>   0.0800 
 31 H       -4.2550    -1.2940    -0.4550 H     1 <1>   0.0800 
 32 H       -2.6930     4.8060     1.6680 H     1 <1>   0.0800 
 33 H       -1.2140     4.0910    -1.7330 H     1 <1>   0.0800 
 34 H        0.3930     4.5480    -1.2300 H     1 <1>   0.0800 
 35 H       -0.4760     5.0620     1.0270 H     1 <1>   0.0800 
 36 H       -2.8750    -3.7120     1.9850 H     1 <1>   0.1500 
 37 H       -4.6720    -3.2320    -1.8550 H     1 <1>   0.1500 
 38 H       -5.4790     5.5000    -0.3040 H     1 <1>   0.0800 
 39 H       -4.7470     5.7340     1.2770 H     1 <1>   0.0800 
 40 H       -5.1380     4.1040     0.7090 H     1 <1>   0.0800 
 41 H       -2.2190     6.2940    -0.7000 H     1 <1>   0.4000 
 42 H       -3.1850    -6.1290     1.8250 H     1 <1>   0.1500 
 43 H       -4.9800    -5.6480    -2.0120 H     1 <1>   0.1500 
 44 H       -3.5180    -8.0730     0.3350 H     1 <1>   0.0800 
 45 H       -4.2580    -7.8770    -1.2320 H     1 <1>   0.0800 
 46 H       -5.2470    -7.8310     0.2110 H     1 <1>   0.0800 
@<TRIPOS>BOND
  1   1   2  2   
  2   2   3  am  
  3   2   4  1   
  4   3   5  1   
  5   3  22  1   
  6   4   6  1   
  7   4   7  1   
  8   4  23  1   
  9   5   8  1   
 10   5  24  1   
 11   5  25  1   
 12   6   9  1   
 13   6  26  1   
 14   6  27  1   
 15   7  10  1   
 16   7  28  1   
 17   7  29  1   
 18   8  11  1   
 19   8  30  1   
 20   8  31  1   
 21   9  12  1   
 22   9  13  1   
 23   9  32  1   
 24  10  13  1   
 25  10  33  1   
 26  10  34  1   
 27  11  14  ar  
 28  11  15  ar  
 29  12  16  1   
 30  13  17  1   
 31  13  35  1   
 32  14  18  ar  
 33  14  36  1   
 34  15  19  ar  
 35  15  37  1   
 36  16  38  1   
 37  16  39  1   
 38  16  40  1   
 39  17  41  1   
 40  18  20  ar  
 41  18  42  1   
 42  19  20  ar  
 43  19  43  1   
 44  20  21  1   
 45  21  44  1   
 46  21  45  1   
 47  21  46  1   
@<TRIPOS>SUBSTRUCTURE
  1 ****   3 GROUP 4 **** **** 0

# MOE 2024.06 (io_trps.svl 2023.06)
