@<TRIPOS>MOLECULE
NONAME
49 52 1 0 0 
SMALL
USER_CHARGES


@<TRIPOS>ATOM
  1 CL       0.2930     0.4160     1.3880 Cl    1 <1>  -0.1770 
  2 C        1.8680     0.1080     0.6990 C.ar  1 <1>   0.1770 
  3 C        2.3380    -1.2090     0.6390 C.ar  1 <1>   0.0000 
  4 C        2.6270     1.1480     0.2210 C.ar  1 <1>  -0.1500 
  5 C        3.5880    -1.4580     0.0820 C.ar  1 <1>  -0.1520 
  6 C        1.8260    -2.4540     1.0350 C.2   1 <1>  -0.1500 
  7 C        3.8870     0.8900    -0.3340 C.ar  1 <1>  -0.1500 
  8 N        3.8200    -2.8130     0.1310 N.pl3 1 <1>   0.0480 
  9 C        4.3680    -0.3990    -0.4040 C.ar  1 <1>  -0.1500 
 10 C        2.7290    -3.4290     0.7130 C.2   1 <1>  -0.2370 
 11 C        5.0500    -3.4840    -0.3430 C.3   1 <1>   0.0160 
 12 C        2.6290    -4.8540     0.9240 C.2   1 <1>   0.7150 
 13 O        3.6110    -5.4960     1.2500 O.2   1 <1>  -0.5700 
 14 N        1.4390    -5.5140     0.7350 N.am  1 <1>  -0.6600 
 15 C        0.3260    -5.0050    -0.1080 C.3   1 <1>   0.1400 
 16 C        1.2710    -6.9690     0.9500 C.3   1 <1>   0.1400 
 17 C       -0.5500    -6.2240    -0.4370 C.3   1 <1>   0.2000 
 18 C        0.3740    -7.4240    -0.2020 C.3   1 <1>  -0.0800 
 19 O       -1.6200    -6.2990     0.4630 O.3   1 <1>  -0.5600 
 20 C       -0.3520    -8.7530     0.0710 C.3   1 <1>   0.0200 
 21 C       -2.7380    -5.5400     0.1230 C.3   1 <1>   0.0400 
 22 C        0.5860    -9.9490     0.1230 C.2   1 <1>  -0.0400 
 23 O        0.0930   -11.1180     0.4340 O.3   1 <1>  -0.0190 
 24 C        1.9010   -10.1060    -0.0950 C.2   1 <1>  -0.1500 
 25 N        1.0060   -12.0470     0.4390 N.2   1 <1>  -0.4100 
 26 C        2.1060   -11.4650     0.1250 C.2   1 <1>   0.1080 
 27 C        3.4390   -12.1700     0.0120 C.3   1 <1>  -0.0590 
 28 H        2.2580     2.1560     0.2720 H     1 <1>   0.1500 
 29 H        0.8770    -2.5760     1.5250 H     1 <1>   0.1500 
 30 H        4.4750     1.7120    -0.7030 H     1 <1>   0.1500 
 31 H        5.3360    -0.5930    -0.8280 H     1 <1>   0.1500 
 32 H        4.7870    -4.3820    -0.8710 H     1 <1>   0.0800 
 33 H        5.6600    -3.7360     0.5050 H     1 <1>   0.0800 
 34 H        5.5960    -2.8360    -1.0010 H     1 <1>   0.0800 
 35 H       -0.2370    -4.2550     0.4170 H     1 <1>   0.0800 
 36 H        0.7330    -4.5880    -1.0120 H     1 <1>   0.0800 
 37 H        2.2160    -7.4840     0.9510 H     1 <1>   0.0800 
 38 H        0.7780    -7.1240     1.8950 H     1 <1>   0.0800 
 39 H       -0.9330    -6.2030    -1.4430 H     1 <1>   0.0800 
 40 H        0.9920    -7.5370    -1.0750 H     1 <1>   0.0800 
 41 H       -1.0780    -8.9280    -0.7040 H     1 <1>   0.0800 
 42 H       -0.8830    -8.6940     1.0050 H     1 <1>   0.0800 
 43 H       -3.4770    -5.6740     0.8930 H     1 <1>   0.0800 
 44 H       -3.1310    -5.8880    -0.8170 H     1 <1>   0.0800 
 45 H       -2.4670    -4.5010     0.0600 H     1 <1>   0.0800 
 46 H        2.6540    -9.3930    -0.3740 H     1 <1>   0.1500 
 47 H        4.1430   -11.7300     0.6930 H     1 <1>   0.0800 
 48 H        3.8130   -12.0840    -0.9920 H     1 <1>   0.0800 
 49 H        3.3250   -13.2120     0.2530 H     1 <1>   0.0800 
@<TRIPOS>BOND
  1   1   2  1   
  2   2   3  ar  
  3   2   4  ar  
  4   3   5  ar  
  5   3   6  1   
  6   4   7  ar  
  7   4  28  1   
  8   5   8  1   
  9   5   9  ar  
 10   6  10  2   
 11   6  29  1   
 12   7   9  ar  
 13   7  30  1   
 14   8  10  1   
 15   8  11  1   
 16   9  31  1   
 17  10  12  1   
 18  11  32  1   
 19  11  33  1   
 20  11  34  1   
 21  12  13  2   
 22  12  14  am  
 23  14  15  1   
 24  14  16  1   
 25  15  17  1   
 26  15  35  1   
 27  15  36  1   
 28  16  18  1   
 29  16  37  1   
 30  16  38  1   
 31  17  18  1   
 32  17  19  1   
 33  17  39  1   
 34  18  20  1   
 35  18  40  1   
 36  19  21  1   
 37  20  22  1   
 38  20  41  1   
 39  20  42  1   
 40  21  43  1   
 41  21  44  1   
 42  21  45  1   
 43  22  23  1   
 44  22  24  2   
 45  23  25  1   
 46  24  26  1   
 47  24  46  1   
 48  25  26  2   
 49  26  27  1   
 50  27  47  1   
 51  27  48  1   
 52  27  49  1   
@<TRIPOS>SUBSTRUCTURE
  1 ****  14 GROUP 4 **** **** 0

# MOE 2024.06 (io_trps.svl 2023.06)
