@<TRIPOS>MOLECULE
NONAME
56 58 1 0 0 
SMALL
USER_CHARGES


@<TRIPOS>ATOM
  1 O       -2.6370     0.5300    -2.6450 O.2   1 <1>  -0.5700 
  2 C       -2.7360     1.5170    -1.9380 C.2   1 <1>   0.5440 
  3 N       -3.9440     2.1830    -1.8960 N.am  1 <1>  -0.6600 
  4 C       -1.5900     1.9600    -1.1730 C.ar  1 <1>   0.0860 
  5 C       -5.1750     1.5540    -2.4510 C.3   1 <1>   0.1400 
  6 C       -4.1600     3.4960    -1.2300 C.3   1 <1>   0.1400 
  7 C       -1.6010     1.9440     0.2220 C.ar  1 <1>  -0.1500 
  8 C       -0.4350     2.4130    -1.8070 C.ar  1 <1>  -0.1500 
  9 C       -5.7990     0.5710    -1.4480 C.3   1 <1>   0.1400 
 10 C       -4.8530     3.3680     0.1370 C.3   1 <1>  -0.1600 
 11 C       -0.5210     2.3820     0.9670 C.ar  1 <1>  -0.1440 
 12 C        0.6560     2.8520    -1.0810 C.ar  1 <1>  -0.1500 
 13 N       -5.7230     1.0340    -0.0220 N.am  1 <1>  -0.6600 
 14 C       -6.0940     2.4640     0.1880 C.3   1 <1>   0.1400 
 15 C        0.6110     2.8410     0.3040 C.ar  1 <1>   0.0830 
 16 C       -0.5860     2.3510     2.4870 C.3   1 <1>  -0.0970 
 17 C       -5.2530     0.2910     1.0430 C.2   1 <1>   0.5690 
 18 O        1.6730     3.2740     0.9980 O.3   1 <1>  -0.5320 
 19 O       -5.1000     0.8130     2.1260 O.2   1 <1>  -0.5700 
 20 C       -4.9000    -1.2070     0.9730 C.3   1 <1>  -0.0190 
 21 C       -3.5650    -1.4680     0.2330 C.3   1 <1>  -0.1600 
 22 C       -6.1050    -2.0790     0.5510 C.3   1 <1>  -0.1600 
 23 C       -2.9420    -2.8320     0.5660 C.3   1 <1>  -0.1600 
 24 C       -5.8470    -3.5940     0.5250 C.3   1 <1>  -0.1600 
 25 C       -3.4350    -3.9910    -0.3140 C.3   1 <1>  -0.1600 
 26 C       -4.9360    -4.0100    -0.6380 C.3   1 <1>  -0.1600 
 27 H       -4.9400     1.0290    -3.3610 H     1 <1>   0.0800 
 28 H       -5.8910     2.3160    -2.7020 H     1 <1>   0.0800 
 29 H       -4.7620     4.1110    -1.8760 H     1 <1>   0.0800 
 30 H       -3.2180     4.0020    -1.1020 H     1 <1>   0.0800 
 31 H       -2.4790     1.5740     0.7210 H     1 <1>   0.1500 
 32 H       -0.4040     2.4120    -2.8830 H     1 <1>   0.1500 
 33 H       -5.2940    -0.3640    -1.5670 H     1 <1>   0.0800 
 34 H       -6.8300     0.4100    -1.7090 H     1 <1>   0.0800 
 35 H       -5.1520     4.3550     0.4410 H     1 <1>   0.0800 
 36 H       -4.1490     3.0330     0.8740 H     1 <1>   0.0800 
 37 H        1.5340     3.1980    -1.5950 H     1 <1>   0.1500 
 38 H       -6.8160     2.7720    -0.5470 H     1 <1>   0.0800 
 39 H       -6.5580     2.5640     1.1550 H     1 <1>   0.0800 
 40 H       -1.5390     1.9890     2.8290 H     1 <1>   0.0800 
 41 H       -0.4340     3.3410     2.8780 H     1 <1>   0.0800 
 42 H        0.1850     1.7070     2.8700 H     1 <1>   0.0800 
 43 H        2.4160     3.5560     0.4380 H     1 <1>   0.4500 
 44 H       -4.7110    -1.4820     1.9960 H     1 <1>   0.0800 
 45 H       -2.8680    -0.7170     0.5570 H     1 <1>   0.0800 
 46 H       -3.6560    -1.3650    -0.8310 H     1 <1>   0.0800 
 47 H       -6.4740    -1.7840    -0.4120 H     1 <1>   0.0800 
 48 H       -6.9000    -1.8910     1.2520 H     1 <1>   0.0800 
 49 H       -3.1120    -3.0660     1.6020 H     1 <1>   0.0800 
 50 H       -1.8750    -2.7580     0.4390 H     1 <1>   0.0800 
 51 H       -6.7970    -4.0820     0.3910 H     1 <1>   0.0800 
 52 H       -5.4470    -3.9320     1.4660 H     1 <1>   0.0800 
 53 H       -3.1740    -4.9120     0.1780 H     1 <1>   0.0800 
 54 H       -2.8950    -3.9690    -1.2450 H     1 <1>   0.0800 
 55 H       -5.1240    -3.3760    -1.4880 H     1 <1>   0.0800 
 56 H       -5.1930    -5.0110    -0.9380 H     1 <1>   0.0800 
@<TRIPOS>BOND
  1   1   2  2   
  2   2   3  am  
  3   2   4  1   
  4   3   5  1   
  5   3   6  1   
  6   4   7  ar  
  7   4   8  ar  
  8   5   9  1   
  9   5  27  1   
 10   5  28  1   
 11   6  10  1   
 12   6  29  1   
 13   6  30  1   
 14   7  11  ar  
 15   7  31  1   
 16   8  12  ar  
 17   8  32  1   
 18   9  13  1   
 19   9  33  1   
 20   9  34  1   
 21  10  14  1   
 22  10  35  1   
 23  10  36  1   
 24  11  15  ar  
 25  11  16  1   
 26  12  15  ar  
 27  12  37  1   
 28  13  14  1   
 29  13  17  am  
 30  14  38  1   
 31  14  39  1   
 32  15  18  1   
 33  16  40  1   
 34  16  41  1   
 35  16  42  1   
 36  17  19  2   
 37  17  20  1   
 38  18  43  1   
 39  20  21  1   
 40  20  22  1   
 41  20  44  1   
 42  21  23  1   
 43  21  45  1   
 44  21  46  1   
 45  22  24  1   
 46  22  47  1   
 47  22  48  1   
 48  23  25  1   
 49  23  49  1   
 50  23  50  1   
 51  24  26  1   
 52  24  51  1   
 53  24  52  1   
 54  25  26  1   
 55  25  53  1   
 56  25  54  1   
 57  26  55  1   
 58  26  56  1   
@<TRIPOS>SUBSTRUCTURE
  1 ****   2 GROUP 4 **** **** 0

# MOE 2024.06 (io_trps.svl 2023.06)
