@<TRIPOS>MOLECULE
NONAME
47 48 1 0 0 
SMALL
USER_CHARGES


@<TRIPOS>ATOM
  1 O        1.5340     0.1070    -1.3680 O.2   1 <1>  -0.5700 
  2 C        1.3590     0.0470    -0.1720 C.2   1 <1>   0.5690 
  3 N        1.5320     1.1530     0.6180 N.am  1 <1>  -0.6600 
  4 C        0.9700    -1.2900     0.4530 C.3   1 <1>  -0.0990 
  5 C        1.7700     2.4880    -0.0050 C.3   1 <1>   0.3200 
  6 C        1.6890     1.1380     2.1010 C.3   1 <1>   0.0600 
  7 C        0.3780    -2.3070    -0.5410 C.3   1 <1>  -0.1600 
  8 C        3.2430     2.6620    -0.3270 C.2   1 <1>   0.0060 
  9 C       -0.0210    -3.6120     0.1610 C.3   1 <1>  -0.1600 
 10 N        3.8520     1.8400    -1.2140 N.pl3 1 <1>   0.0330 
 11 N        4.0220     3.5550     0.1810 N.2   1 <1>  -0.5650 
 12 C       -0.6090    -4.6200    -0.8370 C.3   1 <1>  -0.1600 
 13 C        5.1430     2.2450    -1.2760 C.ar  1 <1>  -0.1520 
 14 C        5.2350     3.3150    -0.4030 C.ar  1 <1>   0.2270 
 15 C       -1.0070    -5.9230    -0.1430 C.3   1 <1>   0.1200 
 16 C        6.2500     1.7950    -1.9970 C.ar  1 <1>  -0.1500 
 17 C        6.4570     3.9730    -0.2300 C.ar  1 <1>  -0.1440 
 18 O       -1.5260    -6.7790    -1.1060 O.3   1 <1>  -0.5600 
 19 C        7.4500     2.4460    -1.8230 C.ar  1 <1>  -0.1500 
 20 C        7.5530     3.5310    -0.9430 C.ar  1 <1>  -0.1500 
 21 C        6.5480     5.1480     0.7290 C.3   1 <1>  -0.0970 
 22 C       -1.9300    -8.0120    -0.6080 C.3   1 <1>   0.0400 
 23 H        0.2450    -1.1050     1.2230 H     1 <1>   0.0800 
 24 H        1.8480    -1.7110     0.9070 H     1 <1>   0.0800 
 25 H        1.4540     3.2670     0.6660 H     1 <1>   0.0800 
 26 H        1.1940     2.5760    -0.9100 H     1 <1>   0.0800 
 27 H        1.8110     0.1370     2.4730 H     1 <1>   0.0800 
 28 H        0.8240     1.5830     2.5620 H     1 <1>   0.0800 
 29 H        2.5620     1.7060     2.3760 H     1 <1>   0.0800 
 30 H        1.1040    -2.5200    -1.3070 H     1 <1>   0.0800 
 31 H       -0.4850    -1.8740    -1.0180 H     1 <1>   0.0800 
 32 H       -0.7520    -3.4000     0.9240 H     1 <1>   0.0800 
 33 H        0.8450    -4.0440     0.6340 H     1 <1>   0.0800 
 34 H        3.3980     1.0500    -1.6910 H     1 <1>   0.2700 
 35 H        0.1200    -4.8410    -1.5980 H     1 <1>   0.0800 
 36 H       -1.4790    -4.1970    -1.3070 H     1 <1>   0.0800 
 37 H       -1.7630    -5.7410     0.6010 H     1 <1>   0.0800 
 38 H       -0.1480    -6.3910     0.3080 H     1 <1>   0.0800 
 39 H        6.1560     0.9610    -2.6700 H     1 <1>   0.1500 
 40 H        8.3230     2.1260    -2.3640 H     1 <1>   0.1500 
 41 H        8.5060     4.0170    -0.8320 H     1 <1>   0.1500 
 42 H        5.8660     5.9190     0.4190 H     1 <1>   0.0800 
 43 H        7.5430     5.5520     0.7550 H     1 <1>   0.0800 
 44 H        6.2750     4.8270     1.7180 H     1 <1>   0.0800 
 45 H       -2.3130    -8.5940    -1.4270 H     1 <1>   0.0800 
 46 H       -2.7050    -7.8630     0.1250 H     1 <1>   0.0800 
 47 H       -1.0840    -8.5140    -0.1710 H     1 <1>   0.0800 
@<TRIPOS>BOND
  1   1   2  2   
  2   2   3  am  
  3   2   4  1   
  4   3   5  1   
  5   3   6  1   
  6   4   7  1   
  7   4  23  1   
  8   4  24  1   
  9   5   8  1   
 10   5  25  1   
 11   5  26  1   
 12   6  27  1   
 13   6  28  1   
 14   6  29  1   
 15   7   9  1   
 16   7  30  1   
 17   7  31  1   
 18   8  10  1   
 19   8  11  2   
 20   9  12  1   
 21   9  32  1   
 22   9  33  1   
 23  10  13  1   
 24  10  34  1   
 25  11  14  1   
 26  12  15  1   
 27  12  35  1   
 28  12  36  1   
 29  13  14  ar  
 30  13  16  ar  
 31  14  17  ar  
 32  15  18  1   
 33  15  37  1   
 34  15  38  1   
 35  16  19  ar  
 36  16  39  1   
 37  17  20  ar  
 38  17  21  1   
 39  18  22  1   
 40  19  20  ar  
 41  19  40  1   
 42  20  41  1   
 43  21  42  1   
 44  21  43  1   
 45  21  44  1   
 46  22  45  1   
 47  22  46  1   
 48  22  47  1   
@<TRIPOS>SUBSTRUCTURE
  1 ****   2 GROUP 4 **** **** 0

# MOE 2024.06 (io_trps.svl 2023.06)
