@<TRIPOS>MOLECULE
NONAME
37 38 1 0 0 
SMALL
USER_CHARGES


@<TRIPOS>ATOM
  1 CL      -0.2940    -0.5550     0.8570 Cl    1 <1>  -0.1770 
  2 C        1.1070    -1.5270     0.4740 C.ar  1 <1>   0.1770 
  3 C        1.0790    -2.4570    -0.5590 C.ar  1 <1>  -0.0090 
  4 C        2.2340    -1.3180     1.2490 C.ar  1 <1>  -0.1500 
  5 S       -0.3990    -2.7120    -1.5670 S.o2  1 <1>   1.4470 
  6 C        2.2360    -3.1980    -0.7880 C.ar  1 <1>  -0.1500 
  7 C        3.3830    -2.0470     0.9960 C.ar  1 <1>   0.0820 
  8 O       -0.1540    -3.7810    -2.5110 O.2   1 <1>  -0.6500 
  9 O       -0.8460    -1.4400    -2.0920 O.2   1 <1>  -0.6500 
 10 N       -1.5610    -3.2740    -0.4720 N.am  1 <1>  -0.8490 
 11 C        3.3690    -2.9960    -0.0220 C.ar  1 <1>   0.1770 
 12 O        4.4700    -1.8220     1.7640 O.3   1 <1>  -0.3630 
 13 C       -1.2400    -4.6190     0.0410 C.3   1 <1>   0.1960 
 14 C       -2.9060    -3.2330    -1.0480 C.3   1 <1>   0.1960 
 15 CL       4.7840    -3.9680    -0.3630 Cl    1 <1>  -0.1770 
 16 C        5.5160    -1.0710     1.1880 C.3   1 <1>   0.0400 
 17 C       -2.2180    -5.0240     1.1430 C.3   1 <1>  -0.1860 
 18 C       -3.9500    -3.5930     0.0090 C.3   1 <1>  -0.1600 
 19 C       -1.8990    -6.4140     1.6460 C.2   1 <1>   0.9060 
 20 C       -3.6450    -4.9630     0.6060 C.3   1 <1>   0.2000 
 21 O       -0.8660    -6.9740     1.2680 O.co2 1 <1>  -0.9000 
 22 O       -2.6990    -6.9550     2.4210 O.co2 1 <1>  -0.9000 
 23 O       -4.5190    -5.1940     1.6430 O.3   1 <1>  -0.6800 
 24 H        2.2200    -0.5950     2.0430 H     1 <1>   0.1500 
 25 H        2.2570    -3.9410    -1.5670 H     1 <1>   0.1500 
 26 H       -1.2750    -5.3420    -0.7590 H     1 <1>   0.0800 
 27 H       -0.2430    -4.6310     0.4500 H     1 <1>   0.0800 
 28 H       -3.1150    -2.2410    -1.4120 H     1 <1>   0.0800 
 29 H       -2.9670    -3.9180    -1.8790 H     1 <1>   0.0800 
 30 H        6.2850    -0.9440     1.9290 H     1 <1>   0.0800 
 31 H        5.1320    -0.1130     0.8880 H     1 <1>   0.0800 
 32 H        5.9110    -1.6010     0.3400 H     1 <1>   0.0800 
 33 H       -2.1070    -4.3450     1.9660 H     1 <1>   0.0800 
 34 H       -4.9270    -3.6060    -0.4390 H     1 <1>   0.0800 
 35 H       -3.9330    -2.8470     0.7830 H     1 <1>   0.0800 
 36 H       -3.7930    -5.7390    -0.1270 H     1 <1>   0.0800 
 37 H       -4.1190    -5.9510     2.1640 H     1 <1>   0.4000 
@<TRIPOS>BOND
  1   1   2  1   
  2   2   3  ar  
  3   2   4  ar  
  4   3   5  1   
  5   3   6  ar  
  6   4   7  ar  
  7   4  24  1   
  8   5   8  2   
  9   5   9  2   
 10   5  10  am  
 11   6  11  ar  
 12   6  25  1   
 13   7  11  ar  
 14   7  12  1   
 15  10  13  1   
 16  10  14  1   
 17  11  15  1   
 18  12  16  1   
 19  13  17  1   
 20  13  26  1   
 21  13  27  1   
 22  14  18  1   
 23  14  28  1   
 24  14  29  1   
 25  16  30  1   
 26  16  31  1   
 27  16  32  1   
 28  17  19  1   
 29  17  20  1   
 30  17  33  1   
 31  18  20  1   
 32  18  34  1   
 33  18  35  1   
 34  19  21  ar  
 35  19  22  ar  
 36  20  23  1   
 37  20  36  1   
 38  23  37  1   
@<TRIPOS>SUBSTRUCTURE
  1 ****   3 GROUP 4 **** **** 0

# MOE 2024.06 (io_trps.svl 2023.06)
