@<TRIPOS>MOLECULE
NONAME
49 50 1 0 0 
SMALL
USER_CHARGES


@<TRIPOS>ATOM
  1 S        0.7770     0.0930    -0.4350 S.o2  1 <1>   1.3330 
  2 O        0.2390    -0.0960    -1.7610 O.2   1 <1>  -0.6500 
  3 O        2.1580     0.4910    -0.2770 O.2   1 <1>  -0.6500 
  4 N        0.4660    -1.2760     0.5120 N.am  1 <1>  -0.8490 
  5 C       -0.1890     1.3770     0.3580 C.3   1 <1>  -0.0550 
  6 C        1.6170    -2.1830     0.5850 C.3   1 <1>   0.1160 
  7 C       -0.7240    -2.0230     0.0860 C.3   1 <1>   0.1160 
  8 C       -0.0890     2.7260    -0.3890 C.3   1 <1>  -0.0800 
  9 C       -0.8590     3.8870     0.2390 C.3   1 <1>   0.2000 
 10 C        1.3520     3.2480    -0.5140 C.3   1 <1>   0.3430 
 11 O       -0.6460     3.8970     1.6150 O.3   1 <1>  -0.6800 
 12 C       -0.1620     5.1070    -0.3690 C.3   1 <1>   0.3430 
 13 N        1.2860     4.7390    -0.4620 N.4   1 <1>  -0.9590 
 14 C        2.0500     5.2540     0.7090 C.3   1 <1>   0.4860 
 15 C        2.1550     6.7620     0.5870 C.ar  1 <1>  -0.1440 
 16 C        3.1010     7.3730    -0.2340 C.ar  1 <1>  -0.1440 
 17 C        1.2770     7.5450     1.3260 C.ar  1 <1>  -0.1500 
 18 C        3.1300     8.7570    -0.3150 C.ar  1 <1>  -0.1500 
 19 C        4.1380     6.5930    -1.0400 C.3   1 <1>  -0.0170 
 20 C        1.3160     8.9230     1.2350 C.ar  1 <1>  -0.1500 
 21 C        2.2420     9.5300     0.4100 C.ar  1 <1>  -0.1500 
 22 C        5.3700     6.2940    -0.1840 C.3   1 <1>  -0.2400 
 23 H       -1.2160     1.0700     0.3940 H     1 <1>   0.0800 
 24 H        0.1580     1.4870     1.3670 H     1 <1>   0.0800 
 25 H        1.3900    -3.0260     1.2150 H     1 <1>   0.0800 
 26 H        2.4660    -1.6700     1.0060 H     1 <1>   0.0800 
 27 H        1.8800    -2.5370    -0.3980 H     1 <1>   0.0800 
 28 H       -0.9210    -2.8300     0.7720 H     1 <1>   0.0800 
 29 H       -0.5790    -2.4320    -0.9010 H     1 <1>   0.0800 
 30 H       -1.5850    -1.3770     0.0670 H     1 <1>   0.0800 
 31 H       -0.4620     2.5810    -1.3900 H     1 <1>   0.0800 
 32 H       -1.9180     3.8740     0.0430 H     1 <1>   0.0800 
 33 H        1.8000     2.9080    -1.4350 H     1 <1>   0.0800 
 34 H        1.9420     2.8770     0.3090 H     1 <1>   0.0800 
 35 H       -1.3210     3.3630     2.0860 H     1 <1>   0.4000 
 36 H       -0.3290     5.9910     0.2230 H     1 <1>   0.0800 
 37 H       -0.5500     5.2730    -1.3610 H     1 <1>   0.0800 
 38 H        1.6980     5.1750    -1.2950 H     1 <1>   0.4500 
 39 H        1.5520     4.9880     1.6280 H     1 <1>   0.0800 
 40 H        3.0400     4.8290     0.7240 H     1 <1>   0.0800 
 41 H        0.5540     7.0910     1.9840 H     1 <1>   0.1500 
 42 H        3.8540     9.2500    -0.9420 H     1 <1>   0.1500 
 43 H        3.7310     5.6750    -1.4210 H     1 <1>   0.0800 
 44 H        4.4430     7.1760    -1.8930 H     1 <1>   0.0800 
 45 H        0.6320     9.5260     1.8080 H     1 <1>   0.1500 
 46 H        2.2780    10.6040     0.3360 H     1 <1>   0.1500 
 47 H        5.1100     5.7000     0.6730 H     1 <1>   0.0800 
 48 H        5.8100     7.2140     0.1610 H     1 <1>   0.0800 
 49 H        6.1050     5.7620    -0.7620 H     1 <1>   0.0800 
@<TRIPOS>BOND
  1   1   2  2   
  2   1   3  2   
  3   1   4  am  
  4   1   5  1   
  5   4   6  1   
  6   4   7  1   
  7   5   8  1   
  8   5  23  1   
  9   5  24  1   
 10   6  25  1   
 11   6  26  1   
 12   6  27  1   
 13   7  28  1   
 14   7  29  1   
 15   7  30  1   
 16   8   9  1   
 17   8  10  1   
 18   8  31  1   
 19   9  11  1   
 20   9  12  1   
 21   9  32  1   
 22  10  13  1   
 23  10  33  1   
 24  10  34  1   
 25  11  35  1   
 26  12  13  1   
 27  12  36  1   
 28  12  37  1   
 29  13  14  1   
 30  13  38  1   
 31  14  15  1   
 32  14  39  1   
 33  14  40  1   
 34  15  16  ar  
 35  15  17  ar  
 36  16  18  ar  
 37  16  19  1   
 38  17  20  ar  
 39  17  41  1   
 40  18  21  ar  
 41  18  42  1   
 42  19  22  1   
 43  19  43  1   
 44  19  44  1   
 45  20  21  ar  
 46  20  45  1   
 47  21  46  1   
 48  22  47  1   
 49  22  48  1   
 50  22  49  1   
@<TRIPOS>SUBSTRUCTURE
  1 ****  10 GROUP 4 **** **** 0

# MOE 2024.06 (io_trps.svl 2023.06)
