@<TRIPOS>MOLECULE
NONAME
36 38 1 0 0 
SMALL
USER_CHARGES


@<TRIPOS>ATOM
  1 CL      -0.7990    -0.4720    -0.0410 Cl    1 <1>  -0.1770 
  2 C        0.8340    -1.1040     0.0960 C.ar  1 <1>   0.1770 
  3 C        1.1210    -2.4670     0.0330 C.ar  1 <1>   0.4100 
  4 C        1.8710    -0.2330     0.2870 C.ar  1 <1>   0.1600 
  5 N        2.3690    -2.8860     0.1690 N.ar  1 <1>  -0.6200 
  6 N        0.1660    -3.4480    -0.1720 N.pl3 1 <1>  -0.8380 
  7 N        3.1210    -0.6460     0.4130 N.ar  1 <1>  -0.6200 
  8 C        3.2900    -1.9550     0.3460 C.ar  1 <1>   0.4770 
  9 C        0.3630    -4.8130     0.4320 C.3   1 <1>   0.3900 
 10 C       -0.7500    -3.3860    -1.3450 C.3   1 <1>   0.1290 
 11 C        4.7100    -2.4440     0.4970 C.3   1 <1>  -0.0960 
 12 C       -0.9390    -5.5120     0.8400 C.2   1 <1>   0.3350 
 13 N       -1.3710    -5.6020     2.0370 N.2   1 <1>  -0.4100 
 14 N       -1.7310    -6.1140    -0.0460 N.2   1 <1>  -0.5650 
 15 O       -2.4870    -6.2630     1.9970 O.3   1 <1>  -0.0190 
 16 C       -2.6480    -6.5430     0.7280 C.2   1 <1>   0.3170 
 17 C       -3.8880    -7.3260     0.3250 C.3   1 <1>   0.1610 
 18 C       -3.9470    -8.7660     0.9010 C.3   1 <1>   0.0000 
 19 C       -3.8620    -7.9790    -1.0850 C.3   1 <1>   0.0000 
 20 C       -4.5840    -9.1930    -0.4470 C.3   1 <1>   0.0000 
 21 H        1.6770     0.8230     0.3410 H     1 <1>   0.1500 
 22 H        0.9780    -4.7260     1.3100 H     1 <1>   0.0800 
 23 H        0.8840    -5.4350    -0.2730 H     1 <1>   0.0800 
 24 H       -0.5320    -2.5240    -1.9510 H     1 <1>   0.0800 
 25 H       -1.7690    -3.3250    -1.0040 H     1 <1>   0.0800 
 26 H       -0.6360    -4.2680    -1.9520 H     1 <1>   0.0800 
 27 H        4.8090    -3.4390     0.1040 H     1 <1>   0.0800 
 28 H        4.9750    -2.4470     1.5370 H     1 <1>   0.0800 
 29 H        5.3780    -1.7920    -0.0350 H     1 <1>   0.0800 
 30 H       -4.8030    -6.7850     0.5030 H     1 <1>   0.0000 
 31 H       -4.6030    -8.8700     1.7470 H     1 <1>   0.0000 
 32 H       -2.9730    -9.2000     1.0530 H     1 <1>   0.0000 
 33 H       -2.8730    -8.2300    -1.4280 H     1 <1>   0.0000 
 34 H       -4.4530    -7.4570    -1.8180 H     1 <1>   0.0000 
 35 H       -5.6560    -9.0900    -0.4510 H     1 <1>   0.0000 
 36 H       -4.2400   -10.1450    -0.8090 H     1 <1>   0.0000 
@<TRIPOS>BOND
  1   1   2  1   
  2   2   3  ar  
  3   2   4  ar  
  4   3   5  ar  
  5   3   6  1   
  6   4   7  ar  
  7   4  21  1   
  8   5   8  ar  
  9   6   9  1   
 10   6  10  1   
 11   7   8  ar  
 12   8  11  1   
 13   9  12  1   
 14   9  22  1   
 15   9  23  1   
 16  10  24  1   
 17  10  25  1   
 18  10  26  1   
 19  11  27  1   
 20  11  28  1   
 21  11  29  1   
 22  12  13  2   
 23  12  14  1   
 24  13  15  1   
 25  14  16  2   
 26  15  16  1   
 27  16  17  1   
 28  17  18  1   
 29  17  19  1   
 30  17  30  1   
 31  18  20  1   
 32  18  31  1   
 33  18  32  1   
 34  19  20  1   
 35  19  33  1   
 36  19  34  1   
 37  20  35  1   
 38  20  36  1   
@<TRIPOS>SUBSTRUCTURE
  1 ****   9 GROUP 4 **** **** 0

# MOE 2024.06 (io_trps.svl 2023.06)
