@<TRIPOS>MOLECULE
NONAME
45 47 1 0 0 
SMALL
USER_CHARGES


@<TRIPOS>ATOM
  1 F       -0.6490    -3.3930    -1.6050 F     1 <1>  -0.1900 
  2 C       -1.5240    -2.9790    -0.7240 C.ar  1 <1>   0.1900 
  3 C       -1.9700    -1.6540    -0.6870 C.ar  1 <1>   0.0830 
  4 C       -1.9790    -3.9290     0.1720 C.ar  1 <1>  -0.1500 
  5 O       -1.6000    -0.6370    -1.5150 O.3   1 <1>  -0.3630 
  6 C       -2.8900    -1.3160     0.2930 C.ar  1 <1>  -0.1500 
  7 C       -2.9080    -3.5720     1.1410 C.ar  1 <1>  -0.1430 
  8 C       -0.7340    -0.8150    -2.6140 C.3   1 <1>   0.0400 
  9 C       -3.3550    -2.2590     1.1970 C.ar  1 <1>  -0.1500 
 10 C       -3.4280    -4.6100     2.1160 C.3   1 <1>   0.4870 
 11 N       -4.3270    -5.5230     1.3700 N.4   1 <1>  -0.9590 
 12 C       -5.5780    -4.8810     0.8600 C.3   1 <1>   0.3430 
 13 C       -4.7300    -6.7680     2.0740 C.3   1 <1>   0.3430 
 14 C       -6.6530    -5.9810     0.8550 C.3   1 <1>   0.2000 
 15 C       -5.9650    -7.2730     1.3200 C.3   1 <1>  -0.0800 
 16 O       -7.6500    -5.6530     1.7650 O.3   1 <1>  -0.6800 
 17 C       -5.6030    -8.2250     0.1520 C.3   1 <1>   0.0200 
 18 C       -4.4240    -7.7400    -0.6730 C.2   1 <1>  -0.0400 
 19 O       -4.5060    -6.6090    -1.3170 O.3   1 <1>  -0.0190 
 20 C       -3.1950    -8.2390    -0.8760 C.2   1 <1>  -0.1500 
 21 N       -3.3850    -6.2920    -1.8840 N.2   1 <1>  -0.4100 
 22 C       -2.5800    -7.2680    -1.6620 C.2   1 <1>   0.1080 
 23 C       -1.1610    -7.3330    -2.1870 C.3   1 <1>  -0.0590 
 24 H       -1.5990    -4.9320     0.0930 H     1 <1>   0.1500 
 25 H       -3.2410    -0.3000     0.3410 H     1 <1>   0.1500 
 26 H       -0.6420     0.1270    -3.1230 H     1 <1>   0.0800 
 27 H       -1.1560    -1.5490    -3.2780 H     1 <1>   0.0800 
 28 H        0.2300    -1.1290    -2.2530 H     1 <1>   0.0800 
 29 H       -4.0690    -1.9480     1.9420 H     1 <1>   0.1500 
 30 H       -3.9590    -4.1330     2.9230 H     1 <1>   0.0800 
 31 H       -2.5960    -5.1600     2.5260 H     1 <1>   0.0800 
 32 H       -3.8150    -5.8020     0.5110 H     1 <1>   0.4500 
 33 H       -5.8890    -4.0690     1.4970 H     1 <1>   0.0800 
 34 H       -5.4160    -4.5070    -0.1390 H     1 <1>   0.0800 
 35 H       -3.9370    -7.4990     2.0740 H     1 <1>   0.0800 
 36 H       -5.0030    -6.5370     3.0910 H     1 <1>   0.0800 
 37 H       -7.1160    -6.0730    -0.1140 H     1 <1>   0.0800 
 38 H       -6.6080    -7.8220     1.9870 H     1 <1>   0.0800 
 39 H       -7.3590    -5.6900     2.6970 H     1 <1>   0.4000 
 40 H       -6.4560    -8.3610    -0.4920 H     1 <1>   0.0800 
 41 H       -5.3540    -9.1920     0.5540 H     1 <1>   0.0800 
 42 H       -2.7460    -9.1530    -0.5290 H     1 <1>   0.1500 
 43 H       -0.4900    -7.6530    -1.4120 H     1 <1>   0.0800 
 44 H       -0.8530    -6.3640    -2.5370 H     1 <1>   0.0800 
 45 H       -1.1100    -8.0260    -3.0060 H     1 <1>   0.0800 
@<TRIPOS>BOND
  1   1   2  1   
  2   2   3  ar  
  3   2   4  ar  
  4   3   5  1   
  5   3   6  ar  
  6   4   7  ar  
  7   4  24  1   
  8   5   8  1   
  9   6   9  ar  
 10   6  25  1   
 11   7   9  ar  
 12   7  10  1   
 13   8  26  1   
 14   8  27  1   
 15   8  28  1   
 16   9  29  1   
 17  10  11  1   
 18  10  30  1   
 19  10  31  1   
 20  11  12  1   
 21  11  13  1   
 22  11  32  1   
 23  12  14  1   
 24  12  33  1   
 25  12  34  1   
 26  13  15  1   
 27  13  35  1   
 28  13  36  1   
 29  14  15  1   
 30  14  16  1   
 31  14  37  1   
 32  15  17  1   
 33  15  38  1   
 34  16  39  1   
 35  17  18  1   
 36  17  40  1   
 37  17  41  1   
 38  18  19  1   
 39  18  20  2   
 40  19  21  1   
 41  20  22  1   
 42  20  42  1   
 43  21  22  2   
 44  22  23  1   
 45  23  43  1   
 46  23  44  1   
 47  23  45  1   
@<TRIPOS>SUBSTRUCTURE
  1 ****  11 GROUP 4 **** **** 0

# MOE 2024.06 (io_trps.svl 2023.06)
