@<TRIPOS>MOLECULE
NONAME
44 46 1 0 0 
SMALL
USER_CHARGES


@<TRIPOS>ATOM
  1 O       -1.7020    -0.8380    -2.8850 O.2   1 <1>  -0.5700 
  2 C       -1.9560    -1.1210    -1.7470 C.2   1 <1>   0.5690 
  3 N       -1.9840    -0.1680    -0.8000 N.am  1 <1>  -0.7300 
  4 C       -2.2830    -2.5450    -1.3880 C.3   1 <1>  -0.0190 
  5 C       -2.2960    -0.3800     0.6320 C.3   1 <1>   0.2200 
  6 C       -1.2800    -3.1190    -0.3630 C.3   1 <1>   0.1200 
  7 C       -3.7710    -2.6240    -1.0190 C.3   1 <1>   0.3430 
  8 C       -1.2770    -1.3600     1.2670 C.3   1 <1>   0.1200 
  9 C       -3.7780    -0.8220     0.8040 C.3   1 <1>   0.3430 
 10 O       -1.5370    -2.7060     0.9530 O.3   1 <1>  -0.5600 
 11 N       -4.0700    -2.2480     0.4080 N.4   1 <1>  -0.9590 
 12 C       -5.4090    -2.7110     0.8600 C.3   1 <1>   0.4860 
 13 C       -5.4550    -4.2180     0.7490 C.ar  1 <1>  -0.1440 
 14 C       -6.2910    -4.8210    -0.1770 C.ar  1 <1>   0.1600 
 15 C       -4.6600    -5.0200     1.5480 C.ar  1 <1>  -0.1500 
 16 N       -6.3740    -6.1190    -0.3840 N.ar  1 <1>  -0.6200 
 17 C       -4.7520    -6.3770     1.3480 C.ar  1 <1>  -0.1500 
 18 C       -5.6080    -6.8910     0.3770 C.ar  1 <1>   0.4100 
 19 N       -5.6820    -8.2580     0.1780 N.pl3 1 <1>  -0.8380 
 20 C       -6.9430    -8.8570    -0.3400 C.3   1 <1>   0.1290 
 21 C       -4.4530    -9.0270    -0.1460 C.3   1 <1>   0.1290 
 22 H       -1.6940     0.7710    -1.1000 H     1 <1>   0.3700 
 23 H       -2.1570    -3.1100    -2.2950 H     1 <1>   0.0800 
 24 H       -2.1790     0.5730     1.1200 H     1 <1>   0.0800 
 25 H       -0.2680    -2.8490    -0.6220 H     1 <1>   0.0800 
 26 H       -1.3440    -4.1950    -0.3680 H     1 <1>   0.0800 
 27 H       -4.0840    -3.6430    -1.1820 H     1 <1>   0.0800 
 28 H       -4.3380    -2.0010    -1.6920 H     1 <1>   0.0800 
 29 H       -1.3310    -1.2790     2.3390 H     1 <1>   0.0800 
 30 H       -0.2700    -1.1160     0.9690 H     1 <1>   0.0800 
 31 H       -4.4050    -0.1510     0.2410 H     1 <1>   0.0800 
 32 H       -4.0290    -0.7020     1.8450 H     1 <1>   0.0800 
 33 H       -3.3700    -2.8060     0.9380 H     1 <1>   0.4500 
 34 H       -5.5740    -2.4290     1.8870 H     1 <1>   0.0800 
 35 H       -6.1820    -2.2670     0.2530 H     1 <1>   0.0800 
 36 H       -6.9290    -4.2100    -0.7950 H     1 <1>   0.1500 
 37 H       -3.9970    -4.6240     2.2990 H     1 <1>   0.1500 
 38 H       -4.1760    -7.0630     1.9390 H     1 <1>   0.1500 
 39 H       -7.0150    -9.8860    -0.0340 H     1 <1>   0.0800 
 40 H       -6.9610    -8.7980    -1.4140 H     1 <1>   0.0800 
 41 H       -7.7920    -8.3220     0.0520 H     1 <1>   0.0800 
 42 H       -4.3730    -9.8740     0.5140 H     1 <1>   0.0800 
 43 H       -3.5780    -8.4120    -0.0320 H     1 <1>   0.0800 
 44 H       -4.4960    -9.3760    -1.1630 H     1 <1>   0.0800 
@<TRIPOS>BOND
  1   1   2  2   
  2   2   3  am  
  3   2   4  1   
  4   3   5  1   
  5   3  22  1   
  6   4   6  1   
  7   4   7  1   
  8   4  23  1   
  9   5   8  1   
 10   5   9  1   
 11   5  24  1   
 12   6  10  1   
 13   6  25  1   
 14   6  26  1   
 15   7  11  1   
 16   7  27  1   
 17   7  28  1   
 18   8  10  1   
 19   8  29  1   
 20   8  30  1   
 21   9  11  1   
 22   9  31  1   
 23   9  32  1   
 24  11  12  1   
 25  11  33  1   
 26  12  13  1   
 27  12  34  1   
 28  12  35  1   
 29  13  14  ar  
 30  13  15  ar  
 31  14  16  ar  
 32  14  36  1   
 33  15  17  ar  
 34  15  37  1   
 35  16  18  ar  
 36  17  18  ar  
 37  17  38  1   
 38  18  19  1   
 39  19  20  1   
 40  19  21  1   
 41  20  39  1   
 42  20  40  1   
 43  20  41  1   
 44  21  42  1   
 45  21  43  1   
 46  21  44  1   
@<TRIPOS>SUBSTRUCTURE
  1 ****   7 GROUP 4 **** **** 0

# MOE 2024.06 (io_trps.svl 2023.06)
