@<TRIPOS>MOLECULE
NONAME
46 49 1 0 0 
SMALL
USER_CHARGES


@<TRIPOS>ATOM
  1 O        0.7790    -0.3240     1.3430 O.2   1 <1>  -0.5700 
  2 C        1.4420    -0.8520     0.4730 C.2   1 <1>   0.5440 
  3 N        2.2440    -0.0910    -0.3460 N.am  1 <1>  -0.4940 
  4 C        1.3900    -2.2880     0.2840 C.ar  1 <1>   0.0860 
  5 C        2.3590     1.3190    -0.4080 C.2   1 <1>  -0.0880 
  6 C        0.1760    -2.9690     0.3350 C.ar  1 <1>  -0.1500 
  7 C        2.5410    -3.0400     0.0430 C.ar  1 <1>  -0.1500 
  8 N        3.5330     2.0100    -0.4010 N.pl3 1 <1>   0.3140 
  9 C        1.3730     2.2440    -0.4980 C.2   1 <1>  -0.1810 
 10 C        0.0860    -4.3430     0.1420 C.ar  1 <1>  -0.0230 
 11 C        2.4750    -4.4070    -0.1540 C.ar  1 <1>  -0.1500 
 12 N        3.3180     3.3460    -0.5070 N.2   1 <1>  -0.7070 
 13 C        4.8970     1.4260    -0.2470 C.3   1 <1>   0.1760 
 14 C        2.0290     3.4680    -0.5530 C.2   1 <1>   0.1390 
 15 C       -0.1300     2.0420    -0.5330 C.3   1 <1>  -0.0590 
 16 N       -1.1780    -4.9990     0.1960 N.pl3 1 <1>   0.5930 
 17 C        1.2550    -5.0550    -0.1080 C.ar  1 <1>  -0.1500 
 18 C        5.6770     2.0050     0.9340 C.3   1 <1>  -0.1600 
 19 C        5.8050     1.6900    -1.4500 C.3   1 <1>  -0.1600 
 20 N       -2.3210    -4.4520    -0.2920 N.2   1 <1>  -0.7070 
 21 C       -1.4440    -6.2250     0.7120 C.2   1 <1>  -0.3020 
 22 C        7.1410     1.6950     0.6170 C.3   1 <1>  -0.1600 
 23 C        7.2360     1.5770    -0.9100 C.3   1 <1>  -0.1600 
 24 C       -3.2500    -5.3300    -0.0750 C.2   1 <1>   0.1390 
 25 C       -2.7610    -6.4670     0.5540 C.2   1 <1>  -0.1500 
 26 H        2.7210    -0.6060    -1.0840 H     1 <1>   0.3700 
 27 H       -0.7230    -2.4060     0.5290 H     1 <1>   0.1500 
 28 H        3.5000    -2.5530     0.0180 H     1 <1>   0.1500 
 29 H        3.3740    -4.9700    -0.3410 H     1 <1>   0.1500 
 30 H        4.8100     0.3660    -0.1050 H     1 <1>   0.0800 
 31 H        1.5300     4.4200    -0.6280 H     1 <1>   0.1500 
 32 H       -0.3670     1.0460    -0.8570 H     1 <1>   0.0800 
 33 H       -0.5850     2.7430    -1.2090 H     1 <1>   0.0800 
 34 H       -0.5350     2.1870     0.4530 H     1 <1>   0.0800 
 35 H        1.2140    -6.1190    -0.2700 H     1 <1>   0.1500 
 36 H        5.3650     1.5730     1.8690 H     1 <1>   0.0800 
 37 H        5.5450     3.0730     0.9690 H     1 <1>   0.0800 
 38 H        5.6460     2.6950    -1.8060 H     1 <1>   0.0800 
 39 H        5.6230     0.9940    -2.2490 H     1 <1>   0.0800 
 40 H       -0.6850    -6.8370     1.1600 H     1 <1>   0.1500 
 41 H        7.4190     0.7580     1.0680 H     1 <1>   0.0800 
 42 H        7.7900     2.4670     0.9960 H     1 <1>   0.0800 
 43 H        7.8520     2.3600    -1.3190 H     1 <1>   0.0800 
 44 H        7.6640     0.6260    -1.1770 H     1 <1>   0.0800 
 45 H       -4.2810    -5.1840    -0.3540 H     1 <1>   0.1500 
 46 H       -3.3350    -7.3310     0.8390 H     1 <1>   0.1500 
@<TRIPOS>BOND
  1   1   2  2   
  2   2   3  am  
  3   2   4  1   
  4   3   5  1   
  5   3  26  1   
  6   4   6  ar  
  7   4   7  ar  
  8   5   8  1   
  9   5   9  2   
 10   6  10  ar  
 11   6  27  1   
 12   7  11  ar  
 13   7  28  1   
 14   8  12  1   
 15   8  13  1   
 16   9  14  1   
 17   9  15  1   
 18  10  16  1   
 19  10  17  ar  
 20  11  17  ar  
 21  11  29  1   
 22  12  14  2   
 23  13  18  1   
 24  13  19  1   
 25  13  30  1   
 26  14  31  1   
 27  15  32  1   
 28  15  33  1   
 29  15  34  1   
 30  16  20  1   
 31  16  21  1   
 32  17  35  1   
 33  18  22  1   
 34  18  36  1   
 35  18  37  1   
 36  19  23  1   
 37  19  38  1   
 38  19  39  1   
 39  20  24  2   
 40  21  25  2   
 41  21  40  1   
 42  22  23  1   
 43  22  41  1   
 44  22  42  1   
 45  23  43  1   
 46  23  44  1   
 47  24  25  1   
 48  24  45  1   
 49  25  46  1   
@<TRIPOS>SUBSTRUCTURE
  1 ****   2 GROUP 4 **** **** 0

# MOE 2024.06 (io_trps.svl 2023.06)
