@<TRIPOS>MOLECULE
NONAME
47 49 1 0 0 
SMALL
USER_CHARGES


@<TRIPOS>ATOM
  1 O        0.2520    -0.4280    -0.7110 O.2   1 <1>  -0.5700 
  2 C        0.9330    -1.3540    -0.3460 C.2   1 <1>   0.5690 
  3 N        0.5130    -2.2930     0.5560 N.am  1 <1>  -0.6600 
  4 C        2.3320    -1.5000    -0.9070 C.3   1 <1>  -0.0990 
  5 C        1.4260    -3.3670     1.0130 C.3   1 <1>   0.1400 
  6 C       -0.8340    -2.2420     1.1880 C.3   1 <1>   0.0600 
  7 C        2.6000    -2.9680    -1.2880 C.3   1 <1>  -0.0800 
  8 C        2.1970    -3.9710    -0.1810 C.3   1 <1>  -0.0800 
  9 C        4.0730    -3.2390    -1.6280 C.3   1 <1>  -0.1600 
 10 C        3.4940    -4.6750     0.2380 C.3   1 <1>  -0.1600 
 11 C        4.3780    -4.5960    -1.0040 C.3   1 <1>   0.4230 
 12 N        5.8390    -4.8410    -0.7870 N.4   1 <1>  -0.9590 
 13 C        6.4800    -4.2970     0.4590 C.3   1 <1>   0.4860 
 14 C        6.1220    -6.3050    -0.8990 C.3   1 <1>   0.2630 
 15 C        6.6380    -2.7930     0.3780 C.ar  1 <1>  -0.1440 
 16 C        7.5250    -2.1840    -0.5090 C.ar  1 <1>   0.1670 
 17 C        5.8710    -1.9940     1.2090 C.ar  1 <1>  -0.1500 
 18 N        7.6430    -0.8770    -0.6440 N.ar  1 <1>  -0.6200 
 19 C        8.4570    -2.9630    -1.4240 C.3   1 <1>  -0.0970 
 20 C        6.0070    -0.6300     1.0800 C.ar  1 <1>  -0.1500 
 21 C        6.8920    -0.1280     0.1450 C.ar  1 <1>   0.1600 
 22 H        2.4370    -0.8680    -1.7700 H     1 <1>   0.0800 
 23 H        3.0240    -1.1640    -0.1570 H     1 <1>   0.0800 
 24 H        2.1080    -2.9360     1.7250 H     1 <1>   0.0800 
 25 H        0.8650    -4.1400     1.5120 H     1 <1>   0.0800 
 26 H       -1.3700    -3.1510     0.9780 H     1 <1>   0.0800 
 27 H       -1.4030    -1.4130     0.8020 H     1 <1>   0.0800 
 28 H       -0.7330    -2.1240     2.2530 H     1 <1>   0.0800 
 29 H        1.9970    -3.1860    -2.1560 H     1 <1>   0.0800 
 30 H        1.5510    -4.7050    -0.6360 H     1 <1>   0.0800 
 31 H        4.6830    -2.4600    -1.2160 H     1 <1>   0.0800 
 32 H        4.2150    -3.2610    -2.6940 H     1 <1>   0.0800 
 33 H        3.3040    -5.6920     0.5310 H     1 <1>   0.0800 
 34 H        3.9220    -4.1340     1.0580 H     1 <1>   0.0800 
 35 H        4.0070    -5.3320    -1.7000 H     1 <1>   0.0800 
 36 H        6.3100    -4.3610    -1.5660 H     1 <1>   0.4500 
 37 H        5.9000    -4.5630     1.3260 H     1 <1>   0.0800 
 38 H        7.4590    -4.7310     0.5820 H     1 <1>   0.0800 
 39 H        5.6380    -6.8430    -0.1000 H     1 <1>   0.0800 
 40 H        7.1830    -6.4900    -0.8460 H     1 <1>   0.0800 
 41 H        5.7570    -6.6860    -1.8390 H     1 <1>   0.0800 
 42 H        5.1870    -2.3960     1.9360 H     1 <1>   0.1500 
 43 H        8.6070    -3.9760    -1.1070 H     1 <1>   0.0800 
 44 H        9.4210    -2.4830    -1.4340 H     1 <1>   0.0800 
 45 H        8.0740    -2.9480    -2.4280 H     1 <1>   0.0800 
 46 H        5.4370     0.0440     1.6940 H     1 <1>   0.1500 
 47 H        6.9910     0.9400     0.0430 H     1 <1>   0.1500 
@<TRIPOS>BOND
  1   1   2  2   
  2   2   3  am  
  3   2   4  1   
  4   3   5  1   
  5   3   6  1   
  6   4   7  1   
  7   4  22  1   
  8   4  23  1   
  9   5   8  1   
 10   5  24  1   
 11   5  25  1   
 12   6  26  1   
 13   6  27  1   
 14   6  28  1   
 15   7   8  1   
 16   7   9  1   
 17   7  29  1   
 18   8  10  1   
 19   8  30  1   
 20   9  11  1   
 21   9  31  1   
 22   9  32  1   
 23  10  11  1   
 24  10  33  1   
 25  10  34  1   
 26  11  12  1   
 27  11  35  1   
 28  12  13  1   
 29  12  14  1   
 30  12  36  1   
 31  13  15  1   
 32  13  37  1   
 33  13  38  1   
 34  14  39  1   
 35  14  40  1   
 36  14  41  1   
 37  15  16  ar  
 38  15  17  ar  
 39  16  18  ar  
 40  16  19  1   
 41  17  20  ar  
 42  17  42  1   
 43  18  21  ar  
 44  19  43  1   
 45  19  44  1   
 46  19  45  1   
 47  20  21  ar  
 48  20  46  1   
 49  21  47  1   
@<TRIPOS>SUBSTRUCTURE
  1 ****   9 GROUP 4 **** **** 0

# MOE 2024.06 (io_trps.svl 2023.06)
