@<TRIPOS>MOLECULE
NONAME
22 23 1 0 0 
SMALL
USER_CHARGES


@<TRIPOS>ATOM
  1 S       -1.5600    -8.5160    -0.0950 S.3   1 <1>  -0.3610 
  2 C       -0.0480    -7.6870    -0.2690 C.cat 1 <1>   0.8400 
  3 C       -0.8180   -10.1400     0.3550 C.3   1 <1>   0.0700 
  4 N        0.9610    -8.4800    -0.0240 N.pl3 1 <1>  -0.7940 
  5 N       -0.0230    -6.4250    -0.6050 N.pl3 1 <1>  -0.7680 
  6 C        0.7040    -9.9020     0.3430 C.3   1 <1>   0.3290 
  7 C       -1.1010    -5.4160    -0.8540 C.3   1 <1>   0.4570 
  8 C        1.0230    -5.3720    -0.7960 C.3   1 <1>   0.4570 
  9 C       -0.0710    -4.3250    -0.4110 C.3   1 <1>   0.2100 
 10 N       -0.0900    -3.9590     1.0290 N.3   1 <1>  -0.9300 
 11 H       -1.1240   -10.8630    -0.3810 H     1 <1>   0.0800 
 12 H       -1.1810   -10.4150     1.3300 H     1 <1>   0.0800 
 13 H        1.9290    -8.1620    -0.0780 H     1 <1>   0.4500 
 14 H        1.1720   -10.5560    -0.3740 H     1 <1>   0.0800 
 15 H        1.1150   -10.1080     1.3180 H     1 <1>   0.0800 
 16 H       -1.9410    -5.5290    -0.1920 H     1 <1>   0.0000 
 17 H       -1.3560    -5.3710    -1.8990 H     1 <1>   0.0000 
 18 H        1.3310    -5.3170    -1.8260 H     1 <1>   0.0000 
 19 H        1.8310    -5.4590    -0.0910 H     1 <1>   0.0000 
 20 H       -0.0630    -3.4520    -1.0380 H     1 <1>   0.0000 
 21 H       -0.2760    -4.7860     1.6100 H     1 <1>   0.3600 
 22 H       -0.8410    -3.2810     1.2140 H     1 <1>   0.3600 
@<TRIPOS>BOND
  1   1   2  1   
  2   1   3  1   
  3   2   4  ar  
  4   2   5  ar  
  5   3   6  1   
  6   3  11  1   
  7   3  12  1   
  8   4   6  1   
  9   4  13  1   
 10   5   7  1   
 11   5   8  1   
 12   6  14  1   
 13   6  15  1   
 14   7   9  1   
 15   7  16  1   
 16   7  17  1   
 17   8   9  1   
 18   8  18  1   
 19   8  19  1   
 20   9  10  1   
 21   9  20  1   
 22  10  21  1   
 23  10  22  1   
@<TRIPOS>SUBSTRUCTURE
  1 ****   2 GROUP 4 **** **** 0

# MOE 2024.06 (io_trps.svl 2023.06)
