@<TRIPOS>MOLECULE
NONAME
40 42 1 0 0 
SMALL
USER_CHARGES


@<TRIPOS>ATOM
  1 N        0.5320     0.4870    -0.5160 N.ar  1 <1>  -0.6200 
  2 C       -0.1720    -0.1700    -1.4200 C.ar  1 <1>   0.7710 
  3 C        1.3180    -0.2160     0.2910 C.ar  1 <1>   0.4100 
  4 N       -0.1490    -1.5140    -1.5640 N.ar  1 <1>  -0.1260 
  5 N       -0.9360     0.5760    -2.2140 N.pl3 1 <1>  -0.9000 
  6 N        2.0730     0.4490     1.1910 N.pl3 1 <1>  -0.8690 
  7 C        1.3880    -1.6320     0.2130 C.ar  1 <1>   0.2270 
  8 C        0.6410    -2.2670    -0.7340 C.ar  1 <1>   0.1560 
  9 C        2.3300     1.8990     1.2450 C.3   1 <1>   0.3890 
 10 N        2.1010    -2.5540     0.9270 N.2   1 <1>  -0.5650 
 11 N        0.8840    -3.5870    -0.6160 N.pl3 1 <1>   0.0330 
 12 C        3.6740     2.1850     0.6050 C.2   1 <1>  -0.3320 
 13 C        1.7760    -3.6870     0.4080 C.2   1 <1>   0.0360 
 14 N        4.2110     3.4190     0.4940 N.pl3 1 <1>   0.0480 
 15 C        4.5620     1.3350     0.0400 C.2   1 <1>   0.0770 
 16 C        5.3940     3.2230    -0.1310 C.2   1 <1>   0.0360 
 17 C        3.6710     4.7190     0.9550 C.3   1 <1>   0.0960 
 18 N        5.6420     1.9890    -0.4220 N.2   1 <1>  -0.5650 
 19 C        2.6400     5.3040    -0.0300 C.3   1 <1>  -0.0800 
 20 C        3.2550     5.6020    -1.4060 C.3   1 <1>  -0.2400 
 21 C        2.0370     6.5900     0.5490 C.3   1 <1>  -0.2400 
 22 H       -0.7280    -1.9140    -2.2960 H     1 <1>   0.4570 
 23 H       -1.5550     0.2940    -2.9770 H     1 <1>   0.4000 
 24 H       -0.9090     1.5910    -2.0660 H     1 <1>   0.4000 
 25 H        2.7120    -0.0990     1.7790 H     1 <1>   0.4000 
 26 H        2.3350     2.2170     2.2740 H     1 <1>   0.0800 
 27 H        1.5540     2.4360     0.7280 H     1 <1>   0.0800 
 28 H        0.5100    -4.3760    -1.1530 H     1 <1>   0.2700 
 29 H        2.1630    -4.6400     0.7380 H     1 <1>   0.1500 
 30 H        4.4820     0.2650    -0.0610 H     1 <1>   0.1500 
 31 H        6.0580     4.0370    -0.3600 H     1 <1>   0.1500 
 32 H        4.4890     5.4060     1.0740 H     1 <1>   0.0800 
 33 H        3.2180     4.5750     1.9190 H     1 <1>   0.0800 
 34 H        1.8400     4.5940    -0.1580 H     1 <1>   0.0800 
 35 H        4.0810     6.2850    -1.3160 H     1 <1>   0.0800 
 36 H        2.5190     6.0410    -2.0570 H     1 <1>   0.0800 
 37 H        3.6060     4.6970    -1.8710 H     1 <1>   0.0800 
 38 H        2.7970     7.3390     0.6880 H     1 <1>   0.0800 
 39 H        1.5690     6.3940     1.4980 H     1 <1>   0.0800 
 40 H        1.2890     6.9840    -0.1160 H     1 <1>   0.0800 
@<TRIPOS>BOND
  1   1   2  ar  
  2   1   3  ar  
  3   2   4  ar  
  4   2   5  1   
  5   3   6  1   
  6   3   7  ar  
  7   4   8  ar  
  8   4  22  1   
  9   5  23  1   
 10   5  24  1   
 11   6   9  1   
 12   6  25  1   
 13   7   8  ar  
 14   7  10  1   
 15   8  11  1   
 16   9  12  1   
 17   9  26  1   
 18   9  27  1   
 19  10  13  2   
 20  11  13  1   
 21  11  28  1   
 22  12  14  1   
 23  12  15  2   
 24  13  29  1   
 25  14  16  1   
 26  14  17  1   
 27  15  18  1   
 28  15  30  1   
 29  16  18  2   
 30  16  31  1   
 31  17  19  1   
 32  17  32  1   
 33  17  33  1   
 34  19  20  1   
 35  19  21  1   
 36  19  34  1   
 37  20  35  1   
 38  20  36  1   
 39  20  37  1   
 40  21  38  1   
 41  21  39  1   
 42  21  40  1   
@<TRIPOS>SUBSTRUCTURE
  1 ****   6 GROUP 4 **** **** 0

# MOE 2024.06 (io_trps.svl 2023.06)
