@<TRIPOS>MOLECULE
NONAME
51 54 1 0 0 
SMALL
USER_CHARGES


@<TRIPOS>ATOM
  1 O        0.1810     0.8950     0.2790 O.2   1 <1>  -0.5700 
  2 C       -0.6010     1.7000     0.7330 C.2   1 <1>   0.5690 
  3 N       -1.9130     1.7170     0.3090 N.am  1 <1>  -0.6600 
  4 C       -0.0970     2.7000     1.7940 C.3   1 <1>   0.1810 
  5 C       -3.0250     2.5270     0.9040 C.3   1 <1>   0.1400 
  6 C       -2.3710     0.8440    -0.8120 C.3   1 <1>   0.1400 
  7 O        1.2220     3.1600     1.6140 O.3   1 <1>  -0.5600 
  8 C       -3.6660     3.4410    -0.1580 C.3   1 <1>   0.1430 
  9 C       -3.0230     1.7000    -1.9060 C.3   1 <1>  -0.1600 
 10 C        1.4720     3.8000     0.4060 C.3   1 <1>   0.1200 
 11 C       -4.7940     4.2160     0.4980 C.ar  1 <1>   0.1660 
 12 C       -4.1520     2.5840    -1.3480 C.3   1 <1>  -0.1600 
 13 C       -2.7030     4.5720    -0.6120 C.3   1 <1>  -0.1600 
 14 C        2.8840     4.3660     0.4740 C.3   1 <1>  -0.2400 
 15 N       -5.9450     3.7120     0.8690 N.ar  1 <1>  -0.6200 
 16 C       -4.4650     5.5230     0.6830 C.ar  1 <1>  -0.1440 
 17 C       -3.0740     5.8330     0.1890 C.3   1 <1>  -0.0170 
 18 C       -6.8060     4.5680     1.4360 C.ar  1 <1>   0.6200 
 19 C       -5.3960     6.3370     1.2730 C.ar  1 <1>   0.1600 
 20 N       -6.5640     5.8700     1.6520 N.ar  1 <1>  -0.6200 
 21 C       -8.1000     4.0420     1.8540 C.ar  1 <1>   0.0000 
 22 C       -8.6730     2.9260     1.2350 C.ar  1 <1>  -0.1500 
 23 C       -8.8300     4.6270     2.8930 C.ar  1 <1>  -0.1500 
 24 C       -9.8990     2.4220     1.6300 C.ar  1 <1>  -0.1500 
 25 C      -10.0570     4.1300     3.2930 C.ar  1 <1>  -0.1500 
 26 C      -10.5950     3.0240     2.6610 C.ar  1 <1>  -0.1500 
 27 H       -0.1310     2.2190     2.7530 H     1 <1>   0.0800 
 28 H       -0.7200     3.5710     1.8260 H     1 <1>   0.0800 
 29 H       -2.6950     3.1140     1.7390 H     1 <1>   0.0800 
 30 H       -3.7770     1.8510     1.2740 H     1 <1>   0.0800 
 31 H       -3.0830     0.1320    -0.4310 H     1 <1>   0.0800 
 32 H       -1.5470     0.2930    -1.2330 H     1 <1>   0.0800 
 33 H       -3.4190     1.0520    -2.6680 H     1 <1>   0.0800 
 34 H       -2.2640     2.3110    -2.3650 H     1 <1>   0.0800 
 35 H        0.7530     4.5890     0.2680 H     1 <1>   0.0800 
 36 H        1.3950     3.0820    -0.3950 H     1 <1>   0.0800 
 37 H       -4.5500     3.2150    -2.1230 H     1 <1>   0.0800 
 38 H       -4.9530     1.9470    -1.0120 H     1 <1>   0.0800 
 39 H       -2.8680     4.7840    -1.6540 H     1 <1>   0.0800 
 40 H       -1.6680     4.3110    -0.4880 H     1 <1>   0.0800 
 41 H        2.9620     5.0690     1.2840 H     1 <1>   0.0800 
 42 H        3.1210     4.8690    -0.4460 H     1 <1>   0.0800 
 43 H        3.5900     3.5690     0.6220 H     1 <1>   0.0800 
 44 H       -3.0590     6.7130    -0.4300 H     1 <1>   0.0800 
 45 H       -2.4120     5.9630     1.0270 H     1 <1>   0.0800 
 46 H       -5.1850     7.3800     1.4390 H     1 <1>   0.1500 
 47 H       -8.1480     2.4440     0.4290 H     1 <1>   0.1500 
 48 H       -8.4290     5.4890     3.3980 H     1 <1>   0.1500 
 49 H      -10.3110     1.5610     1.1330 H     1 <1>   0.1500 
 50 H      -10.5940     4.6040     4.0960 H     1 <1>   0.1500 
 51 H      -11.5500     2.6340     2.9700 H     1 <1>   0.1500 
@<TRIPOS>BOND
  1   1   2  2   
  2   2   3  am  
  3   2   4  1   
  4   3   5  1   
  5   3   6  1   
  6   4   7  1   
  7   4  27  1   
  8   4  28  1   
  9   5   8  1   
 10   5  29  1   
 11   5  30  1   
 12   6   9  1   
 13   6  31  1   
 14   6  32  1   
 15   7  10  1   
 16   8  11  1   
 17   8  12  1   
 18   8  13  1   
 19   9  12  1   
 20   9  33  1   
 21   9  34  1   
 22  10  14  1   
 23  10  35  1   
 24  10  36  1   
 25  11  15  ar  
 26  11  16  ar  
 27  12  37  1   
 28  12  38  1   
 29  13  17  1   
 30  13  39  1   
 31  13  40  1   
 32  14  41  1   
 33  14  42  1   
 34  14  43  1   
 35  15  18  ar  
 36  16  17  1   
 37  16  19  ar  
 38  17  44  1   
 39  17  45  1   
 40  18  20  ar  
 41  18  21  1   
 42  19  20  ar  
 43  19  46  1   
 44  21  22  ar  
 45  21  23  ar  
 46  22  24  ar  
 47  22  47  1   
 48  23  25  ar  
 49  23  48  1   
 50  24  26  ar  
 51  24  49  1   
 52  25  26  ar  
 53  25  50  1   
 54  26  51  1   
@<TRIPOS>SUBSTRUCTURE
  1 ****  11 GROUP 4 **** **** 0

# MOE 2024.06 (io_trps.svl 2023.06)
