@<TRIPOS>MOLECULE
NONAME
50 53 1 0 0 
SMALL
USER_CHARGES


@<TRIPOS>ATOM
  1 O       -0.2180     0.9470    -1.0740 O.2   1 <1>  -0.5700 
  2 C       -0.2240     2.1140    -0.7570 C.2   1 <1>   0.5690 
  3 N       -1.2750     2.7050    -0.1050 N.am  1 <1>  -0.5090 
  4 C        0.9910     2.9570    -1.1450 C.3   1 <1>   0.1810 
  5 C       -1.3290     4.1880     0.1100 C.3   1 <1>   0.3640 
  6 C       -2.4220     1.9290     0.4280 C.3   1 <1>   0.0490 
  7 O        1.0490     4.1880    -0.4700 O.3   1 <1>  -0.5600 
  8 C       -2.6450     4.7450    -0.4330 C.ar  1 <1>  -0.1440 
  9 C       -0.1440     4.9440    -0.5450 C.3   1 <1>   0.2610 
 10 C       -2.7360     2.0180     1.8900 C.3   1 <1>  -0.2000 
 11 C       -2.1660     0.7570     1.3240 C.3   1 <1>  -0.2000 
 12 C       -3.3880     5.6330     0.3330 C.ar  1 <1>   0.1600 
 13 C       -3.1230     4.3930    -1.6830 C.ar  1 <1>  -0.1500 
 14 C        0.0560     6.3430     0.0680 C.2   1 <1>   0.5690 
 15 N       -4.5360     6.1790    -0.0380 N.ar  1 <1>  -0.6200 
 16 C       -4.3170     4.9520    -2.0830 C.ar  1 <1>  -0.1500 
 17 O       -0.4970     6.5960     1.1170 O.2   1 <1>  -0.5700 
 18 N        0.8350     7.2880    -0.5610 N.am  1 <1>  -0.6600 
 19 C       -4.9730     5.8260    -1.2340 C.ar  1 <1>   0.1600 
 20 C        1.0380     8.6350     0.0510 C.3   1 <1>   0.2840 
 21 C        1.7000     7.0190    -1.7470 C.3   1 <1>   0.0600 
 22 C        2.4800     8.7920     0.5110 C.ar  1 <1>  -0.1440 
 23 C        2.9650     8.0040     1.5430 C.ar  1 <1>  -0.1500 
 24 C        3.3220     9.7150    -0.0930 C.ar  1 <1>  -0.1500 
 25 C        4.2760     8.1340     1.9680 C.ar  1 <1>  -0.1500 
 26 C        4.6330     9.8460     0.3300 C.ar  1 <1>  -0.1500 
 27 C        5.1110     9.0550     1.3610 C.ar  1 <1>  -0.1500 
 28 H        0.9740     3.1470    -2.2030 H     1 <1>   0.0800 
 29 H        1.8870     2.4130    -0.9070 H     1 <1>   0.0800 
 30 H       -1.2900     4.3470     1.1730 H     1 <1>   0.0800 
 31 H       -3.2390     1.8600    -0.2720 H     1 <1>   0.1000 
 32 H       -0.3720     5.0800    -1.5850 H     1 <1>   0.0800 
 33 H       -2.1100     2.5970     2.5450 H     1 <1>   0.1000 
 34 H       -3.7670     2.0160     2.1970 H     1 <1>   0.1000 
 35 H       -2.8050    -0.1030     1.2340 H     1 <1>   0.1000 
 36 H       -1.1460     0.4930     1.5420 H     1 <1>   0.1000 
 37 H       -3.0190     5.9190     1.3050 H     1 <1>   0.1500 
 38 H       -2.5970     3.7030    -2.3220 H     1 <1>   0.1500 
 39 H       -4.7410     4.7140    -3.0420 H     1 <1>   0.1500 
 40 H       -5.9070     6.2570    -1.5550 H     1 <1>   0.1500 
 41 H        0.7940     9.3890    -0.6750 H     1 <1>   0.0800 
 42 H        0.3840     8.7780     0.8950 H     1 <1>   0.0800 
 43 H        1.7130     7.8790    -2.3930 H     1 <1>   0.0800 
 44 H        1.3490     6.1770    -2.3130 H     1 <1>   0.0800 
 45 H        2.7050     6.8170    -1.4170 H     1 <1>   0.0800 
 46 H        2.3180     7.2840     2.0150 H     1 <1>   0.1500 
 47 H        2.9630    10.3350    -0.8950 H     1 <1>   0.1500 
 48 H        4.6440     7.5180     2.7700 H     1 <1>   0.1500 
 49 H        5.2830    10.5630    -0.1410 H     1 <1>   0.1500 
 50 H        6.1300     9.1570     1.6910 H     1 <1>   0.1500 
@<TRIPOS>BOND
  1   1   2  2   
  2   2   3  am  
  3   2   4  1   
  4   3   5  1   
  5   3   6  1   
  6   4   7  1   
  7   4  28  1   
  8   4  29  1   
  9   5   8  1   
 10   5   9  1   
 11   5  30  1   
 12   6  10  1   
 13   6  11  1   
 14   6  31  1   
 15   7   9  1   
 16   8  12  ar  
 17   8  13  ar  
 18   9  14  1   
 19   9  32  1   
 20  10  11  1   
 21  10  33  1   
 22  10  34  1   
 23  11  35  1   
 24  11  36  1   
 25  12  15  ar  
 26  12  37  1   
 27  13  16  ar  
 28  13  38  1   
 29  14  17  2   
 30  14  18  am  
 31  15  19  ar  
 32  16  19  ar  
 33  16  39  1   
 34  18  20  1   
 35  18  21  1   
 36  19  40  1   
 37  20  22  1   
 38  20  41  1   
 39  20  42  1   
 40  21  43  1   
 41  21  44  1   
 42  21  45  1   
 43  22  23  ar  
 44  22  24  ar  
 45  23  25  ar  
 46  23  46  1   
 47  24  26  ar  
 48  24  47  1   
 49  25  27  ar  
 50  25  48  1   
 51  26  27  ar  
 52  26  49  1   
 53  27  50  1   
@<TRIPOS>SUBSTRUCTURE
  1 ****   9 GROUP 4 **** **** 0

# MOE 2024.06 (io_trps.svl 2023.06)
