@<TRIPOS>MOLECULE
NONAME
36 37 1 0 0 
SMALL
USER_CHARGES


@<TRIPOS>ATOM
  1 O        1.6230    -0.0580    -0.8190 O.2   1 <1>  -0.5700 
  2 C        1.7350    -0.7350     0.1700 C.2   1 <1>   0.5690 
  3 N        2.4040    -0.3200     1.2800 N.am  1 <1>  -0.4940 
  4 C        1.0890    -2.1020     0.1930 C.3   1 <1>  -0.0990 
  5 C        2.9670     0.9240     1.5850 C.2   1 <1>   0.2510 
  6 C       -0.3390    -2.0260     0.7450 C.3   1 <1>   0.2200 
  7 N        2.9980     1.3340     2.8130 N.2   1 <1>  -0.3380 
  8 N        3.5350     1.8160     0.7410 N.pl3 1 <1>   0.3340 
  9 N       -0.8260    -3.3810     1.0790 N.am  1 <1>  -0.7300 
 10 C       -1.3210    -1.3040    -0.1800 C.3   1 <1>  -0.2400 
 11 N        3.5720     2.5350     2.8210 N.2   1 <1>  -0.3380 
 12 C        3.8910     2.8220     1.5930 C.2   1 <1>   0.3120 
 13 C        3.8980     1.9060    -0.5990 C.2   1 <1>  -0.1810 
 14 C       -1.2150    -4.4470     0.3410 C.2   1 <1>   0.5690 
 15 N        4.5220     3.9730     1.1750 N.2   1 <1>  -0.5760 
 16 C        4.5330     3.0300    -1.0120 C.2   1 <1>  -0.1360 
 17 O       -1.5410    -5.4550     0.9110 O.2   1 <1>  -0.5700 
 18 C       -1.2650    -4.4350    -1.1670 C.3   1 <1>  -0.1790 
 19 C        4.8210     4.0620    -0.0750 C.2   1 <1>   0.3750 
 20 C        5.5120     5.3110    -0.5750 C.3   1 <1>  -0.1790 
 21 H        2.3470    -0.9240     2.1000 H     1 <1>   0.3700 
 22 H        1.6810    -2.7580     0.8030 H     1 <1>   0.0800 
 23 H        1.0840    -2.4870    -0.8090 H     1 <1>   0.0800 
 24 H       -0.3090    -1.4730     1.6700 H     1 <1>   0.0800 
 25 H       -0.9030    -3.5590     2.0830 H     1 <1>   0.3700 
 26 H       -1.2700    -1.6830    -1.1830 H     1 <1>   0.0800 
 27 H       -1.0800    -0.2560    -0.2200 H     1 <1>   0.0800 
 28 H       -2.3250    -1.4000     0.1920 H     1 <1>   0.0800 
 29 H        3.6580     1.0810    -1.2430 H     1 <1>   0.1500 
 30 H        4.8340     3.1720    -2.0350 H     1 <1>   0.1500 
 31 H       -0.3640    -4.0260    -1.5780 H     1 <1>   0.0800 
 32 H       -2.1110    -3.8620    -1.4950 H     1 <1>   0.0800 
 33 H       -1.3760    -5.4410    -1.5280 H     1 <1>   0.0800 
 34 H        4.9100     5.7860    -1.3270 H     1 <1>   0.0800 
 35 H        6.4700     5.0580    -0.9900 H     1 <1>   0.0800 
 36 H        5.6600     6.0030     0.2360 H     1 <1>   0.0800 
@<TRIPOS>BOND
  1   1   2  2   
  2   2   3  am  
  3   2   4  1   
  4   3   5  1   
  5   3  21  1   
  6   4   6  1   
  7   4  22  1   
  8   4  23  1   
  9   5   7  2   
 10   5   8  1   
 11   6   9  1   
 12   6  10  1   
 13   6  24  1   
 14   7  11  1   
 15   8  12  1   
 16   8  13  1   
 17   9  14  am  
 18   9  25  1   
 19  10  26  1   
 20  10  27  1   
 21  10  28  1   
 22  11  12  2   
 23  12  15  1   
 24  13  16  2   
 25  13  29  1   
 26  14  17  2   
 27  14  18  1   
 28  15  19  2   
 29  16  19  1   
 30  16  30  1   
 31  18  31  1   
 32  18  32  1   
 33  18  33  1   
 34  19  20  1   
 35  20  34  1   
 36  20  35  1   
 37  20  36  1   
@<TRIPOS>SUBSTRUCTURE
  1 ****   3 GROUP 4 **** **** 0

# MOE 2024.06 (io_trps.svl 2023.06)
