@<TRIPOS>MOLECULE
NONAME
51 54 1 0 0 
SMALL
USER_CHARGES


@<TRIPOS>ATOM
  1 O        0.1720    -0.2690     0.9800 O.3   1 <1>  -0.5600 
  2 C        0.1510    -1.5900     0.5050 C.3   1 <1>   0.1200 
  3 C        1.1260     0.5330     0.3540 C.3   1 <1>   0.1200 
  4 C        1.5270    -2.2680     0.6820 C.3   1 <1>   0.3340 
  5 C        2.5330    -0.0480     0.5910 C.3   1 <1>   0.1900 
  6 N        2.6100    -1.4400     0.0870 N.3   1 <1>  -0.8100 
  7 C        1.5120    -3.6560     0.0480 C.ar  1 <1>  -0.1430 
  8 C        3.6010     0.8290    -0.0960 C.3   1 <1>   0.3430 
  9 C        3.9500    -2.0230     0.3090 C.3   1 <1>   0.1100 
 10 C        1.5500    -4.7880     0.8500 C.ar  1 <1>  -0.1500 
 11 C        1.4680    -3.8080    -1.3320 C.ar  1 <1>  -0.1500 
 12 N        4.9920     0.2600     0.0540 N.4   1 <1>  -0.9590 
 13 C        5.0400    -1.1790    -0.3790 C.3   1 <1>   0.3430 
 14 C        1.5480    -6.0500     0.2810 C.ar  1 <1>  -0.1500 
 15 C        1.4640    -5.0690    -1.9010 C.ar  1 <1>  -0.1500 
 16 C        5.9960     1.0850    -0.6650 C.3   1 <1>   0.5240 
 17 C        1.5060    -6.1910    -1.0940 C.ar  1 <1>  -0.1500 
 18 C        5.9640     2.4800    -0.0850 C.2   1 <1>  -0.1810 
 19 C        6.4650     2.8580     1.1540 C.2   1 <1>   0.1390 
 20 C        5.4550     3.6180    -0.6100 C.2   1 <1>  -0.3020 
 21 N        6.2690     4.1140     1.3920 N.2   1 <1>  -0.7070 
 22 N        5.6570     4.5960     0.2960 N.pl3 1 <1>   0.3140 
 23 C        5.2890     6.0230     0.1700 C.3   1 <1>   0.0960 
 24 C        6.2780     6.7730    -0.7310 C.3   1 <1>  -0.2400 
 25 H       -0.5970    -2.1290     1.0590 H     1 <1>   0.0800 
 26 H       -0.1350    -1.5780    -0.5320 H     1 <1>   0.0800 
 27 H        0.8960     0.5840    -0.6960 H     1 <1>   0.0800 
 28 H        1.0440     1.5190     0.7790 H     1 <1>   0.0800 
 29 H        1.7040    -2.3710     1.7400 H     1 <1>   0.0800 
 30 H        2.7140    -0.0370     1.6530 H     1 <1>   0.0800 
 31 H        3.5630     1.8200     0.3260 H     1 <1>   0.0800 
 32 H        3.3520     0.9050    -1.1420 H     1 <1>   0.0800 
 33 H        4.1520    -2.0980     1.3640 H     1 <1>   0.0800 
 34 H        3.9870    -3.0170    -0.1030 H     1 <1>   0.0800 
 35 H        1.5800    -4.7000     1.9220 H     1 <1>   0.1500 
 36 H        1.4380    -2.9400    -1.9670 H     1 <1>   0.1500 
 37 H        5.2210     0.3050     1.0530 H     1 <1>   0.4500 
 38 H        4.8870    -1.2430    -1.4440 H     1 <1>   0.0800 
 39 H        6.0060    -1.6010    -0.1560 H     1 <1>   0.0800 
 40 H        1.5770    -6.9240     0.9090 H     1 <1>   0.1500 
 41 H        1.4280    -5.1780    -2.9710 H     1 <1>   0.1500 
 42 H        6.9830     0.6680    -0.5460 H     1 <1>   0.0800 
 43 H        5.7620     1.1230    -1.7170 H     1 <1>   0.0800 
 44 H        1.5030    -7.1730    -1.5360 H     1 <1>   0.1500 
 45 H        6.9620     2.2100     1.8580 H     1 <1>   0.1500 
 46 H        4.9760     3.8020    -1.5560 H     1 <1>   0.1500 
 47 H        4.2950     6.0880    -0.2320 H     1 <1>   0.0800 
 48 H        5.2890     6.4580     1.1540 H     1 <1>   0.0800 
 49 H        6.2770     6.3600    -1.7230 H     1 <1>   0.0800 
 50 H        7.2710     6.7120    -0.3190 H     1 <1>   0.0800 
 51 H        6.0000     7.8100    -0.7920 H     1 <1>   0.0800 
@<TRIPOS>BOND
  1   1   2  1   
  2   1   3  1   
  3   2   4  1   
  4   2  25  1   
  5   2  26  1   
  6   3   5  1   
  7   3  27  1   
  8   3  28  1   
  9   4   6  1   
 10   4   7  1   
 11   4  29  1   
 12   5   6  1   
 13   5   8  1   
 14   5  30  1   
 15   6   9  1   
 16   7  10  ar  
 17   7  11  ar  
 18   8  12  1   
 19   8  31  1   
 20   8  32  1   
 21   9  13  1   
 22   9  33  1   
 23   9  34  1   
 24  10  14  ar  
 25  10  35  1   
 26  11  15  ar  
 27  11  36  1   
 28  12  13  1   
 29  12  16  1   
 30  12  37  1   
 31  13  38  1   
 32  13  39  1   
 33  14  17  ar  
 34  14  40  1   
 35  15  17  ar  
 36  15  41  1   
 37  16  18  1   
 38  16  42  1   
 39  16  43  1   
 40  17  44  1   
 41  18  19  1   
 42  18  20  2   
 43  19  21  2   
 44  19  45  1   
 45  20  22  1   
 46  20  46  1   
 47  21  22  1   
 48  22  23  1   
 49  23  24  1   
 50  23  47  1   
 51  23  48  1   
 52  24  49  1   
 53  24  50  1   
 54  24  51  1   
@<TRIPOS>SUBSTRUCTURE
  1 ****   5 GROUP 4 **** **** 0

# MOE 2024.06 (io_trps.svl 2023.06)
