@<TRIPOS>MOLECULE
NONAME
58 61 1 0 0 
SMALL
USER_CHARGES


@<TRIPOS>ATOM
  1 O       -3.5820     2.6250     2.6910 O.2   1 <1>  -0.5700 
  2 C       -3.5730     2.2940     1.5270 C.2   1 <1>   0.5690 
  3 N       -4.4700     1.3710     1.0420 N.am  1 <1>  -0.6600 
  4 C       -2.5310     2.9530     0.6180 C.3   1 <1>  -0.0190 
  5 C       -5.4490     0.7010     1.9450 C.3   1 <1>   0.1400 
  6 C       -4.6230     0.9540    -0.3820 C.3   1 <1>   0.1400 
  7 C       -1.2930     3.3550     1.4430 C.3   1 <1>   0.0960 
  8 C       -3.1390     4.1610    -0.1260 C.3   1 <1>  -0.2400 
  9 C       -5.2520    -0.8150     1.8670 C.3   1 <1>  -0.1600 
 10 C       -4.4100    -0.5580    -0.4890 C.3   1 <1>  -0.1600 
 11 N       -0.2120     3.8830     0.5900 N.pl3 1 <1>   0.3140 
 12 C       -5.3720    -1.3340     0.4240 C.3   1 <1>   0.4240 
 13 N        0.4510     3.1080    -0.2900 N.2   1 <1>  -0.7070 
 14 C        0.2460     5.1500     0.5640 C.2   1 <1>  -0.3020 
 15 O       -6.6610    -1.0200    -0.0500 O.3   1 <1>  -0.5600 
 16 C       -5.0900    -2.8500     0.3470 C.ar  1 <1>  -0.1440 
 17 C        1.3130     3.9010    -0.8500 C.2   1 <1>   0.1390 
 18 C        1.2320     5.1970    -0.3560 C.2   1 <1>  -0.1500 
 19 C       -7.6980    -1.8940     0.2740 C.3   1 <1>   0.1200 
 20 C       -6.0710    -3.7470    -0.0540 C.ar  1 <1>  -0.1440 
 21 C       -3.8410    -3.3530     0.6860 C.ar  1 <1>  -0.1500 
 22 C       -7.4490    -3.2290    -0.4200 C.3   1 <1>  -0.0170 
 23 C       -5.8030    -5.1050    -0.1180 C.ar  1 <1>  -0.1500 
 24 C       -3.5530    -4.7060     0.6250 C.ar  1 <1>   0.0820 
 25 C       -4.5510    -5.6080     0.2250 C.ar  1 <1>   0.0820 
 26 O       -2.2760    -5.0310     0.9790 O.3   1 <1>  -0.3630 
 27 O       -4.2930    -6.9490     0.1960 O.3   1 <1>  -0.3620 
 28 C       -1.6190    -6.1490     0.4240 C.3   1 <1>   0.0400 
 29 C       -5.3020    -7.9060    -0.0440 C.3   1 <1>   0.0400 
 30 H       -2.1970     2.2220    -0.0950 H     1 <1>   0.0800 
 31 H       -6.4480     0.9610     1.6380 H     1 <1>   0.0800 
 32 H       -5.3200     1.0270     2.9630 H     1 <1>   0.0800 
 33 H       -3.9300     1.4610    -1.0270 H     1 <1>   0.0800 
 34 H       -5.6170     1.2050    -0.7140 H     1 <1>   0.0800 
 35 H       -0.9130     2.4960     1.9650 H     1 <1>   0.0800 
 36 H       -1.5570     4.1020     2.1690 H     1 <1>   0.0800 
 37 H       -3.4170     4.9290     0.5750 H     1 <1>   0.0800 
 38 H       -4.0200     3.8630    -0.6670 H     1 <1>   0.0800 
 39 H       -2.4350     4.5690    -0.8300 H     1 <1>   0.0800 
 40 H       -5.9630    -1.3110     2.5000 H     1 <1>   0.0800 
 41 H       -4.2760    -1.0430     2.2530 H     1 <1>   0.0800 
 42 H       -3.3920    -0.7750    -0.2270 H     1 <1>   0.0800 
 43 H       -4.5580    -0.8780    -1.5040 H     1 <1>   0.0800 
 44 H       -0.1460     5.9310     1.1890 H     1 <1>   0.1500 
 45 H        2.0070     3.5810    -1.6090 H     1 <1>   0.1500 
 46 H        1.8380     6.0310    -0.6600 H     1 <1>   0.1500 
 47 H       -8.6180    -1.4560    -0.0710 H     1 <1>   0.0800 
 48 H       -7.7420    -2.0130     1.3420 H     1 <1>   0.0800 
 49 H       -3.0560    -2.6930     1.0090 H     1 <1>   0.1500 
 50 H       -7.5160    -3.0970    -1.4850 H     1 <1>   0.0800 
 51 H       -8.2040    -3.9310    -0.1160 H     1 <1>   0.0800 
 52 H       -6.5900    -5.7590    -0.4380 H     1 <1>   0.1500 
 53 H       -0.5620    -6.0190     0.5620 H     1 <1>   0.0800 
 54 H       -1.8510    -6.2090    -0.6240 H     1 <1>   0.0800 
 55 H       -1.9460    -7.0340     0.9400 H     1 <1>   0.0800 
 56 H       -4.8640    -8.8830     0.0510 H     1 <1>   0.0800 
 57 H       -5.6800    -7.7720    -1.0410 H     1 <1>   0.0800 
 58 H       -6.0810    -7.7830     0.6880 H     1 <1>   0.0800 
@<TRIPOS>BOND
  1   1   2  2   
  2   2   3  am  
  3   2   4  1   
  4   3   5  1   
  5   3   6  1   
  6   4   7  1   
  7   4   8  1   
  8   4  30  1   
  9   5   9  1   
 10   5  31  1   
 11   5  32  1   
 12   6  10  1   
 13   6  33  1   
 14   6  34  1   
 15   7  11  1   
 16   7  35  1   
 17   7  36  1   
 18   8  37  1   
 19   8  38  1   
 20   8  39  1   
 21   9  12  1   
 22   9  40  1   
 23   9  41  1   
 24  10  12  1   
 25  10  42  1   
 26  10  43  1   
 27  11  13  1   
 28  11  14  1   
 29  12  15  1   
 30  12  16  1   
 31  13  17  2   
 32  14  18  2   
 33  14  44  1   
 34  15  19  1   
 35  16  20  ar  
 36  16  21  ar  
 37  17  18  1   
 38  17  45  1   
 39  18  46  1   
 40  19  22  1   
 41  19  47  1   
 42  19  48  1   
 43  20  22  1   
 44  20  23  ar  
 45  21  24  ar  
 46  21  49  1   
 47  22  50  1   
 48  22  51  1   
 49  23  25  ar  
 50  23  52  1   
 51  24  25  ar  
 52  24  26  1   
 53  25  27  1   
 54  26  28  1   
 55  27  29  1   
 56  28  53  1   
 57  28  54  1   
 58  28  55  1   
 59  29  56  1   
 60  29  57  1   
 61  29  58  1   
@<TRIPOS>SUBSTRUCTURE
  1 ****  10 GROUP 4 **** **** 0

# MOE 2024.06 (io_trps.svl 2023.06)
