@<TRIPOS>MOLECULE
NONAME
51 54 1 0 0 
SMALL
USER_CHARGES


@<TRIPOS>ATOM
  1 O        2.5070    -0.1180    -0.1500 O.2   1 <1>  -0.5700 
  2 C        3.1510     0.0660     0.8780 C.2   1 <1>   0.6160 
  3 N        2.5580    -0.2280     2.1010 N.am  1 <1>  -0.4690 
  4 C        4.4870     0.5840     0.8650 C.2   1 <1>   0.0290 
  5 C        3.2430    -0.0390     3.2780 C.2   1 <1>  -0.0410 
  6 C        1.1750    -0.7760     2.1310 C.3   1 <1>   0.0600 
  7 C        5.1080     0.9030    -0.3920 C.2   1 <1>   0.6160 
  8 C        5.1460     0.7550     2.0570 C.2   1 <1>  -0.1500 
  9 C        4.5150     0.4420     3.2760 C.2   1 <1>  -0.1500 
 10 O        6.2720     0.5970    -0.5870 O.2   1 <1>  -0.5700 
 11 N        4.5170     1.6730    -1.3720 N.am  1 <1>  -0.6600 
 12 C        5.0130     1.6270    -2.7840 C.3   1 <1>   0.1400 
 13 C        3.6230     2.8140    -1.0550 C.3   1 <1>   0.1400 
 14 C        6.3400     2.3990    -2.9520 C.3   1 <1>   0.3430 
 15 C        4.4620     4.0480    -0.6920 C.3   1 <1>  -0.1600 
 16 N        6.5700     3.3500    -1.8200 N.4   1 <1>  -0.9590 
 17 C        5.5540     4.4350    -1.7010 C.3   1 <1>   0.3430 
 18 C        7.9840     3.8040    -1.6840 C.3   1 <1>   0.5240 
 19 C        8.2440     4.2960    -0.2640 C.2   1 <1>   0.1080 
 20 N        7.6080     3.8670     0.7720 N.2   1 <1>  -0.4100 
 21 C        9.1840     5.2590     0.1020 C.2   1 <1>  -0.1500 
 22 O        8.0980     4.5130     1.7910 O.3   1 <1>  -0.0190 
 23 C        9.0370     5.3470     1.4330 C.2   1 <1>   0.0550 
 24 C        9.7370     6.1920     2.4790 C.3   1 <1>  -0.0150 
 25 C       11.1290     6.6980     2.2660 C.3   1 <1>  -0.2000 
 26 C       10.8630     5.6160     3.2740 C.3   1 <1>  -0.2000 
 27 H        2.7420    -0.2860     4.2010 H     1 <1>   0.1500 
 28 H        0.5010    -0.0770     1.6680 H     1 <1>   0.0800 
 29 H        0.8580    -0.9560     3.1420 H     1 <1>   0.0800 
 30 H        1.1460    -1.7020     1.5820 H     1 <1>   0.0800 
 31 H        6.1570     1.1280     2.0830 H     1 <1>   0.1500 
 32 H        5.0580     0.5890     4.1940 H     1 <1>   0.1500 
 33 H        4.2680     2.0350    -3.4460 H     1 <1>   0.0800 
 34 H        5.1650     0.6010    -3.0730 H     1 <1>   0.0800 
 35 H        2.9750     2.5620    -0.2320 H     1 <1>   0.0800 
 36 H        2.9920     3.0240    -1.9030 H     1 <1>   0.0800 
 37 H        6.3490     2.9150    -3.8980 H     1 <1>   0.0800 
 38 H        7.1350     1.6710    -2.9640 H     1 <1>   0.0800 
 39 H        4.9040     3.9030     0.2770 H     1 <1>   0.0800 
 40 H        3.7900     4.8820    -0.5930 H     1 <1>   0.0800 
 41 H        6.4250     2.7530    -0.9800 H     1 <1>   0.4500 
 42 H        6.0290     5.3380    -1.3520 H     1 <1>   0.0800 
 43 H        5.1130     4.6390    -2.6640 H     1 <1>   0.0800 
 44 H        8.1930     4.5890    -2.3900 H     1 <1>   0.0800 
 45 H        8.6480     2.9780    -1.8790 H     1 <1>   0.0800 
 46 H        9.8630     5.7960    -0.5350 H     1 <1>   0.1500 
 47 H        9.0510     6.8370     3.0010 H     1 <1>   0.1000 
 48 H       11.3800     7.6830     2.6210 H     1 <1>   0.1000 
 49 H       11.6620     6.4350     1.3700 H     1 <1>   0.1000 
 50 H       11.1850     4.6120     3.0580 H     1 <1>   0.1000 
 51 H       10.9250     5.8520     4.3230 H     1 <1>   0.1000 
@<TRIPOS>BOND
  1   1   2  2   
  2   2   3  am  
  3   2   4  1   
  4   3   5  1   
  5   3   6  1   
  6   4   7  1   
  7   4   8  2   
  8   5   9  2   
  9   5  27  1   
 10   6  28  1   
 11   6  29  1   
 12   6  30  1   
 13   7  10  2   
 14   7  11  am  
 15   8   9  1   
 16   8  31  1   
 17   9  32  1   
 18  11  12  1   
 19  11  13  1   
 20  12  14  1   
 21  12  33  1   
 22  12  34  1   
 23  13  15  1   
 24  13  35  1   
 25  13  36  1   
 26  14  16  1   
 27  14  37  1   
 28  14  38  1   
 29  15  17  1   
 30  15  39  1   
 31  15  40  1   
 32  16  17  1   
 33  16  18  1   
 34  16  41  1   
 35  17  42  1   
 36  17  43  1   
 37  18  19  1   
 38  18  44  1   
 39  18  45  1   
 40  19  20  2   
 41  19  21  1   
 42  20  22  1   
 43  21  23  2   
 44  21  46  1   
 45  22  23  1   
 46  23  24  1   
 47  24  25  1   
 48  24  26  1   
 49  24  47  1   
 50  25  26  1   
 51  25  48  1   
 52  25  49  1   
 53  26  50  1   
 54  26  51  1   
@<TRIPOS>SUBSTRUCTURE
  1 ****  20 GROUP 4 **** **** 0

# MOE 2024.06 (io_trps.svl 2023.06)
