@<TRIPOS>MOLECULE
NONAME
55 57 1 0 0 
SMALL
USER_CHARGES


@<TRIPOS>ATOM
  1 O        1.4500    -0.9400    -2.2050 O.2   1 <1>  -0.5700 
  2 C        1.9890    -1.1960    -1.1480 C.2   1 <1>   0.7150 
  3 N        2.8510    -0.2650    -0.6040 N.am  1 <1>  -0.6600 
  4 C        1.7320    -2.4420    -0.4960 C.2   1 <1>  -0.2370 
  5 C        3.3160    -0.3570     0.8310 C.3   1 <1>   0.2200 
  6 C        3.1910     0.9540    -1.4090 C.3   1 <1>   0.1400 
  7 N        0.4890    -2.8640    -0.1520 N.pl3 1 <1>   0.3140 
  8 C        2.5770    -3.4280    -0.0830 C.2   1 <1>  -0.1500 
  9 C        3.0080     0.9130     1.6400 C.3   1 <1>   0.1200 
 10 C        4.8210    -0.7100     0.9040 C.3   1 <1>   0.3430 
 11 C        4.3740     1.7880    -0.8800 C.3   1 <1>  -0.0800 
 12 N        0.5230    -4.0390     0.4930 N.2   1 <1>  -0.7070 
 13 C       -0.8000    -2.1800    -0.4040 C.3   1 <1>   0.0960 
 14 C        1.7740    -4.3800     0.5170 C.2   1 <1>   0.1080 
 15 O        4.0350     1.8480     1.5030 O.3   1 <1>  -0.5600 
 16 N        5.5420    -0.4380    -0.3910 N.4   1 <1>  -0.9590 
 17 C        3.9930     2.6210     0.3520 C.3   1 <1>   0.1200 
 18 C        5.7000     1.0250    -0.6770 C.3   1 <1>   0.3430 
 19 C       -1.0080    -0.9990     0.5540 C.3   1 <1>  -0.2400 
 20 C        2.2510    -5.6810     1.1400 C.3   1 <1>   0.0210 
 21 C        6.8550    -1.1440    -0.4460 C.3   1 <1>   0.2630 
 22 C        3.0490    -6.5630     0.1590 C.3   1 <1>  -0.0800 
 23 C        2.2000    -6.9680    -1.0540 C.3   1 <1>  -0.2400 
 24 C        3.5640    -7.8210     0.8700 C.3   1 <1>  -0.2400 
 25 H        2.7730    -1.1410     1.3300 H     1 <1>   0.0800 
 26 H        3.4140     0.6440    -2.4170 H     1 <1>   0.0800 
 27 H        2.3140     1.5780    -1.4660 H     1 <1>   0.0800 
 28 H        3.6430    -3.4910    -0.1940 H     1 <1>   0.1500 
 29 H        2.9660     0.6620     2.6860 H     1 <1>   0.0800 
 30 H        2.0630     1.3490     1.3620 H     1 <1>   0.0800 
 31 H        4.8990    -1.7580     1.1380 H     1 <1>   0.0800 
 32 H        5.2820    -0.1640     1.7110 H     1 <1>   0.0800 
 33 H        4.5700     2.5200    -1.6440 H     1 <1>   0.0800 
 34 H       -0.8240    -1.8470    -1.4260 H     1 <1>   0.0800 
 35 H       -1.5890    -2.8980    -0.2690 H     1 <1>   0.0800 
 36 H        4.9090    -0.8050    -1.1220 H     1 <1>   0.4500 
 37 H        3.0140     3.0620     0.2550 H     1 <1>   0.0800 
 38 H        4.7040     3.4180     0.4890 H     1 <1>   0.0800 
 39 H        6.2540     1.4930     0.1210 H     1 <1>   0.0800 
 40 H        6.2810     1.1320    -1.5790 H     1 <1>   0.0800 
 41 H       -0.2580    -0.2450     0.3980 H     1 <1>   0.0800 
 42 H       -0.9740    -1.3410     1.5730 H     1 <1>   0.0800 
 43 H       -1.9720    -0.5580     0.3750 H     1 <1>   0.0800 
 44 H        2.8590    -5.4450     1.9940 H     1 <1>   0.0800 
 45 H        1.3930    -6.2260     1.4940 H     1 <1>   0.0800 
 46 H        7.5130    -0.7710     0.3220 H     1 <1>   0.0800 
 47 H        7.3220    -0.9900    -1.4050 H     1 <1>   0.0800 
 48 H        6.7170    -2.2030    -0.2990 H     1 <1>   0.0800 
 49 H        3.9000    -6.0070    -0.1940 H     1 <1>   0.0800 
 50 H        1.3270    -7.5140    -0.7400 H     1 <1>   0.0800 
 51 H        2.7700    -7.5880    -1.7230 H     1 <1>   0.0800 
 52 H        1.8750    -6.0990    -1.5990 H     1 <1>   0.0800 
 53 H        2.7420    -8.4140     1.2320 H     1 <1>   0.0800 
 54 H        4.1880    -7.5550     1.7050 H     1 <1>   0.0800 
 55 H        4.1450    -8.4220     0.1930 H     1 <1>   0.0800 
@<TRIPOS>BOND
  1   1   2  2   
  2   2   3  am  
  3   2   4  1   
  4   3   5  1   
  5   3   6  1   
  6   4   7  1   
  7   4   8  2   
  8   5   9  1   
  9   5  10  1   
 10   5  25  1   
 11   6  11  1   
 12   6  26  1   
 13   6  27  1   
 14   7  12  1   
 15   7  13  1   
 16   8  14  1   
 17   8  28  1   
 18   9  15  1   
 19   9  29  1   
 20   9  30  1   
 21  10  16  1   
 22  10  31  1   
 23  10  32  1   
 24  11  17  1   
 25  11  18  1   
 26  11  33  1   
 27  12  14  2   
 28  13  19  1   
 29  13  34  1   
 30  13  35  1   
 31  14  20  1   
 32  15  17  1   
 33  16  18  1   
 34  16  21  1   
 35  16  36  1   
 36  17  37  1   
 37  17  38  1   
 38  18  39  1   
 39  18  40  1   
 40  19  41  1   
 41  19  42  1   
 42  19  43  1   
 43  20  22  1   
 44  20  44  1   
 45  20  45  1   
 46  21  46  1   
 47  21  47  1   
 48  21  48  1   
 49  22  23  1   
 50  22  24  1   
 51  22  49  1   
 52  23  50  1   
 53  23  51  1   
 54  23  52  1   
 55  24  53  1   
 56  24  54  1   
 57  24  55  1   
@<TRIPOS>SUBSTRUCTURE
  1 ****   4 GROUP 4 **** **** 0

# MOE 2024.06 (io_trps.svl 2023.06)
