@<TRIPOS>MOLECULE
NONAME
50 53 1 0 0 
SMALL
USER_CHARGES


@<TRIPOS>ATOM
  1 O       -1.2820    -0.8610     0.6850 O.3   1 <1>  -0.5600 
  2 C       -0.0730    -1.1710     0.0600 C.3   1 <1>   0.1200 
  3 C       -2.2310    -1.8870     0.6360 C.3   1 <1>   0.1200 
  4 C        0.5850    -2.3900     0.7350 C.3   1 <1>   0.2090 
  5 C       -1.6990    -3.1490     1.3370 C.3   1 <1>   0.2090 
  6 N       -0.3580    -3.5640     0.7760 N.pl3 1 <1>  -0.8380 
  7 C       -0.1210    -4.8370     0.3570 C.ar  1 <1>   0.7710 
  8 N       -1.1230    -5.7050     0.3140 N.ar  1 <1>  -0.6200 
  9 N        1.1280    -5.1900     0.0010 N.ar  1 <1>  -0.1790 
 10 C       -0.8720    -6.9230    -0.1010 C.ar  1 <1>   0.4100 
 11 C        1.4320    -6.4400    -0.4260 C.ar  1 <1>   0.2180 
 12 N       -1.9290    -7.7440    -0.1250 N.pl3 1 <1>  -0.8690 
 13 C        0.4170    -7.3340    -0.4840 C.ar  1 <1>  -0.1500 
 14 C        2.8710    -6.7680    -0.8080 C.3   1 <1>  -0.0170 
 15 C       -2.0250    -9.1310    -0.6280 C.3   1 <1>   0.4330 
 16 C        3.8280    -6.6460     0.3850 C.3   1 <1>  -0.2400 
 17 C       -3.4860    -9.4870    -0.7660 C.ar  1 <1>  -0.1440 
 18 C       -1.5080   -10.1560     0.4130 C.3   1 <1>   0.2000 
 19 C       -3.8820   -10.3690     0.2110 C.ar  1 <1>  -0.1440 
 20 C       -4.3840    -9.0400    -1.7200 C.ar  1 <1>  -0.1500 
 21 O       -0.8760   -11.2070    -0.2480 O.3   1 <1>  -0.6800 
 22 C       -2.7440   -10.7040     1.1470 C.3   1 <1>  -0.0170 
 23 C       -5.1830   -10.8340     0.2600 C.ar  1 <1>  -0.1500 
 24 C       -5.6910    -9.5000    -1.6780 C.ar  1 <1>  -0.1500 
 25 C       -6.0880   -10.3930    -0.6940 C.ar  1 <1>  -0.1500 
 26 H       -0.2650    -1.3620    -0.9820 H     1 <1>   0.0800 
 27 H        0.5640    -0.3090     0.1420 H     1 <1>   0.0800 
 28 H       -3.1190    -1.5350     1.1310 H     1 <1>   0.0800 
 29 H       -2.4690    -2.0930    -0.3930 H     1 <1>   0.0800 
 30 H        0.8550    -2.1150     1.7420 H     1 <1>   0.0800 
 31 H        1.4870    -2.6230     0.2010 H     1 <1>   0.0800 
 32 H       -2.4380    -3.9240     1.2400 H     1 <1>   0.0800 
 33 H       -1.5940    -2.9390     2.3880 H     1 <1>   0.0800 
 34 H        1.8380    -4.4790     0.1040 H     1 <1>   0.4570 
 35 H       -2.8370    -7.3710     0.1710 H     1 <1>   0.4000 
 36 H        0.5720    -8.3470    -0.8090 H     1 <1>   0.1500 
 37 H        2.9180    -7.7770    -1.1840 H     1 <1>   0.0800 
 38 H        3.1940    -6.1170    -1.6020 H     1 <1>   0.0800 
 39 H       -1.5080    -9.2260    -1.5670 H     1 <1>   0.0800 
 40 H        3.5160    -7.2950     1.1860 H     1 <1>   0.0800 
 41 H        3.8780    -5.6370     0.7540 H     1 <1>   0.0800 
 42 H        4.8200    -6.9410     0.0860 H     1 <1>   0.0800 
 43 H       -0.7950    -9.7180     1.0890 H     1 <1>   0.0800 
 44 H       -4.0750    -8.3470    -2.4830 H     1 <1>   0.1500 
 45 H       -1.5410   -11.7400    -0.7330 H     1 <1>   0.4000 
 46 H       -2.6710   -11.7580     1.3500 H     1 <1>   0.0800 
 47 H       -2.8870   -10.1690     2.0680 H     1 <1>   0.0800 
 48 H       -5.4920   -11.5240     1.0250 H     1 <1>   0.1500 
 49 H       -6.4010    -9.1630    -2.4130 H     1 <1>   0.1500 
 50 H       -7.1050   -10.7450    -0.6690 H     1 <1>   0.1500 
@<TRIPOS>BOND
  1   1   2  1   
  2   1   3  1   
  3   2   4  1   
  4   2  26  1   
  5   2  27  1   
  6   3   5  1   
  7   3  28  1   
  8   3  29  1   
  9   4   6  1   
 10   4  30  1   
 11   4  31  1   
 12   5   6  1   
 13   5  32  1   
 14   5  33  1   
 15   6   7  1   
 16   7   8  ar  
 17   7   9  ar  
 18   8  10  ar  
 19   9  11  ar  
 20   9  34  1   
 21  10  12  1   
 22  10  13  ar  
 23  11  13  ar  
 24  11  14  1   
 25  12  15  1   
 26  12  35  1   
 27  13  36  1   
 28  14  16  1   
 29  14  37  1   
 30  14  38  1   
 31  15  17  1   
 32  15  18  1   
 33  15  39  1   
 34  16  40  1   
 35  16  41  1   
 36  16  42  1   
 37  17  19  ar  
 38  17  20  ar  
 39  18  21  1   
 40  18  22  1   
 41  18  43  1   
 42  19  22  1   
 43  19  23  ar  
 44  20  24  ar  
 45  20  44  1   
 46  21  45  1   
 47  22  46  1   
 48  22  47  1   
 49  23  25  ar  
 50  23  48  1   
 51  24  25  ar  
 52  24  49  1   
 53  25  50  1   
@<TRIPOS>SUBSTRUCTURE
  1 ****  10 GROUP 4 **** **** 0

# MOE 2024.06 (io_trps.svl 2023.06)
