@<TRIPOS>MOLECULE
NONAME
52 54 1 0 0 
SMALL
USER_CHARGES


@<TRIPOS>ATOM
  1 O        2.5220    -1.2970     1.1680 O.co2 1 <1>  -0.9000 
  2 C        2.8030    -0.5860     0.2070 C.2   1 <1>   0.9060 
  3 O        3.8260    -0.7970    -0.4690 O.co2 1 <1>  -0.9000 
  4 C        2.0160     0.7210    -0.0080 C.3   1 <1>  -0.1060 
  5 C        2.5320     1.5290    -1.2400 C.3   1 <1>   0.2000 
  6 C        2.2880     1.6090     1.2370 C.3   1 <1>  -0.1600 
  7 C        0.5150     0.3650    -0.1540 C.3   1 <1>  -0.0170 
  8 O        2.7540     0.6770    -2.3100 O.3   1 <1>  -0.6800 
  9 C        3.8360     2.3100    -0.9430 C.3   1 <1>   0.3430 
 10 C        3.8000     1.8040     1.4800 C.3   1 <1>   0.3430 
 11 C       -0.4110     1.5680    -0.3110 C.ar  1 <1>  -0.1440 
 12 N        4.5790     1.7030     0.2030 N.4   1 <1>  -0.9590 
 13 C       -0.9290     2.2080     0.8050 C.ar  1 <1>  -0.1500 
 14 C       -0.7590     2.0240    -1.5740 C.ar  1 <1>  -0.1500 
 15 C        5.9900     2.1630     0.3400 C.3   1 <1>   0.4860 
 16 C       -1.7660     3.3010     0.6620 C.ar  1 <1>  -0.1500 
 17 C       -1.5960     3.1170    -1.7200 C.ar  1 <1>  -0.1500 
 18 C        6.1340     3.6870     0.2740 C.ar  1 <1>   0.1670 
 19 C       -2.0980     3.7580    -0.6010 C.ar  1 <1>  -0.1500 
 20 N        5.5530     4.4010     1.2310 N.ar  1 <1>  -0.6200 
 21 C        6.8530     4.2450    -0.7730 C.ar  1 <1>  -0.1500 
 22 C        5.7000     5.7140     1.1400 C.ar  1 <1>   0.1600 
 23 C        6.9920     5.6140    -0.8550 C.ar  1 <1>  -0.1500 
 24 C        6.3950     6.3680     0.1330 C.ar  1 <1>  -0.1440 
 25 C        6.5030     7.8850     0.1190 C.3   1 <1>  -0.0170 
 26 C        7.7440     8.3420     0.8890 C.3   1 <1>  -0.2400 
 27 H        1.8040     2.2480    -1.5660 H     1 <1>   0.0800 
 28 H        1.8610     1.1530     2.1140 H     1 <1>   0.0800 
 29 H        1.8260     2.5730     1.1190 H     1 <1>   0.0800 
 30 H        0.3950    -0.2850    -1.0030 H     1 <1>   0.0800 
 31 H        0.2010    -0.2010     0.7070 H     1 <1>   0.0800 
 32 H        3.2400    -0.1190    -1.9440 H     1 <1>   0.4000 
 33 H        3.5840     3.3260    -0.6880 H     1 <1>   0.0800 
 34 H        4.4440     2.3210    -1.8310 H     1 <1>   0.0800 
 35 H        4.1420     1.0360     2.1550 H     1 <1>   0.0800 
 36 H        3.9630     2.7610     1.9480 H     1 <1>   0.0800 
 37 H        4.5970     0.6740    -0.0210 H     1 <1>   0.4500 
 38 H       -0.6830     1.8540     1.7900 H     1 <1>   0.1500 
 39 H       -0.3760     1.5270    -2.4490 H     1 <1>   0.1500 
 40 H        6.3910     1.8160     1.2770 H     1 <1>   0.0800 
 41 H        6.5760     1.7280    -0.4500 H     1 <1>   0.0800 
 42 H       -2.1620     3.7930     1.5330 H     1 <1>   0.1500 
 43 H       -1.8580     3.4650    -2.7040 H     1 <1>   0.1500 
 44 H       -2.7490     4.6070    -0.7140 H     1 <1>   0.1500 
 45 H        7.3070     3.6240    -1.5250 H     1 <1>   0.1500 
 46 H        5.2410     6.3070     1.9130 H     1 <1>   0.1500 
 47 H        7.5470     6.0740    -1.6550 H     1 <1>   0.1500 
 48 H        6.5610     8.2360    -0.8970 H     1 <1>   0.0800 
 49 H        5.6240     8.3190     0.5630 H     1 <1>   0.0800 
 50 H        8.6330     7.9330     0.4420 H     1 <1>   0.0800 
 51 H        7.6920     8.0160     1.9130 H     1 <1>   0.0800 
 52 H        7.8140     9.4150     0.8730 H     1 <1>   0.0800 
@<TRIPOS>BOND
  1   1   2  ar  
  2   2   3  ar  
  3   2   4  1   
  4   4   5  1   
  5   4   6  1   
  6   4   7  1   
  7   5   8  1   
  8   5   9  1   
  9   5  27  1   
 10   6  10  1   
 11   6  28  1   
 12   6  29  1   
 13   7  11  1   
 14   7  30  1   
 15   7  31  1   
 16   8  32  1   
 17   9  12  1   
 18   9  33  1   
 19   9  34  1   
 20  10  12  1   
 21  10  35  1   
 22  10  36  1   
 23  11  13  ar  
 24  11  14  ar  
 25  12  15  1   
 26  12  37  1   
 27  13  16  ar  
 28  13  38  1   
 29  14  17  ar  
 30  14  39  1   
 31  15  18  1   
 32  15  40  1   
 33  15  41  1   
 34  16  19  ar  
 35  16  42  1   
 36  17  19  ar  
 37  17  43  1   
 38  18  20  ar  
 39  18  21  ar  
 40  19  44  1   
 41  20  22  ar  
 42  21  23  ar  
 43  21  45  1   
 44  22  24  ar  
 45  22  46  1   
 46  23  24  ar  
 47  23  47  1   
 48  24  25  1   
 49  25  26  1   
 50  25  48  1   
 51  25  49  1   
 52  26  50  1   
 53  26  51  1   
 54  26  52  1   
@<TRIPOS>SUBSTRUCTURE
  1 ****   9 GROUP 4 **** **** 0

# MOE 2024.06 (io_trps.svl 2023.06)
