@<TRIPOS>MOLECULE
NONAME
58 61 1 0 0 
SMALL
USER_CHARGES


@<TRIPOS>ATOM
  1 O        3.8910    -1.4860     2.1800 O.2   1 <1>  -0.5700 
  2 C        3.1770    -1.1820     1.2390 C.2   1 <1>   0.5440 
  3 N        3.1250     0.1580     0.9230 N.am  1 <1>  -0.6600 
  4 C        2.5370    -2.1970     0.4200 C.ar  1 <1>   0.0860 
  5 C        3.9260     0.6430    -0.2450 C.3   1 <1>   0.1400 
  6 C        2.8340     1.1860     1.9650 C.3   1 <1>   0.1400 
  7 C        1.4630    -1.9060    -0.4470 C.ar  1 <1>  -0.1520 
  8 C        2.9680    -3.5180     0.4390 C.ar  1 <1>  -0.1500 
  9 C        5.4440     0.4920    -0.0010 C.3   1 <1>   0.3430 
 10 C        4.0450     1.5120     2.8560 C.3   1 <1>  -0.1600 
 11 N        0.7870    -0.7320    -0.6600 N.pl3 1 <1>   0.0330 
 12 C        0.8950    -2.8780    -1.2670 C.ar  1 <1>   0.0000 
 13 C        2.3980    -4.5010    -0.3720 C.ar  1 <1>  -0.1500 
 14 N        5.7940     0.4970     1.4560 N.4   1 <1>  -0.9590 
 15 C        5.3680     1.7520     2.1260 C.3   1 <1>   0.3430 
 16 C       -0.1700    -0.9470    -1.6090 C.2   1 <1>  -0.3020 
 17 C        1.3700    -4.1880    -1.2290 C.ar  1 <1>  -0.1500 
 18 C       -0.1290    -2.2410    -2.0000 C.2   1 <1>  -0.1500 
 19 C        7.2470     0.2250     1.6810 C.3   1 <1>   0.5240 
 20 C        8.1350     1.1460     0.8390 C.2   1 <1>   0.0460 
 21 N        7.9490     2.4840     0.8110 N.2   1 <1>  -0.5650 
 22 C        9.1670     0.7940     0.0400 C.2   1 <1>  -0.3020 
 23 C        8.8680     2.9160     0.0100 C.2   1 <1>   0.0060 
 24 N        9.6460     1.9330    -0.4930 N.pl3 1 <1>   0.0330 
 25 C        9.0740     4.3800    -0.3390 C.3   1 <1>   0.0200 
 26 C        8.6370     4.6730    -1.7800 C.3   1 <1>  -0.1600 
 27 C        8.8190     6.1550    -2.1320 C.3   1 <1>  -0.1600 
 28 C        8.3790     6.4370    -3.5710 C.3   1 <1>  -0.2400 
 29 H        3.7000     1.6780    -0.4330 H     1 <1>   0.0800 
 30 H        3.6550     0.0910    -1.1290 H     1 <1>   0.0800 
 31 H        2.0300     0.8300     2.5890 H     1 <1>   0.0800 
 32 H        2.4910     2.0860     1.4820 H     1 <1>   0.0800 
 33 H        3.7690    -3.8040     1.0990 H     1 <1>   0.1500 
 34 H        5.9700     1.2840    -0.5120 H     1 <1>   0.0800 
 35 H        5.7640    -0.4410    -0.4340 H     1 <1>   0.0800 
 36 H        4.1760     0.7270     3.5800 H     1 <1>   0.0800 
 37 H        3.8090     2.3990     3.4160 H     1 <1>   0.0800 
 38 H        0.9770     0.1470    -0.1660 H     1 <1>   0.2700 
 39 H        2.7700    -5.5110    -0.3210 H     1 <1>   0.1500 
 40 H        5.2290    -0.2630     1.8910 H     1 <1>   0.4500 
 41 H        6.1150     2.0510     2.8440 H     1 <1>   0.0800 
 42 H        5.2730     2.5480     1.4050 H     1 <1>   0.0800 
 43 H       -0.8280    -0.1650    -1.9480 H     1 <1>   0.1500 
 44 H        0.9200    -4.9320    -1.8630 H     1 <1>   0.1500 
 45 H       -0.7470    -2.7380    -2.7280 H     1 <1>   0.1500 
 46 H        7.4670    -0.7970     1.4250 H     1 <1>   0.0800 
 47 H        7.4840     0.3670     2.7220 H     1 <1>   0.0800 
 48 H        9.5880    -0.1720    -0.1770 H     1 <1>   0.1500 
 49 H       10.4360     2.0470    -1.1380 H     1 <1>   0.2700 
 50 H       10.1100     4.6360    -0.2060 H     1 <1>   0.0800 
 51 H        8.4960     4.9830     0.3400 H     1 <1>   0.0800 
 52 H        7.6010     4.4040    -1.8940 H     1 <1>   0.0800 
 53 H        9.2150     4.0730    -2.4620 H     1 <1>   0.0800 
 54 H        9.8530     6.4340    -2.0190 H     1 <1>   0.0800 
 55 H        8.2350     6.7630    -1.4600 H     1 <1>   0.0800 
 56 H        8.9640     5.8600    -4.2650 H     1 <1>   0.0800 
 57 H        8.5120     7.4800    -3.7980 H     1 <1>   0.0800 
 58 H        7.3400     6.1900    -3.7030 H     1 <1>   0.0800 
@<TRIPOS>BOND
  1   1   2  2   
  2   2   3  am  
  3   2   4  1   
  4   3   5  1   
  5   3   6  1   
  6   4   7  ar  
  7   4   8  ar  
  8   5   9  1   
  9   5  29  1   
 10   5  30  1   
 11   6  10  1   
 12   6  31  1   
 13   6  32  1   
 14   7  11  1   
 15   7  12  ar  
 16   8  13  ar  
 17   8  33  1   
 18   9  14  1   
 19   9  34  1   
 20   9  35  1   
 21  10  15  1   
 22  10  36  1   
 23  10  37  1   
 24  11  16  1   
 25  11  38  1   
 26  12  17  ar  
 27  12  18  1   
 28  13  17  ar  
 29  13  39  1   
 30  14  15  1   
 31  14  19  1   
 32  14  40  1   
 33  15  41  1   
 34  15  42  1   
 35  16  18  2   
 36  16  43  1   
 37  17  44  1   
 38  18  45  1   
 39  19  20  1   
 40  19  46  1   
 41  19  47  1   
 42  20  21  1   
 43  20  22  2   
 44  21  23  2   
 45  22  24  1   
 46  22  48  1   
 47  23  24  1   
 48  23  25  1   
 49  24  49  1   
 50  25  26  1   
 51  25  50  1   
 52  25  51  1   
 53  26  27  1   
 54  26  52  1   
 55  26  53  1   
 56  27  28  1   
 57  27  54  1   
 58  27  55  1   
 59  28  56  1   
 60  28  57  1   
 61  28  58  1   
@<TRIPOS>SUBSTRUCTURE
  1 ****   9 GROUP 4 **** **** 0

# MOE 2024.06 (io_trps.svl 2023.06)
