@<TRIPOS>MOLECULE
NONAME
46 49 1 0 0 
SMALL
USER_CHARGES


@<TRIPOS>ATOM
  1 O       -2.3320     0.6190    -2.4230 O.2   1 <1>  -0.5700 
  2 C       -2.1370     0.7350    -1.2270 C.2   1 <1>   0.6160 
  3 N       -1.8630    -0.4000    -0.5230 N.am  1 <1>  -0.7300 
  4 C       -2.1990     2.0340    -0.6030 C.2   1 <1>   0.0290 
  5 C       -1.9690    -1.7880    -1.0270 C.3   1 <1>   0.2200 
  6 C       -2.4050     2.1450     0.8190 C.2   1 <1>   0.6160 
  7 C       -2.0770     3.1930    -1.3390 C.2   1 <1>  -0.1500 
  8 C       -3.2160    -2.4690    -0.4800 C.3   1 <1>  -0.0800 
  9 C       -0.8770    -2.6390    -0.3930 C.3   1 <1>   0.1200 
 10 O       -2.5560     1.1980     1.5810 O.2   1 <1>  -0.5700 
 11 N       -2.4500     3.3920     1.3920 N.am  1 <1>  -0.5390 
 12 C       -2.1410     4.4430    -0.6950 C.2   1 <1>  -0.1380 
 13 C       -2.7570    -2.9480     0.9000 C.3   1 <1>   0.1200 
 14 C       -4.4960    -1.6130    -0.4530 C.3   1 <1>  -0.0170 
 15 O       -1.3620    -3.0210     0.8610 O.3   1 <1>  -0.5600 
 16 C       -2.3230     4.5200     0.6360 C.2   1 <1>  -0.0290 
 17 C       -2.0210     5.8100    -1.3190 C.3   1 <1>  -0.0220 
 18 C       -5.6760    -2.4150     0.0720 C.ar  1 <1>  -0.1430 
 19 C       -2.3600     5.9350     1.1460 C.3   1 <1>  -0.0220 
 20 C       -2.3280     6.7710    -0.1500 C.3   1 <1>  -0.1600 
 21 C       -6.1040    -2.3090     1.3800 C.ar  1 <1>  -0.1500 
 22 C       -6.3780    -3.2900    -0.7300 C.ar  1 <1>  -0.1500 
 23 C       -7.1800    -3.0660     1.8110 C.ar  1 <1>   0.1600 
 24 C       -7.4420    -4.0010    -0.2000 C.ar  1 <1>   0.1600 
 25 N       -7.8590    -3.9120     1.0530 N.ar  1 <1>  -0.6200 
 26 H       -1.8230    -0.3240     0.5030 H     1 <1>   0.3700 
 27 H       -1.9220    -1.8080    -2.1030 H     1 <1>   0.0800 
 28 H       -1.9320     3.1650    -2.4060 H     1 <1>   0.1500 
 29 H       -3.4050    -3.3430    -1.0780 H     1 <1>   0.0800 
 30 H        0.0500    -2.1060    -0.2760 H     1 <1>   0.0800 
 31 H       -0.7150    -3.5350    -0.9660 H     1 <1>   0.0800 
 32 H       -2.5910     3.4110     2.4020 H     1 <1>   0.3700 
 33 H       -3.1560    -3.9170     1.1440 H     1 <1>   0.0800 
 34 H       -3.0210    -2.2410     1.6680 H     1 <1>   0.0800 
 35 H       -4.7140    -1.2640    -1.4480 H     1 <1>   0.0800 
 36 H       -4.3590    -0.7460     0.1690 H     1 <1>   0.0800 
 37 H       -1.0210     5.9580    -1.6860 H     1 <1>   0.0800 
 38 H       -2.7270     5.9330    -2.1220 H     1 <1>   0.0800 
 39 H       -3.2570     6.1220     1.7100 H     1 <1>   0.0800 
 40 H       -1.4940     6.1290     1.7540 H     1 <1>   0.0800 
 41 H       -3.2950     7.2170    -0.3060 H     1 <1>   0.0800 
 42 H       -1.5930     7.5540    -0.0890 H     1 <1>   0.0800 
 43 H       -5.6120    -1.6450     2.0680 H     1 <1>   0.1500 
 44 H       -6.1080    -3.4250    -1.7620 H     1 <1>   0.1500 
 45 H       -7.5000    -2.9710     2.8350 H     1 <1>   0.1500 
 46 H       -7.9780    -4.6800    -0.8410 H     1 <1>   0.1500 
@<TRIPOS>BOND
  1   1   2  2   
  2   2   3  am  
  3   2   4  1   
  4   3   5  1   
  5   3  26  1   
  6   4   6  1   
  7   4   7  2   
  8   5   8  1   
  9   5   9  1   
 10   5  27  1   
 11   6  10  2   
 12   6  11  am  
 13   7  12  1   
 14   7  28  1   
 15   8  13  1   
 16   8  14  1   
 17   8  29  1   
 18   9  15  1   
 19   9  30  1   
 20   9  31  1   
 21  11  16  1   
 22  11  32  1   
 23  12  16  2   
 24  12  17  1   
 25  13  15  1   
 26  13  33  1   
 27  13  34  1   
 28  14  18  1   
 29  14  35  1   
 30  14  36  1   
 31  16  19  1   
 32  17  20  1   
 33  17  37  1   
 34  17  38  1   
 35  18  21  ar  
 36  18  22  ar  
 37  19  20  1   
 38  19  39  1   
 39  19  40  1   
 40  20  41  1   
 41  20  42  1   
 42  21  23  ar  
 43  21  43  1   
 44  22  24  ar  
 45  22  44  1   
 46  23  25  ar  
 47  23  45  1   
 48  24  25  ar  
 49  24  46  1   
@<TRIPOS>SUBSTRUCTURE
  1 ****   3 GROUP 4 **** **** 0

# MOE 2024.06 (io_trps.svl 2023.06)
