@<TRIPOS>MOLECULE
NONAME
45 46 1 0 0 
SMALL
USER_CHARGES


@<TRIPOS>ATOM
  1 S        1.6190     0.2430    -0.2370 S.o2  1 <1>   1.3330 
  2 O        2.7360     0.1990    -1.1530 O.2   1 <1>  -0.6500 
  3 O        1.8620     0.2350     1.1880 O.2   1 <1>  -0.6500 
  4 N        0.5860    -1.0560    -0.5940 N.am  1 <1>  -0.8490 
  5 C        0.6290     1.6740    -0.6560 C.3   1 <1>  -0.0550 
  6 C        1.3280    -2.2760    -0.9270 C.3   1 <1>   0.1160 
  7 C       -0.3840    -1.3380     0.4690 C.3   1 <1>   0.1160 
  8 C        1.4000     3.0020    -0.5280 C.3   1 <1>  -0.0800 
  9 C        0.6230     4.2310    -1.0060 C.3   1 <1>   0.2000 
 10 C        1.8230     3.3540     0.9050 C.3   1 <1>   0.1400 
 11 O       -0.6650     4.1810    -0.4910 O.3   1 <1>  -0.6800 
 12 C        1.3540     5.3940    -0.3440 C.3   1 <1>   0.1400 
 13 N        1.8230     4.8380     0.9520 N.am  1 <1>  -0.6600 
 14 C        2.3530     5.5440     2.0000 C.2   1 <1>   0.5690 
 15 O        2.7550     4.9820     2.9900 O.2   1 <1>  -0.5700 
 16 C        2.4530     7.0640     1.9530 C.3   1 <1>   0.0440 
 17 C        3.2840     7.5740     0.7790 C.ar  1 <1>  -0.1440 
 18 C        4.5160     7.0020     0.4970 C.ar  1 <1>  -0.1500 
 19 C        2.8120     8.6040    -0.0240 C.ar  1 <1>  -0.1500 
 20 C        5.2540     7.4490    -0.5870 C.ar  1 <1>   0.0820 
 21 C        3.5550     9.0500    -1.1050 C.ar  1 <1>  -0.1500 
 22 O        6.4400     6.8910    -0.8690 O.3   1 <1>  -0.5330 
 23 C        4.7780     8.4700    -1.3890 C.ar  1 <1>  -0.1500 
 24 H        0.2930     1.5720    -1.6700 H     1 <1>   0.0800 
 25 H       -0.2400     1.7000    -0.0290 H     1 <1>   0.0800 
 26 H        0.6460    -3.0740    -1.1650 H     1 <1>   0.0800 
 27 H        1.9500    -2.5740    -0.0990 H     1 <1>   0.0800 
 28 H        1.9550    -2.1030    -1.7860 H     1 <1>   0.0800 
 29 H       -1.0630    -2.1120     0.1540 H     1 <1>   0.0800 
 30 H       -0.9580    -0.4560     0.6940 H     1 <1>   0.0800 
 31 H        0.1220    -1.6590     1.3660 H     1 <1>   0.0800 
 32 H        2.2970     2.9330    -1.1210 H     1 <1>   0.0800 
 33 H        0.5650     4.3170    -2.0780 H     1 <1>   0.0800 
 34 H        2.8000     2.9640     1.1390 H     1 <1>   0.0800 
 35 H        1.1150     2.9810     1.6260 H     1 <1>   0.0800 
 36 H       -0.6150     4.2950     0.4810 H     1 <1>   0.4000 
 37 H        0.7130     6.2480    -0.2130 H     1 <1>   0.0800 
 38 H        2.2090     5.6710    -0.9370 H     1 <1>   0.0800 
 39 H        1.4580     7.4640     1.9120 H     1 <1>   0.0800 
 40 H        2.9020     7.4070     2.8670 H     1 <1>   0.0800 
 41 H        4.8970     6.2080     1.1150 H     1 <1>   0.1500 
 42 H        1.8630     9.0670     0.1850 H     1 <1>   0.1500 
 43 H        3.1830     9.8480    -1.7230 H     1 <1>   0.1500 
 44 H        6.6960     6.2000    -0.2330 H     1 <1>   0.4500 
 45 H        5.3660     8.8040    -2.2250 H     1 <1>   0.1500 
@<TRIPOS>BOND
  1   1   2  2   
  2   1   3  2   
  3   1   4  am  
  4   1   5  1   
  5   4   6  1   
  6   4   7  1   
  7   5   8  1   
  8   5  24  1   
  9   5  25  1   
 10   6  26  1   
 11   6  27  1   
 12   6  28  1   
 13   7  29  1   
 14   7  30  1   
 15   7  31  1   
 16   8   9  1   
 17   8  10  1   
 18   8  32  1   
 19   9  11  1   
 20   9  12  1   
 21   9  33  1   
 22  10  13  1   
 23  10  34  1   
 24  10  35  1   
 25  11  36  1   
 26  12  13  1   
 27  12  37  1   
 28  12  38  1   
 29  13  14  am  
 30  14  15  2   
 31  14  16  1   
 32  16  17  1   
 33  16  39  1   
 34  16  40  1   
 35  17  18  ar  
 36  17  19  ar  
 37  18  20  ar  
 38  18  41  1   
 39  19  21  ar  
 40  19  42  1   
 41  20  22  1   
 42  20  23  ar  
 43  21  23  ar  
 44  21  43  1   
 45  22  44  1   
 46  23  45  1   
@<TRIPOS>SUBSTRUCTURE
  1 ****  13 GROUP 4 **** **** 0

# MOE 2024.06 (io_trps.svl 2023.06)
