@<TRIPOS>MOLECULE
NONAME
42 43 1 0 0 
SMALL
USER_CHARGES


@<TRIPOS>ATOM
  1 S        0.6180    -0.9840     0.5080 S.o2  1 <1>   1.4470 
  2 O        1.5290    -2.1020     0.5570 O.2   1 <1>  -0.6500 
  3 O       -0.2880    -0.7530     1.6060 O.2   1 <1>  -0.6500 
  4 N       -0.3520    -1.1330    -0.8640 N.am  1 <1>  -0.9140 
  5 C        1.5670     0.5160     0.1830 C.ar  1 <1>  -0.0090 
  6 C       -1.1600    -2.3420    -1.0850 C.3   1 <1>   0.2760 
  7 C        0.9290     1.7070    -0.1230 C.ar  1 <1>   0.1900 
  8 C        2.9570     0.5430     0.2330 C.ar  1 <1>  -0.1500 
  9 C       -2.1670    -2.6350     0.0280 C.3   1 <1>  -0.0800 
 10 C       -0.3750    -3.6580    -1.2250 C.3   1 <1>   0.1200 
 11 F       -0.3760     1.7380    -0.1910 F     1 <1>  -0.1900 
 12 C        1.6080     2.8870    -0.3710 C.ar  1 <1>  -0.1500 
 13 C        3.6620     1.7120    -0.0130 C.ar  1 <1>  -0.1500 
 14 C       -1.4860    -3.7890     0.7610 C.3   1 <1>   0.1200 
 15 C       -3.5170    -3.0900    -0.5640 C.3   1 <1>  -0.0550 
 16 O       -0.8760    -4.5230    -0.2490 O.3   1 <1>  -0.5600 
 17 C        2.9900     2.8850    -0.3140 C.ar  1 <1>  -0.1500 
 18 S       -4.8590    -3.1160     0.6250 S.o2  1 <1>   1.3330 
 19 O       -4.6050    -4.1020     1.6510 O.2   1 <1>  -0.6500 
 20 O       -5.1280    -1.7450     0.9940 O.2   1 <1>  -0.6500 
 21 N       -6.1610    -3.6720    -0.3110 N.am  1 <1>  -0.8490 
 22 C       -6.2000    -5.1340    -0.4380 C.3   1 <1>   0.1160 
 23 C       -7.4500    -3.1840     0.1890 C.3   1 <1>   0.1160 
 24 H       -1.0120    -0.3620    -0.7590 H     1 <1>   0.4200 
 25 H       -1.6850    -2.1850    -2.0120 H     1 <1>   0.0800 
 26 H        3.4970    -0.3610     0.4670 H     1 <1>   0.1500 
 27 H       -2.3370    -1.7920     0.6730 H     1 <1>   0.0800 
 28 H        0.6820    -3.5450    -1.0820 H     1 <1>   0.0800 
 29 H       -0.5540    -4.1120    -2.1820 H     1 <1>   0.0800 
 30 H        1.0630     3.7850    -0.6030 H     1 <1>   0.1500 
 31 H        4.7380     1.7080     0.0320 H     1 <1>   0.1500 
 32 H       -2.1630    -4.4270     1.3030 H     1 <1>   0.0800 
 33 H       -0.7180    -3.4380     1.4300 H     1 <1>   0.0800 
 34 H       -3.4040    -4.0630    -1.0010 H     1 <1>   0.0800 
 35 H       -3.7980    -2.4130    -1.3470 H     1 <1>   0.0800 
 36 H        3.5410     3.7910    -0.5040 H     1 <1>   0.1500 
 37 H       -6.9860    -5.4250    -1.1140 H     1 <1>   0.0800 
 38 H       -6.3760    -5.5910     0.5220 H     1 <1>   0.0800 
 39 H       -5.2650    -5.4990    -0.8270 H     1 <1>   0.0800 
 40 H       -8.2520    -3.5410    -0.4340 H     1 <1>   0.0800 
 41 H       -7.4680    -2.1070     0.1740 H     1 <1>   0.0800 
 42 H       -7.6100    -3.5180     1.2010 H     1 <1>   0.0800 
@<TRIPOS>BOND
  1   1   2  2   
  2   1   3  2   
  3   1   4  am  
  4   1   5  1   
  5   4   6  1   
  6   4  24  1   
  7   5   7  ar  
  8   5   8  ar  
  9   6   9  1   
 10   6  10  1   
 11   6  25  1   
 12   7  11  1   
 13   7  12  ar  
 14   8  13  ar  
 15   8  26  1   
 16   9  14  1   
 17   9  15  1   
 18   9  27  1   
 19  10  16  1   
 20  10  28  1   
 21  10  29  1   
 22  12  17  ar  
 23  12  30  1   
 24  13  17  ar  
 25  13  31  1   
 26  14  16  1   
 27  14  32  1   
 28  14  33  1   
 29  15  18  1   
 30  15  34  1   
 31  15  35  1   
 32  17  36  1   
 33  18  19  2   
 34  18  20  2   
 35  18  21  am  
 36  21  22  1   
 37  21  23  1   
 38  22  37  1   
 39  22  38  1   
 40  22  39  1   
 41  23  40  1   
 42  23  41  1   
 43  23  42  1   
@<TRIPOS>SUBSTRUCTURE
  1 ****   4 GROUP 4 **** **** 0

# MOE 2024.06 (io_trps.svl 2023.06)
