@<TRIPOS>MOLECULE
NONAME
46 48 1 0 0 
SMALL
USER_CHARGES


@<TRIPOS>ATOM
  1 O       -0.4960     1.2210     1.4910 O.2   1 <1>  -0.5700 
  2 C       -0.2510     2.3460     1.0970 C.2   1 <1>   0.5440 
  3 N       -1.2980     3.2030     0.8190 N.am  1 <1>  -0.6600 
  4 C        1.1320     2.7460     0.9190 C.ar  1 <1>   0.0860 
  5 C       -2.7120     2.8510     1.1510 C.3   1 <1>   0.1400 
  6 C       -1.1580     4.4670     0.0440 C.3   1 <1>   0.1400 
  7 C        1.9750     2.0430     0.0630 C.ar  1 <1>  -0.1500 
  8 C        1.6670     3.8410     1.5930 C.ar  1 <1>  -0.1500 
  9 C       -3.5730     2.7150    -0.1300 C.3   1 <1>   0.0000 
 10 C       -1.9940     4.3880    -1.2390 C.3   1 <1>  -0.1600 
 11 C        3.2940     2.4170    -0.1380 C.ar  1 <1>  -0.1430 
 12 C        2.9800     4.2260     1.4020 C.ar  1 <1>  -0.1500 
 13 C       -5.0430     2.3750     0.1890 C.3   1 <1>   0.2000 
 14 C       -3.4600     4.0170    -0.9540 C.3   1 <1>  -0.1600 
 15 C       -3.1400     1.4790    -0.9400 C.3   1 <1>  -0.1600 
 16 C        3.8020     3.5220     0.5360 C.ar  1 <1>  -0.1430 
 17 C        4.1550     1.6020    -1.0920 C.3   1 <1>  -0.0970 
 18 O       -5.5100     2.9960     1.3350 O.3   1 <1>  -0.6800 
 19 C       -5.1250     0.8540     0.3450 C.3   1 <1>  -0.1600 
 20 C       -3.8370     0.2930    -0.2710 C.3   1 <1>  -0.1600 
 21 C        5.2440     3.9740     0.3510 C.3   1 <1>  -0.0970 
 22 H       -2.7500     1.9390     1.7210 H     1 <1>   0.0800 
 23 H       -3.1080     3.6360     1.7700 H     1 <1>   0.0800 
 24 H       -1.5020     5.2870     0.6520 H     1 <1>   0.0800 
 25 H       -0.1320     4.6500    -0.2180 H     1 <1>   0.0800 
 26 H        1.5710     1.1860    -0.4460 H     1 <1>   0.1500 
 27 H        1.0400     4.3910     2.2720 H     1 <1>   0.1500 
 28 H       -1.9570     5.3380    -1.7410 H     1 <1>   0.0800 
 29 H       -1.5520     3.6590    -1.8950 H     1 <1>   0.0800 
 30 H        3.3620     5.0780     1.9370 H     1 <1>   0.1500 
 31 H       -5.6720     2.6830    -0.6300 H     1 <1>   0.0800 
 32 H       -3.9930     3.9170    -1.8830 H     1 <1>   0.0800 
 33 H       -3.9210     4.8170    -0.4000 H     1 <1>   0.0800 
 34 H       -3.4970     1.5640    -1.9520 H     1 <1>   0.0800 
 35 H       -2.0730     1.3440    -0.9650 H     1 <1>   0.0800 
 36 H        3.5980     0.7850    -1.5130 H     1 <1>   0.0800 
 37 H        5.0020     1.1960    -0.5690 H     1 <1>   0.0800 
 38 H        4.5040     2.2230    -1.8970 H     1 <1>   0.0800 
 39 H       -5.1010     2.5880     2.1200 H     1 <1>   0.4000 
 40 H       -5.1920     0.5590     1.3780 H     1 <1>   0.0800 
 41 H       -5.9840     0.4840    -0.1860 H     1 <1>   0.0800 
 42 H       -3.2030    -0.0970     0.5080 H     1 <1>   0.0800 
 43 H       -4.0380    -0.4940    -0.9770 H     1 <1>   0.0800 
 44 H        5.4550     4.8460     0.9430 H     1 <1>   0.0800 
 45 H        5.4250     4.2160    -0.6810 H     1 <1>   0.0800 
 46 H        5.9160     3.1920     0.6520 H     1 <1>   0.0800 
@<TRIPOS>BOND
  1   1   2  2   
  2   2   3  am  
  3   2   4  1   
  4   3   5  1   
  5   3   6  1   
  6   4   7  ar  
  7   4   8  ar  
  8   5   9  1   
  9   5  22  1   
 10   5  23  1   
 11   6  10  1   
 12   6  24  1   
 13   6  25  1   
 14   7  11  ar  
 15   7  26  1   
 16   8  12  ar  
 17   8  27  1   
 18   9  13  1   
 19   9  14  1   
 20   9  15  1   
 21  10  14  1   
 22  10  28  1   
 23  10  29  1   
 24  11  16  ar  
 25  11  17  1   
 26  12  16  ar  
 27  12  30  1   
 28  13  18  1   
 29  13  19  1   
 30  13  31  1   
 31  14  32  1   
 32  14  33  1   
 33  15  20  1   
 34  15  34  1   
 35  15  35  1   
 36  16  21  1   
 37  17  36  1   
 38  17  37  1   
 39  17  38  1   
 40  18  39  1   
 41  19  20  1   
 42  19  40  1   
 43  19  41  1   
 44  20  42  1   
 45  20  43  1   
 46  21  44  1   
 47  21  45  1   
 48  21  46  1   
@<TRIPOS>SUBSTRUCTURE
  1 ****   3 GROUP 4 **** **** 0

# MOE 2024.06 (io_trps.svl 2023.06)
