@<TRIPOS>MOLECULE
NONAME
43 44 1 0 0 
SMALL
USER_CHARGES


@<TRIPOS>ATOM
  1 CL      -3.7700    -0.8240     3.1150 Cl    1 <1>  -0.1770 
  2 C       -3.0530    -1.5260     1.6840 C.ar  1 <1>   0.1770 
  3 C       -2.3420    -0.7400     0.7940 C.ar  1 <1>   0.1770 
  4 C       -3.2050    -2.8820     1.4530 C.ar  1 <1>  -0.1500 
  5 CL      -2.1440     0.9750     1.0700 Cl    1 <1>  -0.1770 
  6 C       -1.7740    -1.3020    -0.3340 C.ar  1 <1>  -0.1500 
  7 C       -2.6360    -3.4570     0.3200 C.ar  1 <1>  -0.1440 
  8 C       -1.9220    -2.6610    -0.5690 C.ar  1 <1>  -0.1500 
  9 C       -2.7950    -4.9460     0.0460 C.3   1 <1>   0.4870 
 10 N       -4.2250    -5.2800    -0.0690 N.4   1 <1>  -0.9590 
 11 C       -4.5100    -6.7590    -0.1520 C.3   1 <1>   0.3430 
 12 C       -5.0120    -4.4980    -1.0560 C.3   1 <1>   0.3430 
 13 C       -5.9910    -7.0610    -0.5020 C.3   1 <1>   0.2000 
 14 C       -6.5110    -4.6070    -0.7150 C.3   1 <1>  -0.1600 
 15 O       -6.1140    -7.1670    -1.8890 O.3   1 <1>  -0.6800 
 16 C       -6.9070    -5.9310     0.0230 C.3   1 <1>  -0.1060 
 17 C       -6.5740    -5.8780     1.5270 C.2   1 <1>   0.9060 
 18 C       -8.4070    -6.2620    -0.2050 C.3   1 <1>  -0.1600 
 19 O       -5.9370    -4.9100     1.9690 O.co2 1 <1>  -0.9000 
 20 O       -6.7120    -6.9040     2.1900 O.co2 1 <1>  -0.9000 
 21 C       -9.3640    -5.2120     0.3840 C.3   1 <1>  -0.1600 
 22 C      -10.8240    -5.6080     0.1470 C.3   1 <1>  -0.2400 
 23 H       -3.7720    -3.4670     2.1620 H     1 <1>   0.1500 
 24 H       -1.2220    -0.6790    -1.0170 H     1 <1>   0.1500 
 25 H       -1.4740    -3.0880    -1.4510 H     1 <1>   0.1500 
 26 H       -2.3590    -5.5030     0.8590 H     1 <1>   0.0800 
 27 H       -2.2850    -5.2100    -0.8650 H     1 <1>   0.0800 
 28 H       -4.6630    -4.9910     0.8450 H     1 <1>   0.4500 
 29 H       -3.8790    -7.2310    -0.8850 H     1 <1>   0.0800 
 30 H       -4.3030    -7.1970     0.8110 H     1 <1>   0.0800 
 31 H       -4.7190    -3.4610    -1.0440 H     1 <1>   0.0800 
 32 H       -4.8390    -4.8980    -2.0420 H     1 <1>   0.0800 
 33 H       -6.2710    -8.0120    -0.0780 H     1 <1>   0.0800 
 34 H       -6.7940    -3.7600    -0.1150 H     1 <1>   0.0800 
 35 H       -7.0550    -4.5240    -1.6390 H     1 <1>   0.0800 
 36 H       -7.0380    -7.4020    -2.1110 H     1 <1>   0.4000 
 37 H       -8.6080    -6.3600    -1.2560 H     1 <1>   0.0800 
 38 H       -8.6220    -7.2110     0.2600 H     1 <1>   0.0800 
 39 H       -9.1970    -5.1200     1.4440 H     1 <1>   0.0800 
 40 H       -9.1880    -4.2500    -0.0640 H     1 <1>   0.0800 
 41 H      -11.0340    -6.5540     0.6150 H     1 <1>   0.0800 
 42 H      -11.0300    -5.6860    -0.9060 H     1 <1>   0.0800 
 43 H      -11.4780    -4.8670     0.5710 H     1 <1>   0.0800 
@<TRIPOS>BOND
  1   1   2  1   
  2   2   3  ar  
  3   2   4  ar  
  4   3   5  1   
  5   3   6  ar  
  6   4   7  ar  
  7   4  23  1   
  8   6   8  ar  
  9   6  24  1   
 10   7   8  ar  
 11   7   9  1   
 12   8  25  1   
 13   9  10  1   
 14   9  26  1   
 15   9  27  1   
 16  10  11  1   
 17  10  12  1   
 18  10  28  1   
 19  11  13  1   
 20  11  29  1   
 21  11  30  1   
 22  12  14  1   
 23  12  31  1   
 24  12  32  1   
 25  13  15  1   
 26  13  16  1   
 27  13  33  1   
 28  14  16  1   
 29  14  34  1   
 30  14  35  1   
 31  15  36  1   
 32  16  17  1   
 33  16  18  1   
 34  17  19  ar  
 35  17  20  ar  
 36  18  21  1   
 37  18  37  1   
 38  18  38  1   
 39  21  22  1   
 40  21  39  1   
 41  21  40  1   
 42  22  41  1   
 43  22  42  1   
 44  22  43  1   
@<TRIPOS>SUBSTRUCTURE
  1 ****  10 GROUP 4 **** **** 0

# MOE 2024.06 (io_trps.svl 2023.06)
