@<TRIPOS>MOLECULE
NONAME
50 52 1 0 0 
SMALL
USER_CHARGES


@<TRIPOS>ATOM
  1 O        1.7200    -1.2620    -1.5710 O.co2 1 <1>  -0.9000 
  2 C        2.9290    -1.1990    -1.3610 C.2   1 <1>   0.9060 
  3 O        3.7310    -2.0910    -1.6640 O.co2 1 <1>  -0.9000 
  4 C        3.4700     0.0190    -0.6490 C.3   1 <1>  -0.1860 
  5 C        4.2260    -0.4220     0.6080 C.3   1 <1>   0.2000 
  6 C        4.3460     0.9110    -1.5690 C.3   1 <1>  -0.1600 
  7 O        5.3170    -1.1790     0.2150 O.3   1 <1>  -0.6800 
  8 C        4.7410     0.8000     1.3940 C.3   1 <1>   0.3430 
  9 C        5.5280     1.5600    -0.8410 C.3   1 <1>   0.3430 
 10 N        5.0970     1.9850     0.5240 N.4   1 <1>  -0.9590 
 11 C        6.1240     2.8440     1.1600 C.3   1 <1>   0.4860 
 12 C        6.1300     4.1900     0.4630 C.ar  1 <1>  -0.1440 
 13 C        7.1370     4.4630    -0.4300 C.ar  1 <1>   0.0820 
 14 C        5.1070     5.1330     0.7310 C.ar  1 <1>   0.0000 
 15 O        8.0750     3.5050    -0.6410 O.3   1 <1>  -0.3630 
 16 C        7.1620     5.6980    -1.1020 C.ar  1 <1>  -0.1500 
 17 C        5.1310     6.3620     0.0320 C.ar  1 <1>   0.0000 
 18 C        4.0560     4.9260     1.6580 C.ar  1 <1>  -0.1500 
 19 C        9.1840     3.7100    -1.4910 C.3   1 <1>   0.1200 
 20 C        6.1780     6.6150    -0.8740 C.ar  1 <1>  -0.1500 
 21 C        4.1100     7.3050     0.2590 C.ar  1 <1>  -0.1500 
 22 C        3.0800     5.8610     1.8610 C.ar  1 <1>  -0.1500 
 23 C       10.0360     2.4400    -1.4740 C.3   1 <1>  -0.1600 
 24 C        3.1040     7.0640     1.1510 C.ar  1 <1>  -0.1500 
 25 C       11.2580     2.5800    -2.3870 C.3   1 <1>  -0.2400 
 26 H        2.6170     0.5910    -0.3340 H     1 <1>   0.0800 
 27 H        3.6080    -1.0480     1.2300 H     1 <1>   0.0800 
 28 H        3.7320     1.6650    -2.0290 H     1 <1>   0.0800 
 29 H        4.7500     0.3100    -2.3670 H     1 <1>   0.0800 
 30 H        4.9770    -1.7860    -0.5140 H     1 <1>   0.4000 
 31 H        5.6000     0.4810     1.9600 H     1 <1>   0.0800 
 32 H        3.9770     1.1010     2.0900 H     1 <1>   0.0800 
 33 H        5.8860     2.4010    -1.4130 H     1 <1>   0.0800 
 34 H        6.3280     0.8420    -0.7550 H     1 <1>   0.0800 
 35 H        4.2560     2.5560     0.3760 H     1 <1>   0.4500 
 36 H        5.9000     2.9870     2.2030 H     1 <1>   0.0800 
 37 H        7.0920     2.3760     1.0840 H     1 <1>   0.0800 
 38 H        7.9450     5.9340    -1.7990 H     1 <1>   0.1500 
 39 H        4.0120     4.0200     2.2310 H     1 <1>   0.1500 
 40 H        8.8220     3.9090    -2.4850 H     1 <1>   0.0800 
 41 H        9.7470     4.5510    -1.1230 H     1 <1>   0.0800 
 42 H        6.1890     7.5610    -1.3880 H     1 <1>   0.1500 
 43 H        4.1360     8.2330    -0.2850 H     1 <1>   0.1500 
 44 H        2.2840     5.6950     2.5670 H     1 <1>   0.1500 
 45 H       10.3690     2.2490    -0.4680 H     1 <1>   0.0800 
 46 H        9.4420     1.6070    -1.8060 H     1 <1>   0.0800 
 47 H        2.3280     7.7920     1.3200 H     1 <1>   0.1500 
 48 H       11.8810     3.3970    -2.0650 H     1 <1>   0.0800 
 49 H       10.9530     2.7550    -3.4040 H     1 <1>   0.0800 
 50 H       11.8430     1.6770    -2.3590 H     1 <1>   0.0800 
@<TRIPOS>BOND
  1   1   2  ar  
  2   2   3  ar  
  3   2   4  1   
  4   4   5  1   
  5   4   6  1   
  6   4  26  1   
  7   5   7  1   
  8   5   8  1   
  9   5  27  1   
 10   6   9  1   
 11   6  28  1   
 12   6  29  1   
 13   7  30  1   
 14   8  10  1   
 15   8  31  1   
 16   8  32  1   
 17   9  10  1   
 18   9  33  1   
 19   9  34  1   
 20  10  11  1   
 21  10  35  1   
 22  11  12  1   
 23  11  36  1   
 24  11  37  1   
 25  12  13  ar  
 26  12  14  ar  
 27  13  15  1   
 28  13  16  ar  
 29  14  17  ar  
 30  14  18  ar  
 31  15  19  1   
 32  16  20  ar  
 33  16  38  1   
 34  17  20  ar  
 35  17  21  ar  
 36  18  22  ar  
 37  18  39  1   
 38  19  23  1   
 39  19  40  1   
 40  19  41  1   
 41  20  42  1   
 42  21  24  ar  
 43  21  43  1   
 44  22  24  ar  
 45  22  44  1   
 46  23  25  1   
 47  23  45  1   
 48  23  46  1   
 49  24  47  1   
 50  25  48  1   
 51  25  49  1   
 52  25  50  1   
@<TRIPOS>SUBSTRUCTURE
  1 ****  10 GROUP 4 **** **** 0

# MOE 2024.06 (io_trps.svl 2023.06)
