@<TRIPOS>MOLECULE
NONAME
54 57 1 0 0 
SMALL
USER_CHARGES


@<TRIPOS>ATOM
  1 O       -0.9730     0.1500    -0.6640 O.2   1 <1>  -0.5700 
  2 C       -1.6400     0.4670     0.2900 C.2   1 <1>   0.5690 
  3 N       -3.0130     0.4220     0.2590 N.am  1 <1>  -0.6600 
  4 C       -0.9030     0.9050     1.5340 C.3   1 <1>  -0.1790 
  5 C       -3.7280     0.0890    -0.9990 C.3   1 <1>   0.1400 
  6 C       -3.9010     0.6520     1.4240 C.3   1 <1>   0.1400 
  7 C       -4.5060    -1.2080    -0.7840 C.3   1 <1>  -0.1600 
  8 C       -4.6880    -0.6340     1.6830 C.3   1 <1>  -0.1600 
  9 C       -5.4380    -1.0920     0.4270 C.3   1 <1>   0.4230 
 10 N       -6.0760    -2.3930     0.7360 N.4   1 <1>  -0.9060 
 11 C       -7.0260    -2.9400    -0.2750 C.3   1 <1>   0.4230 
 12 C       -8.0660    -3.7930     0.4540 C.3   1 <1>  -0.0800 
 13 C       -6.3100    -4.0140    -1.0910 C.3   1 <1>   0.1200 
 14 C       -7.3930    -5.1780     0.5220 C.3   1 <1>   0.1200 
 15 C       -9.3990    -3.8440    -0.3260 C.3   1 <1>  -0.0170 
 16 O       -6.1970    -5.0580    -0.1870 O.3   1 <1>  -0.5600 
 17 C      -10.5300    -4.6520     0.3200 C.ar  1 <1>  -0.1440 
 18 C      -11.7240    -4.8890    -0.4090 C.ar  1 <1>   0.0000 
 19 C      -10.4680    -5.1670     1.5870 C.ar  1 <1>  -0.1500 
 20 C      -12.7440    -5.6530     0.2120 C.ar  1 <1>   0.3100 
 21 C      -11.9710    -4.4090    -1.7180 C.ar  1 <1>  -0.1500 
 22 C      -11.5380    -5.9040     2.1080 C.ar  1 <1>   0.1600 
 23 N      -12.6330    -6.1510     1.4670 N.ar  1 <1>  -0.6200 
 24 C      -13.9310    -5.9110    -0.4910 C.ar  1 <1>  -0.1500 
 25 C      -13.1410    -4.6770    -2.3760 C.ar  1 <1>  -0.1500 
 26 C      -14.1350    -5.4380    -1.7580 C.ar  1 <1>  -0.1500 
 27 H       -1.2290     1.8840     1.8290 H     1 <1>   0.0800 
 28 H        0.1530     0.9440     1.3330 H     1 <1>   0.0800 
 29 H       -1.0730     0.2040     2.3280 H     1 <1>   0.0800 
 30 H       -4.3920     0.8980    -1.2540 H     1 <1>   0.0800 
 31 H       -3.0340    -0.0330    -1.8160 H     1 <1>   0.0800 
 32 H       -3.3360     0.9150     2.3020 H     1 <1>   0.0800 
 33 H       -4.5680     1.4690     1.2040 H     1 <1>   0.0800 
 34 H       -3.7930    -2.0020    -0.6400 H     1 <1>   0.0800 
 35 H       -5.0690    -1.4020    -1.6780 H     1 <1>   0.0800 
 36 H       -5.3820    -0.4510     2.4830 H     1 <1>   0.0800 
 37 H       -3.9910    -1.3910     2.0000 H     1 <1>   0.0800 
 38 H       -6.2000    -0.3610     0.2050 H     1 <1>   0.0800 
 39 H       -6.5540    -2.3200     1.6380 H     1 <1>   0.4500 
 40 H       -5.3520    -3.1190     0.8600 H     1 <1>   0.4500 
 41 H       -7.4650    -2.1610    -0.8770 H     1 <1>   0.0800 
 42 H       -8.2660    -3.4060     1.4370 H     1 <1>   0.0800 
 43 H       -5.3330    -3.7320    -1.4380 H     1 <1>   0.0800 
 44 H       -6.9070    -4.3490    -1.9230 H     1 <1>   0.0800 
 45 H       -7.9880    -5.9470     0.0540 H     1 <1>   0.0800 
 46 H       -7.1590    -5.4730     1.5310 H     1 <1>   0.0800 
 47 H       -9.2090    -4.2610    -1.3000 H     1 <1>   0.0800 
 48 H       -9.7600    -2.8390    -0.4660 H     1 <1>   0.0800 
 49 H       -9.6250    -5.0410     2.2350 H     1 <1>   0.1500 
 50 H      -11.2320    -3.8170    -2.2210 H     1 <1>   0.1500 
 51 H      -11.4450    -6.2930     3.1080 H     1 <1>   0.1500 
 52 H      -14.6820    -6.4970     0.0060 H     1 <1>   0.1500 
 53 H      -13.3140    -4.3060    -3.3720 H     1 <1>   0.1500 
 54 H      -15.0510    -5.6430    -2.2850 H     1 <1>   0.1500 
@<TRIPOS>BOND
  1   1   2  2   
  2   2   3  am  
  3   2   4  1   
  4   3   5  1   
  5   3   6  1   
  6   4  27  1   
  7   4  28  1   
  8   4  29  1   
  9   5   7  1   
 10   5  30  1   
 11   5  31  1   
 12   6   8  1   
 13   6  32  1   
 14   6  33  1   
 15   7   9  1   
 16   7  34  1   
 17   7  35  1   
 18   8   9  1   
 19   8  36  1   
 20   8  37  1   
 21   9  10  1   
 22   9  38  1   
 23  10  11  1   
 24  10  39  1   
 25  10  40  1   
 26  11  12  1   
 27  11  13  1   
 28  11  41  1   
 29  12  14  1   
 30  12  15  1   
 31  12  42  1   
 32  13  16  1   
 33  13  43  1   
 34  13  44  1   
 35  14  16  1   
 36  14  45  1   
 37  14  46  1   
 38  15  17  1   
 39  15  47  1   
 40  15  48  1   
 41  17  18  ar  
 42  17  19  ar  
 43  18  20  ar  
 44  18  21  ar  
 45  19  22  ar  
 46  19  49  1   
 47  20  23  ar  
 48  20  24  ar  
 49  21  25  ar  
 50  21  50  1   
 51  22  23  ar  
 52  22  51  1   
 53  24  26  ar  
 54  24  52  1   
 55  25  26  ar  
 56  25  53  1   
 57  26  54  1   
@<TRIPOS>SUBSTRUCTURE
  1 ****  11 GROUP 4 **** **** 0

# MOE 2024.06 (io_trps.svl 2023.06)
