@<TRIPOS>MOLECULE
NONAME
48 50 1 0 0 
SMALL
USER_CHARGES


@<TRIPOS>ATOM
  1 O        1.8190    -1.6850    -1.9960 O.2   1 <1>  -0.5700 
  2 C        2.3760    -1.7150    -0.9250 C.2   1 <1>   0.5690 
  3 N        2.8610    -0.5920    -0.3130 N.am  1 <1>  -0.6600 
  4 C        2.5380    -3.0730    -0.2610 C.3   1 <1>  -0.0990 
  5 C        2.2430     0.7650    -0.5160 C.3   1 <1>   0.2200 
  6 C        4.3260    -0.5130    -0.0090 C.3   1 <1>   0.1400 
  7 C        1.1830    -3.6260     0.2130 C.3   1 <1>  -0.1600 
  8 C        2.6990     1.7350     0.6020 C.3   1 <1>   0.2000 
  9 C        0.7000     0.7380    -0.5240 C.3   1 <1>  -0.1600 
 10 C        4.6480     0.5510     1.0520 C.3   1 <1>   0.1200 
 11 C        1.3200    -5.0410     0.7970 C.3   1 <1>  -0.0990 
 12 O        4.0910     1.7800     0.6940 O.3   1 <1>  -0.5600 
 13 C        2.1820     3.1540     0.3640 C.3   1 <1>  -0.1600 
 14 C        0.1190     2.1500    -0.7250 C.3   1 <1>  -0.1600 
 15 C       -0.0130    -5.5790     1.3030 C.2   1 <1>   0.4230 
 16 C        0.6470     3.1520     0.3130 C.3   1 <1>  -0.1600 
 17 O       -0.2280    -5.4370     2.4790 O.2   1 <1>  -0.5700 
 18 C       -0.9490    -6.2320     0.4040 C.ar  1 <1>   0.0860 
 19 C       -2.0880    -6.8570     0.9210 C.ar  1 <1>  -0.1500 
 20 C       -0.7860    -6.2780    -0.9860 C.ar  1 <1>  -0.1500 
 21 C       -3.0070    -7.4950     0.1080 C.ar  1 <1>  -0.1500 
 22 C       -1.7010    -6.9140    -1.8050 C.ar  1 <1>  -0.1500 
 23 C       -2.8150    -7.5260    -1.2600 C.ar  1 <1>  -0.1500 
 24 H        2.9740    -3.7430    -0.9790 H     1 <1>   0.0800 
 25 H        3.1970    -3.0040     0.5820 H     1 <1>   0.0800 
 26 H        2.5810     1.1510    -1.4630 H     1 <1>   0.0800 
 27 H        4.6970    -1.4640     0.3260 H     1 <1>   0.0800 
 28 H        4.8500    -0.2600    -0.9150 H     1 <1>   0.0800 
 29 H        0.7780    -2.9680     0.9650 H     1 <1>   0.0800 
 30 H        0.4950    -3.6350    -0.6150 H     1 <1>   0.0800 
 31 H        2.3180     1.3880     1.5480 H     1 <1>   0.0800 
 32 H        0.3350     0.1240    -1.3240 H     1 <1>   0.0800 
 33 H        0.3440     0.3310     0.4060 H     1 <1>   0.0800 
 34 H        5.7120     0.6850     1.1320 H     1 <1>   0.0800 
 35 H        4.2630     0.2610     2.0140 H     1 <1>   0.0800 
 36 H        2.0040    -5.0140     1.6270 H     1 <1>   0.0800 
 37 H        1.7330    -5.7150     0.0690 H     1 <1>   0.0800 
 38 H        2.5140     3.7950     1.1610 H     1 <1>   0.0800 
 39 H        2.5750     3.5260    -0.5660 H     1 <1>   0.0800 
 40 H        0.3790     2.4970    -1.7110 H     1 <1>   0.0800 
 41 H       -0.9550     2.1070    -0.6680 H     1 <1>   0.0800 
 42 H        0.2600     2.8920     1.2840 H     1 <1>   0.0800 
 43 H        0.2920     4.1400     0.0730 H     1 <1>   0.0800 
 44 H       -2.2530    -6.8390     1.9850 H     1 <1>   0.1500 
 45 H        0.0610    -5.8120    -1.4520 H     1 <1>   0.1500 
 46 H       -3.8720    -7.9670     0.5410 H     1 <1>   0.1500 
 47 H       -1.5490    -6.9330    -2.8710 H     1 <1>   0.1500 
 48 H       -3.5280    -8.0220    -1.8960 H     1 <1>   0.1500 
@<TRIPOS>BOND
  1   1   2  2   
  2   2   3  am  
  3   2   4  1   
  4   3   5  1   
  5   3   6  1   
  6   4   7  1   
  7   4  24  1   
  8   4  25  1   
  9   5   8  1   
 10   5   9  1   
 11   5  26  1   
 12   6  10  1   
 13   6  27  1   
 14   6  28  1   
 15   7  11  1   
 16   7  29  1   
 17   7  30  1   
 18   8  12  1   
 19   8  13  1   
 20   8  31  1   
 21   9  14  1   
 22   9  32  1   
 23   9  33  1   
 24  10  12  1   
 25  10  34  1   
 26  10  35  1   
 27  11  15  1   
 28  11  36  1   
 29  11  37  1   
 30  13  16  1   
 31  13  38  1   
 32  13  39  1   
 33  14  16  1   
 34  14  40  1   
 35  14  41  1   
 36  15  17  2   
 37  15  18  1   
 38  16  42  1   
 39  16  43  1   
 40  18  19  ar  
 41  18  20  ar  
 42  19  21  ar  
 43  19  44  1   
 44  20  22  ar  
 45  20  45  1   
 46  21  23  ar  
 47  21  46  1   
 48  22  23  ar  
 49  22  47  1   
 50  23  48  1   
@<TRIPOS>SUBSTRUCTURE
  1 ****   7 GROUP 4 **** **** 0

# MOE 2024.06 (io_trps.svl 2023.06)
