@<TRIPOS>MOLECULE
NONAME
47 48 1 0 0 
SMALL
USER_CHARGES


@<TRIPOS>ATOM
  1 S        2.4700     1.2460     0.4810 S.o2  1 <1>   1.0900 
  2 O        3.4570     1.0250     1.5130 O.2   1 <1>  -0.6500 
  3 O        1.8420     0.1400    -0.2070 O.2   1 <1>  -0.6500 
  4 C        1.1930     2.3330     1.0410 C.3   1 <1>  -0.0550 
  5 C        3.0650     2.3990    -0.7360 C.3   1 <1>  -0.0550 
  6 C        0.6820     3.0370    -0.2170 C.3   1 <1>   0.1900 
  7 C        1.9190     3.3640    -1.0890 C.3   1 <1>  -0.1600 
  8 N       -0.1170     4.2330     0.1420 N.3   1 <1>  -0.8100 
  9 C       -0.4530     5.1210    -1.0240 C.3   1 <1>   0.1710 
 10 C       -1.3480     3.8760     0.8710 C.3   1 <1>   0.0300 
 11 C        0.4470     6.3560    -1.1220 C.2   1 <1>   0.5690 
 12 O        0.4310     7.0180    -2.1320 O.2   1 <1>  -0.5700 
 13 N        1.2450     6.6160    -0.0430 N.am  1 <1>  -0.4940 
 14 C        2.2930     7.5290     0.1860 C.2   1 <1>  -0.0880 
 15 N        2.3350     8.8280    -0.1920 N.pl3 1 <1>   0.0480 
 16 C        3.4610     7.2690     0.8620 C.2   1 <1>   0.1410 
 17 C        3.5280     9.2840     0.2660 C.2   1 <1>   0.0360 
 18 C        1.3200     9.6850    -0.8480 C.3   1 <1>   0.0960 
 19 N        4.2270     8.4040     0.8930 N.2   1 <1>  -0.5650 
 20 C        3.8810     6.0230     1.4690 C.2   1 <1>   0.7160 
 21 C        0.0820     9.8610     0.0430 C.3   1 <1>  -0.1600 
 22 O        3.1910     5.0170     1.4710 O.2   1 <1>  -0.5700 
 23 N        5.0860     5.9190     2.0770 N.am  1 <1>  -0.8000 
 24 C       -0.9530    10.7740    -0.6230 C.3   1 <1>  -0.2400 
 25 H        1.6040     3.0590     1.7150 H     1 <1>   0.0800 
 26 H        0.4160     1.7800     1.5300 H     1 <1>   0.0800 
 27 H        3.4220     1.8830    -1.6070 H     1 <1>   0.0800 
 28 H        3.8760     2.9660    -0.3180 H     1 <1>   0.0800 
 29 H        0.0630     2.3420    -0.7630 H     1 <1>   0.0800 
 30 H        1.6690     3.2700    -2.1310 H     1 <1>   0.0800 
 31 H        2.2750     4.3590    -0.9080 H     1 <1>   0.0800 
 32 H       -1.4600     5.4860    -0.9360 H     1 <1>   0.0800 
 33 H       -0.3960     4.5710    -1.9470 H     1 <1>   0.0800 
 34 H       -1.1140     3.3680     1.7900 H     1 <1>   0.0800 
 35 H       -1.9750     3.2420     0.2670 H     1 <1>   0.0800 
 36 H       -1.8960     4.7680     1.1270 H     1 <1>   0.0800 
 37 H        1.2030     5.8230     0.6190 H     1 <1>   0.3700 
 38 H        3.8370    10.3030     0.1110 H     1 <1>   0.1500 
 39 H        1.0520     9.2600    -1.7960 H     1 <1>   0.0800 
 40 H        1.7590    10.6470    -1.0400 H     1 <1>   0.0800 
 41 H        0.3760    10.2870     0.9870 H     1 <1>   0.0800 
 42 H       -0.3690     8.9020     0.2270 H     1 <1>   0.0800 
 43 H        5.3580     5.0620     2.5540 H     1 <1>   0.3700 
 44 H        5.6890     6.7400     2.1460 H     1 <1>   0.3700 
 45 H       -0.5390    11.7500    -0.8030 H     1 <1>   0.0800 
 46 H       -1.8130    10.8800     0.0150 H     1 <1>   0.0800 
 47 H       -1.2740    10.3530    -1.5610 H     1 <1>   0.0800 
@<TRIPOS>BOND
  1   1   2  2   
  2   1   3  2   
  3   1   4  1   
  4   1   5  1   
  5   4   6  1   
  6   4  25  1   
  7   4  26  1   
  8   5   7  1   
  9   5  27  1   
 10   5  28  1   
 11   6   7  1   
 12   6   8  1   
 13   6  29  1   
 14   7  30  1   
 15   7  31  1   
 16   8   9  1   
 17   8  10  1   
 18   9  11  1   
 19   9  32  1   
 20   9  33  1   
 21  10  34  1   
 22  10  35  1   
 23  10  36  1   
 24  11  12  2   
 25  11  13  am  
 26  13  14  1   
 27  13  37  1   
 28  14  15  1   
 29  14  16  2   
 30  15  17  1   
 31  15  18  1   
 32  16  19  1   
 33  16  20  1   
 34  17  19  2   
 35  17  38  1   
 36  18  21  1   
 37  18  39  1   
 38  18  40  1   
 39  20  22  2   
 40  20  23  am  
 41  21  24  1   
 42  21  41  1   
 43  21  42  1   
 44  23  43  1   
 45  23  44  1   
 46  24  45  1   
 47  24  46  1   
 48  24  47  1   
@<TRIPOS>SUBSTRUCTURE
  1 ****  13 GROUP 4 **** **** 0

# MOE 2024.06 (io_trps.svl 2023.06)
