@<TRIPOS>MOLECULE
NONAME
46 48 1 0 0 
SMALL
USER_CHARGES


@<TRIPOS>ATOM
  1 O        1.6310     0.0540     0.3260 O.3   1 <1>  -0.2800 
  2 C        1.4250     1.1310    -0.4140 C.2   1 <1>  -0.0400 
  3 C        1.6580    -0.9910    -0.4760 C.2   1 <1>  -0.0100 
  4 C        1.3150     0.7810    -1.7180 C.2   1 <1>  -0.1500 
  5 C        1.3600     2.4850     0.2950 C.3   1 <1>   0.6030 
  6 C        1.4670    -0.6110    -1.7560 C.2   1 <1>  -0.1500 
  7 N       -0.0110     2.6980     0.8950 N.4   1 <1>  -0.9590 
  8 C        1.7800     3.6130    -0.6930 C.3   1 <1>   0.2090 
  9 C       -0.0160     3.7530     1.9390 C.3   1 <1>   0.3430 
 10 C       -0.5980     1.5010     1.5420 C.3   1 <1>   0.3430 
 11 N        1.6440     5.0040    -0.1590 N.pl3 1 <1>  -0.8690 
 12 C       -1.2790     3.4950     2.7510 C.3   1 <1>  -0.1600 
 13 C       -1.6930     2.0550     2.4390 C.3   1 <1>  -0.1600 
 14 C        2.6170     5.4700     0.7150 C.ar  1 <1>   0.4100 
 15 N        2.9640     4.6550     1.6940 N.ar  1 <1>  -0.6200 
 16 C        3.1800     6.7700     0.5160 C.ar  1 <1>   0.4100 
 17 C        3.9020     5.1950     2.4700 C.ar  1 <1>   0.1600 
 18 N        4.1040     7.2830     1.3060 N.ar  1 <1>  -0.6200 
 19 N        2.7610     7.5640    -0.5570 N.pl3 1 <1>  -0.8380 
 20 C        4.4470     6.4540     2.2850 C.ar  1 <1>   0.1600 
 21 C        1.8860     8.7030    -0.1700 C.3   1 <1>   0.1290 
 22 C        3.8440     7.9880    -1.4880 C.3   1 <1>   0.1290 
 23 H        1.8210    -1.9700    -0.0570 H     1 <1>   0.1500 
 24 H        1.1470     1.3890    -2.5910 H     1 <1>   0.1500 
 25 H        2.0880     2.4630     1.0880 H     1 <1>   0.0800 
 26 H        1.4360    -1.2240    -2.6410 H     1 <1>   0.1500 
 27 H       -0.6350     3.0080     0.1470 H     1 <1>   0.4500 
 28 H        1.1860     3.5360    -1.5860 H     1 <1>   0.0800 
 29 H        2.8060     3.4480    -0.9750 H     1 <1>   0.0800 
 30 H       -0.0150     4.7420     1.5110 H     1 <1>   0.0800 
 31 H        0.8510     3.6440     2.5710 H     1 <1>   0.0800 
 32 H        0.1510     1.0120     2.1450 H     1 <1>   0.0800 
 33 H       -0.9810     0.8010     0.8170 H     1 <1>   0.0800 
 34 H        1.5680     5.7170    -0.9060 H     1 <1>   0.4000 
 35 H       -2.0510     4.1850     2.4590 H     1 <1>   0.0800 
 36 H       -1.0760     3.6330     3.7990 H     1 <1>   0.0800 
 37 H       -1.7900     1.4610     3.3310 H     1 <1>   0.0800 
 38 H       -2.6320     2.0410     1.9130 H     1 <1>   0.0800 
 39 H        4.2540     4.6020     3.2970 H     1 <1>   0.1500 
 40 H        5.2000     6.8030     2.9700 H     1 <1>   0.1500 
 41 H        1.1260     8.3670     0.5140 H     1 <1>   0.0800 
 42 H        1.4110     9.1170    -1.0430 H     1 <1>   0.0800 
 43 H        2.4710     9.4680     0.3130 H     1 <1>   0.0800 
 44 H        4.5070     7.1620    -1.6800 H     1 <1>   0.0800 
 45 H        4.4130     8.7910    -1.0510 H     1 <1>   0.0800 
 46 H        3.4200     8.3180    -2.4200 H     1 <1>   0.0800 
@<TRIPOS>BOND
  1   1   2  1   
  2   1   3  1   
  3   2   4  2   
  4   2   5  1   
  5   3   6  2   
  6   3  23  1   
  7   4   6  1   
  8   4  24  1   
  9   5   7  1   
 10   5   8  1   
 11   5  25  1   
 12   6  26  1   
 13   7   9  1   
 14   7  10  1   
 15   7  27  1   
 16   8  11  1   
 17   8  28  1   
 18   8  29  1   
 19   9  12  1   
 20   9  30  1   
 21   9  31  1   
 22  10  13  1   
 23  10  32  1   
 24  10  33  1   
 25  11  14  1   
 26  11  34  1   
 27  12  13  1   
 28  12  35  1   
 29  12  36  1   
 30  13  37  1   
 31  13  38  1   
 32  14  15  ar  
 33  14  16  ar  
 34  15  17  ar  
 35  16  18  ar  
 36  16  19  1   
 37  17  20  ar  
 38  17  39  1   
 39  18  20  ar  
 40  19  21  1   
 41  19  22  1   
 42  20  40  1   
 43  21  41  1   
 44  21  42  1   
 45  21  43  1   
 46  22  44  1   
 47  22  45  1   
 48  22  46  1   
@<TRIPOS>SUBSTRUCTURE
  1 ****   8 GROUP 4 **** **** 0

# MOE 2024.06 (io_trps.svl 2023.06)
