@<TRIPOS>MOLECULE
NONAME
46 48 1 0 0 
SMALL
USER_CHARGES


@<TRIPOS>ATOM
  1 O        5.0760     0.5640     2.2520 O.co2 1 <1>  -0.9000 
  2 C        4.1040     1.0240     1.6300 C.2   1 <1>   0.9060 
  3 O        3.7590     2.2000     1.8580 O.co2 1 <1>  -0.9000 
  4 C        3.4560     0.2040     0.4340 C.3   1 <1>   0.2630 
  5 N        3.9680     0.5630    -0.9580 N.pl3 1 <1>  -0.8690 
  6 C        1.9330     0.3690     0.3930 C.3   1 <1>  -0.1600 
  7 C        3.5990    -1.3140     0.5850 C.3   1 <1>  -0.1600 
  8 C        4.9200     1.4950    -1.0130 C.ar  1 <1>   0.4100 
  9 C        1.3780    -0.8580    -0.3430 C.3   1 <1>  -0.1600 
 10 C        2.4620    -1.9370    -0.2360 C.3   1 <1>  -0.1600 
 11 N        4.5040     2.7090    -1.2740 N.ar  1 <1>  -0.6200 
 12 C        6.1760     1.2210    -0.4510 C.ar  1 <1>  -0.1500 
 13 C        5.0050     3.6180    -0.4440 C.ar  1 <1>   0.7710 
 14 C        6.7500     2.2040     0.2810 C.ar  1 <1>   0.2180 
 15 N        6.0890     3.3850     0.3220 N.ar  1 <1>  -0.1790 
 16 N        4.4080     4.8260    -0.3380 N.pl3 1 <1>  -0.8380 
 17 C        8.0160     2.0260     1.0930 C.3   1 <1>  -0.0970 
 18 C        3.5870     5.3710    -1.4530 C.3   1 <1>   0.2090 
 19 C        3.9340     5.2880     1.0010 C.3   1 <1>   0.2090 
 20 C        3.6560     6.9020    -1.4300 C.3   1 <1>  -0.1600 
 21 C        4.0210     6.8160     1.0690 C.3   1 <1>  -0.1600 
 22 C        3.2260     7.4720    -0.0690 C.3   1 <1>  -0.1600 
 23 H        3.1740     0.7130    -1.5800 H     1 <1>   0.4000 
 24 H        1.6450     1.3020    -0.0590 H     1 <1>   0.0800 
 25 H        1.5660     0.3620     1.4050 H     1 <1>   0.0800 
 26 H        3.4640    -1.5680     1.6220 H     1 <1>   0.0800 
 27 H        4.5720    -1.6520     0.2780 H     1 <1>   0.0800 
 28 H        1.2050    -0.6200    -1.3780 H     1 <1>   0.0800 
 29 H        0.4540    -1.1830     0.1020 H     1 <1>   0.0800 
 30 H        2.0910    -2.8310     0.2350 H     1 <1>   0.0800 
 31 H        2.8240    -2.1830    -1.2200 H     1 <1>   0.0800 
 32 H        6.5730     0.2270    -0.5280 H     1 <1>   0.1500 
 33 H        6.3000     4.1100     0.9890 H     1 <1>   0.4570 
 34 H        8.4200     1.0410     0.9370 H     1 <1>   0.0800 
 35 H        7.7870     2.1260     2.1400 H     1 <1>   0.0800 
 36 H        8.7560     2.7530     0.8140 H     1 <1>   0.0800 
 37 H        2.5680     5.0420    -1.3380 H     1 <1>   0.0800 
 38 H        3.9540     5.0070    -2.3990 H     1 <1>   0.0800 
 39 H        4.5040     4.8440     1.7990 H     1 <1>   0.0800 
 40 H        2.9110     4.9730     1.1350 H     1 <1>   0.0800 
 41 H        3.0190     7.2950    -2.2030 H     1 <1>   0.0800 
 42 H        4.6640     7.2070    -1.6500 H     1 <1>   0.0800 
 43 H        5.0530     7.1130     1.0130 H     1 <1>   0.0800 
 44 H        3.6330     7.1490     2.0160 H     1 <1>   0.0800 
 45 H        2.1760     7.2830     0.0770 H     1 <1>   0.0800 
 46 H        3.3760     8.5380    -0.0550 H     1 <1>   0.0800 
@<TRIPOS>BOND
  1   1   2  ar  
  2   2   3  ar  
  3   2   4  1   
  4   4   5  1   
  5   4   6  1   
  6   4   7  1   
  7   5   8  1   
  8   5  23  1   
  9   6   9  1   
 10   6  24  1   
 11   6  25  1   
 12   7  10  1   
 13   7  26  1   
 14   7  27  1   
 15   8  11  ar  
 16   8  12  ar  
 17   9  10  1   
 18   9  28  1   
 19   9  29  1   
 20  10  30  1   
 21  10  31  1   
 22  11  13  ar  
 23  12  14  ar  
 24  12  32  1   
 25  13  15  ar  
 26  13  16  1   
 27  14  15  ar  
 28  14  17  1   
 29  15  33  1   
 30  16  18  1   
 31  16  19  1   
 32  17  34  1   
 33  17  35  1   
 34  17  36  1   
 35  18  20  1   
 36  18  37  1   
 37  18  38  1   
 38  19  21  1   
 39  19  39  1   
 40  19  40  1   
 41  20  22  1   
 42  20  41  1   
 43  20  42  1   
 44  21  22  1   
 45  21  43  1   
 46  21  44  1   
 47  22  45  1   
 48  22  46  1   
@<TRIPOS>SUBSTRUCTURE
  1 ****  11 GROUP 4 **** **** 0

# MOE 2024.06 (io_trps.svl 2023.06)
