@<TRIPOS>MOLECULE
NONAME
61 63 1 0 0 
SMALL
USER_CHARGES


@<TRIPOS>ATOM
  1 O        0.7000    -0.8570     0.4530 O.3   1 <1>  -0.5600 
  2 C        0.0890    -2.0650     0.0430 C.3   1 <1>   0.2800 
  3 C        0.1740     0.3580    -0.0370 C.3   1 <1>   0.1200 
  4 C       -1.1600    -1.8480    -0.8500 C.3   1 <1>  -0.1600 
  5 C       -0.2500    -2.8500     1.3220 C.3   1 <1>  -0.1600 
  6 C        1.1650    -2.8540    -0.7300 C.3   1 <1>  -0.1600 
  7 C       -1.3100     0.4380     0.3300 C.3   1 <1>   0.2000 
  8 C       -2.0760    -0.6660    -0.4500 C.3   1 <1>   0.2800 
  9 C        0.9650    -3.0890     2.2310 C.3   1 <1>   0.3430 
 10 C        2.2410    -3.5020     0.1520 C.3   1 <1>   0.3430 
 11 O       -1.3870     0.2580     1.7110 O.3   1 <1>  -0.6800 
 12 O       -2.4840    -0.0930    -1.6380 O.3   1 <1>  -0.6800 
 13 C       -3.3720    -1.1240     0.2340 C.3   1 <1>  -0.2400 
 14 N        2.2400    -2.8670     1.4960 N.4   1 <1>  -0.9590 
 15 C        3.4480    -3.1720     2.3070 C.3   1 <1>   0.4860 
 16 C        4.6790    -2.7080     1.5540 C.ar  1 <1>  -0.1430 
 17 C        5.5110    -3.6390     0.9520 C.ar  1 <1>  -0.1500 
 18 C        4.9840    -1.3590     1.4530 C.ar  1 <1>  -0.1500 
 19 C        6.6370    -3.2410     0.2470 C.ar  1 <1>  -0.1430 
 20 C        6.1030    -0.9500     0.7510 C.ar  1 <1>  -0.1500 
 21 C        6.9350    -1.8850     0.1420 C.ar  1 <1>   0.0820 
 22 C        7.5260    -4.2950    -0.4050 C.3   1 <1>   0.2640 
 23 O        8.0410    -1.5350    -0.5640 O.3   1 <1>  -0.3630 
 24 O        7.8170    -5.2680     0.5350 O.3   1 <1>  -0.6800 
 25 C        8.4660    -0.1950    -0.6780 C.3   1 <1>   0.1200 
 26 C        9.7540    -0.1730    -1.5010 C.3   1 <1>  -0.1600 
 27 C       10.2830     1.2560    -1.6710 C.3   1 <1>  -0.2400 
 28 H        0.7150     1.1720     0.4140 H     1 <1>   0.0800 
 29 H        0.3130     0.4030    -1.1040 H     1 <1>   0.0800 
 30 H       -0.8010    -1.6760    -1.8510 H     1 <1>   0.0800 
 31 H       -1.7320    -2.7570    -0.8930 H     1 <1>   0.0800 
 32 H       -1.0180    -2.3530     1.8840 H     1 <1>   0.0800 
 33 H       -0.6530    -3.8080     1.0450 H     1 <1>   0.0800 
 34 H        0.6990    -3.6420    -1.2940 H     1 <1>   0.0800 
 35 H        1.6360    -2.2030    -1.4460 H     1 <1>   0.0800 
 36 H       -1.7240     1.4060     0.1070 H     1 <1>   0.0800 
 37 H        0.9280    -4.0940     2.6210 H     1 <1>   0.0800 
 38 H        0.9170    -2.4060     3.0640 H     1 <1>   0.0800 
 39 H        3.2030    -3.3830    -0.3220 H     1 <1>   0.0800 
 40 H        2.0430    -4.5570     0.2540 H     1 <1>   0.0800 
 41 H       -0.5680    -0.1960     1.9880 H     1 <1>   0.4000 
 42 H       -3.2160    -0.6120    -2.0230 H     1 <1>   0.4000 
 43 H       -3.1540    -1.6210     1.1600 H     1 <1>   0.0800 
 44 H       -3.9220    -1.8060    -0.3880 H     1 <1>   0.0800 
 45 H       -3.9890    -0.2710     0.4590 H     1 <1>   0.0800 
 46 H        2.2520    -1.8520     1.2820 H     1 <1>   0.4500 
 47 H        3.3970    -2.6590     3.2540 H     1 <1>   0.0800 
 48 H        3.5110    -4.2310     2.4950 H     1 <1>   0.0800 
 49 H        5.2970    -4.6930     1.0260 H     1 <1>   0.1500 
 50 H        4.3600    -0.6140     1.9180 H     1 <1>   0.1500 
 51 H        6.3120     0.1020     0.6900 H     1 <1>   0.1500 
 52 H        8.4570    -3.8880    -0.7580 H     1 <1>   0.0800 
 53 H        7.0150    -4.7660    -1.2270 H     1 <1>   0.0800 
 54 H        8.2750    -4.8480     1.2890 H     1 <1>   0.4000 
 55 H        7.6920     0.3680    -1.1710 H     1 <1>   0.0800 
 56 H        8.6410     0.1930     0.3110 H     1 <1>   0.0800 
 57 H       10.5010    -0.7700    -1.0060 H     1 <1>   0.0800 
 58 H        9.5620    -0.5970    -2.4710 H     1 <1>   0.0800 
 59 H       10.4990     1.6950    -0.7130 H     1 <1>   0.0800 
 60 H        9.5600     1.8680    -2.1810 H     1 <1>   0.0800 
 61 H       11.1890     1.2440    -2.2520 H     1 <1>   0.0800 
@<TRIPOS>BOND
  1   1   2  1   
  2   1   3  1   
  3   2   4  1   
  4   2   5  1   
  5   2   6  1   
  6   3   7  1   
  7   3  28  1   
  8   3  29  1   
  9   4   8  1   
 10   4  30  1   
 11   4  31  1   
 12   5   9  1   
 13   5  32  1   
 14   5  33  1   
 15   6  10  1   
 16   6  34  1   
 17   6  35  1   
 18   7   8  1   
 19   7  11  1   
 20   7  36  1   
 21   8  12  1   
 22   8  13  1   
 23   9  14  1   
 24   9  37  1   
 25   9  38  1   
 26  10  14  1   
 27  10  39  1   
 28  10  40  1   
 29  11  41  1   
 30  12  42  1   
 31  13  43  1   
 32  13  44  1   
 33  13  45  1   
 34  14  15  1   
 35  14  46  1   
 36  15  16  1   
 37  15  47  1   
 38  15  48  1   
 39  16  17  ar  
 40  16  18  ar  
 41  17  19  ar  
 42  17  49  1   
 43  18  20  ar  
 44  18  50  1   
 45  19  21  ar  
 46  19  22  1   
 47  20  21  ar  
 48  20  51  1   
 49  21  23  1   
 50  22  24  1   
 51  22  52  1   
 52  22  53  1   
 53  23  25  1   
 54  24  54  1   
 55  25  26  1   
 56  25  55  1   
 57  25  56  1   
 58  26  27  1   
 59  26  57  1   
 60  26  58  1   
 61  27  59  1   
 62  27  60  1   
 63  27  61  1   
@<TRIPOS>SUBSTRUCTURE
  1 ****  14 GROUP 4 **** **** 0

# MOE 2024.06 (io_trps.svl 2023.06)
