@<TRIPOS>MOLECULE
NONAME
57 60 1 0 0 
SMALL
USER_CHARGES


@<TRIPOS>ATOM
  1 O       -0.3660     0.5930     1.7550 O.2   1 <1>  -0.5700 
  2 C       -1.3020     0.7510     0.9900 C.2   1 <1>   0.7150 
  3 N       -2.1780    -0.3050     0.8080 N.am  1 <1>  -0.6600 
  4 C       -1.4530     2.0190     0.3060 C.2   1 <1>   0.0550 
  5 C       -2.2870    -1.4070     1.7990 C.3   1 <1>   0.1400 
  6 C       -3.0390    -0.4640    -0.3900 C.3   1 <1>   0.1400 
  7 O       -2.6560     2.5170     0.0430 O.3   1 <1>  -0.2800 
  8 C       -0.5240     2.8900    -0.1430 C.2   1 <1>   0.0460 
  9 C       -3.7440    -1.5610     2.2460 C.3   1 <1>  -0.1600 
 10 C       -4.5030    -0.5180     0.0440 C.3   1 <1>  -0.1600 
 11 C       -2.3650     3.6560    -0.5500 C.2   1 <1>   0.2980 
 12 N       -1.1230     3.9370    -0.6980 N.2   1 <1>  -0.5650 
 13 C        0.9890     2.8290    -0.0980 C.3   1 <1>  -0.0590 
 14 C       -4.7970    -1.5820     1.1200 C.3   1 <1>   0.4240 
 15 C       -3.5380     4.5170    -0.9950 C.3   1 <1>   0.0200 
 16 O       -5.9720    -1.1640     1.7720 O.3   1 <1>  -0.5600 
 17 C       -4.9890    -3.0000     0.5130 C.ar  1 <1>  -0.1430 
 18 C       -3.1260     5.8220    -1.6920 C.3   1 <1>  -0.2400 
 19 C       -7.1870    -1.3980     1.1360 C.3   1 <1>   0.1200 
 20 C       -6.2390    -3.6120     0.5120 C.ar  1 <1>  -0.1430 
 21 C       -3.9340    -3.7060    -0.0550 C.ar  1 <1>  -0.1500 
 22 C       -7.4340    -2.9000     1.1150 C.3   1 <1>  -0.0170 
 23 C       -6.4180    -4.8740    -0.0340 C.ar  1 <1>  -0.1500 
 24 C       -4.0900    -4.9680    -0.6000 C.ar  1 <1>   0.0820 
 25 C       -5.3560    -5.5680    -0.6040 C.ar  1 <1>   0.0820 
 26 O       -2.9450    -5.5150    -1.1020 O.3   1 <1>  -0.3630 
 27 O       -5.5320    -6.7970    -1.1750 O.3   1 <1>  -0.3620 
 28 C       -2.7310    -6.9090    -1.0930 C.3   1 <1>   0.0400 
 29 C       -6.8100    -7.3700    -1.3460 C.3   1 <1>   0.0400 
 30 H       -1.6850    -1.1910     2.6660 H     1 <1>   0.0800 
 31 H       -1.9070    -2.3150     1.3730 H     1 <1>   0.0800 
 32 H       -2.7650    -1.3630    -0.9100 H     1 <1>   0.0800 
 33 H       -2.8950     0.3480    -1.0800 H     1 <1>   0.0800 
 34 H       -3.9530    -0.7270     2.8930 H     1 <1>   0.0800 
 35 H       -3.8400    -2.4550     2.8330 H     1 <1>   0.0800 
 36 H       -5.1070    -0.7060    -0.8230 H     1 <1>   0.0800 
 37 H       -4.7600     0.4530     0.4300 H     1 <1>   0.0800 
 38 H        1.3270     1.9020     0.3260 H     1 <1>   0.0800 
 39 H        1.3620     3.6410     0.5000 H     1 <1>   0.0800 
 40 H        1.3830     2.9210    -1.0930 H     1 <1>   0.0800 
 41 H       -4.1300     4.7510    -0.1290 H     1 <1>   0.0800 
 42 H       -4.1460     3.9370    -1.6650 H     1 <1>   0.0800 
 43 H       -2.5300     6.4230    -1.0270 H     1 <1>   0.0800 
 44 H       -3.9960     6.3830    -1.9810 H     1 <1>   0.0800 
 45 H       -2.5440     5.6050    -2.5710 H     1 <1>   0.0800 
 46 H       -7.1560    -0.9920     0.1410 H     1 <1>   0.0800 
 47 H       -7.9560    -0.8970     1.6980 H     1 <1>   0.0800 
 48 H       -2.9480    -3.2980    -0.0950 H     1 <1>   0.1500 
 49 H       -8.3210    -3.1030     0.5420 H     1 <1>   0.0800 
 50 H       -7.5930    -3.2480     2.1200 H     1 <1>   0.0800 
 51 H       -7.4010    -5.3010    -0.0040 H     1 <1>   0.1500 
 52 H       -1.6760    -7.0870    -1.1910 H     1 <1>   0.0800 
 53 H       -3.2520    -7.3450    -1.9260 H     1 <1>   0.0800 
 54 H       -3.0900    -7.3140    -0.1630 H     1 <1>   0.0800 
 55 H       -6.6910    -8.2980    -1.8750 H     1 <1>   0.0800 
 56 H       -7.4200    -6.6970    -1.9230 H     1 <1>   0.0800 
 57 H       -7.2430    -7.5550    -0.3790 H     1 <1>   0.0800 
@<TRIPOS>BOND
  1   1   2  2   
  2   2   3  am  
  3   2   4  1   
  4   3   5  1   
  5   3   6  1   
  6   4   7  1   
  7   4   8  2   
  8   5   9  1   
  9   5  30  1   
 10   5  31  1   
 11   6  10  1   
 12   6  32  1   
 13   6  33  1   
 14   7  11  1   
 15   8  12  1   
 16   8  13  1   
 17   9  14  1   
 18   9  34  1   
 19   9  35  1   
 20  10  14  1   
 21  10  36  1   
 22  10  37  1   
 23  11  12  2   
 24  11  15  1   
 25  13  38  1   
 26  13  39  1   
 27  13  40  1   
 28  14  16  1   
 29  14  17  1   
 30  15  18  1   
 31  15  41  1   
 32  15  42  1   
 33  16  19  1   
 34  17  20  ar  
 35  17  21  ar  
 36  18  43  1   
 37  18  44  1   
 38  18  45  1   
 39  19  22  1   
 40  19  46  1   
 41  19  47  1   
 42  20  22  1   
 43  20  23  ar  
 44  21  24  ar  
 45  21  48  1   
 46  22  49  1   
 47  22  50  1   
 48  23  25  ar  
 49  23  51  1   
 50  24  25  ar  
 51  24  26  1   
 52  25  27  1   
 53  26  28  1   
 54  27  29  1   
 55  28  52  1   
 56  28  53  1   
 57  28  54  1   
 58  29  55  1   
 59  29  56  1   
 60  29  57  1   
@<TRIPOS>SUBSTRUCTURE
  1 ****   6 GROUP 4 **** **** 0

# MOE 2024.06 (io_trps.svl 2023.06)
