@<TRIPOS>MOLECULE
NONAME
32 33 1 0 0 
SMALL
USER_CHARGES


@<TRIPOS>ATOM
  1 F        1.5320    -0.0330    -1.4490 F     1 <1>  -0.1900 
  2 C        2.0100     0.9060    -0.6780 C.ar  1 <1>   0.1900 
  3 C        2.2740     0.6270     0.6520 C.ar  1 <1>   0.1600 
  4 C        2.2400     2.1540    -1.2050 C.ar  1 <1>  -0.1500 
  5 N        2.7630     1.5240     1.5000 N.ar  1 <1>  -0.6200 
  6 C        2.7440     3.1170    -0.3380 C.ar  1 <1>   0.0860 
  7 C        2.9880     2.7250     0.9820 C.ar  1 <1>   0.1600 
  8 C        3.0110     4.4680    -0.7800 C.2   1 <1>   0.5440 
  9 O        3.3540     4.6840    -1.9240 O.2   1 <1>  -0.5700 
 10 N        2.8790     5.5290     0.0710 N.am  1 <1>  -0.7300 
 11 C        3.0970     6.9390    -0.3170 C.3   1 <1>   0.2200 
 12 C        4.6020     7.2190    -0.4890 C.3   1 <1>   0.1400 
 13 C        2.4810     7.8340     0.7590 C.3   1 <1>  -0.1600 
 14 N        4.9480     8.6740    -0.4560 N.am  1 <1>  -0.6600 
 15 C        2.6670     9.3080     0.3720 C.3   1 <1>  -0.0990 
 16 C        4.0960     9.6540    -0.0130 C.2   1 <1>   0.5690 
 17 C        6.3430     8.9840    -0.8780 C.3   1 <1>   0.0600 
 18 O        4.4280    10.8110     0.0790 O.2   1 <1>  -0.5700 
 19 H        2.0760    -0.3640     1.0240 H     1 <1>   0.1500 
 20 H        2.0390     2.3760    -2.2390 H     1 <1>   0.1500 
 21 H        3.4030     3.4540     1.6560 H     1 <1>   0.1500 
 22 H        2.4540     5.3990     0.9900 H     1 <1>   0.3700 
 23 H        2.6060     7.1190    -1.2600 H     1 <1>   0.0800 
 24 H        4.9230     6.8010    -1.4270 H     1 <1>   0.0800 
 25 H        5.1430     6.7320     0.3030 H     1 <1>   0.0800 
 26 H        2.9710     7.6570     1.7000 H     1 <1>   0.0800 
 27 H        1.4310     7.6240     0.8610 H     1 <1>   0.0800 
 28 H        2.3700     9.9360     1.1920 H     1 <1>   0.0800 
 29 H        2.0390     9.5440    -0.4680 H     1 <1>   0.0800 
 30 H        6.5010     8.6450    -1.8860 H     1 <1>   0.0800 
 31 H        7.0390     8.4910    -0.2230 H     1 <1>   0.0800 
 32 H        6.5280    10.0440    -0.8410 H     1 <1>   0.0800 
@<TRIPOS>BOND
  1   1   2  1   
  2   2   3  ar  
  3   2   4  ar  
  4   3   5  ar  
  5   3  19  1   
  6   4   6  ar  
  7   4  20  1   
  8   5   7  ar  
  9   6   7  ar  
 10   6   8  1   
 11   7  21  1   
 12   8   9  2   
 13   8  10  am  
 14  10  11  1   
 15  10  22  1   
 16  11  12  1   
 17  11  13  1   
 18  11  23  1   
 19  12  14  1   
 20  12  24  1   
 21  12  25  1   
 22  13  15  1   
 23  13  26  1   
 24  13  27  1   
 25  14  16  am  
 26  14  17  1   
 27  15  16  1   
 28  15  28  1   
 29  15  29  1   
 30  16  18  2   
 31  17  30  1   
 32  17  31  1   
 33  17  32  1   
@<TRIPOS>SUBSTRUCTURE
  1 ****  10 GROUP 4 **** **** 0

# MOE 2024.06 (io_trps.svl 2023.06)
