@<TRIPOS>MOLECULE
NONAME
47 50 1 0 0 
SMALL
USER_CHARGES


@<TRIPOS>ATOM
  1 O        0.6750     0.7070     0.9550 O.co2 1 <1>  -0.9030 
  2 C        1.1110    -0.2700     0.3250 C.2   1 <1>   0.9770 
  3 O        0.3250    -1.1320    -0.0960 O.co2 1 <1>  -0.9030 
  4 C        2.5400    -0.3920     0.0850 C.ar  1 <1>  -0.1870 
  5 C        3.4170     0.5830     0.5480 C.ar  1 <1>  -0.1170 
  6 C        3.0820    -1.4870    -0.6160 C.ar  1 <1>  -0.1580 
  7 C        4.7720     0.4550     0.3030 C.ar  1 <1>   0.3020 
  8 C        4.4350    -1.6070    -0.8620 C.ar  1 <1>  -0.1170 
  9 N        5.8330     1.2600     0.6310 N.pl3 1 <1>  -0.7040 
 10 C        5.2900    -0.6110    -0.4000 C.ar  1 <1>   0.3020 
 11 C        6.9560     0.7470     0.1440 C.cat 1 <1>   1.0690 
 12 N        6.6680    -0.4090    -0.4990 N.pl3 1 <1>  -0.7680 
 13 N        8.1690     1.3270     0.3040 N.pl3 1 <1>  -0.5970 
 14 C        7.5310    -1.3130    -1.3020 C.3   1 <1>   0.2670 
 15 C        8.4160     2.5500     1.1420 C.3   1 <1>   0.4220 
 16 C        9.4690     0.7990    -0.1860 C.3   1 <1>   0.1600 
 17 C        7.4960     3.7490     0.8880 C.2   1 <1>   0.2910 
 18 C        9.8770     2.9110     0.8850 C.3   1 <1>  -0.1680 
 19 C       10.5460     1.5890     0.5450 C.3   1 <1>  -0.1680 
 20 O        7.5200     4.7250     1.7570 O.3   1 <1>  -0.0280 
 21 N        6.6650     3.8910    -0.0690 N.2   1 <1>  -0.5700 
 22 N        6.6190     5.5500     1.3250 N.2   1 <1>  -0.4160 
 23 C        6.1270     5.0620     0.2550 C.2   1 <1>   0.3280 
 24 C        5.0190     5.6770    -0.6050 C.3   1 <1>   0.0930 
 25 C        4.7600     7.1550    -0.2750 C.3   1 <1>  -0.2470 
 26 C        3.7150     4.8770    -0.4630 C.3   1 <1>  -0.2470 
 27 H        3.0370     1.4320     1.0910 H     1 <1>   0.1420 
 28 H        2.3980    -2.2450    -0.9670 H     1 <1>   0.1420 
 29 H        4.8100    -2.4550    -1.4020 H     1 <1>   0.1420 
 30 H        5.7330     2.2420     0.8970 H     1 <1>   0.4440 
 31 H        6.9320    -1.9690    -1.9080 H     1 <1>   0.0720 
 32 H        8.1410    -1.9140    -0.6490 H     1 <1>   0.0720 
 33 H        8.1590    -0.7420    -1.9620 H     1 <1>   0.0720 
 34 H        8.3140     2.2620     2.1740 H     1 <1>   0.0720 
 35 H        9.5770    -0.2510     0.0250 H     1 <1>   0.0720 
 36 H        9.5480     0.9760    -1.2470 H     1 <1>   0.0720 
 37 H        9.9410     3.5780     0.0410 H     1 <1>   0.0720 
 38 H       10.3260     3.3910     1.7380 H     1 <1>   0.0720 
 39 H       10.8200     1.0690     1.4480 H     1 <1>   0.0720 
 40 H       11.4280     1.7200    -0.0590 H     1 <1>   0.0720 
 41 H        5.3390     5.6200    -1.6310 H     1 <1>   0.0720 
 42 H        4.4180     7.2600     0.7390 H     1 <1>   0.0720 
 43 H        4.0160     7.5630    -0.9360 H     1 <1>   0.0720 
 44 H        5.6670     7.7220    -0.3900 H     1 <1>   0.0720 
 45 H        3.3730     4.8960     0.5570 H     1 <1>   0.0720 
 46 H        3.8690     3.8540    -0.7560 H     1 <1>   0.0720 
 47 H        2.9480     5.2950    -1.0910 H     1 <1>   0.0720 
@<TRIPOS>BOND
  1   1   2  ar  
  2   2   3  ar  
  3   2   4  1   
  4   4   5  ar  
  5   4   6  ar  
  6   5   7  ar  
  7   5  27  1   
  8   6   8  ar  
  9   6  28  1   
 10   7   9  1   
 11   7  10  ar  
 12   8  10  ar  
 13   8  29  1   
 14   9  11  ar  
 15   9  30  1   
 16  10  12  1   
 17  11  12  ar  
 18  11  13  ar  
 19  12  14  1   
 20  13  15  1   
 21  13  16  1   
 22  14  31  1   
 23  14  32  1   
 24  14  33  1   
 25  15  17  1   
 26  15  18  1   
 27  15  34  1   
 28  16  19  1   
 29  16  35  1   
 30  16  36  1   
 31  17  20  1   
 32  17  21  2   
 33  18  19  1   
 34  18  37  1   
 35  18  38  1   
 36  19  39  1   
 37  19  40  1   
 38  20  22  1   
 39  21  23  1   
 40  22  23  2   
 41  23  24  1   
 42  24  25  1   
 43  24  26  1   
 44  24  41  1   
 45  25  42  1   
 46  25  43  1   
 47  25  44  1   
 48  26  45  1   
 49  26  46  1   
 50  26  47  1   
@<TRIPOS>SUBSTRUCTURE
  1 ****   9 GROUP 4 **** **** 0

# MOE 2024.06 (io_trps.svl 2023.06)
