@<TRIPOS>MOLECULE
NONAME
51 53 1 0 0 
SMALL
USER_CHARGES


@<TRIPOS>ATOM
  1 S        1.3360     1.1190     1.2970 S.o2  1 <1>   1.4470 
  2 O        1.7060     2.1780     0.3920 O.2   1 <1>  -0.6500 
  3 O        1.4180     1.3050     2.7240 O.2   1 <1>  -0.6500 
  4 N       -0.2930     0.9820     1.0400 N.am  1 <1>  -0.9780 
  5 C        1.9950    -0.4880     0.7740 C.ar  1 <1>  -0.0090 
  6 C        1.6730    -1.6460     1.4640 C.ar  1 <1>  -0.1500 
  7 C        2.8130    -0.6070    -0.3410 C.ar  1 <1>  -0.1500 
  8 C        2.1070    -2.9080     1.0630 C.ar  1 <1>   0.0860 
  9 C        3.2890    -1.8410    -0.7460 C.ar  1 <1>  -0.1500 
 10 C        2.9460    -2.9890    -0.0540 C.ar  1 <1>  -0.1430 
 11 C        1.6660    -4.0760     1.8030 C.2   1 <1>   0.5440 
 12 C        3.5010    -4.3300    -0.5150 C.3   1 <1>  -0.0960 
 13 O        2.1140    -4.2490     2.9210 O.2   1 <1>  -0.5700 
 14 N        0.7720    -5.0060     1.2950 N.am  1 <1>  -0.6600 
 15 C       -0.1820    -4.7860     0.1520 C.3   1 <1>   0.2200 
 16 C        0.8230    -6.4020     1.8330 C.3   1 <1>   0.0600 
 17 C       -1.5020    -5.5380     0.3530 C.3   1 <1>  -0.1600 
 18 C       -0.6560    -3.3410    -0.0250 C.3   1 <1>  -0.1600 
 19 C       -2.5210    -4.8490    -0.5640 C.3   1 <1>  -0.0800 
 20 C       -1.9810    -3.4230    -0.7870 C.3   1 <1>  -0.0800 
 21 C       -3.9610    -4.9220    -0.0200 C.3   1 <1>   0.1400 
 22 C       -2.9700    -2.3110    -0.3940 C.3   1 <1>  -0.0990 
 23 N       -4.8160    -3.9160    -0.7000 N.am  1 <1>  -0.6600 
 24 C       -4.3640    -2.6390    -0.8890 C.2   1 <1>   0.5690 
 25 C       -6.1790    -4.3530    -1.1040 C.3   1 <1>   0.0600 
 26 O       -5.0180    -1.7720    -1.4190 O.2   1 <1>  -0.5700 
 27 H       -0.4740     1.6870     0.3300 H     1 <1>   0.4200 
 28 H       -0.6920     1.3450     1.9030 H     1 <1>   0.4200 
 29 H        1.0520    -1.5780     2.3420 H     1 <1>   0.1500 
 30 H        3.0830     0.2750    -0.8990 H     1 <1>   0.1500 
 31 H        3.9310    -1.8980    -1.6090 H     1 <1>   0.1500 
 32 H        4.2820    -4.1960    -1.2420 H     1 <1>   0.0800 
 33 H        2.7210    -4.9220    -0.9570 H     1 <1>   0.0800 
 34 H        3.9130    -4.8680     0.3210 H     1 <1>   0.0800 
 35 H        0.2770    -5.1220    -0.7630 H     1 <1>   0.0800 
 36 H        0.7640    -7.1140     1.0300 H     1 <1>   0.0800 
 37 H        0.0070    -6.5590     2.5160 H     1 <1>   0.0800 
 38 H        1.7450    -6.5720     2.3630 H     1 <1>   0.0800 
 39 H       -1.4120    -6.5820     0.1120 H     1 <1>   0.0800 
 40 H       -1.8110    -5.4260     1.3790 H     1 <1>   0.0800 
 41 H       -0.8220    -2.9050     0.9440 H     1 <1>   0.0800 
 42 H        0.0480    -2.7510    -0.5830 H     1 <1>   0.0800 
 43 H       -2.5080    -5.3550    -1.5150 H     1 <1>   0.0800 
 44 H       -1.7760    -3.3210    -1.8410 H     1 <1>   0.0800 
 45 H       -3.9720    -4.7110     1.0360 H     1 <1>   0.0800 
 46 H       -4.3570    -5.9110    -0.1710 H     1 <1>   0.0800 
 47 H       -2.6520    -1.3700    -0.8050 H     1 <1>   0.0800 
 48 H       -3.0220    -2.2100     0.6750 H     1 <1>   0.0800 
 49 H       -6.1080    -5.1570    -1.8140 H     1 <1>   0.0800 
 50 H       -6.7160    -3.5390    -1.5600 H     1 <1>   0.0800 
 51 H       -6.7260    -4.6850    -0.2390 H     1 <1>   0.0800 
@<TRIPOS>BOND
  1   1   2  2   
  2   1   3  2   
  3   1   4  am  
  4   1   5  1   
  5   4  27  1   
  6   4  28  1   
  7   5   6  ar  
  8   5   7  ar  
  9   6   8  ar  
 10   6  29  1   
 11   7   9  ar  
 12   7  30  1   
 13   8  10  ar  
 14   8  11  1   
 15   9  10  ar  
 16   9  31  1   
 17  10  12  1   
 18  11  13  2   
 19  11  14  am  
 20  12  32  1   
 21  12  33  1   
 22  12  34  1   
 23  14  15  1   
 24  14  16  1   
 25  15  17  1   
 26  15  18  1   
 27  15  35  1   
 28  16  36  1   
 29  16  37  1   
 30  16  38  1   
 31  17  19  1   
 32  17  39  1   
 33  17  40  1   
 34  18  20  1   
 35  18  41  1   
 36  18  42  1   
 37  19  20  1   
 38  19  21  1   
 39  19  43  1   
 40  20  22  1   
 41  20  44  1   
 42  21  23  1   
 43  21  45  1   
 44  21  46  1   
 45  22  24  1   
 46  22  47  1   
 47  22  48  1   
 48  23  24  am  
 49  23  25  1   
 50  24  26  2   
 51  25  49  1   
 52  25  50  1   
 53  25  51  1   
@<TRIPOS>SUBSTRUCTURE
  1 ****  18 GROUP 4 **** **** 0

# MOE 2024.06 (io_trps.svl 2023.06)
