@<TRIPOS>MOLECULE
NONAME
43 43 1 0 0 
SMALL
USER_CHARGES


@<TRIPOS>ATOM
  1 CL       0.1100     0.3020     0.2820 Cl    1 <1>  -0.1770 
  2 C        1.7450     0.9130     0.1550 C.ar  1 <1>   0.1770 
  3 C        2.8270     0.0620     0.3370 C.ar  1 <1>  -0.1440 
  4 C        1.9200     2.2550    -0.1300 C.ar  1 <1>  -0.1500 
  5 C        4.1090     0.5830     0.2280 C.ar  1 <1>  -0.1500 
  6 C        2.6190    -1.4130     0.6490 C.3   1 <1>  -0.0960 
  7 C        3.2020     2.7630    -0.2360 C.ar  1 <1>  -0.1500 
  8 C        4.3000     1.9350    -0.0590 C.ar  1 <1>   0.0830 
  9 O        5.5200     2.5160    -0.1810 O.3   1 <1>  -0.3630 
 10 C        6.7060     1.7760    -0.0260 C.3   1 <1>   0.1200 
 11 C        7.8770     2.7400    -0.2310 C.3   1 <1>  -0.1600 
 12 C        9.2330     2.0330    -0.0890 C.3   1 <1>  -0.1600 
 13 C       10.3780     3.0280    -0.2970 C.3   1 <1>   0.3430 
 14 N       11.7000     2.3810    -0.0580 N.4   1 <1>  -0.9590 
 15 C       12.7500     3.4230     0.1020 C.3   1 <1>   0.3430 
 16 C       12.0480     1.4030    -1.1260 C.3   1 <1>   0.3430 
 17 C       13.9880     2.8180     0.7530 C.3   1 <1>  -0.2400 
 18 C       12.1290     0.0160    -0.5010 C.3   1 <1>  -0.2400 
 19 H        1.0630     2.8890    -0.2650 H     1 <1>   0.1500 
 20 H        4.9450    -0.0730     0.3680 H     1 <1>   0.1500 
 21 H        2.0650    -1.5180     1.5650 H     1 <1>   0.0800 
 22 H        3.5580    -1.9240     0.7580 H     1 <1>   0.0800 
 23 H        2.0660    -1.8810    -0.1460 H     1 <1>   0.0800 
 24 H        3.3590     3.8040    -0.4560 H     1 <1>   0.1500 
 25 H        6.7150     0.9930    -0.7650 H     1 <1>   0.0800 
 26 H        6.7170     1.3580     0.9660 H     1 <1>   0.0800 
 27 H        7.8000     3.5290     0.4990 H     1 <1>   0.0800 
 28 H        7.7940     3.1730    -1.2130 H     1 <1>   0.0800 
 29 H        9.2870     1.2460    -0.8200 H     1 <1>   0.0800 
 30 H        9.3010     1.6040     0.8960 H     1 <1>   0.0800 
 31 H       10.2480     3.8450     0.3950 H     1 <1>   0.0800 
 32 H       10.3370     3.4300    -1.2970 H     1 <1>   0.0800 
 33 H       11.6440     1.8650     0.8300 H     1 <1>   0.4500 
 34 H       12.3810     4.2160     0.7340 H     1 <1>   0.0800 
 35 H       13.0030     3.8490    -0.8570 H     1 <1>   0.0800 
 36 H       12.9980     1.6540    -1.5710 H     1 <1>   0.0800 
 37 H       11.3010     1.4100    -1.9030 H     1 <1>   0.0800 
 38 H       13.7460     2.3810     1.7050 H     1 <1>   0.0800 
 39 H       14.7120     3.5970     0.9220 H     1 <1>   0.0800 
 40 H       14.4470     2.0810     0.1200 H     1 <1>   0.0800 
 41 H       12.8950    -0.0220     0.2530 H     1 <1>   0.0800 
 42 H       12.3810    -0.7000    -1.2640 H     1 <1>   0.0800 
 43 H       11.1850    -0.2730    -0.0760 H     1 <1>   0.0800 
@<TRIPOS>BOND
  1   1   2  1   
  2   2   3  ar  
  3   2   4  ar  
  4   3   5  ar  
  5   3   6  1   
  6   4   7  ar  
  7   4  19  1   
  8   5   8  ar  
  9   5  20  1   
 10   6  21  1   
 11   6  22  1   
 12   6  23  1   
 13   7   8  ar  
 14   7  24  1   
 15   8   9  1   
 16   9  10  1   
 17  10  11  1   
 18  10  25  1   
 19  10  26  1   
 20  11  12  1   
 21  11  27  1   
 22  11  28  1   
 23  12  13  1   
 24  12  29  1   
 25  12  30  1   
 26  13  14  1   
 27  13  31  1   
 28  13  32  1   
 29  14  15  1   
 30  14  16  1   
 31  14  33  1   
 32  15  17  1   
 33  15  34  1   
 34  15  35  1   
 35  16  18  1   
 36  16  36  1   
 37  16  37  1   
 38  17  38  1   
 39  17  39  1   
 40  17  40  1   
 41  18  41  1   
 42  18  42  1   
 43  18  43  1   
@<TRIPOS>SUBSTRUCTURE
  1 ****  10 GROUP 4 **** **** 0

# MOE 2024.06 (io_trps.svl 2023.06)
