@<TRIPOS>MOLECULE
NONAME
51 54 1 0 0 
SMALL
USER_CHARGES


@<TRIPOS>ATOM
  1 O       -1.9510     0.7540    -1.4360 O.2   1 <1>  -0.5700 
  2 C       -1.7720     0.7370    -0.2340 C.2   1 <1>   0.7150 
  3 N       -1.9120    -0.4450     0.4190 N.am  1 <1>  -0.7300 
  4 C       -1.4390     1.9120     0.5180 C.2   1 <1>  -0.2370 
  5 C       -2.2230    -1.7530    -0.2000 C.3   1 <1>   0.2200 
  6 N       -1.2820     3.1670     0.0060 N.pl3 1 <1>   0.3140 
  7 C       -1.2160     2.0420     1.8570 C.2   1 <1>  -0.1500 
  8 C       -3.6740    -2.1480     0.0430 C.3   1 <1>  -0.0800 
  9 C       -1.5020    -2.8450     0.5760 C.3   1 <1>   0.1200 
 10 N       -0.9770     4.0600     0.9680 N.2   1 <1>  -0.7070 
 11 C       -1.4160     3.5650    -1.4270 C.3   1 <1>   0.0960 
 12 C       -0.9390     3.3770     2.0660 C.2   1 <1>   0.1080 
 13 C       -3.6280    -2.8220     1.4210 C.3   1 <1>   0.1200 
 14 C       -4.7110    -1.0130    -0.0650 C.3   1 <1>  -0.0160 
 15 O       -2.2790    -3.0450     1.7160 O.3   1 <1>  -0.5600 
 16 C       -1.1720     5.0600    -1.6910 C.3   1 <1>  -0.2400 
 17 C       -0.6230     4.0190     3.3970 C.3   1 <1>  -0.0590 
 18 C       -6.1310    -1.5580     0.0620 C.ar  1 <1>  -0.1440 
 19 C       -6.7880    -2.2150    -1.0050 C.ar  1 <1>   0.0000 
 20 C       -6.8110    -1.4270     1.2370 C.ar  1 <1>  -0.1500 
 21 C       -8.0940    -2.7100    -0.7670 C.ar  1 <1>   0.3100 
 22 C       -6.2310    -2.4070    -2.2910 C.ar  1 <1>  -0.1500 
 23 C       -8.1050    -1.9460     1.3640 C.ar  1 <1>   0.1600 
 24 N       -8.7360    -2.5680     0.4190 N.ar  1 <1>  -0.6200 
 25 C       -8.7650    -3.3800    -1.8030 C.ar  1 <1>  -0.1500 
 26 C       -6.9130    -3.0620    -3.2790 C.ar  1 <1>  -0.1500 
 27 C       -8.1950    -3.5580    -3.0340 C.ar  1 <1>  -0.1500 
 28 H       -1.7990    -0.4740     1.4320 H     1 <1>   0.3700 
 29 H       -1.9600    -1.7540    -1.2450 H     1 <1>   0.0800 
 30 H       -1.2410     1.2850     2.6190 H     1 <1>   0.1500 
 31 H       -3.9260    -2.9110    -0.6710 H     1 <1>   0.0800 
 32 H       -0.5010    -2.5690     0.8600 H     1 <1>   0.0800 
 33 H       -1.4860    -3.7660     0.0200 H     1 <1>   0.0800 
 34 H       -0.7140     2.9860    -1.9970 H     1 <1>   0.0800 
 35 H       -2.4070     3.3060    -1.7500 H     1 <1>   0.0800 
 36 H       -4.1460    -3.7650     1.4180 H     1 <1>   0.0800 
 37 H       -4.0290    -2.1890     2.1920 H     1 <1>   0.0800 
 38 H       -4.5990    -0.4960    -1.0020 H     1 <1>   0.0800 
 39 H       -4.5400    -0.2870     0.7100 H     1 <1>   0.0800 
 40 H       -0.1750     5.3320    -1.3900 H     1 <1>   0.0800 
 41 H       -1.8800     5.6550    -1.1420 H     1 <1>   0.0800 
 42 H       -1.2840     5.2700    -2.7380 H     1 <1>   0.0800 
 43 H       -0.6360     3.2870     4.1820 H     1 <1>   0.0800 
 44 H       -1.3520     4.7790     3.6090 H     1 <1>   0.0800 
 45 H        0.3500     4.4730     3.3520 H     1 <1>   0.0800 
 46 H       -6.3800    -0.9330     2.0880 H     1 <1>   0.1500 
 47 H       -5.2490    -2.0290    -2.5040 H     1 <1>   0.1500 
 48 H       -8.6070    -1.8220     2.3090 H     1 <1>   0.1500 
 49 H       -9.7510    -3.7490    -1.5920 H     1 <1>   0.1500 
 50 H       -6.4760    -3.2030    -4.2530 H     1 <1>   0.1500 
 51 H       -8.7220    -4.0730    -3.8190 H     1 <1>   0.1500 
@<TRIPOS>BOND
  1   1   2  2   
  2   2   3  am  
  3   2   4  1   
  4   3   5  1   
  5   3  28  1   
  6   4   6  1   
  7   4   7  2   
  8   5   8  1   
  9   5   9  1   
 10   5  29  1   
 11   6  10  1   
 12   6  11  1   
 13   7  12  1   
 14   7  30  1   
 15   8  13  1   
 16   8  14  1   
 17   8  31  1   
 18   9  15  1   
 19   9  32  1   
 20   9  33  1   
 21  10  12  2   
 22  11  16  1   
 23  11  34  1   
 24  11  35  1   
 25  12  17  1   
 26  13  15  1   
 27  13  36  1   
 28  13  37  1   
 29  14  18  1   
 30  14  38  1   
 31  14  39  1   
 32  16  40  1   
 33  16  41  1   
 34  16  42  1   
 35  17  43  1   
 36  17  44  1   
 37  17  45  1   
 38  18  19  ar  
 39  18  20  ar  
 40  19  21  ar  
 41  19  22  ar  
 42  20  23  ar  
 43  20  46  1   
 44  21  24  ar  
 45  21  25  ar  
 46  22  26  ar  
 47  22  47  1   
 48  23  24  ar  
 49  23  48  1   
 50  25  27  ar  
 51  25  49  1   
 52  26  27  ar  
 53  26  50  1   
 54  27  51  1   
@<TRIPOS>SUBSTRUCTURE
  1 ****  14 GROUP 4 **** **** 0

# MOE 2024.06 (io_trps.svl 2023.06)
