@<TRIPOS>MOLECULE
NONAME
36 37 1 0 0 
SMALL
USER_CHARGES


@<TRIPOS>ATOM
  1 O       -2.2790     0.8080    -2.1460 O.2   1 <1>  -0.5700 
  2 C       -1.9750     0.7800    -0.9770 C.2   1 <1>   0.5690 
  3 N       -2.0280    -0.3640    -0.2520 N.am  1 <1>  -0.7300 
  4 C       -1.5210     2.0690    -0.2930 C.3   1 <1>   0.1810 
  5 C       -2.4540    -1.6910    -0.7440 C.3   1 <1>   0.2200 
  6 O       -1.3190     1.8860     1.0910 O.3   1 <1>  -0.5600 
  7 C       -3.7760    -2.0630    -0.0950 C.3   1 <1>  -0.0800 
  8 C       -1.5130    -2.7730    -0.2160 C.3   1 <1>   0.1200 
  9 C       -0.9040     3.0360     1.7560 C.3   1 <1>   0.0400 
 10 C       -3.3050    -2.6630     1.2310 C.3   1 <1>   0.1200 
 11 C       -4.5580    -3.0790    -0.9490 C.3   1 <1>  -0.0160 
 12 O       -2.0640    -3.2500     0.9790 O.3   1 <1>  -0.5600 
 13 C       -5.8850    -3.4450    -0.3010 C.ar  1 <1>  -0.1440 
 14 C       -6.0790    -4.6520     0.3400 C.ar  1 <1>  -0.1500 
 15 C       -6.9640    -2.5860    -0.3220 C.ar  1 <1>  -0.1500 
 16 C       -7.3070    -4.9310     0.9160 C.ar  1 <1>   0.1600 
 17 C       -8.1510    -2.9620     0.2850 C.ar  1 <1>   0.1600 
 18 N       -8.3480    -4.1140     0.9060 N.ar  1 <1>  -0.6200 
 19 H       -1.7660    -0.3000     0.7380 H     1 <1>   0.3700 
 20 H       -2.2730     2.8240    -0.4340 H     1 <1>   0.0800 
 21 H       -0.5970     2.3930    -0.7360 H     1 <1>   0.0800 
 22 H       -2.4990    -1.6870    -1.8210 H     1 <1>   0.0800 
 23 H       -4.3910    -1.1960     0.0680 H     1 <1>   0.0800 
 24 H       -0.5210    -2.4000    -0.0310 H     1 <1>   0.0800 
 25 H       -1.4680    -3.6010    -0.9020 H     1 <1>   0.0800 
 26 H       -0.7790     2.7940     2.7970 H     1 <1>   0.0800 
 27 H       -1.6550     3.8000     1.6490 H     1 <1>   0.0800 
 28 H        0.0340     3.3660     1.3450 H     1 <1>   0.0800 
 29 H       -3.9740    -3.4040     1.6290 H     1 <1>   0.0800 
 30 H       -3.1540    -1.8880     1.9630 H     1 <1>   0.0800 
 31 H       -3.9720    -3.9690    -1.0980 H     1 <1>   0.0800 
 32 H       -4.7540    -2.6530    -1.9180 H     1 <1>   0.0800 
 33 H       -5.2870    -5.3760     0.3990 H     1 <1>   0.1500 
 34 H       -6.8940    -1.6280    -0.8050 H     1 <1>   0.1500 
 35 H       -7.4400    -5.8770     1.4130 H     1 <1>   0.1500 
 36 H       -8.9820    -2.2780     0.2600 H     1 <1>   0.1500 
@<TRIPOS>BOND
  1   1   2  2   
  2   2   3  am  
  3   2   4  1   
  4   3   5  1   
  5   3  19  1   
  6   4   6  1   
  7   4  20  1   
  8   4  21  1   
  9   5   7  1   
 10   5   8  1   
 11   5  22  1   
 12   6   9  1   
 13   7  10  1   
 14   7  11  1   
 15   7  23  1   
 16   8  12  1   
 17   8  24  1   
 18   8  25  1   
 19   9  26  1   
 20   9  27  1   
 21   9  28  1   
 22  10  12  1   
 23  10  29  1   
 24  10  30  1   
 25  11  13  1   
 26  11  31  1   
 27  11  32  1   
 28  13  14  ar  
 29  13  15  ar  
 30  14  16  ar  
 31  14  33  1   
 32  15  17  ar  
 33  15  34  1   
 34  16  18  ar  
 35  16  35  1   
 36  17  18  ar  
 37  17  36  1   
@<TRIPOS>SUBSTRUCTURE
  1 ****   7 GROUP 4 **** **** 0

# MOE 2024.06 (io_trps.svl 2023.06)
