@<TRIPOS>MOLECULE
NONAME
50 52 1 0 0 
SMALL
USER_CHARGES


@<TRIPOS>ATOM
  1 O       -0.0080    -1.6880    -0.9410 O.2   1 <1>  -0.5700 
  2 C       -0.5940    -0.6480    -0.7610 C.2   1 <1>   0.5690 
  3 N       -1.5480    -0.5570     0.2340 N.am  1 <1>  -0.6600 
  4 C       -0.2360     0.4690    -1.7500 C.3   1 <1>   0.0440 
  5 C       -1.9830    -1.7970     0.9640 C.3   1 <1>   0.3210 
  6 C       -2.2030     0.6760     0.7570 C.3   1 <1>   0.1400 
  7 C       -0.2940     1.9130    -1.2630 C.ar  1 <1>  -0.1440 
  8 C       -3.4670    -2.0860     0.7330 C.2   1 <1>   0.0460 
  9 C       -3.3620     1.1160    -0.1520 C.3   1 <1>   0.3430 
 10 C       -1.2320     2.7920    -1.7980 C.ar  1 <1>  -0.1500 
 11 C        0.5870     2.3520    -0.2740 C.ar  1 <1>  -0.1500 
 12 N       -4.4410    -1.4000     1.3800 N.2   1 <1>  -0.5650 
 13 C       -4.0060    -3.0240    -0.0820 C.2   1 <1>  -0.3320 
 14 N       -3.9030     2.4580     0.2430 N.4   1 <1>  -0.9590 
 15 C       -1.2990     4.0690    -1.2810 C.ar  1 <1>   0.0820 
 16 C        0.5180     3.6500     0.2190 C.ar  1 <1>  -0.1500 
 17 C       -5.5350    -1.9540     0.9670 C.2   1 <1>   0.0360 
 18 N       -5.3400    -2.9460     0.0750 N.pl3 1 <1>   0.0330 
 19 C       -3.3470    -4.0270    -1.0160 C.3   1 <1>  -0.0600 
 20 C       -4.6280     2.3740     1.5500 C.3   1 <1>   0.2630 
 21 C       -4.7950     2.9950    -0.8260 C.3   1 <1>   0.2630 
 22 O       -2.1500     5.0500    -1.6010 O.3   1 <1>  -0.3620 
 23 C       -0.4470     4.4870    -0.3020 C.ar  1 <1>   0.0820 
 24 C       -1.7180     6.2080    -0.8820 C.3   1 <1>   0.4000 
 25 O       -0.7120     5.7560     0.0220 O.3   1 <1>  -0.3620 
 26 H       -0.8740     0.3490    -2.6050 H     1 <1>   0.0800 
 27 H        0.7660     0.2850    -2.0960 H     1 <1>   0.0800 
 28 H       -1.8090    -1.6730     2.0180 H     1 <1>   0.0800 
 29 H       -1.4100    -2.6510     0.6520 H     1 <1>   0.0800 
 30 H       -1.4820     1.4590     0.8630 H     1 <1>   0.0800 
 31 H       -2.5870     0.4770     1.7420 H     1 <1>   0.0800 
 32 H       -4.1470     0.3810    -0.1160 H     1 <1>   0.0800 
 33 H       -2.9980     1.1620    -1.1630 H     1 <1>   0.0800 
 34 H       -1.8970     2.5030    -2.5930 H     1 <1>   0.1500 
 35 H        1.3310     1.6790     0.1210 H     1 <1>   0.1500 
 36 H       -3.1000     3.1060     0.3330 H     1 <1>   0.4500 
 37 H        1.1910     4.0010     0.9810 H     1 <1>   0.1500 
 38 H       -6.5220    -1.6730     1.2940 H     1 <1>   0.1500 
 39 H       -6.0550    -3.5290    -0.3720 H     1 <1>   0.2700 
 40 H       -2.2830    -3.8760    -1.0540 H     1 <1>   0.0800 
 41 H       -3.7350    -3.9180    -2.0130 H     1 <1>   0.0800 
 42 H       -3.5370    -5.0300    -0.6780 H     1 <1>   0.0800 
 43 H       -5.4320     1.6580     1.4850 H     1 <1>   0.0800 
 44 H       -5.0380     3.3340     1.8150 H     1 <1>   0.0800 
 45 H       -3.9570     2.0600     2.3330 H     1 <1>   0.0800 
 46 H       -5.6280     2.3300    -0.9890 H     1 <1>   0.0800 
 47 H       -4.2480     3.1010    -1.7490 H     1 <1>   0.0800 
 48 H       -5.1750     3.9640    -0.5440 H     1 <1>   0.0800 
 49 H       -2.5400     6.6330    -0.3340 H     1 <1>   0.0800 
 50 H       -1.2880     6.9180    -1.5680 H     1 <1>   0.0800 
@<TRIPOS>BOND
  1   1   2  2   
  2   2   3  am  
  3   2   4  1   
  4   3   5  1   
  5   3   6  1   
  6   4   7  1   
  7   4  26  1   
  8   4  27  1   
  9   5   8  1   
 10   5  28  1   
 11   5  29  1   
 12   6   9  1   
 13   6  30  1   
 14   6  31  1   
 15   7  10  ar  
 16   7  11  ar  
 17   8  12  1   
 18   8  13  2   
 19   9  14  1   
 20   9  32  1   
 21   9  33  1   
 22  10  15  ar  
 23  10  34  1   
 24  11  16  ar  
 25  11  35  1   
 26  12  17  2   
 27  13  18  1   
 28  13  19  1   
 29  14  20  1   
 30  14  21  1   
 31  14  36  1   
 32  15  22  1   
 33  15  23  ar  
 34  16  23  ar  
 35  16  37  1   
 36  17  18  1   
 37  17  38  1   
 38  18  39  1   
 39  19  40  1   
 40  19  41  1   
 41  19  42  1   
 42  20  43  1   
 43  20  44  1   
 44  20  45  1   
 45  21  46  1   
 46  21  47  1   
 47  21  48  1   
 48  22  24  1   
 49  23  25  1   
 50  24  25  1   
 51  24  49  1   
 52  24  50  1   
@<TRIPOS>SUBSTRUCTURE
  1 ****   6 GROUP 4 **** **** 0

# MOE 2024.06 (io_trps.svl 2023.06)
