@<TRIPOS>MOLECULE
NONAME
33 34 1 0 0 
SMALL
USER_CHARGES


@<TRIPOS>ATOM
  1 CL      -0.3110    -1.1450    -1.6110 Cl    1 <1>  -0.1770 
  2 C       -1.8050    -1.5670    -0.8160 C.ar  1 <1>   0.1770 
  3 C       -2.9150    -0.7630    -0.9830 C.ar  1 <1>  -0.1500 
  4 C       -1.8600    -2.7000    -0.0290 C.ar  1 <1>  -0.1500 
  5 C       -4.0980    -1.1040    -0.3490 C.ar  1 <1>  -0.1500 
  6 C       -3.0500    -3.0300     0.6000 C.ar  1 <1>  -0.1500 
  7 C       -4.1880    -2.2400     0.4520 C.ar  1 <1>  -0.0090 
  8 S       -5.7510    -2.6700     1.2740 S.o2  1 <1>   1.4470 
  9 O       -5.6180    -3.9690     1.8960 O.2   1 <1>  -0.6500 
 10 O       -6.1560    -1.5290     2.0660 O.2   1 <1>  -0.6500 
 11 N       -6.8240    -2.7980    -0.0350 N.am  1 <1>  -0.8490 
 12 C       -6.6000    -3.9830    -0.8910 C.3   1 <1>   0.1960 
 13 C       -8.2450    -2.5470     0.2950 C.3   1 <1>   0.1960 
 14 C       -7.2380    -5.2970    -0.3750 C.3   1 <1>   0.2000 
 15 C       -9.1720    -3.7520     0.0730 C.3   1 <1>  -0.1600 
 16 O       -7.5840    -6.0220    -1.5000 O.3   1 <1>  -0.6800 
 17 C       -8.4840    -5.0590     0.5030 C.3   1 <1>  -0.1860 
 18 C       -9.4600    -6.2240     0.6240 C.2   1 <1>   0.9060 
 19 O      -10.2680    -6.2040     1.5560 O.co2 1 <1>  -0.9000 
 20 O       -9.4440    -7.1450    -0.2050 O.co2 1 <1>  -0.9000 
 21 H       -2.8520     0.1160    -1.6000 H     1 <1>   0.1500 
 22 H       -0.9830    -3.3120     0.0890 H     1 <1>   0.1500 
 23 H       -4.9700    -0.4830    -0.4730 H     1 <1>   0.1500 
 24 H       -3.0970    -3.9140     1.2160 H     1 <1>   0.1500 
 25 H       -7.0320    -3.7620    -1.8530 H     1 <1>   0.0800 
 26 H       -5.5470    -4.1410    -1.0420 H     1 <1>   0.0800 
 27 H       -8.3360    -2.2510     1.3270 H     1 <1>   0.0800 
 28 H       -8.5970    -1.7230    -0.3010 H     1 <1>   0.0800 
 29 H       -6.5200    -5.8830     0.1720 H     1 <1>   0.0800 
 30 H      -10.0730    -3.6130     0.6450 H     1 <1>   0.0800 
 31 H       -9.4560    -3.8180    -0.9630 H     1 <1>   0.0800 
 32 H       -8.3240    -6.6450    -1.2020 H     1 <1>   0.4000 
 33 H       -8.1300    -4.9030     1.5050 H     1 <1>   0.0800 
@<TRIPOS>BOND
  1   1   2  1   
  2   2   3  ar  
  3   2   4  ar  
  4   3   5  ar  
  5   3  21  1   
  6   4   6  ar  
  7   4  22  1   
  8   5   7  ar  
  9   5  23  1   
 10   6   7  ar  
 11   6  24  1   
 12   7   8  1   
 13   8   9  2   
 14   8  10  2   
 15   8  11  am  
 16  11  12  1   
 17  11  13  1   
 18  12  14  1   
 19  12  25  1   
 20  12  26  1   
 21  13  15  1   
 22  13  27  1   
 23  13  28  1   
 24  14  16  1   
 25  14  17  1   
 26  14  29  1   
 27  15  17  1   
 28  15  30  1   
 29  15  31  1   
 30  16  32  1   
 31  17  18  1   
 32  17  33  1   
 33  18  19  ar  
 34  18  20  ar  
@<TRIPOS>SUBSTRUCTURE
  1 ****  11 GROUP 4 **** **** 0

# MOE 2024.06 (io_trps.svl 2023.06)
