@<TRIPOS>MOLECULE
NONAME
51 53 1 0 0 
SMALL
USER_CHARGES


@<TRIPOS>ATOM
  1 O       -1.0210     0.1890     1.6800 O.2   1 <1>  -0.5700 
  2 C       -1.5070     1.1940     1.1840 C.2   1 <1>   0.5440 
  3 N       -2.8760     1.1950     0.9430 N.am  1 <1>  -0.6600 
  4 C       -0.6270     2.3350     0.9110 C.ar  1 <1>   0.3960 
  5 C       -3.6940    -0.0510     1.0840 C.3   1 <1>   0.1400 
  6 C       -3.6360     2.4260     0.5800 C.3   1 <1>   0.1400 
  7 N       -0.7090     2.9930    -0.2600 N.ar  1 <1>  -0.6200 
  8 C        0.2920     2.7040     1.8940 C.ar  1 <1>  -0.1500 
  9 C       -4.4450    -0.4050    -0.2080 C.3   1 <1>   0.1400 
 10 C       -3.9410     2.4260    -0.9210 C.3   1 <1>  -0.1600 
 11 C        0.1080     4.0090    -0.4260 C.ar  1 <1>   0.4100 
 12 C        1.1450     3.7720     1.7080 C.ar  1 <1>  -0.1500 
 13 N       -5.5770     0.5400    -0.4530 N.am  1 <1>  -0.6600 
 14 C       -5.2510     1.7230    -1.3070 C.3   1 <1>   0.1400 
 15 N       -0.0130     4.6290    -1.6240 N.pl3 1 <1>  -0.9000 
 16 C        1.0390     4.4370     0.5120 C.ar  1 <1>  -0.1500 
 17 C       -6.8510     0.3800     0.0470 C.2   1 <1>   0.5690 
 18 O       -7.7270     1.1770    -0.1880 O.2   1 <1>  -0.5700 
 19 C       -7.2400    -0.7960     0.9350 C.3   1 <1>  -0.0990 
 20 C       -8.1090    -1.8360     0.2020 C.3   1 <1>  -0.0800 
 21 C       -8.6080    -2.9100     1.1850 C.3   1 <1>   0.1200 
 22 C       -7.3660    -2.5000    -0.9700 C.3   1 <1>  -0.1600 
 23 O       -9.3860    -3.8530     0.5110 O.3   1 <1>  -0.5600 
 24 C       -8.2320    -3.6130    -1.5700 C.3   1 <1>  -0.1600 
 25 C       -8.7160    -4.5730    -0.4780 C.3   1 <1>   0.1200 
 26 H       -4.3920     0.0720     1.8920 H     1 <1>   0.0800 
 27 H       -3.0590    -0.8830     1.3320 H     1 <1>   0.0800 
 28 H       -3.0570     3.2980     0.8270 H     1 <1>   0.0800 
 29 H       -4.5490     2.4780     1.1500 H     1 <1>   0.0800 
 30 H        0.3310     2.1400     2.8090 H     1 <1>   0.1500 
 31 H       -4.8180    -1.4080    -0.1350 H     1 <1>   0.0800 
 32 H       -3.7590    -0.3860    -1.0380 H     1 <1>   0.0800 
 33 H       -3.1160     1.9900    -1.4570 H     1 <1>   0.0800 
 34 H       -4.0130     3.4460    -1.2520 H     1 <1>   0.0800 
 35 H        1.8540     4.0660     2.4620 H     1 <1>   0.1500 
 36 H       -5.2010     1.4090    -2.3350 H     1 <1>   0.0800 
 37 H       -6.0450     2.4470    -1.2350 H     1 <1>   0.0800 
 38 H        0.8440     4.9740    -2.0560 H     1 <1>   0.4000 
 39 H       -0.6030     4.1080    -2.2750 H     1 <1>   0.4000 
 40 H        1.6620     5.2820     0.2920 H     1 <1>   0.1500 
 41 H       -7.8120    -0.3900     1.7500 H     1 <1>   0.0800 
 42 H       -6.3810    -1.2670     1.3690 H     1 <1>   0.0800 
 43 H       -8.9770    -1.3270    -0.1850 H     1 <1>   0.0800 
 44 H       -9.2270    -2.4660     1.9450 H     1 <1>   0.0800 
 45 H       -7.7870    -3.4230     1.6570 H     1 <1>   0.0800 
 46 H       -6.4450    -2.9310    -0.6200 H     1 <1>   0.0800 
 47 H       -7.1360    -1.7720    -1.7300 H     1 <1>   0.0800 
 48 H       -7.6710    -4.1580    -2.3070 H     1 <1>   0.0800 
 49 H       -9.0900    -3.1850    -2.0580 H     1 <1>   0.0800 
 50 H       -9.4070    -5.2910    -0.8850 H     1 <1>   0.0800 
 51 H       -7.8930    -5.0970    -0.0230 H     1 <1>   0.0800 
@<TRIPOS>BOND
  1   1   2  2   
  2   2   3  am  
  3   2   4  1   
  4   3   5  1   
  5   3   6  1   
  6   4   7  ar  
  7   4   8  ar  
  8   5   9  1   
  9   5  26  1   
 10   5  27  1   
 11   6  10  1   
 12   6  28  1   
 13   6  29  1   
 14   7  11  ar  
 15   8  12  ar  
 16   8  30  1   
 17   9  13  1   
 18   9  31  1   
 19   9  32  1   
 20  10  14  1   
 21  10  33  1   
 22  10  34  1   
 23  11  15  1   
 24  11  16  ar  
 25  12  16  ar  
 26  12  35  1   
 27  13  14  1   
 28  13  17  am  
 29  14  36  1   
 30  14  37  1   
 31  15  38  1   
 32  15  39  1   
 33  16  40  1   
 34  17  18  2   
 35  17  19  1   
 36  19  20  1   
 37  19  41  1   
 38  19  42  1   
 39  20  21  1   
 40  20  22  1   
 41  20  43  1   
 42  21  23  1   
 43  21  44  1   
 44  21  45  1   
 45  22  24  1   
 46  22  46  1   
 47  22  47  1   
 48  23  25  1   
 49  24  25  1   
 50  24  48  1   
 51  24  49  1   
 52  25  50  1   
 53  25  51  1   
@<TRIPOS>SUBSTRUCTURE
  1 ****   9 GROUP 4 **** **** 0

# MOE 2024.06 (io_trps.svl 2023.06)
