@<TRIPOS>MOLECULE
NONAME
38 40 1 0 0 
SMALL
USER_CHARGES


@<TRIPOS>ATOM
  1 F        0.3070    -0.4410     1.1660 F     1 <1>  -0.3400 
  2 C       -0.3560    -1.5210     0.7610 C.3   1 <1>   1.1640 
  3 F       -0.7050    -2.1540     1.8770 F     1 <1>  -0.3400 
  4 F       -1.4760    -1.0560     0.2150 F     1 <1>  -0.3400 
  5 C        0.4760    -2.3750    -0.1890 C.ar  1 <1>  -0.1440 
  6 C       -0.0870    -3.5350    -0.7200 C.ar  1 <1>   0.4100 
  7 C        1.7720    -2.0380    -0.5420 C.ar  1 <1>  -0.1500 
  8 N        0.5500    -4.3420    -1.5620 N.ar  1 <1>  -0.6200 
  9 N       -1.3670    -3.9220    -0.3870 N.pl3 1 <1>  -0.8380 
 10 C        2.4340    -2.8800    -1.4100 C.ar  1 <1>  -0.1500 
 11 C        1.7840    -4.0030    -1.8820 C.ar  1 <1>   0.1600 
 12 C       -2.3480    -4.0480    -1.5020 C.3   1 <1>   0.2090 
 13 C       -1.4890    -5.1270     0.4910 C.3   1 <1>   0.2090 
 14 C       -3.3490    -5.1030    -1.0360 C.3   1 <1>   0.2000 
 15 C       -2.5190    -6.0530    -0.1740 C.3   1 <1>  -0.0800 
 16 O       -4.2810    -4.4880    -0.2150 O.3   1 <1>  -0.6800 
 17 C       -1.8340    -7.1420    -1.0280 C.3   1 <1>  -0.0170 
 18 C       -1.4050    -8.3420    -0.1910 C.ar  1 <1>   0.1670 
 19 N       -0.4010    -8.1620     0.6520 N.ar  1 <1>  -0.6200 
 20 C       -2.0700    -9.5600    -0.3370 C.ar  1 <1>   0.1600 
 21 C       -0.1070    -9.2620     1.3240 C.ar  1 <1>   0.1600 
 22 N       -1.7800   -10.6620     0.3350 N.ar  1 <1>  -0.6200 
 23 C       -0.7740   -10.4710     1.1710 C.ar  1 <1>   0.1600 
 24 H        2.2630    -1.1560    -0.1640 H     1 <1>   0.1500 
 25 H        3.4430    -2.6680    -1.7160 H     1 <1>   0.1500 
 26 H        2.3070    -4.6570    -2.5590 H     1 <1>   0.1500 
 27 H       -2.8310    -3.1080    -1.7050 H     1 <1>   0.0800 
 28 H       -1.8530    -4.3900    -2.3940 H     1 <1>   0.0800 
 29 H       -0.5340    -5.6080     0.6210 H     1 <1>   0.0800 
 30 H       -1.8480    -4.8160     1.4570 H     1 <1>   0.0800 
 31 H       -3.8730    -5.5810    -1.8440 H     1 <1>   0.0800 
 32 H       -3.1380    -6.5340     0.5620 H     1 <1>   0.0800 
 33 H       -3.8000    -3.8840     0.3890 H     1 <1>   0.4000 
 34 H       -0.9720    -6.7360    -1.5300 H     1 <1>   0.0800 
 35 H       -2.5150    -7.4790    -1.7880 H     1 <1>   0.0800 
 36 H       -2.8790    -9.6280    -1.0420 H     1 <1>   0.1500 
 37 H        0.7020    -9.2050     2.0310 H     1 <1>   0.1500 
 38 H       -0.4620   -11.3120     1.7640 H     1 <1>   0.1500 
@<TRIPOS>BOND
  1   1   2  1   
  2   2   3  1   
  3   2   4  1   
  4   2   5  1   
  5   5   6  ar  
  6   5   7  ar  
  7   6   8  ar  
  8   6   9  1   
  9   7  10  ar  
 10   7  24  1   
 11   8  11  ar  
 12   9  12  1   
 13   9  13  1   
 14  10  11  ar  
 15  10  25  1   
 16  11  26  1   
 17  12  14  1   
 18  12  27  1   
 19  12  28  1   
 20  13  15  1   
 21  13  29  1   
 22  13  30  1   
 23  14  15  1   
 24  14  16  1   
 25  14  31  1   
 26  15  17  1   
 27  15  32  1   
 28  16  33  1   
 29  17  18  1   
 30  17  34  1   
 31  17  35  1   
 32  18  19  ar  
 33  18  20  ar  
 34  19  21  ar  
 35  20  22  ar  
 36  20  36  1   
 37  21  23  ar  
 38  21  37  1   
 39  22  23  ar  
 40  23  38  1   
@<TRIPOS>SUBSTRUCTURE
  1 ****  13 GROUP 4 **** **** 0

# MOE 2024.06 (io_trps.svl 2023.06)
