@<TRIPOS>MOLECULE
NONAME
51 54 1 0 0 
SMALL
USER_CHARGES


@<TRIPOS>ATOM
  1 O        0.2360    -0.9320     1.2740 O.2   1 <1>  -0.5700 
  2 C        1.2510    -1.3660     0.7580 C.2   1 <1>   0.7160 
  3 N        1.2250    -2.5650     0.1230 N.am  1 <1>  -0.4900 
  4 C        2.5090    -0.7140     0.7660 C.2   1 <1>  -0.0860 
  5 C        2.3400    -3.1170    -0.4560 C.2   1 <1>   0.4490 
  6 C        3.5730    -1.3170     0.1690 C.2   1 <1>  -0.0260 
  7 C        3.0200     0.4850     1.2610 C.2   1 <1>   0.1390 
  8 N        3.4960    -2.5470    -0.4570 N.2   1 <1>  -0.5760 
  9 C        2.1350    -4.4780    -1.1240 C.3   1 <1>   0.1710 
 10 N        4.6310    -0.4890     0.3260 N.pl3 1 <1>   0.3140 
 11 N        4.2840     0.6300     1.0040 N.2   1 <1>  -0.7070 
 12 N        0.9940    -5.2420    -0.5480 N.3   1 <1>  -0.8100 
 13 C        6.0000    -0.7060    -0.1540 C.3   1 <1>   0.0160 
 14 C        0.5630    -6.3110    -1.4690 C.3   1 <1>   0.2530 
 15 C        1.3450    -5.7970     0.7740 C.3   1 <1>   0.0300 
 16 C       -0.7020    -6.9890    -0.9630 C.ar  1 <1>  -0.1430 
 17 C       -0.6800    -8.3220    -0.5850 C.ar  1 <1>  -0.1500 
 18 C       -1.8870    -6.2770    -0.8640 C.ar  1 <1>  -0.1500 
 19 C       -1.8250    -8.9550    -0.1130 C.ar  1 <1>  -0.0230 
 20 C       -3.0340    -6.8900    -0.3900 C.ar  1 <1>  -0.1500 
 21 N       -1.7770   -10.3260     0.2640 N.pl3 1 <1>   0.5930 
 22 C       -3.0020    -8.2200    -0.0140 C.ar  1 <1>  -0.1500 
 23 N       -0.9260   -10.7910     1.2130 N.2   1 <1>  -0.7070 
 24 C       -2.4920   -11.3610    -0.2630 C.2   1 <1>  -0.3320 
 25 C       -1.1310   -12.0660     1.2720 C.2   1 <1>   0.1080 
 26 C       -2.1000   -12.4850     0.3710 C.2   1 <1>  -0.1500 
 27 C       -3.5190   -11.2260    -1.3760 C.3   1 <1>  -0.0600 
 28 C       -0.3770   -12.9640     2.2250 C.3   1 <1>  -0.0590 
 29 H        0.3720    -3.1240     0.1430 H     1 <1>   0.3700 
 30 H        2.4290     1.2100     1.7970 H     1 <1>   0.1500 
 31 H        3.0420    -5.0530    -1.0520 H     1 <1>   0.0800 
 32 H        1.9460    -4.2880    -2.1660 H     1 <1>   0.0800 
 33 H        6.1160    -1.7290    -0.4590 H     1 <1>   0.0800 
 34 H        6.6870    -0.4830     0.6410 H     1 <1>   0.0800 
 35 H        6.1840    -0.0540    -0.9860 H     1 <1>   0.0800 
 36 H        1.3520    -7.0350    -1.5850 H     1 <1>   0.0800 
 37 H        0.3530    -5.8880    -2.4370 H     1 <1>   0.0800 
 38 H        1.6870    -5.0180     1.4340 H     1 <1>   0.0800 
 39 H        2.1220    -6.5380     0.6810 H     1 <1>   0.0800 
 40 H        0.4820    -6.2570     1.2270 H     1 <1>   0.0800 
 41 H        0.2340    -8.8890    -0.6450 H     1 <1>   0.1500 
 42 H       -1.9120    -5.2390    -1.1480 H     1 <1>   0.1500 
 43 H       -3.9480    -6.3270    -0.3100 H     1 <1>   0.1500 
 44 H       -3.8930    -8.6890     0.3670 H     1 <1>   0.1500 
 45 H       -2.4380   -13.4960     0.2290 H     1 <1>   0.1500 
 46 H       -3.0810   -10.7370    -2.2280 H     1 <1>   0.0800 
 47 H       -4.3640   -10.6520    -1.0410 H     1 <1>   0.0800 
 48 H       -3.8660   -12.1980    -1.6800 H     1 <1>   0.0800 
 49 H       -0.5090   -12.6090     3.2300 H     1 <1>   0.0800 
 50 H        0.6700   -12.9440     1.9830 H     1 <1>   0.0800 
 51 H       -0.7370   -13.9730     2.1560 H     1 <1>   0.0800 
@<TRIPOS>BOND
  1   1   2  2   
  2   2   3  am  
  3   2   4  1   
  4   3   5  1   
  5   3  29  1   
  6   4   6  2   
  7   4   7  1   
  8   5   8  2   
  9   5   9  1   
 10   6   8  1   
 11   6  10  1   
 12   7  11  2   
 13   7  30  1   
 14   9  12  1   
 15   9  31  1   
 16   9  32  1   
 17  10  11  1   
 18  10  13  1   
 19  12  14  1   
 20  12  15  1   
 21  13  33  1   
 22  13  34  1   
 23  13  35  1   
 24  14  16  1   
 25  14  36  1   
 26  14  37  1   
 27  15  38  1   
 28  15  39  1   
 29  15  40  1   
 30  16  17  ar  
 31  16  18  ar  
 32  17  19  ar  
 33  17  41  1   
 34  18  20  ar  
 35  18  42  1   
 36  19  21  1   
 37  19  22  ar  
 38  20  22  ar  
 39  20  43  1   
 40  21  23  1   
 41  21  24  1   
 42  22  44  1   
 43  23  25  2   
 44  24  26  2   
 45  24  27  1   
 46  25  26  1   
 47  25  28  1   
 48  26  45  1   
 49  27  46  1   
 50  27  47  1   
 51  27  48  1   
 52  28  49  1   
 53  28  50  1   
 54  28  51  1   
@<TRIPOS>SUBSTRUCTURE
  1 ****  12 GROUP 4 **** **** 0

# MOE 2024.06 (io_trps.svl 2023.06)
