@<TRIPOS>MOLECULE
NONAME
46 47 1 0 0 
SMALL
USER_CHARGES


@<TRIPOS>ATOM
  1 S        0.8300     1.5510    -1.3830 S.o2  1 <1>   1.3330 
  2 O        0.9180     0.5840    -2.4470 O.2   1 <1>  -0.6500 
  3 O        1.0530     2.9590    -1.6320 O.2   1 <1>  -0.6500 
  4 N        1.9620     1.1170    -0.1940 N.am  1 <1>  -0.8490 
  5 C       -0.7570     1.3950    -0.5420 C.3   1 <1>  -0.0550 
  6 C        1.9790    -0.3320     0.0760 C.3   1 <1>   0.1160 
  7 C        3.3240     1.4990    -0.6030 C.3   1 <1>   0.1160 
  8 C       -1.1240     2.4820     0.5050 C.3   1 <1>  -0.0800 
  9 C       -1.5600     3.8030    -0.1520 C.3   1 <1>   0.2000 
 10 C        0.0170     2.8800     1.4500 C.3   1 <1>   0.3430 
 11 O       -2.7970     4.1790     0.3520 O.3   1 <1>  -0.6800 
 12 C       -0.5000     4.8530     0.2080 C.3   1 <1>   0.3430 
 13 N        0.6140     4.0910     0.8430 N.4   1 <1>  -0.9590 
 14 C        1.4970     4.8890     1.7290 C.3   1 <1>   0.4860 
 15 C        2.0080     6.0940     0.9610 C.ar  1 <1>  -0.1440 
 16 C        2.8230     5.9330    -0.1510 C.ar  1 <1>  -0.1500 
 17 C        1.6580     7.3780     1.3630 C.ar  1 <1>  -0.1500 
 18 C        3.2600     7.0540    -0.8310 C.ar  1 <1>   0.1900 
 19 C        2.1080     8.4900     0.6660 C.ar  1 <1>  -0.1500 
 20 F        4.0240     6.8740    -1.8750 F     1 <1>  -0.1900 
 21 C        2.9190     8.3410    -0.4480 C.ar  1 <1>  -0.1440 
 22 C        3.4170     9.5560    -1.2190 C.3   1 <1>  -0.0970 
 23 H       -1.5310     1.3820    -1.2860 H     1 <1>   0.0800 
 24 H       -0.7960     0.4360    -0.0630 H     1 <1>   0.0800 
 25 H        2.6980    -0.5590     0.8460 H     1 <1>   0.0800 
 26 H        2.2450    -0.8820    -0.8140 H     1 <1>   0.0800 
 27 H        1.0160    -0.6730     0.4110 H     1 <1>   0.0800 
 28 H        4.0360     1.2300     0.1600 H     1 <1>   0.0800 
 29 H        3.3890     2.5620    -0.7620 H     1 <1>   0.0800 
 30 H        3.5940     1.0030    -1.5220 H     1 <1>   0.0800 
 31 H       -1.9320     2.0790     1.0930 H     1 <1>   0.0800 
 32 H       -1.6580     3.7210    -1.2230 H     1 <1>   0.0800 
 33 H        0.7420     2.0920     1.5720 H     1 <1>   0.0800 
 34 H       -0.3940     3.1290     2.4160 H     1 <1>   0.0800 
 35 H       -2.8340     4.1960     1.3290 H     1 <1>   0.4000 
 36 H       -0.9130     5.5690     0.8990 H     1 <1>   0.0800 
 37 H       -0.1500     5.3630    -0.6750 H     1 <1>   0.0800 
 38 H        1.1930     3.7790     0.0360 H     1 <1>   0.4500 
 39 H        0.9510     5.2180     2.5980 H     1 <1>   0.0800 
 40 H        2.3320     4.2910     2.0550 H     1 <1>   0.0800 
 41 H        3.1260     4.9650    -0.5060 H     1 <1>   0.1500 
 42 H        1.0320     7.5340     2.2260 H     1 <1>   0.1500 
 43 H        1.8250     9.4750     0.9980 H     1 <1>   0.1500 
 44 H        3.0270    10.4670    -0.8010 H     1 <1>   0.0800 
 45 H        3.1070     9.4910    -2.2470 H     1 <1>   0.0800 
 46 H        4.4910     9.5960    -1.1840 H     1 <1>   0.0800 
@<TRIPOS>BOND
  1   1   2  2   
  2   1   3  2   
  3   1   4  am  
  4   1   5  1   
  5   4   6  1   
  6   4   7  1   
  7   5   8  1   
  8   5  23  1   
  9   5  24  1   
 10   6  25  1   
 11   6  26  1   
 12   6  27  1   
 13   7  28  1   
 14   7  29  1   
 15   7  30  1   
 16   8   9  1   
 17   8  10  1   
 18   8  31  1   
 19   9  11  1   
 20   9  12  1   
 21   9  32  1   
 22  10  13  1   
 23  10  33  1   
 24  10  34  1   
 25  11  35  1   
 26  12  13  1   
 27  12  36  1   
 28  12  37  1   
 29  13  14  1   
 30  13  38  1   
 31  14  15  1   
 32  14  39  1   
 33  14  40  1   
 34  15  16  ar  
 35  15  17  ar  
 36  16  18  ar  
 37  16  41  1   
 38  17  19  ar  
 39  17  42  1   
 40  18  20  1   
 41  18  21  ar  
 42  19  21  ar  
 43  19  43  1   
 44  21  22  1   
 45  22  44  1   
 46  22  45  1   
 47  22  46  1   
@<TRIPOS>SUBSTRUCTURE
  1 ****  13 GROUP 4 **** **** 0

# MOE 2024.06 (io_trps.svl 2023.06)
