@<TRIPOS>MOLECULE
NONAME
39 41 1 0 0 
SMALL
USER_CHARGES


@<TRIPOS>ATOM
  1 O       -6.4660    -2.3490    -0.5310 O.co2 1 <1>  -0.9000 
  2 C       -5.6800    -1.3750    -0.5390 C.2   1 <1>   1.0330 
  3 O       -5.7970    -0.5730     0.4050 O.co2 1 <1>  -0.9000 
  4 C       -4.4050    -1.5160    -1.2470 C.2   1 <1>   0.0560 
  5 N       -4.0630    -1.2280    -2.4920 N.2   1 <1>  -0.7070 
  6 C       -3.3210    -2.0970    -0.5730 C.2   1 <1>  -0.1810 
  7 N       -2.7870    -1.6220    -2.6130 N.pl3 1 <1>   0.3000 
  8 C       -2.3130    -2.1540    -1.4690 C.2   1 <1>  -0.3020 
  9 C       -3.4040    -2.5060     0.8880 C.3   1 <1>   0.5240 
 10 N       -4.5280    -3.4570     1.0630 N.4   1 <1>  -0.9590 
 11 C       -5.4150    -3.1620     2.2200 C.3   1 <1>   0.3430 
 12 C       -4.2730    -4.9070     0.9900 C.3   1 <1>   0.3430 
 13 C       -5.9210    -4.5250     2.7070 C.3   1 <1>   0.2000 
 14 C       -5.5170    -5.5360     1.6260 C.3   1 <1>  -0.0800 
 15 O       -5.2680    -4.8660     3.8880 O.3   1 <1>  -0.6800 
 16 C       -6.6350    -5.7420     0.5770 C.3   1 <1>  -0.0160 
 17 C       -6.4120    -6.9790    -0.2910 C.ar  1 <1>   0.1670 
 18 N       -5.1770    -7.2210    -0.7110 N.ar  1 <1>  -0.6200 
 19 C       -7.4990    -7.7970    -0.6030 C.ar  1 <1>   0.1600 
 20 C       -5.1080    -8.3140    -1.4540 C.ar  1 <1>   0.1600 
 21 N       -7.4280    -8.8950    -1.3370 N.ar  1 <1>  -0.6200 
 22 C       -6.1960    -9.1240    -1.7550 C.ar  1 <1>   0.1600 
 23 H       -2.2680    -1.5090    -3.4920 H     1 <1>   0.2700 
 24 H       -1.3080    -2.5210    -1.3720 H     1 <1>   0.1500 
 25 H       -3.5940    -1.6160     1.4680 H     1 <1>   0.0800 
 26 H       -2.4770    -2.9450     1.2140 H     1 <1>   0.0800 
 27 H       -5.1740    -3.2430     0.2630 H     1 <1>   0.4500 
 28 H       -4.8910    -2.6480     3.0080 H     1 <1>   0.0800 
 29 H       -6.2400    -2.5500     1.8840 H     1 <1>   0.0800 
 30 H       -4.1320    -5.2260    -0.0300 H     1 <1>   0.0800 
 31 H       -3.4010    -5.1580     1.5690 H     1 <1>   0.0800 
 32 H       -6.9780    -4.5090     2.9100 H     1 <1>   0.0800 
 33 H       -5.2850    -6.4930     2.0620 H     1 <1>   0.0800 
 34 H       -4.3060    -4.9690     3.7610 H     1 <1>   0.4000 
 35 H       -6.7190    -4.8820    -0.0650 H     1 <1>   0.0800 
 36 H       -7.5760    -5.8490     1.0870 H     1 <1>   0.0800 
 37 H       -8.4720    -7.5320    -0.2310 H     1 <1>   0.1500 
 38 H       -4.1440    -8.5850    -1.8460 H     1 <1>   0.1500 
 39 H       -6.0400    -9.9950    -2.3670 H     1 <1>   0.1500 
@<TRIPOS>BOND
  1   1   2  ar  
  2   2   3  ar  
  3   2   4  1   
  4   4   5  2   
  5   4   6  1   
  6   5   7  1   
  7   6   8  2   
  8   6   9  1   
  9   7   8  1   
 10   7  23  1   
 11   8  24  1   
 12   9  10  1   
 13   9  25  1   
 14   9  26  1   
 15  10  11  1   
 16  10  12  1   
 17  10  27  1   
 18  11  13  1   
 19  11  28  1   
 20  11  29  1   
 21  12  14  1   
 22  12  30  1   
 23  12  31  1   
 24  13  14  1   
 25  13  15  1   
 26  13  32  1   
 27  14  16  1   
 28  14  33  1   
 29  15  34  1   
 30  16  17  1   
 31  16  35  1   
 32  16  36  1   
 33  17  18  ar  
 34  17  19  ar  
 35  18  20  ar  
 36  19  21  ar  
 37  19  37  1   
 38  20  22  ar  
 39  20  38  1   
 40  21  22  ar  
 41  22  39  1   
@<TRIPOS>SUBSTRUCTURE
  1 ****  12 GROUP 4 **** **** 0

# MOE 2024.06 (io_trps.svl 2023.06)
