@<TRIPOS>MOLECULE
NONAME
48 50 1 0 0 
SMALL
USER_CHARGES


@<TRIPOS>ATOM
  1 O        0.4290    -0.2830     1.5310 O.2   1 <1>  -0.5700 
  2 C        1.3630     0.2400     0.9440 C.2   1 <1>   0.5440 
  3 N        1.1460     1.4450     0.3140 N.am  1 <1>  -0.6600 
  4 C        2.6560    -0.4010     0.9150 C.ar  1 <1>   0.0860 
  5 C       -0.1690     2.1230     0.3390 C.3   1 <1>   0.1400 
  6 C        1.9990     1.9890    -0.7670 C.3   1 <1>   0.1400 
  7 C        2.7890    -1.7370     0.4930 C.ar  1 <1>   0.4100 
  8 C        3.8060     0.2750     1.3000 C.ar  1 <1>  -0.1500 
  9 C       -0.0330     3.2840    -0.6400 C.3   1 <1>  -0.1600 
 10 C        1.0590     2.8430    -1.6100 C.3   1 <1>  -0.1600 
 11 N        3.9540    -2.3790     0.4200 N.ar  1 <1>  -0.6200 
 12 N        1.6790    -2.4590     0.1240 N.pl3 1 <1>  -0.8690 
 13 C        5.0070    -0.3910     1.2300 C.ar  1 <1>  -0.1500 
 14 C        5.0240    -1.7010     0.7850 C.ar  1 <1>   0.1600 
 15 C        1.6680    -3.9270     0.0120 C.3   1 <1>   0.2090 
 16 C        0.2420    -4.3790    -0.2920 C.3   1 <1>  -0.1600 
 17 C        0.1500    -5.9050    -0.3860 C.3   1 <1>   0.0210 
 18 C       -1.2740    -6.3360    -0.6950 C.2   1 <1>  -0.1810 
 19 C       -1.8140    -6.7370    -1.8580 C.2   1 <1>  -0.0400 
 20 C       -2.3490    -6.4050     0.1940 C.2   1 <1>   0.1080 
 21 O       -3.0730    -7.0090    -1.6450 O.3   1 <1>  -0.0190 
 22 C       -1.2500    -6.9050    -3.2540 C.3   1 <1>  -0.0600 
 23 N       -3.4100    -6.8110    -0.4050 N.2   1 <1>  -0.4100 
 24 C       -2.3120    -6.0560     1.6670 C.3   1 <1>  -0.0590 
 25 H       -0.4030     2.4620     1.3340 H     1 <1>   0.0800 
 26 H       -0.9270     1.4330     0.0060 H     1 <1>   0.0800 
 27 H        2.4430     1.2000    -1.3510 H     1 <1>   0.0800 
 28 H        2.7700     2.6020    -0.3330 H     1 <1>   0.0800 
 29 H        3.7490     1.2930     1.6460 H     1 <1>   0.1500 
 30 H        0.2860     4.1590    -0.1010 H     1 <1>   0.0800 
 31 H       -0.9630     3.4980    -1.1370 H     1 <1>   0.0800 
 32 H        0.6330     2.2290    -2.3850 H     1 <1>   0.0800 
 33 H        1.5690     3.6750    -2.0620 H     1 <1>   0.0800 
 34 H        0.7930    -2.0530     0.4610 H     1 <1>   0.4000 
 35 H        5.9240     0.0920     1.5160 H     1 <1>   0.1500 
 36 H        5.9680    -2.2160     0.7310 H     1 <1>   0.1500 
 37 H        2.0110    -4.3550     0.9390 H     1 <1>   0.0800 
 38 H        2.3370    -4.2280    -0.7770 H     1 <1>   0.0800 
 39 H       -0.0730    -3.9490    -1.2260 H     1 <1>   0.0800 
 40 H       -0.4130    -4.0290     0.4850 H     1 <1>   0.0800 
 41 H        0.4660    -6.3540     0.5400 H     1 <1>   0.0800 
 42 H        0.8070    -6.2580    -1.1610 H     1 <1>   0.0800 
 43 H       -0.2150    -6.6210    -3.2830 H     1 <1>   0.0800 
 44 H       -1.7990    -6.2860    -3.9400 H     1 <1>   0.0800 
 45 H       -1.3420    -7.9310    -3.5600 H     1 <1>   0.0800 
 46 H       -1.4480    -6.4930     2.1310 H     1 <1>   0.0800 
 47 H       -3.1940    -6.4340     2.1520 H     1 <1>   0.0800 
 48 H       -2.2820    -4.9890     1.7870 H     1 <1>   0.0800 
@<TRIPOS>BOND
  1   1   2  2   
  2   2   3  am  
  3   2   4  1   
  4   3   5  1   
  5   3   6  1   
  6   4   7  ar  
  7   4   8  ar  
  8   5   9  1   
  9   5  25  1   
 10   5  26  1   
 11   6  10  1   
 12   6  27  1   
 13   6  28  1   
 14   7  11  ar  
 15   7  12  1   
 16   8  13  ar  
 17   8  29  1   
 18   9  10  1   
 19   9  30  1   
 20   9  31  1   
 21  10  32  1   
 22  10  33  1   
 23  11  14  ar  
 24  12  15  1   
 25  12  34  1   
 26  13  14  ar  
 27  13  35  1   
 28  14  36  1   
 29  15  16  1   
 30  15  37  1   
 31  15  38  1   
 32  16  17  1   
 33  16  39  1   
 34  16  40  1   
 35  17  18  1   
 36  17  41  1   
 37  17  42  1   
 38  18  19  2   
 39  18  20  1   
 40  19  21  1   
 41  19  22  1   
 42  20  23  2   
 43  20  24  1   
 44  21  23  1   
 45  22  43  1   
 46  22  44  1   
 47  22  45  1   
 48  24  46  1   
 49  24  47  1   
 50  24  48  1   
@<TRIPOS>SUBSTRUCTURE
  1 ****  12 GROUP 4 **** **** 0

# MOE 2024.06 (io_trps.svl 2023.06)
