@<TRIPOS>MOLECULE
NONAME
47 48 1 0 0 
SMALL
USER_CHARGES


@<TRIPOS>ATOM
  1 O        1.2830    -0.1050    -0.8190 O.2   1 <1>  -0.5700 
  2 C        2.0460    -0.7320    -0.1280 C.2   1 <1>   0.5690 
  3 N        3.1560    -0.1330     0.4160 N.am  1 <1>  -0.6600 
  4 C        1.7560    -2.2050     0.1030 C.3   1 <1>  -0.0990 
  5 C        4.3270    -0.8400     1.0260 C.3   1 <1>   0.1400 
  6 C        3.2390     1.3540     0.4620 C.3   1 <1>   0.1400 
  7 C        0.3240    -2.5860    -0.3070 C.3   1 <1>   0.0960 
  8 C        5.5820    -0.8160     0.1220 C.3   1 <1>   0.3430 
  9 C        3.8820     1.9020    -0.8150 C.3   1 <1>  -0.1600 
 10 N        0.0790    -4.0140    -0.0360 N.pl3 1 <1>   0.0480 
 11 N        5.9270     0.5370    -0.4370 N.4   1 <1>  -0.9590 
 12 C        4.9320     0.9930    -1.4520 C.3   1 <1>   0.3430 
 13 C        0.1970    -5.0530    -0.8630 C.2   1 <1>   0.0360 
 14 C       -0.2850    -4.5940     1.1090 C.2   1 <1>   0.0360 
 15 C        7.3010     0.5630    -0.9800 C.3   1 <1>   0.4810 
 16 N       -0.0630    -6.1680    -0.2730 N.2   1 <1>  -0.3380 
 17 N       -0.3720    -5.8730     0.9920 N.2   1 <1>  -0.3380 
 18 C        7.7240     2.0120    -0.9640 C.2   1 <1>  -0.2880 
 19 C        8.4740     2.6220    -0.0390 C.2   1 <1>  -0.2760 
 20 C        8.8360     4.0960    -0.1470 C.3   1 <1>  -0.1020 
 21 C        9.0650     1.9750     1.2070 C.3   1 <1>  -0.1020 
 22 H        2.4560    -2.7870    -0.4670 H     1 <1>   0.0800 
 23 H        1.8810    -2.4190     1.1480 H     1 <1>   0.0800 
 24 H        4.5630    -0.3810     1.9710 H     1 <1>   0.0800 
 25 H        4.0810    -1.8650     1.2350 H     1 <1>   0.0800 
 26 H        2.2510     1.7730     0.5730 H     1 <1>   0.0800 
 27 H        3.8100     1.6580     1.3230 H     1 <1>   0.0800 
 28 H        0.1730    -2.3990    -1.3560 H     1 <1>   0.0800 
 29 H       -0.3900    -1.9990     0.2450 H     1 <1>   0.0800 
 30 H        5.4290    -1.5060    -0.6930 H     1 <1>   0.0800 
 31 H        6.4130    -1.1860     0.7000 H     1 <1>   0.0800 
 32 H        4.3060     2.8700    -0.6150 H     1 <1>   0.0800 
 33 H        3.1000     2.0540    -1.5400 H     1 <1>   0.0800 
 34 H        5.9410     1.2360     0.3170 H     1 <1>   0.4500 
 35 H        5.4220     1.5360    -2.2430 H     1 <1>   0.0800 
 36 H        4.4410     0.1380    -1.8910 H     1 <1>   0.0800 
 37 H        0.4770    -4.9600    -1.8970 H     1 <1>   0.1500 
 38 H       -0.4770    -4.0480     2.0150 H     1 <1>   0.1500 
 39 H        7.9600    -0.0060    -0.3450 H     1 <1>   0.0800 
 40 H        7.3430     0.1550    -1.9770 H     1 <1>   0.0800 
 41 H        7.3480     2.5460    -1.8190 H     1 <1>   0.1500 
 42 H        8.4670     4.6370     0.7060 H     1 <1>   0.0800 
 43 H        8.4140     4.5360    -1.0340 H     1 <1>   0.0800 
 44 H        9.9050     4.2140    -0.1920 H     1 <1>   0.0800 
 45 H        8.7160     2.4840     2.0880 H     1 <1>   0.0800 
 46 H       10.1390     2.0480     1.1820 H     1 <1>   0.0800 
 47 H        8.8050     0.9380     1.2940 H     1 <1>   0.0800 
@<TRIPOS>BOND
  1   1   2  2   
  2   2   3  am  
  3   2   4  1   
  4   3   5  1   
  5   3   6  1   
  6   4   7  1   
  7   4  22  1   
  8   4  23  1   
  9   5   8  1   
 10   5  24  1   
 11   5  25  1   
 12   6   9  1   
 13   6  26  1   
 14   6  27  1   
 15   7  10  1   
 16   7  28  1   
 17   7  29  1   
 18   8  11  1   
 19   8  30  1   
 20   8  31  1   
 21   9  12  1   
 22   9  32  1   
 23   9  33  1   
 24  10  13  1   
 25  10  14  1   
 26  11  12  1   
 27  11  15  1   
 28  11  34  1   
 29  12  35  1   
 30  12  36  1   
 31  13  16  2   
 32  13  37  1   
 33  14  17  2   
 34  14  38  1   
 35  15  18  1   
 36  15  39  1   
 37  15  40  1   
 38  16  17  1   
 39  18  19  2   
 40  18  41  1   
 41  19  20  1   
 42  19  21  1   
 43  20  42  1   
 44  20  43  1   
 45  20  44  1   
 46  21  45  1   
 47  21  46  1   
 48  21  47  1   
@<TRIPOS>SUBSTRUCTURE
  1 ****   3 GROUP 4 **** **** 0

# MOE 2024.06 (io_trps.svl 2023.06)
