@<TRIPOS>MOLECULE
NONAME
56 58 1 0 0 
SMALL
USER_CHARGES


@<TRIPOS>ATOM
  1 O        0.0210    -0.0130     1.8690 O.2   1 <1>  -0.5700 
  2 C        1.0130     0.2940     1.2310 C.2   1 <1>   0.5440 
  3 N        0.8660     1.1510     0.1630 N.am  1 <1>  -0.6600 
  4 C        2.3140    -0.1810     1.6200 C.ar  1 <1>   0.0860 
  5 C        1.9580     1.6350    -0.7070 C.3   1 <1>   0.1400 
  6 C       -0.4540     1.5900    -0.3350 C.3   1 <1>   0.1400 
  7 C        2.7700    -1.4810     1.3170 C.ar  1 <1>   0.4100 
  8 C        3.1630     0.6620     2.3240 C.ar  1 <1>  -0.1500 
  9 C        1.2510     2.1130    -1.9700 C.3   1 <1>  -0.1600 
 10 C       -0.1420     2.5260    -1.4980 C.3   1 <1>  -0.1600 
 11 N        3.9750    -1.9310     1.6720 N.ar  1 <1>  -0.6200 
 12 N        2.0050    -2.4000     0.6220 N.pl3 1 <1>  -0.8380 
 13 C        4.4020     0.1890     2.6870 C.ar  1 <1>  -0.1500 
 14 C        4.7520    -1.1030     2.3380 C.ar  1 <1>   0.1600 
 15 C        1.9430    -3.8210     1.0740 C.3   1 <1>   0.3530 
 16 C        1.3470    -2.1060    -0.6780 C.3   1 <1>   0.1290 
 17 C        0.4980    -4.3180     1.1130 C.ar  1 <1>  -0.1430 
 18 C        0.1250    -5.5090     0.4960 C.ar  1 <1>   0.0830 
 19 C       -0.4600    -3.5690     1.7820 C.ar  1 <1>  -0.1500 
 20 O        1.0880    -6.2190    -0.1490 O.3   1 <1>  -0.3630 
 21 C       -1.2020    -5.9310     0.5570 C.ar  1 <1>  -0.1500 
 22 C       -1.7760    -3.9910     1.8380 C.ar  1 <1>  -0.1500 
 23 C        0.7880    -7.3800    -0.8930 C.3   1 <1>   0.1200 
 24 C       -2.1470    -5.1730     1.2260 C.ar  1 <1>  -0.1500 
 25 C        2.0680    -7.8990    -1.5660 C.3   1 <1>  -0.0800 
 26 C        2.6650    -6.8650    -2.5320 C.3   1 <1>  -0.2400 
 27 C        1.7780    -9.2030    -2.3200 C.3   1 <1>  -0.2400 
 28 H        2.6710     0.8570    -0.9200 H     1 <1>   0.0800 
 29 H        2.4530     2.4590    -0.2220 H     1 <1>   0.0800 
 30 H       -1.0080     2.0870     0.4440 H     1 <1>   0.0800 
 31 H       -1.0050     0.7280    -0.6720 H     1 <1>   0.0800 
 32 H        2.8450     1.6570     2.5800 H     1 <1>   0.1500 
 33 H        1.1730     1.2900    -2.6590 H     1 <1>   0.0800 
 34 H        1.7800     2.9200    -2.4450 H     1 <1>   0.0800 
 35 H       -0.1190     3.5380    -1.1320 H     1 <1>   0.0800 
 36 H       -0.8790     2.4530    -2.2770 H     1 <1>   0.0800 
 37 H        5.0910     0.8070     3.2340 H     1 <1>   0.1500 
 38 H        5.7220    -1.4710     2.6250 H     1 <1>   0.1500 
 39 H        2.3590    -3.9070     2.0630 H     1 <1>   0.0800 
 40 H        2.5470    -4.4150     0.4130 H     1 <1>   0.0800 
 41 H        1.7870    -1.2370    -1.1310 H     1 <1>   0.0800 
 42 H        0.2970    -1.9290    -0.5200 H     1 <1>   0.0800 
 43 H        1.4650    -2.9410    -1.3470 H     1 <1>   0.0800 
 44 H       -0.1780    -2.6420     2.2560 H     1 <1>   0.1500 
 45 H       -1.5210    -6.8450     0.0950 H     1 <1>   0.1500 
 46 H       -2.5040    -3.3930     2.3580 H     1 <1>   0.1500 
 47 H        0.0500    -7.1270    -1.6330 H     1 <1>   0.0800 
 48 H        0.3950    -8.1180    -0.2150 H     1 <1>   0.0800 
 49 H       -3.1700    -5.5010     1.2710 H     1 <1>   0.1500 
 50 H        2.7890    -8.1120    -0.7940 H     1 <1>   0.0800 
 51 H        1.9590    -6.6150    -3.3040 H     1 <1>   0.0800 
 52 H        3.5570    -7.2520    -2.9910 H     1 <1>   0.0800 
 53 H        2.9250    -5.9650    -2.0020 H     1 <1>   0.0800 
 54 H        1.0590    -9.0380    -3.1030 H     1 <1>   0.0800 
 55 H        1.3890    -9.9470    -1.6460 H     1 <1>   0.0800 
 56 H        2.6810    -9.5880    -2.7590 H     1 <1>   0.0800 
@<TRIPOS>BOND
  1   1   2  2   
  2   2   3  am  
  3   2   4  1   
  4   3   5  1   
  5   3   6  1   
  6   4   7  ar  
  7   4   8  ar  
  8   5   9  1   
  9   5  28  1   
 10   5  29  1   
 11   6  10  1   
 12   6  30  1   
 13   6  31  1   
 14   7  11  ar  
 15   7  12  1   
 16   8  13  ar  
 17   8  32  1   
 18   9  10  1   
 19   9  33  1   
 20   9  34  1   
 21  10  35  1   
 22  10  36  1   
 23  11  14  ar  
 24  12  15  1   
 25  12  16  1   
 26  13  14  ar  
 27  13  37  1   
 28  14  38  1   
 29  15  17  1   
 30  15  39  1   
 31  15  40  1   
 32  16  41  1   
 33  16  42  1   
 34  16  43  1   
 35  17  18  ar  
 36  17  19  ar  
 37  18  20  1   
 38  18  21  ar  
 39  19  22  ar  
 40  19  44  1   
 41  20  23  1   
 42  21  24  ar  
 43  21  45  1   
 44  22  24  ar  
 45  22  46  1   
 46  23  25  1   
 47  23  47  1   
 48  23  48  1   
 49  24  49  1   
 50  25  26  1   
 51  25  27  1   
 52  25  50  1   
 53  26  51  1   
 54  26  52  1   
 55  26  53  1   
 56  27  54  1   
 57  27  55  1   
 58  27  56  1   
@<TRIPOS>SUBSTRUCTURE
  1 ****  12 GROUP 4 **** **** 0

# MOE 2024.06 (io_trps.svl 2023.06)
