@<TRIPOS>MOLECULE
Untitled Document
41 44 1 0 0 
SMALL
USER_CHARGES


@<TRIPOS>ATOM
  1 O       -0.8750     1.2870     1.9550 O.2   1 <1>  -0.5700 
  2 C       -1.6700     1.4340     1.0570 C.2   1 <1>   0.5690 
  3 N       -1.5250     2.3740     0.0760 N.am  1 <1>  -0.5100 
  4 C       -2.8630     0.5110     1.0300 C.3   1 <1>   0.1010 
  5 C       -0.4910     3.4210    -0.2570 C.3   1 <1>   0.2250 
  6 C       -2.5160     3.0420    -0.8320 C.3   1 <1>   0.2250 
  7 C       -4.0510     1.2130     1.5690 C.1   1 <1>   0.3570 
  8 C       -1.6640     4.3340    -0.7150 C.3   1 <1>   0.0000 
  9 C        0.5280     2.9190    -1.2830 C.3   1 <1>   0.2090 
 10 C        0.3490     3.8780     0.9250 C.3   1 <1>  -0.1600 
 11 N       -4.9790     1.7520     1.9450 N.1   1 <1>  -0.5570 
 12 C       -1.4910     5.1050    -2.0330 C.3   1 <1>  -0.2400 
 13 N        1.6540     2.3820    -0.4690 N.pl3 1 <1>  -0.8380 
 14 C        1.5640     2.9480     0.9070 C.3   1 <1>   0.2090 
 15 C        2.1130     1.0840    -0.6280 C.ar  1 <1>   0.4100 
 16 N        1.4020     0.2490    -1.3550 N.ar  1 <1>  -0.6200 
 17 C        3.3060     0.6520    -0.0220 C.ar  1 <1>   0.0000 
 18 C        1.8610    -1.0050    -1.4530 C.ar  1 <1>   0.4700 
 19 C        3.6540    -0.6700    -0.2010 C.ar  1 <1>   0.1050 
 20 C        4.3370     1.2190     0.7670 C.2   1 <1>  -0.1500 
 21 N        2.9350    -1.5320    -0.9220 N.ar  1 <1>  -0.5670 
 22 N        4.8200    -0.9230     0.4530 N.pl3 1 <1>   0.0330 
 23 C        5.2350     0.2410     1.0410 C.2   1 <1>  -0.3020 
 24 H       -3.0550     0.1950     0.0240 H     1 <1>   0.0800 
 25 H       -2.6610    -0.3540     1.6320 H     1 <1>   0.0800 
 26 H       -2.5060     2.5940    -1.8100 H     1 <1>   0.0000 
 27 H       -3.4930     3.1270    -0.3920 H     1 <1>   0.0000 
 28 H       -2.0140     4.9690     0.0810 H     1 <1>   0.0000 
 29 H        0.9050     3.7420    -1.8630 H     1 <1>   0.0800 
 30 H        0.0930     2.1940    -1.9480 H     1 <1>   0.0800 
 31 H        0.6870     4.8840     0.7550 H     1 <1>   0.0800 
 32 H       -0.1800     3.8410     1.8600 H     1 <1>   0.0800 
 33 H       -1.2320     4.4460    -2.8430 H     1 <1>   0.0800 
 34 H       -0.7200     5.8470    -1.9260 H     1 <1>   0.0800 
 35 H       -2.4110     5.6040    -2.2840 H     1 <1>   0.0800 
 36 H        1.4370     2.1480     1.6180 H     1 <1>   0.0800 
 37 H        2.4590     3.4940     1.1470 H     1 <1>   0.0800 
 38 H        1.2550    -1.6640    -2.0510 H     1 <1>   0.1500 
 39 H        4.3700     2.2500     1.0670 H     1 <1>   0.1500 
 40 H        5.2790    -1.8370     0.4670 H     1 <1>   0.2700 
 41 H        6.1440     0.3000     1.6140 H     1 <1>   0.1500 
@<TRIPOS>BOND
  1   1   2  2   
  2   2   3  am  
  3   2   4  1   
  4   3   5  1   
  5   3   6  1   
  6   4   7  1   
  7   4  24  1   
  8   4  25  1   
  9   5   8  1   
 10   5   9  1   
 11   5  10  1   
 12   6   8  1   
 13   6  26  1   
 14   6  27  1   
 15   7  11  3   
 16   8  12  1   
 17   8  28  1   
 18   9  13  1   
 19   9  29  1   
 20   9  30  1   
 21  10  14  1   
 22  10  31  1   
 23  10  32  1   
 24  12  33  1   
 25  12  34  1   
 26  12  35  1   
 27  13  14  1   
 28  13  15  1   
 29  14  36  1   
 30  14  37  1   
 31  15  16  ar  
 32  15  17  ar  
 33  16  18  ar  
 34  17  19  ar  
 35  17  20  1   
 36  18  21  ar  
 37  18  38  1   
 38  19  21  ar  
 39  19  22  1   
 40  20  23  2   
 41  20  39  1   
 42  22  23  1   
 43  22  40  1   
 44  23  41  1   
@<TRIPOS>SUBSTRUCTURE
  1 ****  13 GROUP 4 **** **** 0

# MOE 2024.06 (io_trps.svl 2023.06)
