@<TRIPOS>MOLECULE
NONAME
48 50 1 0 0 
SMALL
USER_CHARGES


@<TRIPOS>ATOM
  1 O       -2.3070     0.6080    -2.4260 O.2   1 <1>  -0.5700 
  2 C       -2.1880     0.9760    -1.2760 C.2   1 <1>   0.5440 
  3 N       -2.3840     0.0380    -0.2830 N.am  1 <1>  -0.6600 
  4 C       -1.9570     2.3740    -0.9750 C.ar  1 <1>   0.0860 
  5 C       -3.1140     0.3670     0.9770 C.3   1 <1>   0.1400 
  6 C       -2.3990    -1.4180    -0.6120 C.3   1 <1>   0.1400 
  7 C       -0.9240     2.8190    -0.1390 C.ar  1 <1>   0.1660 
  8 C       -2.8060     3.3360    -1.5060 C.ar  1 <1>  -0.1500 
  9 C       -4.5760    -0.1410     0.9110 C.3   1 <1>   0.4230 
 10 C       -3.8520    -1.9070    -0.7270 C.3   1 <1>   0.3430 
 11 N       -0.7470     4.0770     0.2310 N.ar  1 <1>  -0.6200 
 12 C        0.1160     1.8620     0.4230 C.3   1 <1>  -0.0970 
 13 C       -2.6130     4.6510    -1.1460 C.ar  1 <1>  -0.1500 
 14 N       -4.6590    -1.6110     0.5220 N.4   1 <1>  -0.9590 
 15 C       -5.4100     0.7320    -0.0570 C.3   1 <1>   0.1200 
 16 C       -1.5850     4.9640    -0.2770 C.ar  1 <1>   0.1600 
 17 C       -6.1070    -2.0080     0.4030 C.3   1 <1>   0.4230 
 18 O       -6.7310     0.2770    -0.1030 O.3   1 <1>  -0.5600 
 19 C       -6.8840    -1.0470    -0.5310 C.3   1 <1>   0.1200 
 20 C       -6.2330    -3.4820    -0.0170 C.3   1 <1>  -0.1600 
 21 C       -7.6470    -4.0390     0.2170 C.3   1 <1>  -0.1600 
 22 C       -7.7110    -5.5280    -0.1340 C.3   1 <1>  -0.2400 
 23 H       -2.6100    -0.0950     1.8080 H     1 <1>   0.0800 
 24 H       -3.1110     1.4290     1.1530 H     1 <1>   0.0800 
 25 H       -1.8850    -1.5970    -1.5420 H     1 <1>   0.0800 
 26 H       -1.8800    -1.9670     0.1540 H     1 <1>   0.0800 
 27 H       -3.5940     3.0570    -2.1850 H     1 <1>   0.1500 
 28 H       -5.0080    -0.0130     1.8900 H     1 <1>   0.0800 
 29 H       -3.8460    -2.9670    -0.9210 H     1 <1>   0.0800 
 30 H       -4.3010    -1.4200    -1.5780 H     1 <1>   0.0800 
 31 H        0.2670     1.0180    -0.2240 H     1 <1>   0.0800 
 32 H       -0.1880     1.5210     1.3940 H     1 <1>   0.0800 
 33 H        1.0600     2.3700     0.5230 H     1 <1>   0.0800 
 34 H       -3.2480     5.4280    -1.5330 H     1 <1>   0.1500 
 35 H       -4.2550    -2.1570     1.2910 H     1 <1>   0.4500 
 36 H       -5.0050     0.7170    -1.0550 H     1 <1>   0.0800 
 37 H       -5.4320     1.7520     0.2850 H     1 <1>   0.0800 
 38 H       -1.4400     5.9930     0.0090 H     1 <1>   0.1500 
 39 H       -6.5590    -1.9180     1.3780 H     1 <1>   0.0800 
 40 H       -7.9370    -1.2680    -0.5040 H     1 <1>   0.0800 
 41 H       -6.5470    -1.1250    -1.5500 H     1 <1>   0.0800 
 42 H       -5.9910    -3.5970    -1.0590 H     1 <1>   0.0800 
 43 H       -5.5470    -4.0740     0.5640 H     1 <1>   0.0800 
 44 H       -7.9290    -3.9140     1.2490 H     1 <1>   0.0800 
 45 H       -8.3670    -3.5160    -0.3910 H     1 <1>   0.0800 
 46 H       -7.0320    -6.0960     0.4790 H     1 <1>   0.0800 
 47 H       -7.4620    -5.6890    -1.1680 H     1 <1>   0.0800 
 48 H       -8.7060    -5.9020     0.0340 H     1 <1>   0.0800 
@<TRIPOS>BOND
  1   1   2  2   
  2   2   3  am  
  3   2   4  1   
  4   3   5  1   
  5   3   6  1   
  6   4   7  ar  
  7   4   8  ar  
  8   5   9  1   
  9   5  23  1   
 10   5  24  1   
 11   6  10  1   
 12   6  25  1   
 13   6  26  1   
 14   7  11  ar  
 15   7  12  1   
 16   8  13  ar  
 17   8  27  1   
 18   9  14  1   
 19   9  15  1   
 20   9  28  1   
 21  10  14  1   
 22  10  29  1   
 23  10  30  1   
 24  11  16  ar  
 25  12  31  1   
 26  12  32  1   
 27  12  33  1   
 28  13  16  ar  
 29  13  34  1   
 30  14  17  1   
 31  14  35  1   
 32  15  18  1   
 33  15  36  1   
 34  15  37  1   
 35  16  38  1   
 36  17  19  1   
 37  17  20  1   
 38  17  39  1   
 39  18  19  1   
 40  19  40  1   
 41  19  41  1   
 42  20  21  1   
 43  20  42  1   
 44  20  43  1   
 45  21  22  1   
 46  21  44  1   
 47  21  45  1   
 48  22  46  1   
 49  22  47  1   
 50  22  48  1   
@<TRIPOS>SUBSTRUCTURE
  1 ****   3 GROUP 4 **** **** 0

# MOE 2024.06 (io_trps.svl 2023.06)
