@<TRIPOS>MOLECULE
NONAME
47 48 1 0 0 
SMALL
USER_CHARGES


@<TRIPOS>ATOM
  1 O        0.8750    -0.3990     1.9960 O.co2 1 <1>  -0.9000 
  2 C        1.3320    -0.5080     0.8530 C.2   1 <1>   0.9060 
  3 O        1.0260    -1.4610     0.1210 O.co2 1 <1>  -0.9000 
  4 C        2.3440     0.5060     0.3140 C.3   1 <1>  -0.1060 
  5 C        3.6220    -0.3380     0.0340 C.3   1 <1>   0.2000 
  6 C        2.7200     1.5900     1.3610 C.3   1 <1>  -0.1600 
  7 C        1.7310     1.1720    -0.9640 C.3   1 <1>  -0.0160 
  8 O        3.7020    -0.6930    -1.3080 O.3   1 <1>  -0.6800 
  9 C        4.9490     0.3060     0.5060 C.3   1 <1>   0.1100 
 10 C        3.8540     2.5050     0.8690 C.3   1 <1>   0.1100 
 11 C        0.7030     2.2780    -0.7240 C.ar  1 <1>  -0.1430 
 12 N        5.0380     1.7760     0.3410 N.3   1 <1>  -0.8100 
 13 C        0.9670     3.5760    -1.1370 C.ar  1 <1>  -0.1500 
 14 C       -0.5060     2.0040    -0.1020 C.ar  1 <1>  -0.1500 
 15 C        5.3790     2.1420    -1.0680 C.3   1 <1>   0.1710 
 16 C        0.0420     4.5850    -0.9270 C.ar  1 <1>  -0.1500 
 17 C       -1.4310     3.0100     0.1120 C.ar  1 <1>  -0.1500 
 18 C        5.7800     3.6090    -1.2640 C.2   1 <1>   0.5690 
 19 C       -1.1590     4.3030    -0.3000 C.ar  1 <1>  -0.1500 
 20 O        5.6050     4.1470    -2.3330 O.2   1 <1>  -0.5700 
 21 N        6.3260     4.2680    -0.2140 N.am  1 <1>  -0.7300 
 22 C        6.7480     5.6700    -0.1970 C.3   1 <1>   0.2780 
 23 C        7.9180     5.7820     0.7560 C.2   1 <1>  -0.2880 
 24 C        7.9380     6.5040     1.8810 C.2   1 <1>  -0.3000 
 25 H        3.5490    -1.2700     0.5700 H     1 <1>   0.0800 
 26 H        3.0240     1.1160     2.2780 H     1 <1>   0.0800 
 27 H        1.8590     2.1840     1.6110 H     1 <1>   0.0800 
 28 H        2.5170     1.5840    -1.5620 H     1 <1>   0.0800 
 29 H        1.2630     0.4170    -1.5720 H     1 <1>   0.0800 
 30 H        2.8720    -1.1840    -1.5040 H     1 <1>   0.4000 
 31 H        5.7780    -0.1800     0.0230 H     1 <1>   0.0800 
 32 H        5.0420     0.1010     1.5580 H     1 <1>   0.0800 
 33 H        4.1720     3.1260     1.6880 H     1 <1>   0.0800 
 34 H        3.4590     3.1600     0.1120 H     1 <1>   0.0800 
 35 H        1.8960     3.8080    -1.6280 H     1 <1>   0.1500 
 36 H       -0.7310     1.0010     0.2250 H     1 <1>   0.1500 
 37 H        6.2120     1.5440    -1.3890 H     1 <1>   0.0800 
 38 H        4.5610     1.9180    -1.7210 H     1 <1>   0.0800 
 39 H        0.2590     5.5870    -1.2510 H     1 <1>   0.1500 
 40 H       -2.3600     2.7790     0.6020 H     1 <1>   0.1500 
 41 H       -1.8790     5.0830    -0.1330 H     1 <1>   0.1500 
 42 H        6.3620     3.7610     0.6750 H     1 <1>   0.3700 
 43 H        7.0360     5.9810    -1.1870 H     1 <1>   0.0800 
 44 H        5.9290     6.2840     0.1360 H     1 <1>   0.0800 
 45 H        8.7620     5.2010     0.4240 H     1 <1>   0.1500 
 46 H        8.7880     6.5650     2.5390 H     1 <1>   0.1500 
 47 H        7.1120     7.0940     2.2400 H     1 <1>   0.1500 
@<TRIPOS>BOND
  1   1   2  ar  
  2   2   3  ar  
  3   2   4  1   
  4   4   5  1   
  5   4   6  1   
  6   4   7  1   
  7   5   8  1   
  8   5   9  1   
  9   5  25  1   
 10   6  10  1   
 11   6  26  1   
 12   6  27  1   
 13   7  11  1   
 14   7  28  1   
 15   7  29  1   
 16   8  30  1   
 17   9  12  1   
 18   9  31  1   
 19   9  32  1   
 20  10  12  1   
 21  10  33  1   
 22  10  34  1   
 23  11  13  ar  
 24  11  14  ar  
 25  12  15  1   
 26  13  16  ar  
 27  13  35  1   
 28  14  17  ar  
 29  14  36  1   
 30  15  18  1   
 31  15  37  1   
 32  15  38  1   
 33  16  19  ar  
 34  16  39  1   
 35  17  19  ar  
 36  17  40  1   
 37  18  20  2   
 38  18  21  am  
 39  19  41  1   
 40  21  22  1   
 41  21  42  1   
 42  22  23  1   
 43  22  43  1   
 44  22  44  1   
 45  23  24  2   
 46  23  45  1   
 47  24  46  1   
 48  24  47  1   
@<TRIPOS>SUBSTRUCTURE
  1 ****  10 GROUP 4 **** **** 0

# MOE 2024.06 (io_trps.svl 2023.06)
