@<TRIPOS>MOLECULE
NONAME
56 57 1 0 0 
SMALL
USER_CHARGES


@<TRIPOS>ATOM
  1 O        1.1900     3.9610    -1.2950 O.2   1 <1>  -0.5700 
  2 C        0.1970     4.6420    -1.1800 C.2   1 <1>   0.5690 
  3 N       -0.7550     4.3910    -0.2280 N.am  1 <1>  -0.6600 
  4 C        0.0650     5.8360    -2.1330 C.3   1 <1>   0.1810 
  5 C       -1.9030     5.3430    -0.0570 C.3   1 <1>   0.3640 
  6 C       -0.5820     3.2750     0.7460 C.3   1 <1>   0.2200 
  7 O       -1.0410     6.6910    -1.9180 O.3   1 <1>  -0.5600 
  8 C       -3.1790     4.8100    -0.7170 C.ar  1 <1>  -0.1440 
  9 C       -1.5770     6.7510    -0.6000 C.3   1 <1>   0.2610 
 10 C       -1.8880     2.5250     1.0120 C.3   1 <1>  -0.2400 
 11 C        0.0190     3.8210     2.0390 C.3   1 <1>  -0.2400 
 12 C       -4.3900     4.9490    -0.0510 C.ar  1 <1>  -0.1500 
 13 C       -3.1680     4.1960    -1.9630 C.ar  1 <1>  -0.1500 
 14 C       -0.7080     7.5280     0.3980 C.2   1 <1>   0.5690 
 15 C       -5.5640     4.4830    -0.6160 C.ar  1 <1>  -0.1500 
 16 C       -4.3410     3.7290    -2.5300 C.ar  1 <1>  -0.1500 
 17 O       -1.1070     7.6580     1.5320 O.2   1 <1>  -0.5700 
 18 N        0.4770     8.0580    -0.0010 N.am  1 <1>  -0.7300 
 19 C       -5.5410     3.8720    -1.8560 C.ar  1 <1>  -0.1500 
 20 C        1.4790     8.7730     0.8240 C.3   1 <1>   0.1400 
 21 C        2.5740     7.8330     1.3860 C.3   1 <1>   0.0000 
 22 C        3.0100     6.7550     0.3650 C.3   1 <1>   0.1200 
 23 C        2.0540     7.1310     2.6520 C.3   1 <1>  -0.2400 
 24 C        3.7950     8.6820     1.7850 C.3   1 <1>  -0.2400 
 25 O        3.3110     7.3320    -0.8730 O.3   1 <1>  -0.5600 
 26 C        3.8940     6.4390    -1.7680 C.3   1 <1>   0.0400 
 27 H       -0.0110     5.4660    -3.1390 H     1 <1>   0.0800 
 28 H        0.9580     6.4270    -2.0690 H     1 <1>   0.0800 
 29 H       -2.1030     5.4410     0.9950 H     1 <1>   0.0800 
 30 H        0.1130     2.5620     0.3330 H     1 <1>   0.0800 
 31 H       -2.5000     7.2950    -0.6780 H     1 <1>   0.0800 
 32 H       -2.5970     3.1400     1.5330 H     1 <1>   0.0800 
 33 H       -1.6880     1.6610     1.6200 H     1 <1>   0.0800 
 34 H       -2.3150     2.1870     0.0850 H     1 <1>   0.0800 
 35 H       -0.6260     4.5490     2.4950 H     1 <1>   0.0800 
 36 H        0.9740     4.2660     1.8310 H     1 <1>   0.0800 
 37 H        0.1720     3.0170     2.7370 H     1 <1>   0.0800 
 38 H       -4.4290     5.4220     0.9150 H     1 <1>   0.1500 
 39 H       -2.2460     4.0750    -2.5020 H     1 <1>   0.1500 
 40 H       -6.4970     4.5950    -0.0910 H     1 <1>   0.1500 
 41 H       -4.3190     3.2550    -3.4950 H     1 <1>   0.1500 
 42 H        0.7730     7.9250    -0.9720 H     1 <1>   0.3700 
 43 H       -6.4530     3.5090    -2.2970 H     1 <1>   0.1500 
 44 H        1.9400     9.5190     0.2000 H     1 <1>   0.0800 
 45 H        0.9810     9.2840     1.6310 H     1 <1>   0.0800 
 46 H        2.2220     6.0370     0.2180 H     1 <1>   0.0800 
 47 H        3.8820     6.2390     0.7290 H     1 <1>   0.0800 
 48 H        1.7850     7.8530     3.4030 H     1 <1>   0.0800 
 49 H        2.8030     6.4760     3.0620 H     1 <1>   0.0800 
 50 H        1.1800     6.5500     2.4270 H     1 <1>   0.0800 
 51 H        3.5180     9.4330     2.5030 H     1 <1>   0.0800 
 52 H        4.2080     9.1720     0.9210 H     1 <1>   0.0800 
 53 H        4.5620     8.0640     2.2180 H     1 <1>   0.0800 
 54 H        4.0290     6.9450    -2.7080 H     1 <1>   0.0800 
 55 H        3.2500     5.5870    -1.9000 H     1 <1>   0.0800 
 56 H        4.8510     6.1290    -1.3840 H     1 <1>   0.0800 
@<TRIPOS>BOND
  1   1   2  2   
  2   2   3  am  
  3   2   4  1   
  4   3   5  1   
  5   3   6  1   
  6   4   7  1   
  7   4  27  1   
  8   4  28  1   
  9   5   8  1   
 10   5   9  1   
 11   5  29  1   
 12   6  10  1   
 13   6  11  1   
 14   6  30  1   
 15   7   9  1   
 16   8  12  ar  
 17   8  13  ar  
 18   9  14  1   
 19   9  31  1   
 20  10  32  1   
 21  10  33  1   
 22  10  34  1   
 23  11  35  1   
 24  11  36  1   
 25  11  37  1   
 26  12  15  ar  
 27  12  38  1   
 28  13  16  ar  
 29  13  39  1   
 30  14  17  2   
 31  14  18  am  
 32  15  19  ar  
 33  15  40  1   
 34  16  19  ar  
 35  16  41  1   
 36  18  20  1   
 37  18  42  1   
 38  19  43  1   
 39  20  21  1   
 40  20  44  1   
 41  20  45  1   
 42  21  22  1   
 43  21  23  1   
 44  21  24  1   
 45  22  25  1   
 46  22  46  1   
 47  22  47  1   
 48  23  48  1   
 49  23  49  1   
 50  23  50  1   
 51  24  51  1   
 52  24  52  1   
 53  24  53  1   
 54  25  26  1   
 55  26  54  1   
 56  26  55  1   
 57  26  56  1   
@<TRIPOS>SUBSTRUCTURE
  1 ****   3 GROUP 4 **** **** 0

# MOE 2024.06 (io_trps.svl 2023.06)
