@<TRIPOS>MOLECULE
NONAME
48 50 1 0 0 
SMALL
USER_CHARGES


@<TRIPOS>ATOM
  1 O       -1.0060     0.0320    -1.5100 O.co2 1 <1>  -0.9000 
  2 C       -1.5830    -1.0450    -1.3270 C.2   1 <1>   0.9060 
  3 O       -1.6400    -1.9420    -2.1680 O.co2 1 <1>  -0.9000 
  4 C       -2.4070    -1.2060    -0.0460 C.3   1 <1>   0.2370 
  5 N       -3.8100    -0.6170    -0.1150 N.4   1 <1>  -0.9590 
  6 C       -4.6030    -0.8780     1.1250 C.3   1 <1>   0.3430 
  7 C       -3.7210     0.8240    -0.5170 C.3   1 <1>   0.3430 
  8 C       -6.1170    -0.6090     0.9470 C.3   1 <1>   0.2200 
  9 C       -5.0770     1.4820    -0.8300 C.3   1 <1>  -0.0800 
 10 N       -6.5270    -0.6310    -0.5090 N.am  1 <1>  -0.6600 
 11 C       -6.5450     0.6850     1.6590 C.3   1 <1>   0.1200 
 12 C       -5.5800     2.3640     0.3210 C.3   1 <1>   0.1200 
 13 C       -6.1590     0.5350    -1.3810 C.3   1 <1>   0.1400 
 14 C       -7.2390    -1.6570    -1.0820 C.2   1 <1>   0.5690 
 15 O       -5.5760     1.6770     1.5280 O.3   1 <1>  -0.5600 
 16 O       -7.6440    -1.5770    -2.2160 O.2   1 <1>  -0.5700 
 17 C       -7.5330    -2.9300    -0.3110 C.3   1 <1>  -0.0990 
 18 C       -7.9520    -4.0970    -1.2180 C.3   1 <1>   0.0960 
 19 N       -8.2360    -5.3040    -0.4160 N.pl3 1 <1>   0.3140 
 20 N       -7.4590    -5.6870     0.6180 N.2   1 <1>  -0.7070 
 21 C       -9.2690    -6.1530    -0.5890 C.2   1 <1>  -0.3020 
 22 C       -8.0160    -6.7690     1.0690 C.2   1 <1>   0.1390 
 23 C       -9.1580    -7.1110     0.3520 C.2   1 <1>  -0.1810 
 24 C      -10.0580    -8.3040     0.5970 C.3   1 <1>  -0.0590 
 25 H       -1.8520    -0.7340     0.7440 H     1 <1>   0.0800 
 26 H       -2.4630    -2.2600     0.1560 H     1 <1>   0.0800 
 27 H       -4.2860    -1.0950    -0.8970 H     1 <1>   0.4500 
 28 H       -4.4800    -1.9110     1.4030 H     1 <1>   0.0800 
 29 H       -4.2240    -0.2770     1.9360 H     1 <1>   0.0800 
 30 H       -3.2160     1.3860     0.2520 H     1 <1>   0.0800 
 31 H       -3.1150     0.8940    -1.4070 H     1 <1>   0.0800 
 32 H       -6.6390    -1.3890     1.4700 H     1 <1>   0.0800 
 33 H       -4.8760     2.1750    -1.6270 H     1 <1>   0.0800 
 34 H       -6.6360     0.4910     2.7140 H     1 <1>   0.0800 
 35 H       -7.4960     1.0420     1.3010 H     1 <1>   0.0800 
 36 H       -6.5720     2.7410     0.1310 H     1 <1>   0.0800 
 37 H       -4.9210     3.2070     0.4440 H     1 <1>   0.0800 
 38 H       -5.8170     0.1530    -2.3300 H     1 <1>   0.0800 
 39 H       -7.0540     1.1010    -1.5810 H     1 <1>   0.0800 
 40 H       -6.6450    -3.2230     0.2160 H     1 <1>   0.0800 
 41 H       -8.3200    -2.7320     0.3930 H     1 <1>   0.0800 
 42 H       -7.1640    -4.3290    -1.9110 H     1 <1>   0.0800 
 43 H       -8.8340    -3.8370    -1.7740 H     1 <1>   0.0800 
 44 H      -10.0090    -6.0300    -1.3580 H     1 <1>   0.1500 
 45 H       -7.6310    -7.3320     1.9030 H     1 <1>   0.1500 
 46 H       -9.4960    -9.2150     0.4940 H     1 <1>   0.0800 
 47 H      -10.8640    -8.3120    -0.1140 H     1 <1>   0.0800 
 48 H      -10.4700    -8.2560     1.5880 H     1 <1>   0.0800 
@<TRIPOS>BOND
  1   1   2  ar  
  2   2   3  ar  
  3   2   4  1   
  4   4   5  1   
  5   4  25  1   
  6   4  26  1   
  7   5   6  1   
  8   5   7  1   
  9   5  27  1   
 10   6   8  1   
 11   6  28  1   
 12   6  29  1   
 13   7   9  1   
 14   7  30  1   
 15   7  31  1   
 16   8  10  1   
 17   8  11  1   
 18   8  32  1   
 19   9  12  1   
 20   9  13  1   
 21   9  33  1   
 22  10  13  1   
 23  10  14  am  
 24  11  15  1   
 25  11  34  1   
 26  11  35  1   
 27  12  15  1   
 28  12  36  1   
 29  12  37  1   
 30  13  38  1   
 31  13  39  1   
 32  14  16  2   
 33  14  17  1   
 34  17  18  1   
 35  17  40  1   
 36  17  41  1   
 37  18  19  1   
 38  18  42  1   
 39  18  43  1   
 40  19  20  1   
 41  19  21  1   
 42  20  22  2   
 43  21  23  2   
 44  21  44  1   
 45  22  23  1   
 46  22  45  1   
 47  23  24  1   
 48  24  46  1   
 49  24  47  1   
 50  24  48  1   
@<TRIPOS>SUBSTRUCTURE
  1 ****  10 GROUP 4 **** **** 0

# MOE 2024.06 (io_trps.svl 2023.06)
