@<TRIPOS>MOLECULE
NONAME
42 44 1 0 0 
SMALL
USER_CHARGES


@<TRIPOS>ATOM
  1 O       -3.1450     1.9130    -1.2200 O.2   1 <1>  -0.5700 
  2 C       -2.5570     1.3340    -0.3380 C.2   1 <1>   0.5690 
  3 N       -2.4410    -0.0170    -0.3300 N.am  1 <1>  -0.7300 
  4 C       -1.9420     2.1400     0.8080 C.3   1 <1>   0.1810 
  5 C       -2.9790    -0.9470    -1.3470 C.3   1 <1>   0.2200 
  6 O       -0.9670     1.4170     1.5250 O.3   1 <1>  -0.5600 
  7 C       -4.1160    -1.7840    -0.7790 C.3   1 <1>  -0.0800 
  8 C       -1.9460    -2.0270    -1.6320 C.3   1 <1>   0.1200 
  9 C        0.2910     1.3890     0.9240 C.3   1 <1>   0.0400 
 10 C       -3.3850    -2.9500    -0.1040 C.3   1 <1>   0.1200 
 11 C       -5.1010    -1.0410     0.1440 C.3   1 <1>  -0.0170 
 12 O       -2.0720    -2.9420    -0.5870 O.3   1 <1>  -0.5600 
 13 C       -6.2460    -1.9530     0.5720 C.ar  1 <1>  -0.1440 
 14 C       -7.3350    -2.2570    -0.2800 C.ar  1 <1>   0.0000 
 15 C       -6.2430    -2.5160     1.8150 C.ar  1 <1>  -0.1500 
 16 C       -8.3270    -3.1400     0.2110 C.ar  1 <1>   0.3100 
 17 C       -7.4980    -1.7370    -1.5850 C.ar  1 <1>  -0.1500 
 18 C       -7.2800    -3.3700     2.2060 C.ar  1 <1>   0.1600 
 19 N       -8.2860    -3.6860     1.4530 N.ar  1 <1>  -0.6200 
 20 C       -9.4110    -3.4710    -0.6170 C.ar  1 <1>  -0.1500 
 21 C       -8.5690    -2.0790    -2.3660 C.ar  1 <1>  -0.1500 
 22 C       -9.5380    -2.9580    -1.8790 C.ar  1 <1>  -0.1500 
 23 H       -1.9160    -0.4550     0.4350 H     1 <1>   0.3700 
 24 H       -2.7230     2.3970     1.4990 H     1 <1>   0.0800 
 25 H       -1.5070     3.0490     0.4310 H     1 <1>   0.0800 
 26 H       -3.2630    -0.4100    -2.2370 H     1 <1>   0.0800 
 27 H       -4.6650    -2.1940    -1.6080 H     1 <1>   0.0800 
 28 H       -0.9400    -1.6460    -1.6630 H     1 <1>   0.0800 
 29 H       -2.1740    -2.5410    -2.5490 H     1 <1>   0.0800 
 30 H        0.9430     0.7940     1.5400 H     1 <1>   0.0800 
 31 H        0.6750     2.3920     0.8580 H     1 <1>   0.0800 
 32 H        0.2160     0.9480    -0.0550 H     1 <1>   0.0800 
 33 H       -3.8400    -3.8970    -0.3410 H     1 <1>   0.0800 
 34 H       -3.3370    -2.8270     0.9640 H     1 <1>   0.0800 
 35 H       -5.4890    -0.1690    -0.3530 H     1 <1>   0.0800 
 36 H       -4.5850    -0.6920     1.0210 H     1 <1>   0.0800 
 37 H       -5.4530    -2.3260     2.5190 H     1 <1>   0.1500 
 38 H       -6.7680    -1.0540    -1.9780 H     1 <1>   0.1500 
 39 H       -7.2380    -3.7930     3.1950 H     1 <1>   0.1500 
 40 H      -10.1460    -4.1470    -0.2200 H     1 <1>   0.1500 
 41 H       -8.6800    -1.6760    -3.3580 H     1 <1>   0.1500 
 42 H      -10.3750    -3.2210    -2.5020 H     1 <1>   0.1500 
@<TRIPOS>BOND
  1   1   2  2   
  2   2   3  am  
  3   2   4  1   
  4   3   5  1   
  5   3  23  1   
  6   4   6  1   
  7   4  24  1   
  8   4  25  1   
  9   5   7  1   
 10   5   8  1   
 11   5  26  1   
 12   6   9  1   
 13   7  10  1   
 14   7  11  1   
 15   7  27  1   
 16   8  12  1   
 17   8  28  1   
 18   8  29  1   
 19   9  30  1   
 20   9  31  1   
 21   9  32  1   
 22  10  12  1   
 23  10  33  1   
 24  10  34  1   
 25  11  13  1   
 26  11  35  1   
 27  11  36  1   
 28  13  14  ar  
 29  13  15  ar  
 30  14  16  ar  
 31  14  17  ar  
 32  15  18  ar  
 33  15  37  1   
 34  16  19  ar  
 35  16  20  ar  
 36  17  21  ar  
 37  17  38  1   
 38  18  19  ar  
 39  18  39  1   
 40  20  22  ar  
 41  20  40  1   
 42  21  22  ar  
 43  21  41  1   
 44  22  42  1   
@<TRIPOS>SUBSTRUCTURE
  1 ****  11 GROUP 4 **** **** 0

# MOE 2024.06 (io_trps.svl 2023.06)
