@<TRIPOS>MOLECULE
NONAME
63 67 1 0 0 
SMALL
USER_CHARGES


@<TRIPOS>ATOM
  1 O        0.4000     1.8550     2.5980 O.2   1 <1>  -0.5700 
  2 C       -0.2920     2.3190     1.7120 C.2   1 <1>   0.5440 
  3 N       -1.6160     1.9430     1.6390 N.am  1 <1>  -0.6600 
  4 C        0.3050     3.2550     0.7760 C.ar  1 <1>   0.0860 
  5 C       -2.6520     2.7380     0.8980 C.3   1 <1>   0.1400 
  6 C       -2.1120     0.8200     2.4920 C.3   1 <1>   0.1400 
  7 C        0.1430     3.1290    -0.6030 C.ar  1 <1>  -0.1500 
  8 C        1.0870     4.3140     1.2340 C.ar  1 <1>  -0.1500 
  9 C       -3.9510     2.8670     1.7150 C.3   1 <1>   0.1440 
 10 C       -3.4970     0.3420     2.0390 C.3   1 <1>  -0.1600 
 11 C        0.7310     4.0180    -1.4840 C.ar  1 <1>  -0.1500 
 12 C        1.6790     5.2080     0.3610 C.ar  1 <1>  -0.1500 
 13 C       -4.9660     3.7280     0.9850 C.ar  1 <1>   0.1670 
 14 C       -4.5510     1.4680     2.0070 C.3   1 <1>  -0.1600 
 15 C       -3.7240     3.6740     3.0240 C.3   1 <1>  -0.1600 
 16 C        1.5130     5.0610    -1.0080 C.ar  1 <1>  -0.1440 
 17 N       -5.3010     3.5990    -0.2760 N.ar  1 <1>  -0.6200 
 18 C       -5.5060     4.6730     1.8010 C.ar  1 <1>  -0.1440 
 19 C       -4.9410     4.6000     3.1970 C.3   1 <1>  -0.0170 
 20 C        2.1850     6.0220    -1.9710 C.3   1 <1>   0.4860 
 21 C       -6.2270     4.4570    -0.7260 C.ar  1 <1>   0.6200 
 22 C       -6.4440     5.5170     1.2660 C.ar  1 <1>   0.1600 
 23 N        3.6440     5.7110    -2.0160 N.4   1 <1>  -0.9590 
 24 N       -6.8090     5.4160     0.0080 N.ar  1 <1>  -0.6200 
 25 C       -6.6300     4.3380    -2.1220 C.ar  1 <1>   0.0000 
 26 C        4.4050     6.7560    -2.7650 C.3   1 <1>   0.2630 
 27 C        3.9040     4.3460    -2.5750 C.3   1 <1>   0.2630 
 28 C       -6.5590     3.1200    -2.8050 C.ar  1 <1>  -0.1500 
 29 C       -7.1050     5.4360    -2.8450 C.ar  1 <1>  -0.1500 
 30 C       -6.9400     3.0030    -4.1300 C.ar  1 <1>  -0.1500 
 31 C       -7.4890     5.3270    -4.1700 C.ar  1 <1>  -0.1500 
 32 C       -7.4070     4.1080    -4.8160 C.ar  1 <1>  -0.1500 
 33 H       -2.8710     2.2450    -0.0340 H     1 <1>   0.0800 
 34 H       -2.2820     3.7230     0.6730 H     1 <1>   0.0800 
 35 H       -2.1530     1.1510     3.5150 H     1 <1>   0.0800 
 36 H       -1.4130     0.0020     2.4390 H     1 <1>   0.0800 
 37 H       -0.4510     2.3150    -0.9810 H     1 <1>   0.1500 
 38 H        1.2270     4.4240     2.2970 H     1 <1>   0.1500 
 39 H       -3.8330    -0.4490     2.6850 H     1 <1>   0.0800 
 40 H       -3.3950    -0.0760     1.0520 H     1 <1>   0.0800 
 41 H        0.5720     3.8830    -2.5410 H     1 <1>   0.1500 
 42 H        2.2680     6.0130     0.7680 H     1 <1>   0.1500 
 43 H       -5.2690     1.2210     1.2430 H     1 <1>   0.0800 
 44 H       -5.0870     1.4920     2.9390 H     1 <1>   0.0800 
 45 H       -2.8480     4.2890     2.9150 H     1 <1>   0.0800 
 46 H       -3.5800     3.0420     3.8820 H     1 <1>   0.0800 
 47 H       -4.6520     5.5700     3.5640 H     1 <1>   0.0800 
 48 H       -5.6650     4.1570     3.8580 H     1 <1>   0.0800 
 49 H        2.0310     7.0320    -1.6280 H     1 <1>   0.0800 
 50 H        1.7520     5.9250    -2.9530 H     1 <1>   0.0800 
 51 H       -6.9000     6.2800     1.8720 H     1 <1>   0.1500 
 52 H        3.9610     5.7020    -1.0350 H     1 <1>   0.4500 
 53 H        4.0870     6.7890    -3.7940 H     1 <1>   0.0800 
 54 H        5.4610     6.5390    -2.7390 H     1 <1>   0.0800 
 55 H        4.2470     7.7270    -2.3220 H     1 <1>   0.0800 
 56 H        3.5550     4.2820    -3.5930 H     1 <1>   0.0800 
 57 H        3.3940     3.5980    -1.9880 H     1 <1>   0.0800 
 58 H        4.9590     4.1280    -2.5580 H     1 <1>   0.0800 
 59 H       -6.2010     2.2470    -2.2880 H     1 <1>   0.1500 
 60 H       -7.1770     6.3940    -2.3600 H     1 <1>   0.1500 
 61 H       -6.8740     2.0510    -4.6270 H     1 <1>   0.1500 
 62 H       -7.8520     6.1920    -4.6970 H     1 <1>   0.1500 
 63 H       -7.7050     4.0210    -5.8470 H     1 <1>   0.1500 
@<TRIPOS>BOND
  1   1   2  2   
  2   2   3  am  
  3   2   4  1   
  4   3   5  1   
  5   3   6  1   
  6   4   7  ar  
  7   4   8  ar  
  8   5   9  1   
  9   5  33  1   
 10   5  34  1   
 11   6  10  1   
 12   6  35  1   
 13   6  36  1   
 14   7  11  ar  
 15   7  37  1   
 16   8  12  ar  
 17   8  38  1   
 18   9  13  1   
 19   9  14  1   
 20   9  15  1   
 21  10  14  1   
 22  10  39  1   
 23  10  40  1   
 24  11  16  ar  
 25  11  41  1   
 26  12  16  ar  
 27  12  42  1   
 28  13  17  ar  
 29  13  18  ar  
 30  14  43  1   
 31  14  44  1   
 32  15  19  1   
 33  15  45  1   
 34  15  46  1   
 35  16  20  1   
 36  17  21  ar  
 37  18  19  1   
 38  18  22  ar  
 39  19  47  1   
 40  19  48  1   
 41  20  23  1   
 42  20  49  1   
 43  20  50  1   
 44  21  24  ar  
 45  21  25  1   
 46  22  24  ar  
 47  22  51  1   
 48  23  26  1   
 49  23  27  1   
 50  23  52  1   
 51  25  28  ar  
 52  25  29  ar  
 53  26  53  1   
 54  26  54  1   
 55  26  55  1   
 56  27  56  1   
 57  27  57  1   
 58  27  58  1   
 59  28  30  ar  
 60  28  59  1   
 61  29  31  ar  
 62  29  60  1   
 63  30  32  ar  
 64  30  61  1   
 65  31  32  ar  
 66  31  62  1   
 67  32  63  1   
@<TRIPOS>SUBSTRUCTURE
  1 ****   5 GROUP 4 **** **** 0

# MOE 2024.06 (io_trps.svl 2023.06)
