@<TRIPOS>MOLECULE
NONAME
39 40 1 0 0 
SMALL
USER_CHARGES


@<TRIPOS>ATOM
  1 O       -2.1620    -0.7150     0.9410 O.2   1 <1>  -0.5700 
  2 C       -1.1470    -0.4860     0.3160 C.2   1 <1>   0.7800 
  3 O       -0.3300    -1.4570    -0.0860 O.3   1 <1>  -0.4300 
  4 N       -0.7600     0.7610    -0.0260 N.am  1 <1>  -0.6550 
  5 C       -0.4860    -2.8440     0.1290 C.3   1 <1>   0.2800 
  6 C       -1.4690     2.0120     0.2850 C.3   1 <1>   0.2250 
  7 C       -0.4640    -3.1560     1.6300 C.3   1 <1>  -0.2400 
  8 C        0.7280    -3.4910    -0.5380 C.3   1 <1>  -0.2400 
  9 C       -1.7640    -3.3460    -0.5540 C.3   1 <1>  -0.2400 
 10 C       -2.7690     2.2640     1.1020 C.3   1 <1>   0.0000 
 11 C       -0.8720     3.2420     1.0260 C.3   1 <1>   0.0000 
 12 C       -2.0280     3.0290    -0.7500 C.3   1 <1>   0.0000 
 13 C       -2.3180     3.6840     0.6380 C.3   1 <1>   0.0000 
 14 C       -2.9920     5.0250     0.9280 C.3   1 <1>  -0.0990 
 15 C       -2.2210     6.1710     0.3160 C.2   1 <1>   0.6590 
 16 O       -1.5340     6.8970     0.9860 O.2   1 <1>  -0.5700 
 17 O       -2.3470     6.3230    -0.9960 O.3   1 <1>  -0.4300 
 18 C       -1.6720     7.3510    -1.6890 C.3   1 <1>   0.0400 
 19 H        0.1050     0.8450    -0.5530 H     1 <1>   0.3700 
 20 H        0.4090    -2.7290     2.0880 H     1 <1>   0.0800 
 21 H       -0.4440    -4.2190     1.7830 H     1 <1>   0.0800 
 22 H       -1.3420    -2.7750     2.1180 H     1 <1>   0.0800 
 23 H        1.6360    -3.1330    -0.0880 H     1 <1>   0.0800 
 24 H        0.7430    -3.2630    -1.5890 H     1 <1>   0.0800 
 25 H        0.6930    -4.5590    -0.4240 H     1 <1>   0.0800 
 26 H       -2.6420    -2.9650    -0.0650 H     1 <1>   0.0800 
 27 H       -1.8080    -4.4180    -0.5080 H     1 <1>   0.0800 
 28 H       -1.7780    -3.0480    -1.5870 H     1 <1>   0.0800 
 29 H       -2.7030     2.0900     2.1650 H     1 <1>   0.0000 
 30 H       -3.6860     1.9100     0.6570 H     1 <1>   0.0000 
 31 H       -0.0810     3.7680     0.5150 H     1 <1>   0.0000 
 32 H       -0.7020     3.1210     2.0840 H     1 <1>   0.0000 
 33 H       -1.2970     3.5410    -1.3550 H     1 <1>   0.0000 
 34 H       -2.9030     2.7150    -1.2960 H     1 <1>   0.0000 
 35 H       -3.0480     5.1720     1.9910 H     1 <1>   0.0800 
 36 H       -3.9900     5.0230     0.5320 H     1 <1>   0.0800 
 37 H       -1.9250     7.2830    -2.7320 H     1 <1>   0.0800 
 38 H       -0.6120     7.2220    -1.5540 H     1 <1>   0.0800 
 39 H       -1.9830     8.3010    -1.2920 H     1 <1>   0.0800 
@<TRIPOS>BOND
  1   1   2  2   
  2   2   3  1   
  3   2   4  am  
  4   3   5  1   
  5   4   6  1   
  6   4  19  1   
  7   5   7  1   
  8   5   8  1   
  9   5   9  1   
 10   6  10  1   
 11   6  11  1   
 12   6  12  1   
 13   7  20  1   
 14   7  21  1   
 15   7  22  1   
 16   8  23  1   
 17   8  24  1   
 18   8  25  1   
 19   9  26  1   
 20   9  27  1   
 21   9  28  1   
 22  10  13  1   
 23  10  29  1   
 24  10  30  1   
 25  11  13  1   
 26  11  31  1   
 27  11  32  1   
 28  12  13  1   
 29  12  33  1   
 30  12  34  1   
 31  13  14  1   
 32  14  15  1   
 33  14  35  1   
 34  14  36  1   
 35  15  16  2   
 36  15  17  1   
 37  17  18  1   
 38  18  37  1   
 39  18  38  1   
 40  18  39  1   
@<TRIPOS>SUBSTRUCTURE
  1 ****   6 GROUP 4 **** **** 0

# MOE 2024.06 (io_trps.svl 2023.06)
