@<TRIPOS>MOLECULE
NONAME
42 43 1 0 0 
SMALL
USER_CHARGES


@<TRIPOS>ATOM
  1 O       -0.9170     0.0570     0.7180 O.3   1 <1>  -0.5600 
  2 C       -1.9990    -0.7730     0.4890 C.3   1 <1>   0.1200 
  3 C        0.2890    -0.6110     0.9130 C.3   1 <1>   0.0400 
  4 C       -3.2080     0.1380     0.3070 C.3   1 <1>  -0.1600 
  5 C       -4.4700    -0.6790     0.0460 C.3   1 <1>   0.3430 
  6 N       -5.6570     0.2170    -0.0090 N.4   1 <1>  -0.9590 
  7 C       -6.9310    -0.5630     0.1690 C.3   1 <1>   0.3430 
  8 C       -5.7010     1.0570    -1.2390 C.3   1 <1>   0.3430 
  9 C       -8.2140     0.2480    -0.1500 C.3   1 <1>   0.0000 
 10 C       -6.7640     2.1490    -1.0720 C.3   1 <1>  -0.1600 
 11 C       -9.3050    -0.1950     0.8470 C.3   1 <1>   0.2000 
 12 C       -7.9170     1.7670    -0.1230 C.3   1 <1>  -0.1600 
 13 C       -8.7890    -0.2040    -1.5080 C.3   1 <1>  -0.1600 
 14 O      -10.3500     0.7050     0.8460 O.3   1 <1>  -0.6800 
 15 C       -9.8350    -1.5160     0.2940 C.3   1 <1>  -0.1600 
 16 C       -9.6440    -1.4480    -1.2270 C.3   1 <1>  -0.1600 
 17 H       -1.8050    -1.3530    -0.3990 H     1 <1>   0.0800 
 18 H       -2.1200    -1.4220     1.3410 H     1 <1>   0.0800 
 19 H        1.0560     0.1250     1.0800 H     1 <1>   0.0800 
 20 H        0.5270    -1.1850     0.0340 H     1 <1>   0.0800 
 21 H        0.2090    -1.2500     1.7750 H     1 <1>   0.0800 
 22 H       -3.3300     0.7190     1.2040 H     1 <1>   0.0800 
 23 H       -3.0070     0.7940    -0.5210 H     1 <1>   0.0800 
 24 H       -4.5920    -1.3880     0.8490 H     1 <1>   0.0800 
 25 H       -4.3730    -1.2260    -0.8780 H     1 <1>   0.0800 
 26 H       -5.5960     0.8750     0.7800 H     1 <1>   0.4500 
 27 H       -6.9140    -1.4360    -0.4630 H     1 <1>   0.0800 
 28 H       -6.9810    -0.9070     1.1890 H     1 <1>   0.0800 
 29 H       -4.7440     1.5180    -1.4260 H     1 <1>   0.0800 
 30 H       -5.9480     0.4380    -2.0860 H     1 <1>   0.0800 
 31 H       -6.2970     3.0500    -0.7150 H     1 <1>   0.0800 
 32 H       -7.1620     2.3740    -2.0460 H     1 <1>   0.0800 
 33 H       -8.9500    -0.2780     1.8610 H     1 <1>   0.0800 
 34 H       -8.7920     2.3380    -0.3850 H     1 <1>   0.0800 
 35 H       -7.6560     2.0480     0.8840 H     1 <1>   0.0800 
 36 H       -9.4310     0.5660    -1.9020 H     1 <1>   0.0800 
 37 H       -8.0290    -0.4090    -2.2420 H     1 <1>   0.0800 
 38 H      -10.8390     0.6490     0.0020 H     1 <1>   0.4000 
 39 H       -9.2460    -2.3250     0.6880 H     1 <1>   0.0800 
 40 H      -10.8620    -1.6880     0.5730 H     1 <1>   0.0800 
 41 H       -9.1560    -2.3410    -1.5800 H     1 <1>   0.0800 
 42 H      -10.5960    -1.3640    -1.7250 H     1 <1>   0.0800 
@<TRIPOS>BOND
  1   1   2  1   
  2   1   3  1   
  3   2   4  1   
  4   2  17  1   
  5   2  18  1   
  6   3  19  1   
  7   3  20  1   
  8   3  21  1   
  9   4   5  1   
 10   4  22  1   
 11   4  23  1   
 12   5   6  1   
 13   5  24  1   
 14   5  25  1   
 15   6   7  1   
 16   6   8  1   
 17   6  26  1   
 18   7   9  1   
 19   7  27  1   
 20   7  28  1   
 21   8  10  1   
 22   8  29  1   
 23   8  30  1   
 24   9  11  1   
 25   9  12  1   
 26   9  13  1   
 27  10  12  1   
 28  10  31  1   
 29  10  32  1   
 30  11  14  1   
 31  11  15  1   
 32  11  33  1   
 33  12  34  1   
 34  12  35  1   
 35  13  16  1   
 36  13  36  1   
 37  13  37  1   
 38  14  38  1   
 39  15  16  1   
 40  15  39  1   
 41  15  40  1   
 42  16  41  1   
 43  16  42  1   
@<TRIPOS>SUBSTRUCTURE
  1 ****   6 GROUP 4 **** **** 0

# MOE 2024.06 (io_trps.svl 2023.06)
