@<TRIPOS>MOLECULE
NONAME
52 54 1 0 0 
SMALL
USER_CHARGES


@<TRIPOS>ATOM
  1 O        0.4120     0.1300     0.4440 O.2   1 <1>  -0.5700 
  2 C        1.2890    -0.4900    -0.1250 C.2   1 <1>   0.7160 
  3 N        2.3010     0.2020    -0.7210 N.am  1 <1>  -0.7300 
  4 C        1.2330    -1.9330    -0.1830 C.2   1 <1>  -0.0860 
  5 C        2.3990     1.6830    -0.7910 C.3   1 <1>   0.1400 
  6 C        2.1590    -2.8920    -0.4750 C.2   1 <1>  -0.0400 
  7 C        0.0610    -2.6680     0.0910 C.2   1 <1>  -0.1500 
  8 C        2.9980     2.2430     0.5020 C.3   1 <1>   0.0200 
  9 O        1.6270    -4.0890    -0.4150 O.3   1 <1>  -0.2800 
 10 C        3.6350    -2.8170    -0.8210 C.3   1 <1>  -0.0600 
 11 C        0.3660    -3.9720    -0.0710 C.2   1 <1>  -0.0400 
 12 C        3.2520     3.7350     0.4060 C.2   1 <1>   0.2980 
 13 C       -0.4430    -5.2500     0.0770 C.3   1 <1>   0.5230 
 14 O        3.6870     4.3510     1.4930 O.3   1 <1>  -0.2800 
 15 N        3.1010     4.4820    -0.6230 N.2   1 <1>  -0.5650 
 16 N       -1.8940    -4.9450     0.2760 N.4   1 <1>  -0.9590 
 17 C        3.8300     5.6140     1.1430 C.ar  1 <1>   0.1400 
 18 C        3.4670     5.7150    -0.1770 C.ar  1 <1>   0.2270 
 19 C       -2.6430    -6.1230     0.7880 C.3   1 <1>   0.3430 
 20 C       -2.4860    -4.4100    -0.9810 C.3   1 <1>   0.3430 
 21 C        4.2570     6.7090     1.8820 C.ar  1 <1>  -0.1500 
 22 C        3.5210     6.9480    -0.8180 C.ar  1 <1>  -0.1500 
 23 C       -2.3110    -6.3410     2.2600 C.3   1 <1>  -0.2400 
 24 C       -3.7510    -3.6260    -0.6540 C.3   1 <1>  -0.2400 
 25 C        4.3110     7.9340     1.2450 C.ar  1 <1>  -0.1500 
 26 C        3.9440     8.0520    -0.1000 C.ar  1 <1>  -0.1500 
 27 H        2.9640    -0.3140    -1.2980 H     1 <1>   0.3700 
 28 H        1.4190     2.1060    -0.9440 H     1 <1>   0.0800 
 29 H        3.0160     1.9580    -1.6300 H     1 <1>   0.0800 
 30 H       -0.8650    -2.1970     0.3760 H     1 <1>   0.1500 
 31 H        3.9320     1.7560     0.7110 H     1 <1>   0.0800 
 32 H        2.3200     2.0630     1.3150 H     1 <1>   0.0800 
 33 H        4.0280    -1.8310    -0.6690 H     1 <1>   0.0800 
 34 H        3.7850    -3.1060    -1.8450 H     1 <1>   0.0800 
 35 H        4.1840    -3.4950    -0.1910 H     1 <1>   0.0800 
 36 H       -0.0540    -5.7960     0.9190 H     1 <1>   0.0800 
 37 H       -0.3110    -5.8560    -0.8040 H     1 <1>   0.0800 
 38 H       -1.9370    -4.2020     0.9840 H     1 <1>   0.4500 
 39 H       -2.3990    -7.0030     0.2140 H     1 <1>   0.0800 
 40 H       -3.7030    -5.9490     0.7000 H     1 <1>   0.0800 
 41 H       -2.7100    -5.2150    -1.6640 H     1 <1>   0.0800 
 42 H       -1.7860    -3.7470    -1.4660 H     1 <1>   0.0800 
 43 H        4.5320     6.5880     2.9140 H     1 <1>   0.1500 
 44 H        3.2340     7.0140    -1.8510 H     1 <1>   0.1500 
 45 H       -1.2800    -6.6100     2.4030 H     1 <1>   0.0800 
 46 H       -2.9120    -7.1500     2.6380 H     1 <1>   0.0800 
 47 H       -2.5410    -5.4630     2.8390 H     1 <1>   0.0800 
 48 H       -4.5150    -4.2570    -0.2400 H     1 <1>   0.0800 
 49 H       -4.1400    -3.1960    -1.5610 H     1 <1>   0.0800 
 50 H       -3.5370    -2.8200     0.0250 H     1 <1>   0.0800 
 51 H        4.6370     8.8090     1.7820 H     1 <1>   0.1500 
 52 H        3.9930     9.0160    -0.5780 H     1 <1>   0.1500 
@<TRIPOS>BOND
  1   1   2  2   
  2   2   3  am  
  3   2   4  1   
  4   3   5  1   
  5   3  27  1   
  6   4   6  2   
  7   4   7  1   
  8   5   8  1   
  9   5  28  1   
 10   5  29  1   
 11   6   9  1   
 12   6  10  1   
 13   7  11  2   
 14   7  30  1   
 15   8  12  1   
 16   8  31  1   
 17   8  32  1   
 18   9  11  1   
 19  10  33  1   
 20  10  34  1   
 21  10  35  1   
 22  11  13  1   
 23  12  14  1   
 24  12  15  2   
 25  13  16  1   
 26  13  36  1   
 27  13  37  1   
 28  14  17  1   
 29  15  18  1   
 30  16  19  1   
 31  16  20  1   
 32  16  38  1   
 33  17  18  ar  
 34  17  21  ar  
 35  18  22  ar  
 36  19  23  1   
 37  19  39  1   
 38  19  40  1   
 39  20  24  1   
 40  20  41  1   
 41  20  42  1   
 42  21  25  ar  
 43  21  43  1   
 44  22  26  ar  
 45  22  44  1   
 46  23  45  1   
 47  23  46  1   
 48  23  47  1   
 49  24  48  1   
 50  24  49  1   
 51  24  50  1   
 52  25  26  ar  
 53  25  51  1   
 54  26  52  1   
@<TRIPOS>SUBSTRUCTURE
  1 ****   2 GROUP 4 **** **** 0

# MOE 2024.06 (io_trps.svl 2023.06)
