@<TRIPOS>MOLECULE
NONAME
19 20 1 0 0 
SMALL
USER_CHARGES


@<TRIPOS>ATOM
  1 O        0.2670     0.1830     0.6430 O.2   1 <1>  -0.5700 
  2 C        1.2510     0.8290     0.3910 C.2   1 <1>   0.5690 
  3 N        1.2470     2.2320     0.0850 N.am  1 <1>  -0.7300 
  4 C        2.7500     0.2210     0.3610 C.3   1 <1>  -0.0190 
  5 C        2.6980     2.8120    -0.1900 C.3   1 <1>   0.2200 
  6 C        4.3030     0.6440    -0.0140 C.3   1 <1>   0.2000 
  7 C        2.8750     1.5290     0.1140 C.3   1 <1>  -0.1600 
  8 C        4.2720     2.3080    -0.4080 C.3   1 <1>   0.2000 
  9 O        4.7780    -0.1270    -1.0780 O.3   1 <1>  -0.6800 
 10 O        5.1660     3.0430     0.3860 O.3   1 <1>  -0.6800 
 11 H        0.3960     2.7960     0.0450 H     1 <1>   0.3700 
 12 H        2.8510    -0.1430     1.3710 H     1 <1>   0.0800 
 13 H        2.8050     3.5670     0.5750 H     1 <1>   0.0800 
 14 H        4.9670     0.4660     0.8190 H     1 <1>   0.0800 
 15 H        2.6390     1.2680    -1.0580 H     1 <1>   0.0800 
 16 H        2.9900     1.7840     1.2450 H     1 <1>   0.0800 
 17 H        4.5740     2.4640    -1.4330 H     1 <1>   0.0800 
 18 H        4.1450    -0.1330    -1.8210 H     1 <1>   0.4000 
 19 H        5.0790     2.8110     1.3300 H     1 <1>   0.4000 
@<TRIPOS>BOND
  1   1   2  2   
  2   2   3  am  
  3   2   4  1   
  4   3   5  1   
  5   3  11  1   
  6   4   6  1   
  7   4   7  1   
  8   4  12  1   
  9   5   7  1   
 10   5   8  1   
 11   5  13  1   
 12   6   8  1   
 13   6   9  1   
 14   6  14  1   
 15   7  15  1   
 16   7  16  1   
 17   8  10  1   
 18   8  17  1   
 19   9  18  1   
 20  10  19  1   
@<TRIPOS>SUBSTRUCTURE
  1 ****   7 GROUP 4 **** **** 0

# MOE 2024.06 (io_trps.svl 2023.06)
