@<TRIPOS>MOLECULE
NONAME
49 52 1 0 0 
SMALL
USER_CHARGES


@<TRIPOS>ATOM
  1 S        4.6470    -1.1620     0.4550 S.3   1 <1>  -0.4600 
  2 C        4.3540     0.3050     1.4880 C.3   1 <1>   0.0700 
  3 C        4.4740    -0.4950    -1.2270 C.3   1 <1>   0.0700 
  4 C        3.0390     0.9710     1.0630 C.3   1 <1>   0.1400 
  5 C        3.1400     0.2490    -1.3410 C.3   1 <1>   0.1400 
  6 N        3.0900     1.3850    -0.3730 N.am  1 <1>  -0.6600 
  7 C        3.1540     2.7010    -0.7830 C.2   1 <1>   0.7160 
  8 O        3.2030     2.9490    -1.9760 O.2   1 <1>  -0.5700 
  9 C        3.2440     3.7690     0.1580 C.2   1 <1>  -0.0860 
 10 C        2.2070     4.6040     0.5800 C.2   1 <1>   0.3720 
 11 C        4.3090     4.1760     0.8930 C.2   1 <1>   0.0870 
 12 N        2.6230     5.4230     1.4840 N.2   1 <1>  -0.4100 
 13 N        0.8870     4.5410     0.1050 N.pl3 1 <1>  -0.8210 
 14 O        3.8910     5.1530     1.6560 O.3   1 <1>  -0.0190 
 15 C        5.6670     3.7040     0.9610 C.ar  1 <1>   0.0530 
 16 C       -0.1610     5.3200     0.8240 C.3   1 <1>   0.2090 
 17 C        0.7340     4.7670    -1.3580 C.3   1 <1>   0.2090 
 18 C        6.3850     3.7630     2.1560 C.ar  1 <1>  -0.1500 
 19 C        6.3100     3.1510    -0.1480 C.ar  1 <1>  -0.1500 
 20 C       -0.7220     6.2920    -0.2020 C.3   1 <1>  -0.1600 
 21 C       -0.5490     5.5700    -1.5290 C.3   1 <1>  -0.1600 
 22 C        7.6730     3.2730     2.2450 C.ar  1 <1>  -0.1500 
 23 C        7.5980     2.6560    -0.0660 C.ar  1 <1>  -0.1500 
 24 C        8.2900     2.7090     1.1400 C.ar  1 <1>   0.0830 
 25 O        9.5480     2.2420     1.3110 O.3   1 <1>  -0.3620 
 26 C       10.2550     1.6190     0.2620 C.3   1 <1>   0.0400 
 27 H        5.1920     0.9650     1.3610 H     1 <1>   0.0800 
 28 H        4.3080    -0.0310     2.5080 H     1 <1>   0.0800 
 29 H        4.5160    -1.3290    -1.9050 H     1 <1>   0.0800 
 30 H        5.3040     0.1650    -1.4060 H     1 <1>   0.0800 
 31 H        2.8450     1.8160     1.6990 H     1 <1>   0.0800 
 32 H        2.2290     0.2750     1.1990 H     1 <1>   0.0800 
 33 H        2.3300    -0.4300    -1.1360 H     1 <1>   0.0800 
 34 H        3.0200     0.6050    -2.3500 H     1 <1>   0.0800 
 35 H        0.2160     5.8420     1.6870 H     1 <1>   0.0800 
 36 H       -0.9310     4.6380     1.1440 H     1 <1>   0.0800 
 37 H        0.6750     3.8280    -1.8820 H     1 <1>   0.0800 
 38 H        1.5750     5.3290    -1.7310 H     1 <1>   0.0800 
 39 H        5.9250     4.1960     3.0270 H     1 <1>   0.1500 
 40 H        5.7980     3.1110    -1.0930 H     1 <1>   0.1500 
 41 H       -0.1270     7.1890    -0.1900 H     1 <1>   0.0800 
 42 H       -1.7470     6.5440     0.0020 H     1 <1>   0.0800 
 43 H       -1.3670     4.8890    -1.6870 H     1 <1>   0.0800 
 44 H       -0.4870     6.2470    -2.3630 H     1 <1>   0.0800 
 45 H        8.2140     3.3210     3.1740 H     1 <1>   0.1500 
 46 H        8.0480     2.2360    -0.9450 H     1 <1>   0.1500 
 47 H       11.2170     1.3210     0.6390 H     1 <1>   0.0800 
 48 H       10.3790     2.3230    -0.5410 H     1 <1>   0.0800 
 49 H        9.7050     0.7530    -0.0630 H     1 <1>   0.0800 
@<TRIPOS>BOND
  1   1   2  1   
  2   1   3  1   
  3   2   4  1   
  4   2  27  1   
  5   2  28  1   
  6   3   5  1   
  7   3  29  1   
  8   3  30  1   
  9   4   6  1   
 10   4  31  1   
 11   4  32  1   
 12   5   6  1   
 13   5  33  1   
 14   5  34  1   
 15   6   7  am  
 16   7   8  2   
 17   7   9  1   
 18   9  10  1   
 19   9  11  2   
 20  10  12  2   
 21  10  13  1   
 22  11  14  1   
 23  11  15  1   
 24  12  14  1   
 25  13  16  1   
 26  13  17  1   
 27  15  18  ar  
 28  15  19  ar  
 29  16  20  1   
 30  16  35  1   
 31  16  36  1   
 32  17  21  1   
 33  17  37  1   
 34  17  38  1   
 35  18  22  ar  
 36  18  39  1   
 37  19  23  ar  
 38  19  40  1   
 39  20  21  1   
 40  20  41  1   
 41  20  42  1   
 42  21  43  1   
 43  21  44  1   
 44  22  24  ar  
 45  22  45  1   
 46  23  24  ar  
 47  23  46  1   
 48  24  25  1   
 49  25  26  1   
 50  26  47  1   
 51  26  48  1   
 52  26  49  1   
@<TRIPOS>SUBSTRUCTURE
  1 ****   9 GROUP 4 **** **** 0

# MOE 2024.06 (io_trps.svl 2023.06)
