@<TRIPOS>MOLECULE
NONAME
50 53 1 0 0 
SMALL
USER_CHARGES


@<TRIPOS>ATOM
  1 CL      -0.4420    -4.8330    -0.6750 Cl    1 <1>  -0.1770 
  2 C       -1.7830    -3.7960    -0.2610 C.ar  1 <1>   0.1770 
  3 C       -2.1840    -2.8180    -1.1490 C.ar  1 <1>  -0.1500 
  4 C       -2.4250    -3.9660     0.9480 C.ar  1 <1>  -0.1500 
  5 C       -3.2500    -1.9970    -0.8210 C.ar  1 <1>  -0.1500 
  6 C       -3.4900    -3.1410     1.2690 C.ar  1 <1>  -0.1500 
  7 C       -3.9200    -2.1510     0.3910 C.ar  1 <1>  -0.1080 
  8 C       -5.1210    -1.2800     0.8220 C.3   1 <1>   0.1610 
  9 C       -6.3210    -2.1180     1.3040 C.2   1 <1>   0.5770 
 10 C       -4.6610    -0.1830     1.8390 C.3   1 <1>   0.0000 
 11 C       -5.5490    -0.0860    -0.0930 C.3   1 <1>   0.0000 
 12 O       -6.4920    -2.2060     2.5000 O.2   1 <1>  -0.5700 
 13 N       -7.1680    -2.7630     0.4210 N.am  1 <1>  -0.6600 
 14 C       -4.4890     0.7770     0.6350 C.3   1 <1>   0.0000 
 15 C       -8.4080    -3.4250     0.9520 C.3   1 <1>   0.2200 
 16 C       -6.8790    -2.9130    -1.0400 C.3   1 <1>   0.0600 
 17 C       -8.3030    -4.9490     0.9040 C.3   1 <1>  -0.1600 
 18 C       -9.6580    -3.0870     0.1390 C.3   1 <1>  -0.1600 
 19 C       -9.0180    -5.4140    -0.3760 C.3   1 <1>  -0.0800 
 20 C       -9.8600    -4.2280    -0.8710 C.3   1 <1>  -0.0800 
 21 C       -9.9920    -6.5840    -0.1600 C.3   1 <1>  -0.1600 
 22 C      -11.3100    -4.7310    -0.9580 C.3   1 <1>  -0.1600 
 23 C      -11.3820    -5.9660    -0.0680 C.3   1 <1>   0.2000 
 24 O      -11.5820    -5.5530     1.2290 O.3   1 <1>  -0.6800 
 25 H       -1.6650    -2.7030    -2.0840 H     1 <1>   0.1500 
 26 H       -2.0960    -4.7310     1.6280 H     1 <1>   0.1500 
 27 H       -3.5360    -1.2410    -1.5280 H     1 <1>   0.1500 
 28 H       -3.9860    -3.2770     2.2170 H     1 <1>   0.1500 
 29 H       -5.4410     0.1530     2.5010 H     1 <1>   0.0000 
 30 H       -3.7400    -0.4000     2.3500 H     1 <1>   0.0000 
 31 H       -5.3770    -0.2050    -1.1460 H     1 <1>   0.0000 
 32 H       -6.5500     0.2550     0.1160 H     1 <1>   0.0000 
 33 H       -3.5130     0.7170     0.1860 H     1 <1>   0.0000 
 34 H       -4.8100     1.7840     0.8330 H     1 <1>   0.0000 
 35 H       -8.5720    -3.1150     1.9710 H     1 <1>   0.0800 
 36 H       -6.8900    -3.9510    -1.3120 H     1 <1>   0.0800 
 37 H       -5.9130    -2.5280    -1.2980 H     1 <1>   0.0800 
 38 H       -7.6170    -2.3860    -1.6180 H     1 <1>   0.0800 
 39 H       -7.2790    -5.2760     0.9380 H     1 <1>   0.0800 
 40 H       -8.8050    -5.3430     1.7690 H     1 <1>   0.0800 
 41 H      -10.4900    -3.0520     0.8190 H     1 <1>   0.0800 
 42 H       -9.5830    -2.1250    -0.3350 H     1 <1>   0.0800 
 43 H       -8.2860    -5.6870    -1.1170 H     1 <1>   0.0800 
 44 H       -9.5200    -3.9130    -1.8430 H     1 <1>   0.0800 
 45 H       -9.7560    -7.1950     0.6940 H     1 <1>   0.0800 
 46 H       -9.9670    -7.2110    -1.0340 H     1 <1>   0.0800 
 47 H      -11.5010    -5.0410    -1.9700 H     1 <1>   0.0800 
 48 H      -12.0430    -3.9890    -0.6920 H     1 <1>   0.0800 
 49 H      -12.1740    -6.6450    -0.3380 H     1 <1>   0.0800 
 50 H      -10.8480    -4.9610     1.4790 H     1 <1>   0.4000 
@<TRIPOS>BOND
  1   1   2  1   
  2   2   3  ar  
  3   2   4  ar  
  4   3   5  ar  
  5   3  25  1   
  6   4   6  ar  
  7   4  26  1   
  8   5   7  ar  
  9   5  27  1   
 10   6   7  ar  
 11   6  28  1   
 12   7   8  1   
 13   8   9  1   
 14   8  10  1   
 15   8  11  1   
 16   9  12  2   
 17   9  13  am  
 18  10  14  1   
 19  10  29  1   
 20  10  30  1   
 21  11  14  1   
 22  11  31  1   
 23  11  32  1   
 24  13  15  1   
 25  13  16  1   
 26  14  33  1   
 27  14  34  1   
 28  15  17  1   
 29  15  18  1   
 30  15  35  1   
 31  16  36  1   
 32  16  37  1   
 33  16  38  1   
 34  17  19  1   
 35  17  39  1   
 36  17  40  1   
 37  18  20  1   
 38  18  41  1   
 39  18  42  1   
 40  19  20  1   
 41  19  21  1   
 42  19  43  1   
 43  20  22  1   
 44  20  44  1   
 45  21  23  1   
 46  21  45  1   
 47  21  46  1   
 48  22  23  1   
 49  22  47  1   
 50  22  48  1   
 51  23  24  1   
 52  23  49  1   
 53  24  50  1   
@<TRIPOS>SUBSTRUCTURE
  1 ****  13 GROUP 4 **** **** 0

# MOE 2024.06 (io_trps.svl 2023.06)
