@<TRIPOS>MOLECULE
NONAME
59 62 1 0 0 
SMALL
USER_CHARGES


@<TRIPOS>ATOM
  1 O        0.1520     1.5980     0.8970 O.2   1 <1>  -0.5700 
  2 C       -1.0090     1.7210     1.2280 C.2   1 <1>   0.5690 
  3 N       -2.0410     1.2560     0.4320 N.am  1 <1>  -0.4770 
  4 C       -1.2540     2.4660     2.5530 C.3   1 <1>   0.1710 
  5 C       -1.8480     0.3130    -0.6090 C.ar  1 <1>   0.1170 
  6 C       -3.4030     1.8630     0.4710 C.3   1 <1>   0.1400 
  7 N       -0.7750     3.8860     2.5940 N.3   1 <1>  -0.8100 
  8 C       -2.5850     0.3920    -1.7950 C.ar  1 <1>  -0.1430 
  9 C       -0.9250    -0.7220    -0.4820 C.ar  1 <1>  -0.1500 
 10 C       -3.6970     2.4940    -0.8890 C.3   1 <1>  -0.1600 
 11 C       -1.0470     4.7830     1.4490 C.3   1 <1>   0.1100 
 12 C        0.3490     4.2020     3.4840 C.3   1 <1>   0.1100 
 13 C       -2.3570    -0.5120    -2.8190 C.ar  1 <1>  -0.1500 
 14 C       -3.6700     1.4420    -2.0010 C.3   1 <1>  -0.0170 
 15 C       -0.7060    -1.6240    -1.5060 C.ar  1 <1>  -0.1500 
 16 C        0.2120     5.2400     0.6840 C.3   1 <1>   0.3430 
 17 C        1.6720     3.6130     2.9770 C.3   1 <1>  -0.1600 
 18 C       -1.4170    -1.5190    -2.6870 C.ar  1 <1>  -0.1430 
 19 N        1.2200     4.1350     0.5840 N.4   1 <1>  -0.9590 
 20 C        2.2190     4.2080     1.6760 C.3   1 <1>   0.3430 
 21 C       -1.1780    -2.4970    -3.8220 C.3   1 <1>  -0.0970 
 22 C        1.8530     3.9400    -0.7520 C.3   1 <1>   0.4860 
 23 C        0.8710     4.1910    -1.8800 C.ar  1 <1>  -0.1430 
 24 C       -0.1280     3.2740    -2.1770 C.ar  1 <1>   0.1600 
 25 C        0.9550     5.3520    -2.6270 C.ar  1 <1>  -0.1500 
 26 N       -1.0410     3.4430    -3.1190 N.ar  1 <1>  -0.6200 
 27 C        0.0190     5.5280    -3.6220 C.ar  1 <1>  -0.1500 
 28 C       -0.9460     4.5580    -3.8230 C.ar  1 <1>   0.1600 
 29 H       -0.7500     1.9090     3.3230 H     1 <1>   0.0800 
 30 H       -2.2930     2.4450     2.8170 H     1 <1>   0.0800 
 31 H       -3.4880     2.6230     1.2220 H     1 <1>   0.0800 
 32 H       -4.1240     1.0910     0.6830 H     1 <1>   0.0800 
 33 H       -0.3640    -0.8300     0.4280 H     1 <1>   0.1500 
 34 H       -2.9600     3.2490    -1.0940 H     1 <1>   0.0800 
 35 H       -4.6610     2.9720    -0.8730 H     1 <1>   0.0800 
 36 H       -1.5590     5.6580     1.8110 H     1 <1>   0.0800 
 37 H       -1.7150     4.2990     0.7570 H     1 <1>   0.0800 
 38 H        0.1360     3.7970     4.4600 H     1 <1>   0.0800 
 39 H        0.4340     5.2710     3.5970 H     1 <1>   0.0800 
 40 H       -2.9210    -0.4340    -3.7320 H     1 <1>   0.1500 
 41 H       -4.6190     0.9360    -2.0280 H     1 <1>   0.0800 
 42 H       -3.5270     1.9290    -2.9500 H     1 <1>   0.0800 
 43 H        0.0190    -2.4080    -1.3790 H     1 <1>   0.1500 
 44 H        0.6460     6.0810     1.1950 H     1 <1>   0.0800 
 45 H       -0.0950     5.5800    -0.2900 H     1 <1>   0.0800 
 46 H        1.5850     2.5460     2.8790 H     1 <1>   0.0800 
 47 H        2.4130     3.7810     3.7380 H     1 <1>   0.0800 
 48 H        0.6870     3.2620     0.7750 H     1 <1>   0.4500 
 49 H        3.1000     3.6510     1.3990 H     1 <1>   0.0800 
 50 H        2.5090     5.2330     1.8370 H     1 <1>   0.0800 
 51 H       -1.2880    -2.0020    -4.7710 H     1 <1>   0.0800 
 52 H       -1.8890    -3.3020    -3.7650 H     1 <1>   0.0800 
 53 H       -0.1850    -2.9050    -3.7670 H     1 <1>   0.0800 
 54 H        2.2320     2.9320    -0.8270 H     1 <1>   0.0800 
 55 H        2.6830     4.6180    -0.8610 H     1 <1>   0.0800 
 56 H       -0.1910     2.3550    -1.6150 H     1 <1>   0.1500 
 57 H        1.7140     6.0970    -2.4550 H     1 <1>   0.1500 
 58 H        0.0320     6.4070    -4.2420 H     1 <1>   0.1500 
 59 H       -1.6740     4.7040    -4.6040 H     1 <1>   0.1500 
@<TRIPOS>BOND
  1   1   2  2   
  2   2   3  am  
  3   2   4  1   
  4   3   5  1   
  5   3   6  1   
  6   4   7  1   
  7   4  29  1   
  8   4  30  1   
  9   5   8  ar  
 10   5   9  ar  
 11   6  10  1   
 12   6  31  1   
 13   6  32  1   
 14   7  11  1   
 15   7  12  1   
 16   8  13  ar  
 17   8  14  1   
 18   9  15  ar  
 19   9  33  1   
 20  10  14  1   
 21  10  34  1   
 22  10  35  1   
 23  11  16  1   
 24  11  36  1   
 25  11  37  1   
 26  12  17  1   
 27  12  38  1   
 28  12  39  1   
 29  13  18  ar  
 30  13  40  1   
 31  14  41  1   
 32  14  42  1   
 33  15  18  ar  
 34  15  43  1   
 35  16  19  1   
 36  16  44  1   
 37  16  45  1   
 38  17  20  1   
 39  17  46  1   
 40  17  47  1   
 41  18  21  1   
 42  19  20  1   
 43  19  22  1   
 44  19  48  1   
 45  20  49  1   
 46  20  50  1   
 47  21  51  1   
 48  21  52  1   
 49  21  53  1   
 50  22  23  1   
 51  22  54  1   
 52  22  55  1   
 53  23  24  ar  
 54  23  25  ar  
 55  24  26  ar  
 56  24  56  1   
 57  25  27  ar  
 58  25  57  1   
 59  26  28  ar  
 60  27  28  ar  
 61  27  58  1   
 62  28  59  1   
@<TRIPOS>SUBSTRUCTURE
  1 ****   1 GROUP 4 **** **** 0

# MOE 2024.06 (io_trps.svl 2023.06)
