@<TRIPOS>MOLECULE
NONAME
38 40 1 0 0 
SMALL
USER_CHARGES


@<TRIPOS>ATOM
  1 S        0.1740    -0.2420    -0.2860 S.3   1 <1>  -0.0800 
  2 C        0.1160    -1.9990    -0.1450 C.ar  1 <1>   0.2970 
  3 C       -1.5410    -0.1030     0.1090 C.2   1 <1>  -0.1100 
  4 N        1.1610    -2.7750    -0.3340 N.ar  1 <1>  -0.5670 
  5 C       -1.1510    -2.4100     0.1830 C.ar  1 <1>   0.0000 
  6 C       -2.0790    -1.3170     0.3240 C.2   1 <1>  -0.1500 
  7 C        0.8790    -4.0530    -0.1760 C.ar  1 <1>   0.4770 
  8 C       -1.3040    -3.7880     0.3180 C.ar  1 <1>   0.4100 
  9 N       -0.2850    -4.6080     0.1350 N.ar  1 <1>  -0.6200 
 10 C        2.0230    -5.0190    -0.3730 C.3   1 <1>  -0.0960 
 11 N       -2.5200    -4.3390     0.6360 N.pl3 1 <1>  -0.8690 
 12 C       -2.7680    -5.7880     0.8650 C.3   1 <1>   0.2090 
 13 C       -2.9940    -6.5060    -0.4680 C.3   1 <1>   0.1400 
 14 N       -3.1240    -7.9760    -0.2530 N.am  1 <1>  -0.6600 
 15 C       -4.3290    -8.5260     0.0980 C.2   1 <1>   0.5690 
 16 C       -1.8900    -8.7630    -0.5210 C.3   1 <1>   0.1400 
 17 O       -5.3080    -7.8450     0.2920 O.2   1 <1>  -0.5700 
 18 C       -4.4680   -10.0280     0.2900 C.3   1 <1>  -0.0990 
 19 C       -1.9810   -10.1830     0.0460 C.3   1 <1>  -0.1600 
 20 C       -3.3160   -10.8370    -0.3210 C.3   1 <1>  -0.1600 
 21 H       -1.9580     0.8890     0.1370 H     1 <1>   0.1500 
 22 H       -3.1050    -1.5050     0.5820 H     1 <1>   0.1500 
 23 H        2.9440    -4.4890    -0.5320 H     1 <1>   0.0800 
 24 H        1.8230    -5.6380    -1.2270 H     1 <1>   0.0800 
 25 H        2.1230    -5.6390     0.4980 H     1 <1>   0.0800 
 26 H       -3.3390    -3.7350     0.7120 H     1 <1>   0.4000 
 27 H       -3.6350    -5.9090     1.4910 H     1 <1>   0.0800 
 28 H       -1.9190    -6.2210     1.3660 H     1 <1>   0.0800 
 29 H       -2.1680    -6.3070    -1.1280 H     1 <1>   0.0800 
 30 H       -3.8930    -6.1310    -0.9240 H     1 <1>   0.0800 
 31 H       -1.0420    -8.2590    -0.0880 H     1 <1>   0.0800 
 32 H       -1.7430    -8.8110    -1.5870 H     1 <1>   0.0800 
 33 H       -5.4010   -10.3460    -0.1380 H     1 <1>   0.0800 
 34 H       -4.5130   -10.2130     1.3470 H     1 <1>   0.0800 
 35 H       -1.8730   -10.1440     1.1160 H     1 <1>   0.0800 
 36 H       -1.1680   -10.7700    -0.3430 H     1 <1>   0.0800 
 37 H       -3.4220   -10.8580    -1.3920 H     1 <1>   0.0800 
 38 H       -3.3490   -11.8500     0.0420 H     1 <1>   0.0800 
@<TRIPOS>BOND
  1   1   2  1   
  2   1   3  1   
  3   2   4  ar  
  4   2   5  ar  
  5   3   6  2   
  6   3  21  1   
  7   4   7  ar  
  8   5   6  1   
  9   5   8  ar  
 10   6  22  1   
 11   7   9  ar  
 12   7  10  1   
 13   8   9  ar  
 14   8  11  1   
 15  10  23  1   
 16  10  24  1   
 17  10  25  1   
 18  11  12  1   
 19  11  26  1   
 20  12  13  1   
 21  12  27  1   
 22  12  28  1   
 23  13  14  1   
 24  13  29  1   
 25  13  30  1   
 26  14  15  am  
 27  14  16  1   
 28  15  17  2   
 29  15  18  1   
 30  16  19  1   
 31  16  31  1   
 32  16  32  1   
 33  18  20  1   
 34  18  33  1   
 35  18  34  1   
 36  19  20  1   
 37  19  35  1   
 38  19  36  1   
 39  20  37  1   
 40  20  38  1   
@<TRIPOS>SUBSTRUCTURE
  1 ****  12 GROUP 4 **** **** 0

# MOE 2024.06 (io_trps.svl 2023.06)
