@<TRIPOS>MOLECULE
NONAME
51 55 1 0 0 
SMALL
USER_CHARGES


@<TRIPOS>ATOM
  1 O       -0.5470    -0.0330     0.1280 O.2   1 <1>  -0.5700 
  2 C       -1.4820     0.5830    -0.3610 C.2   1 <1>   0.7160 
  3 N       -2.7260    -0.0170    -0.3470 N.am  1 <1>  -0.6600 
  4 C       -1.2810     1.8820    -0.9220 C.2   1 <1>  -0.0860 
  5 C       -4.0030     0.7340    -0.3840 C.3   1 <1>   0.1400 
  6 C       -2.9200    -1.3820     0.1940 C.3   1 <1>   0.1400 
  7 C       -0.4360     2.8880    -0.5250 C.2   1 <1>  -0.0680 
  8 C       -1.9110     2.4400    -2.0450 C.2   1 <1>   0.1390 
  9 C       -5.0360    -0.1620     0.3100 C.3   1 <1>  -0.0800 
 10 C       -4.4300    -1.5790     0.3450 C.3   1 <1>  -0.0800 
 11 N       -0.6160     3.9190    -1.3640 N.pl3 1 <1>   0.6010 
 12 N        0.5200     3.2180     0.4140 N.pl3 1 <1>  -0.5530 
 13 N       -1.5370     3.6540    -2.3220 N.2   1 <1>  -0.7070 
 14 C       -6.4780    -0.0670    -0.2580 C.3   1 <1>   0.4240 
 15 C       -5.0210    -2.4990    -0.7370 C.3   1 <1>  -0.1600 
 16 C        0.2360     4.9340    -0.9720 C.2   1 <1>  -0.1810 
 17 C        0.9270     4.5070     0.1060 C.2   1 <1>  -0.0500 
 18 C        1.0730     2.3130     1.4450 C.3   1 <1>   0.1290 
 19 O       -6.4310     0.0150    -1.6400 O.3   1 <1>  -0.6800 
 20 C       -7.1980     1.1760     0.3010 C.ar  1 <1>  -0.1440 
 21 C       -7.2300    -1.3800     0.0230 C.3   1 <1>  -0.1600 
 22 C       -6.5540    -2.6250    -0.6040 C.3   1 <1>  -0.1600 
 23 C       -7.4130     2.3150    -0.4710 C.ar  1 <1>  -0.1500 
 24 C       -7.6400     1.1950     1.6210 C.ar  1 <1>  -0.1500 
 25 C       -8.0520     3.4260     0.0520 C.ar  1 <1>  -0.1500 
 26 C       -8.2810     2.3030     2.1480 C.ar  1 <1>  -0.1500 
 27 C       -8.4890     3.4210     1.3620 C.ar  1 <1>  -0.1500 
 28 H       -3.9130     1.6770     0.1290 H     1 <1>   0.0800 
 29 H       -4.2580     0.9220    -1.4110 H     1 <1>   0.0800 
 30 H       -2.4810    -2.1100    -0.4660 H     1 <1>   0.0800 
 31 H       -2.4410    -1.4500     1.1570 H     1 <1>   0.0800 
 32 H       -2.6390     1.9120    -2.6380 H     1 <1>   0.1500 
 33 H       -5.0740     0.1650     1.3340 H     1 <1>   0.0800 
 34 H       -4.6240    -2.0340     1.3020 H     1 <1>   0.0800 
 35 H       -4.7680    -2.1050    -1.7070 H     1 <1>   0.0800 
 36 H       -4.5780    -3.4780    -0.6680 H     1 <1>   0.0800 
 37 H        0.2580     5.8590    -1.5130 H     1 <1>   0.1500 
 38 H        1.6830     5.0180     0.6800 H     1 <1>   0.1500 
 39 H        1.7440     2.8530     2.0890 H     1 <1>   0.0800 
 40 H        1.6050     1.5090     0.9650 H     1 <1>   0.0800 
 41 H        0.2700     1.9000     2.0280 H     1 <1>   0.0800 
 42 H       -6.1500    -0.8550    -1.9740 H     1 <1>   0.4000 
 43 H       -7.2700    -1.5300     1.0860 H     1 <1>   0.0800 
 44 H       -8.2460    -1.2940    -0.3200 H     1 <1>   0.0800 
 45 H       -6.7890    -3.4800     0.0070 H     1 <1>   0.0800 
 46 H       -6.9730    -2.8110    -1.5790 H     1 <1>   0.0800 
 47 H       -7.0840     2.3530    -1.4960 H     1 <1>   0.1500 
 48 H       -7.4890     0.3470     2.2630 H     1 <1>   0.1500 
 49 H       -8.2090     4.2930    -0.5650 H     1 <1>   0.1500 
 50 H       -8.6180     2.2960     3.1690 H     1 <1>   0.1500 
 51 H       -8.9880     4.2840     1.7690 H     1 <1>   0.1500 
@<TRIPOS>BOND
  1   1   2  2   
  2   2   3  am  
  3   2   4  1   
  4   3   5  1   
  5   3   6  1   
  6   4   7  2   
  7   4   8  1   
  8   5   9  1   
  9   5  28  1   
 10   5  29  1   
 11   6  10  1   
 12   6  30  1   
 13   6  31  1   
 14   7  11  1   
 15   7  12  1   
 16   8  13  2   
 17   8  32  1   
 18   9  10  1   
 19   9  14  1   
 20   9  33  1   
 21  10  15  1   
 22  10  34  1   
 23  11  13  1   
 24  11  16  1   
 25  12  17  1   
 26  12  18  1   
 27  14  19  1   
 28  14  20  1   
 29  14  21  1   
 30  15  22  1   
 31  15  35  1   
 32  15  36  1   
 33  16  17  2   
 34  16  37  1   
 35  17  38  1   
 36  18  39  1   
 37  18  40  1   
 38  18  41  1   
 39  19  42  1   
 40  20  23  ar  
 41  20  24  ar  
 42  21  22  1   
 43  21  43  1   
 44  21  44  1   
 45  22  45  1   
 46  22  46  1   
 47  23  25  ar  
 48  23  47  1   
 49  24  26  ar  
 50  24  48  1   
 51  25  27  ar  
 52  25  49  1   
 53  26  27  ar  
 54  26  50  1   
 55  27  51  1   
@<TRIPOS>SUBSTRUCTURE
  1 ****   5 GROUP 4 **** **** 0

# MOE 2024.06 (io_trps.svl 2023.06)
