@<TRIPOS>MOLECULE
NONAME
39 42 1 0 0 
SMALL
USER_CHARGES


@<TRIPOS>ATOM
  1 S        0.0150     0.1600     1.0170 S.3   1 <1>  -0.0800 
  2 C       -1.5050     0.8280     0.4320 C.2   1 <1>   0.4620 
  3 C        0.8760     1.4130     0.1850 C.2   1 <1>  -0.1100 
  4 N       -1.3460     1.8710    -0.3000 N.2   1 <1>  -0.5650 
  5 N       -2.7010     0.2260     0.7670 N.pl3 1 <1>  -0.8220 
  6 C        0.0040     2.2210    -0.4530 C.2   1 <1>   0.1410 
  7 C       -3.9910     0.7310     0.2310 C.3   1 <1>   0.2090 
  8 C       -2.8340    -1.0150     1.5780 C.3   1 <1>   0.2090 
  9 C        0.3760     3.3800    -1.2530 C.2   1 <1>   0.7160 
 10 C       -4.6020    -0.3430    -0.6660 C.3   1 <1>  -0.1600 
 11 C       -3.4300    -2.1120     0.6980 C.3   1 <1>  -0.1600 
 12 O        1.5330     3.7060    -1.4180 O.2   1 <1>  -0.5700 
 13 N       -0.5660     4.1440    -1.8480 N.am  1 <1>  -0.8000 
 14 C       -4.7630    -1.6720     0.0840 C.3   1 <1>   0.4600 
 15 O       -5.6550    -1.4870     1.1680 O.3   1 <1>  -0.5600 
 16 C       -5.3270    -2.7610    -0.8230 C.2   1 <1>  -0.1400 
 17 C       -7.0390    -1.5290     0.9040 C.3   1 <1>   0.1200 
 18 S       -4.4350    -3.4200    -2.1860 S.3   1 <1>  -0.0800 
 19 C       -6.5280    -3.3440    -0.7170 C.2   1 <1>  -0.1810 
 20 C       -7.4710    -2.9140     0.3830 C.3   1 <1>   0.0210 
 21 C       -5.7600    -4.5120    -2.5660 C.2   1 <1>  -0.1100 
 22 C       -6.7820    -4.3490    -1.7030 C.2   1 <1>  -0.1500 
 23 H        1.9490     1.4300     0.2500 H     1 <1>   0.1500 
 24 H       -3.8440     1.6360    -0.3320 H     1 <1>   0.0800 
 25 H       -4.6530     0.9510     1.0510 H     1 <1>   0.0800 
 26 H       -3.4860    -0.8210     2.4140 H     1 <1>   0.0800 
 27 H       -1.8890    -1.3410     1.9700 H     1 <1>   0.0800 
 28 H       -3.9500    -0.4890    -1.5080 H     1 <1>   0.0800 
 29 H       -5.5480    -0.0130    -1.0500 H     1 <1>   0.0800 
 30 H       -3.5820    -3.0050     1.2740 H     1 <1>   0.0800 
 31 H       -2.7280    -2.3390    -0.0820 H     1 <1>   0.0800 
 32 H       -0.3040     4.9560    -2.4020 H     1 <1>   0.3700 
 33 H       -1.5550     3.9140    -1.7390 H     1 <1>   0.3700 
 34 H       -7.2710    -0.7680     0.1810 H     1 <1>   0.0800 
 35 H       -7.5540    -1.3010     1.8210 H     1 <1>   0.0800 
 36 H       -8.4760    -2.8550     0.0070 H     1 <1>   0.0800 
 37 H       -7.4470    -3.6300     1.1840 H     1 <1>   0.0800 
 38 H       -5.6310    -5.1690    -3.4080 H     1 <1>   0.1500 
 39 H       -7.7080    -4.8960    -1.7180 H     1 <1>   0.1500 
@<TRIPOS>BOND
  1   1   2  1   
  2   1   3  1   
  3   2   4  2   
  4   2   5  1   
  5   3   6  2   
  6   3  23  1   
  7   4   6  1   
  8   5   7  1   
  9   5   8  1   
 10   6   9  1   
 11   7  10  1   
 12   7  24  1   
 13   7  25  1   
 14   8  11  1   
 15   8  26  1   
 16   8  27  1   
 17   9  12  2   
 18   9  13  am  
 19  10  14  1   
 20  10  28  1   
 21  10  29  1   
 22  11  14  1   
 23  11  30  1   
 24  11  31  1   
 25  13  32  1   
 26  13  33  1   
 27  14  15  1   
 28  14  16  1   
 29  15  17  1   
 30  16  18  1   
 31  16  19  2   
 32  17  20  1   
 33  17  34  1   
 34  17  35  1   
 35  18  21  1   
 36  19  20  1   
 37  19  22  1   
 38  20  36  1   
 39  20  37  1   
 40  21  22  2   
 41  21  38  1   
 42  22  39  1   
@<TRIPOS>SUBSTRUCTURE
  1 ****  10 GROUP 4 **** **** 0

# MOE 2024.06 (io_trps.svl 2023.06)
