@<TRIPOS>MOLECULE
NONAME
53 55 1 0 0 
SMALL
USER_CHARGES


@<TRIPOS>ATOM
  1 O       -0.2770     0.8410     0.3630 O.2   1 <1>  -0.5700 
  2 C       -0.3330     2.0420     0.2400 C.2   1 <1>   0.5690 
  3 N       -1.3370     2.7930     0.7850 N.am  1 <1>  -0.6600 
  4 C        0.7570     2.7270    -0.5860 C.3   1 <1>   0.1810 
  5 C       -1.3760     4.2810     0.6200 C.3   1 <1>   0.3640 
  6 C       -2.3720     2.2080     1.6880 C.3   1 <1>   0.0600 
  7 O        0.9230     4.0920    -0.2720 O.3   1 <1>  -0.5600 
  8 C       -2.7600     4.7650     0.1570 C.ar  1 <1>  -0.1430 
  9 C       -0.2810     4.8440    -0.3270 C.3   1 <1>   0.2610 
 10 C       -3.4720     4.2400    -0.9280 C.ar  1 <1>  -0.1430 
 11 C       -3.3210     5.8120     0.8790 C.ar  1 <1>  -0.1500 
 12 C        0.0060     6.3320    -0.0500 C.2   1 <1>   0.5690 
 13 C       -4.7100     4.7750    -1.2530 C.ar  1 <1>  -0.1500 
 14 C       -2.9790     3.0820    -1.7910 C.3   1 <1>  -0.0960 
 15 C       -4.5540     6.3380     0.5440 C.ar  1 <1>  -0.1500 
 16 O       -0.2740     6.8090     1.0270 O.2   1 <1>  -0.5700 
 17 N        0.6350     7.1130    -0.9940 N.am  1 <1>  -0.6600 
 18 C       -5.2510     5.8180    -0.5260 C.ar  1 <1>  -0.1500 
 19 C        1.6880     6.5670    -1.8950 C.3   1 <1>   0.1400 
 20 C        0.5700     8.5970    -0.9080 C.3   1 <1>   0.1400 
 21 C        2.9650     6.2370    -1.0900 C.3   1 <1>   0.3430 
 22 C        1.8930     9.1970    -0.4140 C.3   1 <1>  -0.1600 
 23 N        3.6380     7.4210    -0.4380 N.4   1 <1>  -0.9590 
 24 C        2.7370     8.2420     0.4350 C.3   1 <1>   0.3430 
 25 C        4.8040     6.9430     0.3630 C.3   1 <1>   0.2630 
 26 H        0.5180     2.6390    -1.6300 H     1 <1>   0.0800 
 27 H        1.6930     2.2320    -0.4030 H     1 <1>   0.0800 
 28 H       -1.1940     4.6810     1.6020 H     1 <1>   0.0800 
 29 H       -2.3330     2.6900     2.6490 H     1 <1>   0.0800 
 30 H       -2.2070     1.1530     1.8250 H     1 <1>   0.0800 
 31 H       -3.3520     2.3480     1.2650 H     1 <1>   0.0800 
 32 H       -0.6440     4.7860    -1.3350 H     1 <1>   0.0800 
 33 H       -2.7970     6.2390     1.7180 H     1 <1>   0.1500 
 34 H       -5.2730     4.3800    -2.0810 H     1 <1>   0.1500 
 35 H       -3.5560     3.0030    -2.6940 H     1 <1>   0.0800 
 36 H       -3.0800     2.1560    -1.2530 H     1 <1>   0.0800 
 37 H       -1.9540     3.2090    -2.0740 H     1 <1>   0.0800 
 38 H       -4.9680     7.1500     1.1160 H     1 <1>   0.1500 
 39 H       -6.2120     6.2220    -0.7930 H     1 <1>   0.1500 
 40 H        1.3270     5.6690    -2.3650 H     1 <1>   0.0800 
 41 H        1.9130     7.2700    -2.6770 H     1 <1>   0.0800 
 42 H        0.3150     9.0030    -1.8730 H     1 <1>   0.0800 
 43 H       -0.2200     8.8790    -0.2310 H     1 <1>   0.0800 
 44 H        3.6660     5.7580    -1.7540 H     1 <1>   0.0800 
 45 H        2.7060     5.5180    -0.3310 H     1 <1>   0.0800 
 46 H        1.6410    10.0490     0.1910 H     1 <1>   0.0800 
 47 H        2.4630     9.5710    -1.2440 H     1 <1>   0.0800 
 48 H        3.9860     8.0420    -1.1800 H     1 <1>   0.4500 
 49 H        2.1010     7.6100     1.0370 H     1 <1>   0.0800 
 50 H        3.3410     8.8350     1.1030 H     1 <1>   0.0800 
 51 H        4.4700     6.2950     1.1580 H     1 <1>   0.0800 
 52 H        5.3290     7.7780     0.7980 H     1 <1>   0.0800 
 53 H        5.4910     6.3950    -0.2620 H     1 <1>   0.0800 
@<TRIPOS>BOND
  1   1   2  2   
  2   2   3  am  
  3   2   4  1   
  4   3   5  1   
  5   3   6  1   
  6   4   7  1   
  7   4  26  1   
  8   4  27  1   
  9   5   8  1   
 10   5   9  1   
 11   5  28  1   
 12   6  29  1   
 13   6  30  1   
 14   6  31  1   
 15   7   9  1   
 16   8  10  ar  
 17   8  11  ar  
 18   9  12  1   
 19   9  32  1   
 20  10  13  ar  
 21  10  14  1   
 22  11  15  ar  
 23  11  33  1   
 24  12  16  2   
 25  12  17  am  
 26  13  18  ar  
 27  13  34  1   
 28  14  35  1   
 29  14  36  1   
 30  14  37  1   
 31  15  18  ar  
 32  15  38  1   
 33  17  19  1   
 34  17  20  1   
 35  18  39  1   
 36  19  21  1   
 37  19  40  1   
 38  19  41  1   
 39  20  22  1   
 40  20  42  1   
 41  20  43  1   
 42  21  23  1   
 43  21  44  1   
 44  21  45  1   
 45  22  24  1   
 46  22  46  1   
 47  22  47  1   
 48  23  24  1   
 49  23  25  1   
 50  23  48  1   
 51  24  49  1   
 52  24  50  1   
 53  25  51  1   
 54  25  52  1   
 55  25  53  1   
@<TRIPOS>SUBSTRUCTURE
  1 ****   9 GROUP 4 **** **** 0

# MOE 2024.06 (io_trps.svl 2023.06)
