@<TRIPOS>MOLECULE
NONAME
42 43 1 0 0 
SMALL
USER_CHARGES


@<TRIPOS>ATOM
  1 O       -1.3550    -0.6450    -0.5780 O.2   1 <1>  -0.5700 
  2 C       -1.9660     0.2950    -0.1250 C.2   1 <1>   0.5690 
  3 N       -2.8960     0.1220     0.8670 N.am  1 <1>  -0.6600 
  4 C       -1.6830     1.6670    -0.7160 C.3   1 <1>  -0.0990 
  5 C       -3.0880    -1.2280     1.4740 C.3   1 <1>   0.3200 
  6 C       -3.8780     1.1590     1.3070 C.3   1 <1>   0.1400 
  7 C       -0.7430     2.4950     0.1780 C.3   1 <1>  -0.1600 
  8 C       -4.0100    -2.0670     0.6080 C.2   1 <1>   0.0060 
  9 C       -5.1440     1.1080     0.4440 C.3   1 <1>   0.1200 
 10 C       -0.4770     3.8970    -0.3920 C.3   1 <1>  -0.0800 
 11 N       -5.1830    -2.4940     0.9550 N.2   1 <1>  -0.5650 
 12 N       -3.6480    -2.4290    -0.6400 N.pl3 1 <1>   0.0330 
 13 O       -5.9950     2.1340     0.8270 O.3   1 <1>  -0.6800 
 14 C        0.4980     4.6980     0.4640 C.3   1 <1>  -0.1600 
 15 C       -1.7160     4.7920    -0.4530 C.3   1 <1>  -0.1600 
 16 C       -5.6060    -3.1760    -0.1280 C.2   1 <1>   0.0770 
 17 C       -4.6820    -3.1460    -1.1130 C.2   1 <1>  -0.3020 
 18 C        0.2660     6.1510     0.0530 C.3   1 <1>  -0.1600 
 19 C       -1.1870     6.2280    -0.4300 C.3   1 <1>  -0.1600 
 20 H       -2.6080     2.1840    -0.8830 H     1 <1>   0.0800 
 21 H       -1.2190     1.5310    -1.6770 H     1 <1>   0.0800 
 22 H       -3.5080    -1.1360     2.4600 H     1 <1>   0.0800 
 23 H       -2.1380    -1.7240     1.5670 H     1 <1>   0.0800 
 24 H       -3.4400     2.1380     1.2320 H     1 <1>   0.0800 
 25 H       -4.1390     0.9910     2.3370 H     1 <1>   0.0800 
 26 H        0.1940     1.9710     0.2690 H     1 <1>   0.0800 
 27 H       -1.1610     2.5820     1.1660 H     1 <1>   0.0800 
 28 H       -5.6660     0.1730     0.5600 H     1 <1>   0.0800 
 29 H       -4.8980     1.2580    -0.5930 H     1 <1>   0.0800 
 30 H       -0.0640     3.8120    -1.3840 H     1 <1>   0.0800 
 31 H       -2.7620    -2.1620    -1.0950 H     1 <1>   0.2700 
 32 H       -6.5000     1.8820     1.6260 H     1 <1>   0.4000 
 33 H        1.5190     4.3950     0.3070 H     1 <1>   0.0800 
 34 H        0.2520     4.5830     1.5060 H     1 <1>   0.0800 
 35 H       -2.3270     4.6310     0.4190 H     1 <1>   0.0800 
 36 H       -2.3060     4.6030    -1.3330 H     1 <1>   0.0800 
 37 H       -6.5690    -3.6600    -0.1420 H     1 <1>   0.1500 
 38 H       -4.7030    -3.5810    -2.0960 H     1 <1>   0.1500 
 39 H        0.9250     6.4030    -0.7600 H     1 <1>   0.0800 
 40 H        0.4500     6.8240     0.8730 H     1 <1>   0.0800 
 41 H       -1.7810     6.8370     0.2290 H     1 <1>   0.0800 
 42 H       -1.2190     6.6550    -1.4180 H     1 <1>   0.0800 
@<TRIPOS>BOND
  1   1   2  2   
  2   2   3  am  
  3   2   4  1   
  4   3   5  1   
  5   3   6  1   
  6   4   7  1   
  7   4  20  1   
  8   4  21  1   
  9   5   8  1   
 10   5  22  1   
 11   5  23  1   
 12   6   9  1   
 13   6  24  1   
 14   6  25  1   
 15   7  10  1   
 16   7  26  1   
 17   7  27  1   
 18   8  11  2   
 19   8  12  1   
 20   9  13  1   
 21   9  28  1   
 22   9  29  1   
 23  10  14  1   
 24  10  15  1   
 25  10  30  1   
 26  11  16  1   
 27  12  17  1   
 28  12  31  1   
 29  13  32  1   
 30  14  18  1   
 31  14  33  1   
 32  14  34  1   
 33  15  19  1   
 34  15  35  1   
 35  15  36  1   
 36  16  17  2   
 37  16  37  1   
 38  17  38  1   
 39  18  19  1   
 40  18  39  1   
 41  18  40  1   
 42  19  41  1   
 43  19  42  1   
@<TRIPOS>SUBSTRUCTURE
  1 ****   2 GROUP 4 **** **** 0

# MOE 2024.06 (io_trps.svl 2023.06)
