@<TRIPOS>MOLECULE
NONAME
48 49 1 0 0 
SMALL
USER_CHARGES


@<TRIPOS>ATOM
  1 O        4.8320     1.1060    -1.8940 O.co2 1 <1>  -0.9000 
  2 C        4.5780     0.0420    -1.3220 C.2   1 <1>   0.9060 
  3 O        5.3850    -0.8880    -1.2750 O.co2 1 <1>  -0.9000 
  4 C        3.3040    -0.0870    -0.4960 C.3   1 <1>  -0.1860 
  5 C        3.5890    -0.3010     1.0150 C.3   1 <1>   0.2000 
  6 C        2.3670     1.1340    -0.6820 C.3   1 <1>  -0.1600 
  7 O        4.9080    -0.6560     1.2450 O.3   1 <1>  -0.6800 
  8 C        3.2910     0.9570     1.8640 C.3   1 <1>   0.3430 
  9 C        3.0070     2.4290    -0.1470 C.3   1 <1>   0.3430 
 10 N        3.6930     2.2360     1.1800 N.4   1 <1>  -0.9590 
 11 C        5.1770     2.2870     0.9960 C.3   1 <1>   0.4860 
 12 C        5.5710     3.7190     0.6860 C.ar  1 <1>  -0.1430 
 13 C        5.9000     4.0570    -0.6190 C.ar  1 <1>  -0.1500 
 14 C        5.5990     4.6900     1.6760 C.ar  1 <1>  -0.1500 
 15 C        6.2380     5.3650    -0.9530 C.ar  1 <1>   0.0830 
 16 C        5.9390     5.9940     1.3570 C.ar  1 <1>  -0.1500 
 17 O        6.5520     5.7380    -2.2270 O.3   1 <1>  -0.3630 
 18 C        6.2590     6.3330     0.0520 C.ar  1 <1>   0.0830 
 19 C        6.5650     4.8000    -3.2830 C.3   1 <1>   0.0400 
 20 O        6.5710     7.6210    -0.2350 O.3   1 <1>  -0.3630 
 21 C        7.8290     8.0960     0.1860 C.3   1 <1>   0.2000 
 22 C        7.7470     9.6200     0.2290 C.3   1 <1>  -0.2400 
 23 C        8.8950     7.6220    -0.8040 C.3   1 <1>  -0.2400 
 24 H        2.7980    -0.9590    -0.8680 H     1 <1>   0.0800 
 25 H        2.9880    -1.1170     1.3790 H     1 <1>   0.0800 
 26 H        1.4250     0.9630    -0.1930 H     1 <1>   0.0800 
 27 H        2.1590     1.2670    -1.7300 H     1 <1>   0.0800 
 28 H        5.3020    -0.9630     0.3650 H     1 <1>   0.4000 
 29 H        3.7910     0.8600     2.8140 H     1 <1>   0.0800 
 30 H        2.2310     0.9880     2.0490 H     1 <1>   0.0800 
 31 H        2.2450     3.1860    -0.0590 H     1 <1>   0.0800 
 32 H        3.7220     2.7810    -0.8740 H     1 <1>   0.0800 
 33 H        3.4680     3.0420     1.7690 H     1 <1>   0.4500 
 34 H        5.6750     1.9630     1.8950 H     1 <1>   0.0800 
 35 H        5.4900     1.6370     0.1960 H     1 <1>   0.0800 
 36 H        5.8860     3.2850    -1.3690 H     1 <1>   0.1500 
 37 H        5.3620     4.4460     2.6970 H     1 <1>   0.1500 
 38 H        5.9520     6.7550     2.1160 H     1 <1>   0.1500 
 39 H        6.8380     5.3160    -4.1850 H     1 <1>   0.0800 
 40 H        5.5830     4.3730    -3.3870 H     1 <1>   0.0800 
 41 H        7.2910     4.0360    -3.0650 H     1 <1>   0.0800 
 42 H        8.0330     7.7130     1.1710 H     1 <1>   0.0800 
 43 H        7.5180    10.0080    -0.7480 H     1 <1>   0.0800 
 44 H        8.6860    10.0310     0.5520 H     1 <1>   0.0800 
 45 H        6.9840     9.9260     0.9210 H     1 <1>   0.0800 
 46 H        8.6510     7.9520    -1.7980 H     1 <1>   0.0800 
 47 H        8.9590     6.5490    -0.7940 H     1 <1>   0.0800 
 48 H        9.8550     8.0190    -0.5320 H     1 <1>   0.0800 
@<TRIPOS>BOND
  1   1   2  ar  
  2   2   3  ar  
  3   2   4  1   
  4   4   5  1   
  5   4   6  1   
  6   4  24  1   
  7   5   7  1   
  8   5   8  1   
  9   5  25  1   
 10   6   9  1   
 11   6  26  1   
 12   6  27  1   
 13   7  28  1   
 14   8  10  1   
 15   8  29  1   
 16   8  30  1   
 17   9  10  1   
 18   9  31  1   
 19   9  32  1   
 20  10  11  1   
 21  10  33  1   
 22  11  12  1   
 23  11  34  1   
 24  11  35  1   
 25  12  13  ar  
 26  12  14  ar  
 27  13  15  ar  
 28  13  36  1   
 29  14  16  ar  
 30  14  37  1   
 31  15  17  1   
 32  15  18  ar  
 33  16  18  ar  
 34  16  38  1   
 35  17  19  1   
 36  18  20  1   
 37  19  39  1   
 38  19  40  1   
 39  19  41  1   
 40  20  21  1   
 41  21  22  1   
 42  21  23  1   
 43  21  42  1   
 44  22  43  1   
 45  22  44  1   
 46  22  45  1   
 47  23  46  1   
 48  23  47  1   
 49  23  48  1   
@<TRIPOS>SUBSTRUCTURE
  1 ****  13 GROUP 4 **** **** 0

# MOE 2024.06 (io_trps.svl 2023.06)
