@<TRIPOS>MOLECULE
NONAME
56 58 1 0 0 
SMALL
USER_CHARGES


@<TRIPOS>ATOM
  1 O       -1.4270     0.2330     2.2920 O.2   1 <1>  -0.5700 
  2 C       -1.7770     0.8860     1.3260 C.2   1 <1>   0.7150 
  3 N       -2.3360     0.2480     0.2430 N.am  1 <1>  -0.6600 
  4 C       -1.5710     2.3050     1.3320 C.2   1 <1>  -0.2370 
  5 C       -2.3690    -1.2540     0.2100 C.3   1 <1>   0.3640 
  6 C       -2.9220     1.0030    -0.9060 C.3   1 <1>   0.1400 
  7 N       -0.3560     2.8770     1.5260 N.pl3 1 <1>   0.3140 
  8 C       -2.4340     3.3450     1.1640 C.2   1 <1>  -0.1500 
  9 C       -0.9740    -1.7920    -0.1230 C.ar  1 <1>  -0.1440 
 10 C       -3.4210    -1.8800    -0.7580 C.3   1 <1>   0.2000 
 11 C       -3.4960     0.1010    -2.0050 C.3   1 <1>   0.1200 
 12 N       -0.4120     4.2170     1.4560 N.2   1 <1>  -0.7070 
 13 C        0.9320     2.1910     1.7870 C.3   1 <1>   0.0960 
 14 C       -1.6620     4.4890     1.2410 C.2   1 <1>   0.1080 
 15 C       -0.2460    -1.3370    -1.2160 C.ar  1 <1>  -0.1500 
 16 C       -0.4160    -2.7700     0.6900 C.ar  1 <1>  -0.1500 
 17 O       -4.2180    -0.9340    -1.4230 O.3   1 <1>  -0.5600 
 18 C       -4.3760    -2.8360    -0.0310 C.3   1 <1>   0.1200 
 19 C        1.5230     1.5980     0.5020 C.3   1 <1>  -0.2400 
 20 C       -2.1820     5.9080     1.0970 C.3   1 <1>   0.0210 
 21 C        1.0080    -1.8540    -1.4940 C.ar  1 <1>  -0.1500 
 22 C        0.8380    -3.2860     0.4150 C.ar  1 <1>  -0.1500 
 23 O       -3.6730    -3.8920     0.5450 O.3   1 <1>  -0.6800 
 24 C       -2.7550     6.1920    -0.3050 C.3   1 <1>  -0.0800 
 25 C        1.5510    -2.8300    -0.6780 C.ar  1 <1>  -0.1500 
 26 C       -1.6870     6.0340    -1.3970 C.3   1 <1>  -0.2400 
 27 C       -3.3480     7.6060    -0.3640 C.3   1 <1>  -0.2400 
 28 H       -2.6140    -1.5890     1.2040 H     1 <1>   0.0800 
 29 H       -3.7250     1.6170    -0.5380 H     1 <1>   0.0800 
 30 H       -2.1760     1.6540    -1.3290 H     1 <1>   0.0800 
 31 H       -3.4960     3.3110     1.0090 H     1 <1>   0.1500 
 32 H       -2.9090    -2.4390    -1.5210 H     1 <1>   0.0800 
 33 H       -2.7220    -0.3140    -2.6260 H     1 <1>   0.0800 
 34 H       -4.1680     0.6630    -2.6290 H     1 <1>   0.0800 
 35 H        1.6140     2.9120     2.2000 H     1 <1>   0.0800 
 36 H        0.7760     1.4210     2.5190 H     1 <1>   0.0800 
 37 H       -0.6440    -0.5730    -1.8550 H     1 <1>   0.1500 
 38 H       -0.9590    -3.1320     1.5470 H     1 <1>   0.1500 
 39 H       -5.0930    -3.2480    -0.7200 H     1 <1>   0.0800 
 40 H       -4.8920    -2.3160     0.7570 H     1 <1>   0.0800 
 41 H        1.6690     2.3730    -0.2310 H     1 <1>   0.0800 
 42 H        0.8690     0.8440     0.1040 H     1 <1>   0.0800 
 43 H        2.4720     1.1420     0.7160 H     1 <1>   0.0800 
 44 H       -2.9440     6.0620     1.8390 H     1 <1>   0.0800 
 45 H       -1.3790     6.5920     1.3060 H     1 <1>   0.0800 
 46 H        1.5630    -1.4940    -2.3430 H     1 <1>   0.1500 
 47 H        1.2570    -4.0430     1.0550 H     1 <1>   0.1500 
 48 H       -3.2990    -4.4820    -0.1400 H     1 <1>   0.4000 
 49 H       -3.5470     5.4880    -0.5000 H     1 <1>   0.0800 
 50 H        2.5260    -3.2310    -0.8920 H     1 <1>   0.1500 
 51 H       -0.8680     6.7110    -1.2230 H     1 <1>   0.0800 
 52 H       -2.1040     6.2410    -2.3660 H     1 <1>   0.0800 
 53 H       -1.2980     5.0310    -1.4040 H     1 <1>   0.0800 
 54 H       -2.5860     8.3430    -0.1780 H     1 <1>   0.0800 
 55 H       -4.1230     7.7190     0.3730 H     1 <1>   0.0800 
 56 H       -3.7750     7.7920    -1.3330 H     1 <1>   0.0800 
@<TRIPOS>BOND
  1   1   2  2   
  2   2   3  am  
  3   2   4  1   
  4   3   5  1   
  5   3   6  1   
  6   4   7  1   
  7   4   8  2   
  8   5   9  1   
  9   5  10  1   
 10   5  28  1   
 11   6  11  1   
 12   6  29  1   
 13   6  30  1   
 14   7  12  1   
 15   7  13  1   
 16   8  14  1   
 17   8  31  1   
 18   9  15  ar  
 19   9  16  ar  
 20  10  17  1   
 21  10  18  1   
 22  10  32  1   
 23  11  17  1   
 24  11  33  1   
 25  11  34  1   
 26  12  14  2   
 27  13  19  1   
 28  13  35  1   
 29  13  36  1   
 30  14  20  1   
 31  15  21  ar  
 32  15  37  1   
 33  16  22  ar  
 34  16  38  1   
 35  18  23  1   
 36  18  39  1   
 37  18  40  1   
 38  19  41  1   
 39  19  42  1   
 40  19  43  1   
 41  20  24  1   
 42  20  44  1   
 43  20  45  1   
 44  21  25  ar  
 45  21  46  1   
 46  22  25  ar  
 47  22  47  1   
 48  23  48  1   
 49  24  26  1   
 50  24  27  1   
 51  24  49  1   
 52  25  50  1   
 53  26  51  1   
 54  26  52  1   
 55  26  53  1   
 56  27  54  1   
 57  27  55  1   
 58  27  56  1   
@<TRIPOS>SUBSTRUCTURE
  1 ****   3 GROUP 4 **** **** 0

# MOE 2024.06 (io_trps.svl 2023.06)
