@<TRIPOS>MOLECULE
NONAME
44 45 1 0 0 
SMALL
USER_CHARGES


@<TRIPOS>ATOM
  1 F        0.8300    -1.4890    -1.0490 F     1 <1>  -0.1900 
  2 C        0.5490    -2.6600    -0.5350 C.ar  1 <1>   0.1900 
  3 C        1.5560    -3.5780    -0.2910 C.ar  1 <1>   0.1900 
  4 C       -0.7680    -2.9600    -0.2400 C.ar  1 <1>  -0.1500 
  5 F        2.8020    -3.2880    -0.5700 F     1 <1>  -0.1900 
  6 C        1.2660    -4.8160     0.2520 C.ar  1 <1>  -0.1500 
  7 C       -1.0720    -4.2000     0.3110 C.ar  1 <1>  -0.1440 
  8 C       -0.0550    -5.1200     0.5500 C.ar  1 <1>  -0.1500 
  9 C       -2.5210    -4.5500     0.6530 C.3   1 <1>   0.0440 
 10 C       -3.3190    -5.1460    -0.5060 C.2   1 <1>   0.5690 
 11 O       -2.9660    -4.9000    -1.6370 O.2   1 <1>  -0.5700 
 12 N       -4.4220    -5.9230    -0.2580 N.am  1 <1>  -0.6600 
 13 C       -5.0960    -6.6520    -1.3910 C.3   1 <1>   0.1400 
 14 C       -5.0310    -6.1210     1.1010 C.3   1 <1>   0.1400 
 15 C       -5.8290    -7.8940    -0.8670 C.3   1 <1>   0.2000 
 16 C       -6.5460    -6.2850     0.9720 C.3   1 <1>  -0.1600 
 17 O       -6.3420    -8.6600    -1.9010 O.3   1 <1>  -0.6800 
 18 C       -6.9330    -7.5730     0.1770 C.3   1 <1>  -0.1060 
 19 C       -6.9200    -8.8200     1.0780 C.2   1 <1>   0.9060 
 20 C       -8.3770    -7.3880    -0.3980 C.3   1 <1>  -0.1600 
 21 O       -6.5540    -8.7350     2.2570 O.co2 1 <1>  -0.9000 
 22 O       -7.2200    -9.9090     0.5670 O.co2 1 <1>  -0.9000 
 23 C       -8.5600    -6.3470    -1.5210 C.3   1 <1>  -0.1600 
 24 C      -10.0280    -6.2670    -1.9510 C.3   1 <1>  -0.2400 
 25 H       -1.5380    -2.2380    -0.4480 H     1 <1>   0.1500 
 26 H        2.0550    -5.5230     0.4330 H     1 <1>   0.1500 
 27 H       -0.2900    -6.0850     0.9670 H     1 <1>   0.1500 
 28 H       -3.0310    -3.6650     0.9840 H     1 <1>   0.0800 
 29 H       -2.5130    -5.2480     1.4670 H     1 <1>   0.0800 
 30 H       -5.7920    -5.9880    -1.8690 H     1 <1>   0.0800 
 31 H       -4.3570    -6.9590    -2.1110 H     1 <1>   0.0800 
 32 H       -4.6110    -7.0000     1.5640 H     1 <1>   0.0800 
 33 H       -4.8300    -5.2730     1.7310 H     1 <1>   0.0800 
 34 H       -5.0760    -8.5090    -0.4010 H     1 <1>   0.0800 
 35 H       -6.9870    -6.3200     1.9530 H     1 <1>   0.0800 
 36 H       -6.9220    -5.4000     0.5000 H     1 <1>   0.0800 
 37 H       -6.8090    -9.4130    -1.4570 H     1 <1>   0.4000 
 38 H       -8.7180    -8.3370    -0.7760 H     1 <1>   0.0800 
 39 H       -9.0290    -7.1400     0.4210 H     1 <1>   0.0800 
 40 H       -8.2440    -5.3720    -1.2010 H     1 <1>   0.0800 
 41 H       -7.9690    -6.6280    -2.3740 H     1 <1>   0.0800 
 42 H      -10.6460    -5.9710    -1.1220 H     1 <1>   0.0800 
 43 H      -10.3620    -7.2250    -2.3080 H     1 <1>   0.0800 
 44 H      -10.1410    -5.5470    -2.7420 H     1 <1>   0.0800 
@<TRIPOS>BOND
  1   1   2  1   
  2   2   3  ar  
  3   2   4  ar  
  4   3   5  1   
  5   3   6  ar  
  6   4   7  ar  
  7   4  25  1   
  8   6   8  ar  
  9   6  26  1   
 10   7   8  ar  
 11   7   9  1   
 12   8  27  1   
 13   9  10  1   
 14   9  28  1   
 15   9  29  1   
 16  10  11  2   
 17  10  12  am  
 18  12  13  1   
 19  12  14  1   
 20  13  15  1   
 21  13  30  1   
 22  13  31  1   
 23  14  16  1   
 24  14  32  1   
 25  14  33  1   
 26  15  17  1   
 27  15  18  1   
 28  15  34  1   
 29  16  18  1   
 30  16  35  1   
 31  16  36  1   
 32  17  37  1   
 33  18  19  1   
 34  18  20  1   
 35  19  21  ar  
 36  19  22  ar  
 37  20  23  1   
 38  20  38  1   
 39  20  39  1   
 40  23  24  1   
 41  23  40  1   
 42  23  41  1   
 43  24  42  1   
 44  24  43  1   
 45  24  44  1   
@<TRIPOS>SUBSTRUCTURE
  1 ****  12 GROUP 4 **** **** 0

# MOE 2024.06 (io_trps.svl 2023.06)
