@<TRIPOS>MOLECULE
NONAME
51 54 1 0 0 
SMALL
USER_CHARGES


@<TRIPOS>ATOM
  1 O       -2.5490     0.6360    -1.5240 O.2   1 <1>  -0.5700 
  2 C       -2.0910     0.6380    -0.3970 C.2   1 <1>   0.7160 
  3 N       -1.9980    -0.5530     0.2580 N.am  1 <1>  -0.7300 
  4 C       -1.6680     1.8560     0.2540 C.2   1 <1>  -0.0860 
  5 C       -2.4610    -1.8510    -0.2790 C.3   1 <1>   0.2200 
  6 C       -1.2690     3.0710    -0.2300 C.2   1 <1>  -0.3320 
  7 C       -1.5890     2.0300     1.6380 C.2   1 <1>   0.1390 
  8 C       -3.8930    -2.0880     0.1690 C.3   1 <1>  -0.0800 
  9 C       -1.7260    -2.9940     0.4110 C.3   1 <1>   0.1200 
 10 N       -0.9900     3.8590     0.8270 N.pl3 1 <1>   0.3140 
 11 C       -1.1410     3.5180    -1.6810 C.3   1 <1>  -0.0600 
 12 N       -1.1850     3.2080     1.9850 N.2   1 <1>  -0.7070 
 13 C       -3.7060    -2.7120     1.5560 C.3   1 <1>   0.1200 
 14 C       -4.6390    -3.0230    -0.8020 C.3   1 <1>  -0.0170 
 15 O       -2.4030    -3.2200     1.6100 O.3   1 <1>  -0.5600 
 16 C       -0.5280     5.2650     0.8220 C.3   1 <1>   0.0960 
 17 C       -6.1080    -3.1690    -0.4180 C.ar  1 <1>  -0.1440 
 18 C       -1.7130     6.2380     0.7960 C.3   1 <1>  -0.2400 
 19 C       -7.0580    -2.1470    -0.6600 C.ar  1 <1>   0.0000 
 20 C       -6.5510    -4.3120     0.1810 C.ar  1 <1>  -0.1500 
 21 C       -8.3920    -2.3780    -0.2430 C.ar  1 <1>   0.3100 
 22 C       -6.7650    -0.9140    -1.2900 C.ar  1 <1>  -0.1500 
 23 C       -7.8960    -4.4410     0.5470 C.ar  1 <1>   0.1600 
 24 N       -8.7930    -3.5260     0.3580 N.ar  1 <1>  -0.6200 
 25 C       -9.3540    -1.3780    -0.4590 C.ar  1 <1>  -0.1500 
 26 C       -7.7280     0.0390    -1.4860 C.ar  1 <1>  -0.1500 
 27 C       -9.0390    -0.1930    -1.0650 C.ar  1 <1>  -0.1500 
 28 H       -1.6360    -0.5850     1.2110 H     1 <1>   0.3700 
 29 H       -2.3380    -1.8750    -1.3490 H     1 <1>   0.0800 
 30 H       -1.8430     1.2720     2.3590 H     1 <1>   0.1500 
 31 H       -4.4310    -1.1600     0.2450 H     1 <1>   0.0800 
 32 H       -0.6940    -2.7650     0.6140 H     1 <1>   0.0800 
 33 H       -1.7900    -3.8940    -0.1740 H     1 <1>   0.0800 
 34 H       -1.3700     2.7140    -2.3550 H     1 <1>   0.0800 
 35 H       -0.1360     3.8450    -1.8830 H     1 <1>   0.0800 
 36 H       -1.8200     4.3270    -1.8810 H     1 <1>   0.0800 
 37 H       -4.4000    -3.5080     1.7570 H     1 <1>   0.0800 
 38 H       -3.7920    -1.9620     2.3240 H     1 <1>   0.0800 
 39 H       -4.1700    -3.9910    -0.8070 H     1 <1>   0.0800 
 40 H       -4.5760    -2.6400    -1.8050 H     1 <1>   0.0800 
 41 H        0.0570     5.4250     1.7100 H     1 <1>   0.0800 
 42 H        0.1040     5.4200    -0.0320 H     1 <1>   0.0800 
 43 H       -2.3310     6.0840     1.6640 H     1 <1>   0.0800 
 44 H       -2.3030     6.0900    -0.0900 H     1 <1>   0.0800 
 45 H       -1.3540     7.2510     0.8070 H     1 <1>   0.0800 
 46 H       -5.8900    -5.1340     0.3890 H     1 <1>   0.1500 
 47 H       -5.7650    -0.7110    -1.6270 H     1 <1>   0.1500 
 48 H       -8.2030    -5.3590     1.0190 H     1 <1>   0.1500 
 49 H      -10.3560    -1.5800    -0.1290 H     1 <1>   0.1500 
 50 H       -7.4880     0.9730    -1.9650 H     1 <1>   0.1500 
 51 H       -9.7880     0.5640    -1.2240 H     1 <1>   0.1500 
@<TRIPOS>BOND
  1   1   2  2   
  2   2   3  am  
  3   2   4  1   
  4   3   5  1   
  5   3  28  1   
  6   4   6  2   
  7   4   7  1   
  8   5   8  1   
  9   5   9  1   
 10   5  29  1   
 11   6  10  1   
 12   6  11  1   
 13   7  12  2   
 14   7  30  1   
 15   8  13  1   
 16   8  14  1   
 17   8  31  1   
 18   9  15  1   
 19   9  32  1   
 20   9  33  1   
 21  10  12  1   
 22  10  16  1   
 23  11  34  1   
 24  11  35  1   
 25  11  36  1   
 26  13  15  1   
 27  13  37  1   
 28  13  38  1   
 29  14  17  1   
 30  14  39  1   
 31  14  40  1   
 32  16  18  1   
 33  16  41  1   
 34  16  42  1   
 35  17  19  ar  
 36  17  20  ar  
 37  18  43  1   
 38  18  44  1   
 39  18  45  1   
 40  19  21  ar  
 41  19  22  ar  
 42  20  23  ar  
 43  20  46  1   
 44  21  24  ar  
 45  21  25  ar  
 46  22  26  ar  
 47  22  47  1   
 48  23  24  ar  
 49  23  48  1   
 50  25  27  ar  
 51  25  49  1   
 52  26  27  ar  
 53  26  50  1   
 54  27  51  1   
@<TRIPOS>SUBSTRUCTURE
  1 ****   8 GROUP 4 **** **** 0

# MOE 2024.06 (io_trps.svl 2023.06)
