@<TRIPOS>MOLECULE
NONAME
62 65 1 0 0 
SMALL
USER_CHARGES


@<TRIPOS>ATOM
  1 O        0.0140    -1.0110     1.7790 O.2   1 <1>  -0.5700 
  2 C        0.5100    -1.7300     0.9440 C.2   1 <1>   0.5690 
  3 N        1.6930    -1.3860     0.3350 N.am  1 <1>  -0.6600 
  4 C       -0.2850    -2.9870     0.6250 C.3   1 <1>  -0.0990 
  5 C        2.3640    -2.1920    -0.7280 C.3   1 <1>   0.1400 
  6 C        2.4170    -0.1450     0.7300 C.3   1 <1>   0.1400 
  7 C        0.3530    -4.0600    -0.2580 C.3   1 <1>   0.1200 
  8 C        2.7230    -3.6470    -0.3110 C.3   1 <1>   0.2800 
  9 C        2.1830     0.9500    -0.3170 C.3   1 <1>  -0.1600 
 10 O        1.6300    -4.3530     0.2120 O.3   1 <1>  -0.5600 
 11 C        3.7690    -3.6540     0.8250 C.3   1 <1>  -0.1600 
 12 C        3.2200    -4.4270    -1.5480 C.3   1 <1>  -0.1600 
 13 C        2.8720     2.2810     0.0380 C.3   1 <1>  -0.0800 
 14 C        5.2050    -3.6110     0.2990 C.3   1 <1>   0.1400 
 15 C        4.2840    -5.4630    -1.1880 C.3   1 <1>   0.1400 
 16 C        2.4360     3.3680    -0.9600 C.3   1 <1>  -0.1600 
 17 C        4.4090     2.1540     0.0540 C.3   1 <1>  -0.1600 
 18 N        5.4730    -4.7700    -0.6050 N.am  1 <1>  -0.6600 
 19 C        3.1120     4.7140    -0.6670 C.3   1 <1>  -0.1600 
 20 C        5.0860     3.5010     0.3410 C.3   1 <1>  -0.1600 
 21 C        6.7310    -5.3210    -0.7420 C.2   1 <1>   0.5440 
 22 C        4.6390     4.5740    -0.6580 C.3   1 <1>  -0.1600 
 23 O        6.8380    -6.4360    -1.2130 O.2   1 <1>  -0.5700 
 24 C        7.9260    -4.6170    -0.3290 C.ar  1 <1>   0.0860 
 25 C        8.8510    -5.2400     0.5040 C.ar  1 <1>   0.1600 
 26 C        8.2130    -3.3200    -0.7360 C.ar  1 <1>  -0.1500 
 27 N        9.9680    -4.6970     0.9670 N.ar  1 <1>  -0.6200 
 28 C        9.3730    -2.7370    -0.2720 C.ar  1 <1>  -0.1500 
 29 C       10.2050    -3.4580     0.5680 C.ar  1 <1>   0.1600 
 30 H       -1.2100    -2.6810     0.1750 H     1 <1>   0.0800 
 31 H       -0.5350    -3.4470     1.5630 H     1 <1>   0.0800 
 32 H        3.2760    -1.7000    -1.0170 H     1 <1>   0.0800 
 33 H        1.7420    -2.1950    -1.6050 H     1 <1>   0.0800 
 34 H        3.4640    -0.3650     0.8250 H     1 <1>   0.0800 
 35 H        2.0700     0.2000     1.6900 H     1 <1>   0.0800 
 36 H        0.3870    -3.7740    -1.2940 H     1 <1>   0.0800 
 37 H       -0.2260    -4.9650    -0.1860 H     1 <1>   0.0800 
 38 H        1.1210     1.1180    -0.3820 H     1 <1>   0.0800 
 39 H        2.5290     0.6180    -1.2790 H     1 <1>   0.0800 
 40 H        3.6640    -4.5520     1.4090 H     1 <1>   0.0800 
 41 H        3.6070    -2.8270     1.4900 H     1 <1>   0.0800 
 42 H        3.6650    -3.7550    -2.2590 H     1 <1>   0.0800 
 43 H        2.3980    -4.9130    -2.0400 H     1 <1>   0.0800 
 44 H        2.5440     2.5820     1.0200 H     1 <1>   0.0800 
 45 H        5.8860    -3.6370     1.1330 H     1 <1>   0.0800 
 46 H        5.3650    -2.6960    -0.2430 H     1 <1>   0.0800 
 47 H        4.5730    -6.0070    -2.0720 H     1 <1>   0.0800 
 48 H        3.8920    -6.1670    -0.4720 H     1 <1>   0.0800 
 49 H        1.3690     3.4960    -0.9140 H     1 <1>   0.0800 
 50 H        2.6880     3.0600    -1.9610 H     1 <1>   0.0800 
 51 H        4.7480     1.7870    -0.9000 H     1 <1>   0.0800 
 52 H        4.7190     1.4550     0.8090 H     1 <1>   0.0800 
 53 H        2.7820     5.0770     0.2910 H     1 <1>   0.0800 
 54 H        2.8200     5.4340    -1.4110 H     1 <1>   0.0800 
 55 H        6.1550     3.3870     0.2910 H     1 <1>   0.0800 
 56 H        4.8350     3.8190     1.3380 H     1 <1>   0.0800 
 57 H        5.0860     5.5190    -0.3980 H     1 <1>   0.0800 
 58 H        4.9790     4.3090    -1.6450 H     1 <1>   0.0800 
 59 H        8.6440    -6.2540     0.8030 H     1 <1>   0.1500 
 60 H        7.5490    -2.7940    -1.3990 H     1 <1>   0.1500 
 61 H        9.6380    -1.7360    -0.5590 H     1 <1>   0.1500 
 62 H       11.1090    -2.9960     0.9270 H     1 <1>   0.1500 
@<TRIPOS>BOND
  1   1   2  2   
  2   2   3  am  
  3   2   4  1   
  4   3   5  1   
  5   3   6  1   
  6   4   7  1   
  7   4  30  1   
  8   4  31  1   
  9   5   8  1   
 10   5  32  1   
 11   5  33  1   
 12   6   9  1   
 13   6  34  1   
 14   6  35  1   
 15   7  10  1   
 16   7  36  1   
 17   7  37  1   
 18   8  10  1   
 19   8  11  1   
 20   8  12  1   
 21   9  13  1   
 22   9  38  1   
 23   9  39  1   
 24  11  14  1   
 25  11  40  1   
 26  11  41  1   
 27  12  15  1   
 28  12  42  1   
 29  12  43  1   
 30  13  16  1   
 31  13  17  1   
 32  13  44  1   
 33  14  18  1   
 34  14  45  1   
 35  14  46  1   
 36  15  18  1   
 37  15  47  1   
 38  15  48  1   
 39  16  19  1   
 40  16  49  1   
 41  16  50  1   
 42  17  20  1   
 43  17  51  1   
 44  17  52  1   
 45  18  21  am  
 46  19  22  1   
 47  19  53  1   
 48  19  54  1   
 49  20  22  1   
 50  20  55  1   
 51  20  56  1   
 52  21  23  2   
 53  21  24  1   
 54  22  57  1   
 55  22  58  1   
 56  24  25  ar  
 57  24  26  ar  
 58  25  27  ar  
 59  25  59  1   
 60  26  28  ar  
 61  26  60  1   
 62  27  29  ar  
 63  28  29  ar  
 64  28  61  1   
 65  29  62  1   
@<TRIPOS>SUBSTRUCTURE
  1 ****  14 GROUP 4 **** **** 0

# MOE 2024.06 (io_trps.svl 2023.06)
