@<TRIPOS>MOLECULE
NONAME
42 44 1 0 0 
SMALL
USER_CHARGES


@<TRIPOS>ATOM
  1 S       -1.3770     3.1660     1.5700 S.3   1 <1>  -0.0800 
  2 C       -0.8050     1.7980     0.6320 C.2   1 <1>   0.1980 
  3 C        0.1960     3.8900     1.4220 C.2   1 <1>  -0.1100 
  4 N        0.4110     1.8930     0.2640 N.2   1 <1>  -0.5650 
  5 C       -1.7750     0.6540     0.3490 C.3   1 <1>   0.1000 
  6 C        0.9870     3.0770     0.7050 C.2   1 <1>   0.0460 
  7 C       -2.9760     1.1270    -0.4810 C.3   1 <1>  -0.2400 
  8 C       -2.2450    -0.0210     1.6440 C.3   1 <1>  -0.2400 
  9 C        2.4470     3.3170     0.3360 C.3   1 <1>   0.2910 
 10 N        2.8560     4.7320     0.4970 N.3   1 <1>  -0.8100 
 11 C        4.3370     4.8430     0.5570 C.3   1 <1>   0.2900 
 12 C        2.2730     5.5670    -0.5700 C.3   1 <1>   0.0300 
 13 C        4.8570     6.2140     0.9880 C.2   1 <1>   0.2980 
 14 O        4.7840     7.2200     0.1640 O.3   1 <1>  -0.2800 
 15 N        5.4070     6.4800     2.1080 N.2   1 <1>  -0.3380 
 16 C        5.3250     8.1650     0.8960 C.2   1 <1>   0.4250 
 17 N        5.7140     7.7550     2.0540 N.2   1 <1>  -0.3380 
 18 C        5.4330     9.5070     0.3720 C.ar  1 <1>   0.0530 
 19 C        4.9290     9.8400    -0.8870 C.ar  1 <1>   0.1600 
 20 C        6.0370    10.5310     1.0930 C.ar  1 <1>  -0.1500 
 21 N        4.9760    11.0350    -1.4530 N.ar  1 <1>  -0.6200 
 22 C        6.0970    11.7830     0.5230 C.ar  1 <1>  -0.1500 
 23 C        5.5590    11.9810    -0.7360 C.ar  1 <1>   0.1600 
 24 H        0.3720     4.8440     1.8840 H     1 <1>   0.1500 
 25 H       -1.2390    -0.0780    -0.2310 H     1 <1>   0.0800 
 26 H       -3.5660     1.8360     0.0710 H     1 <1>   0.0800 
 27 H       -3.5980     0.2910    -0.7460 H     1 <1>   0.0800 
 28 H       -2.6310     1.5960    -1.3860 H     1 <1>   0.0800 
 29 H       -2.8190     0.6620     2.2440 H     1 <1>   0.0800 
 30 H       -1.3930    -0.3470     2.2150 H     1 <1>   0.0800 
 31 H       -2.8540    -0.8780     1.4180 H     1 <1>   0.0800 
 32 H        2.6070     3.0070    -0.6830 H     1 <1>   0.0800 
 33 H        3.0420     2.6850     0.9720 H     1 <1>   0.0800 
 34 H        4.7590     4.5960    -0.4010 H     1 <1>   0.0800 
 35 H        4.7070     4.1300     1.2730 H     1 <1>   0.0800 
 36 H        1.2120     5.3970    -0.6430 H     1 <1>   0.0800 
 37 H        2.7240     5.3400    -1.5210 H     1 <1>   0.0800 
 38 H        2.4190     6.6090    -0.3480 H     1 <1>   0.0800 
 39 H        4.4550     9.0660    -1.4650 H     1 <1>   0.1500 
 40 H        6.4470    10.3480     2.0730 H     1 <1>   0.1500 
 41 H        6.5560    12.6020     1.0480 H     1 <1>   0.1500 
 42 H        5.6100    12.9640    -1.1750 H     1 <1>   0.1500 
@<TRIPOS>BOND
  1   1   2  1   
  2   1   3  1   
  3   2   4  2   
  4   2   5  1   
  5   3   6  2   
  6   3  24  1   
  7   4   6  1   
  8   5   7  1   
  9   5   8  1   
 10   5  25  1   
 11   6   9  1   
 12   7  26  1   
 13   7  27  1   
 14   7  28  1   
 15   8  29  1   
 16   8  30  1   
 17   8  31  1   
 18   9  10  1   
 19   9  32  1   
 20   9  33  1   
 21  10  11  1   
 22  10  12  1   
 23  11  13  1   
 24  11  34  1   
 25  11  35  1   
 26  12  36  1   
 27  12  37  1   
 28  12  38  1   
 29  13  14  1   
 30  13  15  2   
 31  14  16  1   
 32  15  17  1   
 33  16  17  2   
 34  16  18  1   
 35  18  19  ar  
 36  18  20  ar  
 37  19  21  ar  
 38  19  39  1   
 39  20  22  ar  
 40  20  40  1   
 41  21  23  ar  
 42  22  23  ar  
 43  22  41  1   
 44  23  42  1   
@<TRIPOS>SUBSTRUCTURE
  1 ****  10 GROUP 4 **** **** 0

# MOE 2024.06 (io_trps.svl 2023.06)
