@<TRIPOS>MOLECULE
NONAME
45 46 1 0 0 
SMALL
USER_CHARGES


@<TRIPOS>ATOM
  1 CL      -0.1610     0.4920    -1.5090 Cl    1 <1>  -0.1770 
  2 C       -0.0680     2.1480    -0.9740 C.ar  1 <1>   0.1770 
  3 C        1.1430     2.8160    -0.9820 C.ar  1 <1>   0.1600 
  4 C       -1.2030     2.7930    -0.5420 C.ar  1 <1>  -0.1500 
  5 N        1.3060     4.0700    -0.5910 N.ar  1 <1>  -0.6200 
  6 C       -1.0430     4.1010    -0.1360 C.ar  1 <1>  -0.1500 
  7 C        0.2080     4.7290    -0.1610 C.ar  1 <1>   0.3960 
  8 C        0.2920     6.1290     0.2750 C.2   1 <1>   0.5440 
  9 O       -0.6150     6.8880    -0.0300 O.2   1 <1>  -0.5700 
 10 N        1.3320     6.6500     1.0300 N.am  1 <1>  -0.6600 
 11 C        2.4480     5.8440     1.6230 C.3   1 <1>   0.1400 
 12 C        1.4580     8.1130     1.2750 C.3   1 <1>   0.1400 
 13 C        3.7440     5.9430     0.8010 C.3   1 <1>   0.1400 
 14 C        2.1670     8.8110     0.1060 C.3   1 <1>  -0.1600 
 15 N        4.1570     7.3630     0.5620 N.am  1 <1>  -0.6600 
 16 C        3.3590     8.0490    -0.4920 C.3   1 <1>   0.1400 
 17 C        5.1920     7.9290     1.2650 C.2   1 <1>   0.5690 
 18 O        5.7310     7.3370     2.1730 O.2   1 <1>  -0.5700 
 19 C        5.6730     9.3490     0.9830 C.3   1 <1>   0.1310 
 20 S        6.5780     9.4650    -0.6030 S.3   1 <1>  -0.4600 
 21 C        7.3350    11.1070    -0.5480 C.3   1 <1>   0.1500 
 22 C        7.6050    11.5180    -1.9930 C.3   1 <1>  -0.2400 
 23 C        8.6190    10.9990     0.2720 C.3   1 <1>  -0.2400 
 24 H        2.0130     2.2850    -1.3300 H     1 <1>   0.1500 
 25 H       -2.1570     2.2970    -0.5280 H     1 <1>   0.1500 
 26 H       -1.8950     4.6620     0.2060 H     1 <1>   0.1500 
 27 H        2.1590     4.8130     1.7060 H     1 <1>   0.0800 
 28 H        2.6470     6.1920     2.6210 H     1 <1>   0.0800 
 29 H        2.0200     8.2740     2.1790 H     1 <1>   0.0800 
 30 H        0.4830     8.5470     1.4200 H     1 <1>   0.0800 
 31 H        3.6070     5.4470    -0.1430 H     1 <1>   0.0800 
 32 H        4.5240     5.4170     1.3220 H     1 <1>   0.0800 
 33 H        2.4920     9.7800     0.4340 H     1 <1>   0.0800 
 34 H        1.4470     8.9750    -0.6770 H     1 <1>   0.0800 
 35 H        3.9760     8.7210    -1.0600 H     1 <1>   0.0800 
 36 H        2.9850     7.3100    -1.1810 H     1 <1>   0.0800 
 37 H        6.3500     9.6580     1.7560 H     1 <1>   0.0800 
 38 H        4.8460    10.0300     0.9340 H     1 <1>   0.0800 
 39 H        6.6280    11.7750    -0.0870 H     1 <1>   0.0800 
 40 H        8.2680    10.8140    -2.4650 H     1 <1>   0.0800 
 41 H        8.0580    12.4930    -2.0220 H     1 <1>   0.0800 
 42 H        6.6830    11.5510    -2.5450 H     1 <1>   0.0800 
 43 H        9.2830    10.2760    -0.1680 H     1 <1>   0.0800 
 44 H        8.3990    10.6980     1.2800 H     1 <1>   0.0800 
 45 H        9.1180    11.9510     0.3030 H     1 <1>   0.0800 
@<TRIPOS>BOND
  1   1   2  1   
  2   2   3  ar  
  3   2   4  ar  
  4   3   5  ar  
  5   3  24  1   
  6   4   6  ar  
  7   4  25  1   
  8   5   7  ar  
  9   6   7  ar  
 10   6  26  1   
 11   7   8  1   
 12   8   9  2   
 13   8  10  am  
 14  10  11  1   
 15  10  12  1   
 16  11  13  1   
 17  11  27  1   
 18  11  28  1   
 19  12  14  1   
 20  12  29  1   
 21  12  30  1   
 22  13  15  1   
 23  13  31  1   
 24  13  32  1   
 25  14  16  1   
 26  14  33  1   
 27  14  34  1   
 28  15  16  1   
 29  15  17  am  
 30  16  35  1   
 31  16  36  1   
 32  17  18  2   
 33  17  19  1   
 34  19  20  1   
 35  19  37  1   
 36  19  38  1   
 37  20  21  1   
 38  21  22  1   
 39  21  23  1   
 40  21  39  1   
 41  22  40  1   
 42  22  41  1   
 43  22  42  1   
 44  23  43  1   
 45  23  44  1   
 46  23  45  1   
@<TRIPOS>SUBSTRUCTURE
  1 ****  13 GROUP 4 **** **** 0

# MOE 2024.06 (io_trps.svl 2023.06)
