@<TRIPOS>MOLECULE
NONAME
44 45 1 0 0 
SMALL
USER_CHARGES


@<TRIPOS>ATOM
  1 CL       0.8150    -0.7100    -1.8330 Cl    1 <1>  -0.1770 
  2 C        0.3770    -2.1320    -0.9270 C.ar  1 <1>   0.1770 
  3 C        0.9840    -3.3380    -1.2190 C.ar  1 <1>  -0.1500 
  4 C       -0.5710    -2.0360     0.0730 C.ar  1 <1>  -0.1500 
  5 C        0.6400    -4.4760    -0.5060 C.ar  1 <1>  -0.1440 
  6 C       -0.9150    -3.1710     0.7830 C.ar  1 <1>  -0.1500 
  7 C       -0.3290    -4.4080     0.5060 C.ar  1 <1>   0.0860 
  8 C        1.3330    -5.7950    -0.8230 C.3   1 <1>  -0.0960 
  9 C       -0.7440    -5.5760     1.2560 C.2   1 <1>   0.5440 
 10 O       -0.3030    -5.7770     2.3700 O.2   1 <1>  -0.5700 
 11 N       -1.6480    -6.4680     0.7310 N.am  1 <1>  -0.6600 
 12 C       -2.4980    -6.2130    -0.4580 C.3   1 <1>   0.1400 
 13 C       -2.1230    -7.6650     1.4700 C.3   1 <1>   0.1400 
 14 C       -3.7400    -7.0720    -0.2210 C.3   1 <1>   0.2000 
 15 C       -3.2300    -8.2660     0.5900 C.3   1 <1>  -0.0800 
 16 O       -4.6180    -6.3570     0.5760 O.3   1 <1>  -0.6800 
 17 C       -2.6780    -9.3570    -0.3520 C.3   1 <1>  -0.0550 
 18 S       -2.3660   -10.9260     0.4590 S.o2  1 <1>   1.3330 
 19 O       -3.6320   -11.4220     0.9490 O.2   1 <1>  -0.6500 
 20 O       -1.2460   -10.7980     1.3630 O.2   1 <1>  -0.6500 
 21 N       -1.8750   -11.9100    -0.8350 N.am  1 <1>  -0.8490 
 22 C       -2.2420   -13.3160    -0.6340 C.3   1 <1>   0.1160 
 23 C       -0.4420   -11.8080    -1.1330 C.3   1 <1>   0.1160 
 24 H        1.7240    -3.3710    -1.9990 H     1 <1>   0.1500 
 25 H       -1.0260    -1.0860     0.2890 H     1 <1>   0.1500 
 26 H       -1.6470    -3.1090     1.5700 H     1 <1>   0.1500 
 27 H        2.1150    -5.6570    -1.5480 H     1 <1>   0.0800 
 28 H        0.6260    -6.5030    -1.2130 H     1 <1>   0.0800 
 29 H        1.7720    -6.2020     0.0710 H     1 <1>   0.0800 
 30 H       -2.7510    -5.1720    -0.5620 H     1 <1>   0.0800 
 31 H       -1.9790    -6.5480    -1.3380 H     1 <1>   0.0800 
 32 H       -1.3050    -8.3410     1.6490 H     1 <1>   0.0800 
 33 H       -2.5250    -7.3540     2.4200 H     1 <1>   0.0800 
 34 H       -4.2530    -7.3400    -1.1290 H     1 <1>   0.0800 
 35 H       -4.0200    -8.6910     1.1870 H     1 <1>   0.0800 
 36 H       -4.1440    -6.0410     1.3710 H     1 <1>   0.4000 
 37 H       -1.7770    -9.0090    -0.8170 H     1 <1>   0.0800 
 38 H       -3.3980    -9.5330    -1.1280 H     1 <1>   0.0800 
 39 H       -1.9270   -13.9090    -1.4760 H     1 <1>   0.0800 
 40 H       -3.3110   -13.4100    -0.5400 H     1 <1>   0.0800 
 41 H       -1.7810   -13.6990     0.2620 H     1 <1>   0.0800 
 42 H       -0.2070   -12.3770    -2.0160 H     1 <1>   0.0800 
 43 H        0.1420   -12.1830    -0.3080 H     1 <1>   0.0800 
 44 H       -0.1710   -10.7820    -1.3070 H     1 <1>   0.0800 
@<TRIPOS>BOND
  1   1   2  1   
  2   2   3  ar  
  3   2   4  ar  
  4   3   5  ar  
  5   3  24  1   
  6   4   6  ar  
  7   4  25  1   
  8   5   7  ar  
  9   5   8  1   
 10   6   7  ar  
 11   6  26  1   
 12   7   9  1   
 13   8  27  1   
 14   8  28  1   
 15   8  29  1   
 16   9  10  2   
 17   9  11  am  
 18  11  12  1   
 19  11  13  1   
 20  12  14  1   
 21  12  30  1   
 22  12  31  1   
 23  13  15  1   
 24  13  32  1   
 25  13  33  1   
 26  14  15  1   
 27  14  16  1   
 28  14  34  1   
 29  15  17  1   
 30  15  35  1   
 31  16  36  1   
 32  17  18  1   
 33  17  37  1   
 34  17  38  1   
 35  18  19  2   
 36  18  20  2   
 37  18  21  am  
 38  21  22  1   
 39  21  23  1   
 40  22  39  1   
 41  22  40  1   
 42  22  41  1   
 43  23  42  1   
 44  23  43  1   
 45  23  44  1   
@<TRIPOS>SUBSTRUCTURE
  1 ****  11 GROUP 4 **** **** 0

# MOE 2024.06 (io_trps.svl 2023.06)
