@<TRIPOS>MOLECULE
NONAME
46 47 1 0 0 
SMALL
USER_CHARGES


@<TRIPOS>ATOM
  1 F       -2.2310    -1.1920     2.2740 F     1 <1>  -0.1900 
  2 C       -2.4780    -0.1460     1.5330 C.ar  1 <1>   0.1900 
  3 C       -2.8370    -0.3270     0.2100 C.ar  1 <1>  -0.1440 
  4 C       -2.3570     1.1050     2.1030 C.ar  1 <1>  -0.1500 
  5 C       -3.0530     0.8020    -0.5680 C.ar  1 <1>  -0.1500 
  6 C       -2.9920    -1.7330    -0.3360 C.3   1 <1>   0.4870 
  7 C       -2.5960     2.2200     1.3180 C.ar  1 <1>  -0.1500 
  8 C       -2.9480     2.0820    -0.0240 C.ar  1 <1>  -0.1440 
  9 N       -4.4050    -2.1390    -0.2300 N.4   1 <1>  -0.9590 
 10 C       -3.2200     3.3140    -0.9030 C.3   1 <1>   1.1630 
 11 C       -4.5960    -3.6340    -0.1750 C.3   1 <1>   0.3430 
 12 C       -5.3490    -1.4790    -1.1680 C.3   1 <1>   0.3430 
 13 F       -4.2200     3.1110    -1.7540 F     1 <1>  -0.3400 
 14 F       -2.1650     3.6320    -1.6400 F     1 <1>  -0.3400 
 15 F       -3.5360     4.3990    -0.2080 F     1 <1>  -0.3400 
 16 C       -6.0750    -4.0610    -0.3680 C.3   1 <1>   0.2000 
 17 C       -6.8010    -1.6750    -0.6960 C.3   1 <1>  -0.1600 
 18 O       -6.3080    -4.2750    -1.7280 O.3   1 <1>  -0.6800 
 19 C       -7.0250    -2.9630     0.1610 C.3   1 <1>  -0.1060 
 20 C       -6.5660    -2.7670     1.6180 C.2   1 <1>   0.9060 
 21 C       -8.5100    -3.4170     0.0990 C.3   1 <1>  -0.1600 
 22 O       -5.9750    -1.7220     1.9260 O.co2 1 <1>  -0.9000 
 23 O       -6.5750    -3.7430     2.3660 O.co2 1 <1>  -0.9000 
 24 C       -9.4910    -2.3970     0.7000 C.3   1 <1>  -0.1600 
 25 C      -10.9300    -2.9140     0.6270 C.3   1 <1>  -0.2400 
 26 H       -2.0850     1.1990     3.1390 H     1 <1>   0.1500 
 27 H       -3.3120     0.6910    -1.6090 H     1 <1>   0.1500 
 28 H       -2.3800    -2.4030     0.2460 H     1 <1>   0.0800 
 29 H       -2.6680    -1.7780    -1.3620 H     1 <1>   0.0800 
 30 H       -2.5050     3.1980     1.7660 H     1 <1>   0.1500 
 31 H       -4.7420    -1.8090     0.7170 H     1 <1>   0.4500 
 32 H       -3.9970    -4.1240    -0.9230 H     1 <1>   0.0800 
 33 H       -4.2780    -3.9770     0.7970 H     1 <1>   0.0800 
 34 H       -5.1460    -0.4240    -1.2330 H     1 <1>   0.0800 
 35 H       -5.2340    -1.9160    -2.1470 H     1 <1>   0.0800 
 36 H       -6.2440    -4.9950     0.1430 H     1 <1>   0.0800 
 37 H       -7.1040    -0.8090    -0.1330 H     1 <1>   0.0800 
 38 H       -7.4220    -1.7040    -1.5730 H     1 <1>   0.0800 
 39 H       -7.2280    -4.5860    -1.8470 H     1 <1>   0.4000 
 40 H       -8.7940    -3.6090    -0.9200 H     1 <1>   0.0800 
 41 H       -8.6070    -4.3400     0.6460 H     1 <1>   0.0800 
 42 H       -9.2390    -2.2160     1.7330 H     1 <1>   0.0800 
 43 H       -9.4300    -1.4610     0.1740 H     1 <1>   0.0800 
 44 H      -11.0240    -3.8350     1.1760 H     1 <1>   0.0800 
 45 H      -11.2200    -3.0850    -0.3940 H     1 <1>   0.0800 
 46 H      -11.6010    -2.1920     1.0590 H     1 <1>   0.0800 
@<TRIPOS>BOND
  1   1   2  1   
  2   2   3  ar  
  3   2   4  ar  
  4   3   5  ar  
  5   3   6  1   
  6   4   7  ar  
  7   4  26  1   
  8   5   8  ar  
  9   5  27  1   
 10   6   9  1   
 11   6  28  1   
 12   6  29  1   
 13   7   8  ar  
 14   7  30  1   
 15   8  10  1   
 16   9  11  1   
 17   9  12  1   
 18   9  31  1   
 19  10  13  1   
 20  10  14  1   
 21  10  15  1   
 22  11  16  1   
 23  11  32  1   
 24  11  33  1   
 25  12  17  1   
 26  12  34  1   
 27  12  35  1   
 28  16  18  1   
 29  16  19  1   
 30  16  36  1   
 31  17  19  1   
 32  17  37  1   
 33  17  38  1   
 34  18  39  1   
 35  19  20  1   
 36  19  21  1   
 37  20  22  ar  
 38  20  23  ar  
 39  21  24  1   
 40  21  40  1   
 41  21  41  1   
 42  24  25  1   
 43  24  42  1   
 44  24  43  1   
 45  25  44  1   
 46  25  45  1   
 47  25  46  1   
@<TRIPOS>SUBSTRUCTURE
  1 ****   9 GROUP 4 **** **** 0

# MOE 2024.06 (io_trps.svl 2023.06)
