@<TRIPOS>MOLECULE
NONAME
51 55 1 0 0 
SMALL
USER_CHARGES


@<TRIPOS>ATOM
  1 O       -2.9720     2.8310     1.5060 O.2   1 <1>  -0.5700 
  2 C       -2.7590     2.3050     0.4360 C.2   1 <1>   0.5690 
  3 N       -3.7360     1.5610    -0.1900 N.am  1 <1>  -0.6600 
  4 C       -1.3690     2.4740    -0.1820 C.3   1 <1>   0.2370 
  5 C       -5.0390     1.2830     0.4750 C.3   1 <1>   0.1400 
  6 C       -3.5580     0.7680    -1.4410 C.3   1 <1>   0.1400 
  7 N       -0.6320     1.2010    -0.0140 N.pl3 1 <1>   0.3140 
  8 C       -0.5440     3.6480     0.3880 C.3   1 <1>  -0.2400 
  9 C       -5.0690    -0.1910     0.8790 C.3   1 <1>  -0.1600 
 10 C       -3.5630    -0.7180    -1.0810 C.3   1 <1>  -0.1600 
 11 N       -0.1190     0.5330    -1.0690 N.2   1 <1>  -0.7070 
 12 C       -0.3850     0.5420     1.1380 C.2   1 <1>  -0.3020 
 13 C       -4.8380    -1.1120    -0.3280 C.3   1 <1>   0.4600 
 14 C        0.4430    -0.5210    -0.5600 C.2   1 <1>   0.1390 
 15 C        0.3080    -0.5720     0.8220 C.2   1 <1>  -0.1500 
 16 O       -5.9010    -0.9450    -1.2430 O.3   1 <1>  -0.5600 
 17 C       -4.7650    -2.5710     0.1000 C.2   1 <1>  -0.3320 
 18 C       -7.0990    -1.6450    -1.0030 C.3   1 <1>   0.1200 
 19 N       -3.7850    -3.1420     0.8650 N.pl3 1 <1>   0.0330 
 20 C       -5.6750    -3.5080    -0.2290 C.2   1 <1>  -0.1810 
 21 C       -6.8810    -3.1660    -1.0690 C.3   1 <1>   0.0210 
 22 C       -4.0880    -4.4740     1.0160 C.ar  1 <1>  -0.1520 
 23 C       -5.2740    -4.7370     0.3340 C.ar  1 <1>   0.0000 
 24 C       -3.4160    -5.4900     1.7010 C.ar  1 <1>  -0.1500 
 25 C       -5.7980    -6.0330     0.3320 C.ar  1 <1>  -0.1500 
 26 C       -3.9440    -6.7610     1.6920 C.ar  1 <1>  -0.1500 
 27 C       -5.1350    -7.0320     1.0070 C.ar  1 <1>  -0.1500 
 28 H       -1.4900     2.6460    -1.2330 H     1 <1>   0.0800 
 29 H       -5.8420     1.4970    -0.2110 H     1 <1>   0.0800 
 30 H       -5.1700     1.9040     1.3440 H     1 <1>   0.0800 
 31 H       -2.6420     1.0120    -1.9480 H     1 <1>   0.0800 
 32 H       -4.3720     0.9810    -2.1140 H     1 <1>   0.0800 
 33 H       -0.3770     3.5170     1.4420 H     1 <1>   0.0800 
 34 H       -1.0780     4.5700     0.2420 H     1 <1>   0.0800 
 35 H        0.4020     3.7160    -0.1190 H     1 <1>   0.0800 
 36 H       -6.0020    -0.4270     1.3530 H     1 <1>   0.0800 
 37 H       -4.2950    -0.3570     1.6050 H     1 <1>   0.0800 
 38 H       -2.7010    -0.9260    -0.4750 H     1 <1>   0.0800 
 39 H       -3.4830    -1.3130    -1.9730 H     1 <1>   0.0800 
 40 H       -0.7110     0.9020     2.0980 H     1 <1>   0.1500 
 41 H        0.9520    -1.2640    -1.1500 H     1 <1>   0.1500 
 42 H        0.6880    -1.3420     1.4690 H     1 <1>   0.1500 
 43 H       -7.8120    -1.3410    -1.7490 H     1 <1>   0.0800 
 44 H       -7.4720    -1.3630    -0.0350 H     1 <1>   0.0800 
 45 H       -2.9600    -2.6750     1.2510 H     1 <1>   0.2700 
 46 H       -6.7140    -3.4710    -2.0860 H     1 <1>   0.0800 
 47 H       -7.7500    -3.6740    -0.6940 H     1 <1>   0.0800 
 48 H       -2.5020    -5.2730     2.2240 H     1 <1>   0.1500 
 49 H       -6.7120    -6.2270    -0.1980 H     1 <1>   0.1500 
 50 H       -3.4460    -7.5600     2.2120 H     1 <1>   0.1500 
 51 H       -5.5260    -8.0340     1.0140 H     1 <1>   0.1500 
@<TRIPOS>BOND
  1   1   2  2   
  2   2   3  am  
  3   2   4  1   
  4   3   5  1   
  5   3   6  1   
  6   4   7  1   
  7   4   8  1   
  8   4  28  1   
  9   5   9  1   
 10   5  29  1   
 11   5  30  1   
 12   6  10  1   
 13   6  31  1   
 14   6  32  1   
 15   7  11  1   
 16   7  12  1   
 17   8  33  1   
 18   8  34  1   
 19   8  35  1   
 20   9  13  1   
 21   9  36  1   
 22   9  37  1   
 23  10  13  1   
 24  10  38  1   
 25  10  39  1   
 26  11  14  2   
 27  12  15  2   
 28  12  40  1   
 29  13  16  1   
 30  13  17  1   
 31  14  15  1   
 32  14  41  1   
 33  15  42  1   
 34  16  18  1   
 35  17  19  1   
 36  17  20  2   
 37  18  21  1   
 38  18  43  1   
 39  18  44  1   
 40  19  22  1   
 41  19  45  1   
 42  20  21  1   
 43  20  23  1   
 44  21  46  1   
 45  21  47  1   
 46  22  23  ar  
 47  22  24  ar  
 48  23  25  ar  
 49  24  26  ar  
 50  24  48  1   
 51  25  27  ar  
 52  25  49  1   
 53  26  27  ar  
 54  26  50  1   
 55  27  51  1   
@<TRIPOS>SUBSTRUCTURE
  1 ****  10 GROUP 4 **** **** 0

# MOE 2024.06 (io_trps.svl 2023.06)
