@<TRIPOS>MOLECULE
NONAME
47 48 1 0 0 
SMALL
USER_CHARGES


@<TRIPOS>ATOM
  1 CL      -2.5010     0.5130     3.1470 Cl    1 <1>  -0.1770 
  2 C       -2.9370     0.3850     1.4590 C.ar  1 <1>   0.1770 
  3 C       -2.0110    -0.0280     0.5160 C.ar  1 <1>   0.1770 
  4 C       -4.2290     0.7000     1.0790 C.ar  1 <1>  -0.1500 
  5 CL      -0.3760    -0.4350     0.9810 Cl    1 <1>  -0.1770 
  6 C       -2.3710    -0.1260    -0.8160 C.ar  1 <1>  -0.1500 
  7 C       -4.6020     0.5970    -0.2550 C.ar  1 <1>  -0.1440 
  8 C       -3.6650     0.1890    -1.1980 C.ar  1 <1>  -0.1500 
  9 C       -6.0310     0.9330    -0.6780 C.3   1 <1>   0.0440 
 10 C       -7.0880     0.1970     0.1400 C.2   1 <1>   0.5690 
 11 O       -7.9370     0.8630     0.6890 O.2   1 <1>  -0.5700 
 12 N       -7.1170    -1.1700     0.2510 N.am  1 <1>  -0.6600 
 13 C       -6.2470    -2.0830    -0.5620 C.3   1 <1>   0.3210 
 14 C       -7.9400    -1.8350     1.3150 C.3   1 <1>   0.1400 
 15 C       -6.9790    -3.3510    -1.0020 C.2   1 <1>   0.0460 
 16 C       -9.3890    -2.1340     0.8740 C.3   1 <1>   0.3430 
 17 N       -8.0490    -3.2880    -1.8260 N.2   1 <1>  -0.5650 
 18 C       -6.6930    -4.6370    -0.6870 C.2   1 <1>  -0.3320 
 19 N      -10.0560    -0.9290     0.2850 N.4   1 <1>  -0.9590 
 20 C       -8.3720    -4.5270    -2.0130 C.2   1 <1>   0.0360 
 21 N       -7.5890    -5.3980    -1.3450 N.pl3 1 <1>   0.0330 
 22 C       -5.6080    -5.2460     0.1870 C.3   1 <1>  -0.0600 
 23 C      -11.4050    -0.6720     0.8610 C.3   1 <1>   0.2630 
 24 C      -10.0940    -1.0290    -1.2030 C.3   1 <1>   0.2630 
 25 H       -4.9290     1.0250     1.8300 H     1 <1>   0.1500 
 26 H       -1.6420    -0.4420    -1.5420 H     1 <1>   0.1500 
 27 H       -3.9330     0.1150    -2.2400 H     1 <1>   0.1500 
 28 H       -6.1840     0.7110    -1.7170 H     1 <1>   0.0800 
 29 H       -6.1790     1.9920    -0.5550 H     1 <1>   0.0800 
 30 H       -5.3800    -2.3440     0.0170 H     1 <1>   0.0800 
 31 H       -5.9100    -1.5840    -1.4520 H     1 <1>   0.0800 
 32 H       -7.9700    -1.2010     2.1850 H     1 <1>   0.0800 
 33 H       -7.4680    -2.7540     1.6170 H     1 <1>   0.0800 
 34 H       -9.9410    -2.4730     1.7340 H     1 <1>   0.0800 
 35 H       -9.3810    -2.9370     0.1570 H     1 <1>   0.0800 
 36 H       -9.4280    -0.1250     0.5130 H     1 <1>   0.4500 
 37 H       -9.1810    -4.8590    -2.6420 H     1 <1>   0.1500 
 38 H       -7.6530    -6.4210    -1.3590 H     1 <1>   0.2700 
 39 H       -4.9990    -4.4850     0.6400 H     1 <1>   0.0800 
 40 H       -4.9690    -5.8790    -0.4050 H     1 <1>   0.0800 
 41 H       -6.0480    -5.8380     0.9710 H     1 <1>   0.0800 
 42 H      -12.0680    -1.4920     0.6430 H     1 <1>   0.0800 
 43 H      -11.8200     0.2310     0.4430 H     1 <1>   0.0800 
 44 H      -11.3360    -0.5520     1.9300 H     1 <1>   0.0800 
 45 H      -10.6530    -1.8980    -1.5090 H     1 <1>   0.0800 
 46 H       -9.0920    -1.1180    -1.5910 H     1 <1>   0.0800 
 47 H      -10.5480    -0.1500    -1.6280 H     1 <1>   0.0800 
@<TRIPOS>BOND
  1   1   2  1   
  2   2   3  ar  
  3   2   4  ar  
  4   3   5  1   
  5   3   6  ar  
  6   4   7  ar  
  7   4  25  1   
  8   6   8  ar  
  9   6  26  1   
 10   7   8  ar  
 11   7   9  1   
 12   8  27  1   
 13   9  10  1   
 14   9  28  1   
 15   9  29  1   
 16  10  11  2   
 17  10  12  am  
 18  12  13  1   
 19  12  14  1   
 20  13  15  1   
 21  13  30  1   
 22  13  31  1   
 23  14  16  1   
 24  14  32  1   
 25  14  33  1   
 26  15  17  1   
 27  15  18  2   
 28  16  19  1   
 29  16  34  1   
 30  16  35  1   
 31  17  20  2   
 32  18  21  1   
 33  18  22  1   
 34  19  23  1   
 35  19  24  1   
 36  19  36  1   
 37  20  21  1   
 38  20  37  1   
 39  21  38  1   
 40  22  39  1   
 41  22  40  1   
 42  22  41  1   
 43  23  42  1   
 44  23  43  1   
 45  23  44  1   
 46  24  45  1   
 47  24  46  1   
 48  24  47  1   
@<TRIPOS>SUBSTRUCTURE
  1 ****  13 GROUP 4 **** **** 0

# MOE 2024.06 (io_trps.svl 2023.06)
