@<TRIPOS>MOLECULE
NONAME
46 49 1 0 0 
SMALL
USER_CHARGES


@<TRIPOS>ATOM
  1 O       -0.7260     0.5290    -0.5490 O.2   1 <1>  -0.5700 
  2 C       -1.8440     0.9850    -0.6030 C.2   1 <1>   0.5690 
  3 N       -2.9340     0.1570    -0.6670 N.am  1 <1>  -0.6600 
  4 C       -2.0280     2.5000    -0.5780 C.3   1 <1>  -0.0190 
  5 C       -4.3640     0.5540    -0.6120 C.3   1 <1>   0.1400 
  6 C       -2.8070    -1.3180    -0.6660 C.3   1 <1>   0.1400 
  7 C       -0.8860     3.3160    -1.2210 C.3   1 <1>  -0.0160 
  8 C       -2.1830     3.0640     0.8460 C.3   1 <1>  -0.0160 
  9 C       -5.1420    -0.7620    -0.5270 C.3   1 <1>   0.2000 
 10 C       -4.1300    -1.8230    -0.0920 C.3   1 <1>  -0.0800 
 11 C       -0.9450     4.6170    -0.4570 C.ar  1 <1>  -0.1440 
 12 C       -1.6700     4.4750     0.7010 C.ar  1 <1>  -0.1440 
 13 O       -6.1720    -0.6820     0.3960 O.3   1 <1>  -0.6800 
 14 C       -4.5150    -3.2340    -0.5640 C.3   1 <1>   0.0200 
 15 C       -0.3800     5.8330    -0.7930 C.ar  1 <1>  -0.1500 
 16 C       -1.8510     5.5450     1.5580 C.ar  1 <1>  -0.1500 
 17 C       -3.5390    -4.3070    -0.1100 C.2   1 <1>  -0.0400 
 18 C       -0.5580     6.9130     0.0580 C.ar  1 <1>  -0.1500 
 19 C       -1.2900     6.7690     1.2290 C.ar  1 <1>  -0.1500 
 20 O       -3.6600    -5.5100    -0.6030 O.3   1 <1>  -0.0190 
 21 C       -2.5030    -4.3190     0.7450 C.2   1 <1>  -0.1500 
 22 N       -2.7610    -6.3240    -0.1300 N.2   1 <1>  -0.4100 
 23 C       -2.0490    -5.6340     0.6850 C.2   1 <1>   0.1080 
 24 C       -0.8800    -6.1940     1.4630 C.3   1 <1>  -0.0590 
 25 H       -2.9170     2.7540    -1.1240 H     1 <1>   0.0800 
 26 H       -4.5380     1.1610     0.2580 H     1 <1>   0.0800 
 27 H       -4.6350     1.0920    -1.5040 H     1 <1>   0.0800 
 28 H       -2.6700    -1.6570    -1.6790 H     1 <1>   0.0800 
 29 H       -1.9660    -1.6320    -0.0710 H     1 <1>   0.0800 
 30 H       -1.0450     3.4590    -2.2740 H     1 <1>   0.0800 
 31 H        0.0740     2.8600    -1.0540 H     1 <1>   0.0800 
 32 H       -1.5570     2.5280     1.5390 H     1 <1>   0.0800 
 33 H       -3.2050     3.0430     1.1770 H     1 <1>   0.0800 
 34 H       -5.5670    -0.9940    -1.4890 H     1 <1>   0.0800 
 35 H       -4.0420    -1.8140     0.9810 H     1 <1>   0.0800 
 36 H       -5.8190    -0.5390     1.2950 H     1 <1>   0.4000 
 37 H       -4.5680    -3.2520    -1.6380 H     1 <1>   0.0800 
 38 H       -5.4910    -3.4840    -0.1850 H     1 <1>   0.0800 
 39 H        0.1880     5.9390    -1.7000 H     1 <1>   0.1500 
 40 H       -2.4180     5.4300     2.4640 H     1 <1>   0.1500 
 41 H       -0.1240     7.8650    -0.1890 H     1 <1>   0.1500 
 42 H       -1.4220     7.6120     1.8840 H     1 <1>   0.1500 
 43 H       -2.0890    -3.5360     1.3520 H     1 <1>   0.1500 
 44 H       -0.4320    -5.4320     2.0730 H     1 <1>   0.0800 
 45 H       -0.1440    -6.5760     0.7800 H     1 <1>   0.0800 
 46 H       -1.2190    -6.9960     2.0930 H     1 <1>   0.0800 
@<TRIPOS>BOND
  1   1   2  2   
  2   2   3  am  
  3   2   4  1   
  4   3   5  1   
  5   3   6  1   
  6   4   7  1   
  7   4   8  1   
  8   4  25  1   
  9   5   9  1   
 10   5  26  1   
 11   5  27  1   
 12   6  10  1   
 13   6  28  1   
 14   6  29  1   
 15   7  11  1   
 16   7  30  1   
 17   7  31  1   
 18   8  12  1   
 19   8  32  1   
 20   8  33  1   
 21   9  10  1   
 22   9  13  1   
 23   9  34  1   
 24  10  14  1   
 25  10  35  1   
 26  11  12  ar  
 27  11  15  ar  
 28  12  16  ar  
 29  13  36  1   
 30  14  17  1   
 31  14  37  1   
 32  14  38  1   
 33  15  18  ar  
 34  15  39  1   
 35  16  19  ar  
 36  16  40  1   
 37  17  20  1   
 38  17  21  2   
 39  18  19  ar  
 40  18  41  1   
 41  19  42  1   
 42  20  22  1   
 43  21  23  1   
 44  21  43  1   
 45  22  23  2   
 46  23  24  1   
 47  24  44  1   
 48  24  45  1   
 49  24  46  1   
@<TRIPOS>SUBSTRUCTURE
  1 ****   3 GROUP 4 **** **** 0

# MOE 2024.06 (io_trps.svl 2023.06)
