@<TRIPOS>MOLECULE
NONAME
45 48 1 0 0 
SMALL
USER_CHARGES


@<TRIPOS>ATOM
  1 S        0.0310    -0.6080     0.8590 S.3   1 <1>  -0.4600 
  2 C       -0.5820    -1.9280    -0.2290 C.3   1 <1>   0.0700 
  3 C       -1.3740    -0.3550     1.9870 C.3   1 <1>   0.0700 
  4 C       -1.9450    -1.5180    -0.7970 C.3   1 <1>   0.1400 
  5 C       -2.6490    -0.1360     1.1660 C.3   1 <1>   0.1400 
  6 N       -2.9340    -1.3280     0.3080 N.am  1 <1>  -0.6600 
  7 C       -3.8820    -2.2550     0.6800 C.2   1 <1>   0.5690 
  8 O       -4.5040    -2.1160     1.7110 O.2   1 <1>  -0.5700 
  9 C       -4.1800    -3.4860    -0.1990 C.3   1 <1>   0.2610 
 10 O       -3.0700    -4.3640    -0.2230 O.3   1 <1>  -0.5600 
 11 C       -5.4710    -4.2200     0.2500 C.3   1 <1>   0.3640 
 12 C       -3.2100    -5.4410    -1.1170 C.3   1 <1>   0.1810 
 13 N       -5.5400    -5.6410    -0.2210 N.am  1 <1>  -0.5090 
 14 C       -6.6940    -3.4510    -0.2530 C.ar  1 <1>  -0.1440 
 15 C       -4.5160    -6.2130    -0.9290 C.2   1 <1>   0.5690 
 16 C       -6.7810    -6.3790     0.1240 C.3   1 <1>   0.0490 
 17 C       -7.4120    -2.6460     0.6210 C.ar  1 <1>   0.1600 
 18 C       -7.1110    -3.5300    -1.5710 C.ar  1 <1>  -0.1500 
 19 O       -4.5990    -7.3020    -1.4480 O.2   1 <1>  -0.5700 
 20 C       -7.1600    -6.5180     1.5660 C.3   1 <1>  -0.2000 
 21 C       -6.6850    -7.7100     0.8000 C.3   1 <1>  -0.2000 
 22 N       -8.4820    -1.9380     0.2950 N.ar  1 <1>  -0.6200 
 23 C       -8.2230    -2.7980    -1.9250 C.ar  1 <1>  -0.1500 
 24 C       -8.8620    -2.0300    -0.9680 C.ar  1 <1>   0.1600 
 25 H        0.1460    -2.0580    -1.0100 H     1 <1>   0.0800 
 26 H       -0.6580    -2.8290     0.3550 H     1 <1>   0.0800 
 27 H       -1.4590    -1.2280     2.6090 H     1 <1>   0.0800 
 28 H       -1.1460     0.5040     2.5910 H     1 <1>   0.0800 
 29 H       -2.2780    -2.2680    -1.4890 H     1 <1>   0.0800 
 30 H       -1.8400    -0.5960    -1.3430 H     1 <1>   0.0800 
 31 H       -2.5320     0.7340     0.5440 H     1 <1>   0.0800 
 32 H       -3.4720     0.0500     1.8340 H     1 <1>   0.0800 
 33 H       -4.3270    -3.1300    -1.2020 H     1 <1>   0.0800 
 34 H       -5.4920    -4.2500     1.3250 H     1 <1>   0.0800 
 35 H       -3.1580    -5.0630    -2.1210 H     1 <1>   0.0800 
 36 H       -2.3820    -6.1080    -0.9550 H     1 <1>   0.0800 
 37 H       -7.5640    -6.2370    -0.6040 H     1 <1>   0.1000 
 38 H       -7.0900    -2.5730     1.6470 H     1 <1>   0.1500 
 39 H       -6.6010    -4.1420    -2.2950 H     1 <1>   0.1500 
 40 H       -6.5150    -6.1320     2.3360 H     1 <1>   0.1000 
 41 H       -8.2010    -6.4670     1.8330 H     1 <1>   0.1000 
 42 H       -7.3980    -8.4700     0.5350 H     1 <1>   0.1000 
 43 H       -5.7080    -8.1140     1.0020 H     1 <1>   0.1000 
 44 H       -8.5970    -2.8210    -2.9330 H     1 <1>   0.1500 
 45 H       -9.7320    -1.4630    -1.2550 H     1 <1>   0.1500 
@<TRIPOS>BOND
  1   1   2  1   
  2   1   3  1   
  3   2   4  1   
  4   2  25  1   
  5   2  26  1   
  6   3   5  1   
  7   3  27  1   
  8   3  28  1   
  9   4   6  1   
 10   4  29  1   
 11   4  30  1   
 12   5   6  1   
 13   5  31  1   
 14   5  32  1   
 15   6   7  am  
 16   7   8  2   
 17   7   9  1   
 18   9  10  1   
 19   9  11  1   
 20   9  33  1   
 21  10  12  1   
 22  11  13  1   
 23  11  14  1   
 24  11  34  1   
 25  12  15  1   
 26  12  35  1   
 27  12  36  1   
 28  13  15  am  
 29  13  16  1   
 30  14  17  ar  
 31  14  18  ar  
 32  15  19  2   
 33  16  20  1   
 34  16  21  1   
 35  16  37  1   
 36  17  22  ar  
 37  17  38  1   
 38  18  23  ar  
 39  18  39  1   
 40  20  21  1   
 41  20  40  1   
 42  20  41  1   
 43  21  42  1   
 44  21  43  1   
 45  22  24  ar  
 46  23  24  ar  
 47  23  44  1   
 48  24  45  1   
@<TRIPOS>SUBSTRUCTURE
  1 ****   9 GROUP 4 **** **** 0

# MOE 2024.06 (io_trps.svl 2023.06)
