@<TRIPOS>MOLECULE
NONAME
48 51 1 0 0 
SMALL
USER_CHARGES


@<TRIPOS>ATOM
  1 S       -0.0040    -0.5580     0.6300 S.3   1 <1>  -0.0800 
  2 C       -1.4350    -1.1100    -0.1820 C.2   1 <1>   0.4420 
  3 C       -0.4300     1.0430     0.1340 C.2   1 <1>   0.1980 
  4 N       -2.0770    -0.1420    -0.7310 N.2   1 <1>  -0.3380 
  5 N       -1.6820    -2.4650    -0.1490 N.am  1 <1>  -0.4940 
  6 N       -1.5000     1.0810    -0.5460 N.2   1 <1>  -0.3380 
  7 C        0.4630     2.1950     0.5360 C.3   1 <1>   0.0200 
  8 C       -2.7880    -3.1620    -0.5690 C.2   1 <1>   0.5440 
  9 C       -0.1600     3.5030     0.0310 C.3   1 <1>   0.3430 
 10 O       -3.8070    -2.5710    -0.8550 O.2   1 <1>  -0.5700 
 11 C       -2.7390    -4.6100    -0.6220 C.ar  1 <1>   0.0860 
 12 N        0.6170     4.7220     0.4370 N.4   1 <1>  -0.9590 
 13 C       -1.5720    -5.3050    -0.9430 C.ar  1 <1>  -0.1500 
 14 C       -3.8710    -5.3760    -0.3470 C.ar  1 <1>  -0.1500 
 15 C       -0.1930     5.9470     0.1480 C.3   1 <1>   0.2630 
 16 C        1.9440     4.8140    -0.2530 C.3   1 <1>   0.2630 
 17 C       -1.5380    -6.6860    -0.9650 C.ar  1 <1>  -0.1500 
 18 C       -3.8370    -6.7560    -0.3710 C.ar  1 <1>  -0.1500 
 19 C       -2.6670    -7.4540    -0.6760 C.ar  1 <1>   0.0540 
 20 C       -2.6200    -8.9050    -0.6960 C.2   1 <1>   0.4620 
 21 N       -1.5830    -9.6170    -0.9670 N.2   1 <1>  -0.4100 
 22 N       -3.6850    -9.6650    -0.4240 N.2   1 <1>  -0.5650 
 23 O       -1.9250   -10.8630    -0.8840 O.3   1 <1>  -0.0190 
 24 C       -3.1900   -10.8260    -0.5560 C.2   1 <1>   0.3930 
 25 C       -3.9270   -12.1430    -0.3720 C.3   1 <1>  -0.0150 
 26 C       -5.1000   -12.2670     0.5540 C.3   1 <1>  -0.2000 
 27 C       -3.7940   -12.9150     0.9060 C.3   1 <1>  -0.2000 
 28 H       -0.9570    -3.0270     0.2870 H     1 <1>   0.3700 
 29 H        1.4330     2.0420     0.1010 H     1 <1>   0.0800 
 30 H        0.5440     2.2120     1.6080 H     1 <1>   0.0800 
 31 H       -1.1620     3.5690     0.4280 H     1 <1>   0.0800 
 32 H       -0.2440     3.4610    -1.0430 H     1 <1>   0.0800 
 33 H        0.7740     4.6870     1.4570 H     1 <1>   0.4500 
 34 H       -0.6770    -4.7630    -1.1920 H     1 <1>   0.1500 
 35 H       -4.7940    -4.8710    -0.1120 H     1 <1>   0.1500 
 36 H       -0.3890     6.0270    -0.9100 H     1 <1>   0.0800 
 37 H        0.3360     6.8310     0.4670 H     1 <1>   0.0800 
 38 H       -1.1360     5.9060     0.6690 H     1 <1>   0.0800 
 39 H        1.8100     4.8380    -1.3230 H     1 <1>   0.0800 
 40 H        2.5620     3.9670    -0.0020 H     1 <1>   0.0800 
 41 H        2.4610     5.7110     0.0480 H     1 <1>   0.0800 
 42 H       -0.6170    -7.1850    -1.2170 H     1 <1>   0.1500 
 43 H       -4.7360    -7.3060    -0.1500 H     1 <1>   0.1500 
 44 H       -3.9660   -12.7060    -1.2880 H     1 <1>   0.1000 
 45 H       -5.9280   -12.8870     0.2550 H     1 <1>   0.1000 
 46 H       -5.4140   -11.3980     1.1070 H     1 <1>   0.1000 
 47 H       -3.2130   -12.4940     1.7080 H     1 <1>   0.1000 
 48 H       -3.7150   -13.9870     0.8550 H     1 <1>   0.1000 
@<TRIPOS>BOND
  1   1   2  1   
  2   1   3  1   
  3   2   4  2   
  4   2   5  1   
  5   3   6  2   
  6   3   7  1   
  7   4   6  1   
  8   5   8  am  
  9   5  28  1   
 10   7   9  1   
 11   7  29  1   
 12   7  30  1   
 13   8  10  2   
 14   8  11  1   
 15   9  12  1   
 16   9  31  1   
 17   9  32  1   
 18  11  13  ar  
 19  11  14  ar  
 20  12  15  1   
 21  12  16  1   
 22  12  33  1   
 23  13  17  ar  
 24  13  34  1   
 25  14  18  ar  
 26  14  35  1   
 27  15  36  1   
 28  15  37  1   
 29  15  38  1   
 30  16  39  1   
 31  16  40  1   
 32  16  41  1   
 33  17  19  ar  
 34  17  42  1   
 35  18  19  ar  
 36  18  43  1   
 37  19  20  1   
 38  20  21  2   
 39  20  22  1   
 40  21  23  1   
 41  22  24  2   
 42  23  24  1   
 43  24  25  1   
 44  25  26  1   
 45  25  27  1   
 46  25  44  1   
 47  26  27  1   
 48  26  45  1   
 49  26  46  1   
 50  27  47  1   
 51  27  48  1   
@<TRIPOS>SUBSTRUCTURE
  1 ****  11 GROUP 4 **** **** 0

# MOE 2024.06 (io_trps.svl 2023.06)
