@<TRIPOS>MOLECULE
NONAME
58 61 1 0 0 
SMALL
USER_CHARGES


@<TRIPOS>ATOM
  1 O       -1.4610     0.0860    -1.8590 O.2   1 <1>  -0.5700 
  2 C       -1.3750     0.0310    -0.6560 C.2   1 <1>   0.5690 
  3 N       -1.4580    -1.1550    -0.0030 N.am  1 <1>  -0.7300 
  4 C       -1.2170     1.3050     0.1750 C.3   1 <1>  -0.0190 
  5 C       -1.7400    -2.4600    -0.6460 C.3   1 <1>   0.2200 
  6 C       -2.5170     1.6140     0.9460 C.3   1 <1>  -0.1600 
  7 C       -0.8030     2.5260    -0.6750 C.3   1 <1>  -0.1600 
  8 C       -3.2110    -2.8420    -0.5040 C.3   1 <1>  -0.0800 
  9 C       -1.0890    -3.5570     0.1840 C.3   1 <1>   0.1200 
 10 C       -2.4120     2.9100     1.7530 C.3   1 <1>   0.1400 
 11 C       -0.7270     3.8070     0.1590 C.3   1 <1>   0.1400 
 12 C       -3.2640    -3.4640     0.8990 C.3   1 <1>   0.1200 
 13 C       -4.2170    -1.6920    -0.7270 C.3   1 <1>  -0.0170 
 14 O       -1.9430    -3.7330     1.2730 O.3   1 <1>  -0.5600 
 15 N       -2.0340     4.0200     0.8390 N.am  1 <1>  -0.6600 
 16 C       -5.7050    -2.0500    -0.6400 C.ar  1 <1>  -0.1440 
 17 C       -2.8890     5.0720     0.6130 C.2   1 <1>   0.5690 
 18 C       -6.6690    -1.0140    -0.5470 C.ar  1 <1>   0.0000 
 19 C       -6.1750    -3.3340    -0.6490 C.ar  1 <1>  -0.1500 
 20 O       -3.9630     5.1410     1.1650 O.2   1 <1>  -0.5700 
 21 C       -2.4970     6.1840    -0.3600 C.3   1 <1>  -0.0990 
 22 C       -8.0310    -1.3820    -0.4200 C.ar  1 <1>   0.3100 
 23 C       -6.3620     0.3680    -0.5780 C.ar  1 <1>  -0.1500 
 24 C       -7.5470    -3.5880    -0.5370 C.ar  1 <1>   0.1600 
 25 C       -3.5350     7.3110    -0.5140 C.3   1 <1>  -0.2400 
 26 N       -8.4520    -2.6710    -0.4180 N.ar  1 <1>  -0.6200 
 27 C       -9.0010    -0.3750    -0.2920 C.ar  1 <1>  -0.1500 
 28 C       -7.3310     1.3250    -0.4540 C.ar  1 <1>  -0.1500 
 29 C       -8.6690     0.9520    -0.3040 C.ar  1 <1>  -0.1500 
 30 H       -1.4250    -1.2000     1.0180 H     1 <1>   0.3700 
 31 H       -0.4350     1.1240     0.8900 H     1 <1>   0.0800 
 32 H       -1.4040    -2.4610    -1.6700 H     1 <1>   0.0800 
 33 H       -2.7510     0.8060     1.6160 H     1 <1>   0.0800 
 34 H       -3.3330     1.7120     0.2520 H     1 <1>   0.0800 
 35 H       -1.5160     2.6770    -1.4680 H     1 <1>   0.0800 
 36 H        0.1530     2.3390    -1.1310 H     1 <1>   0.0800 
 37 H       -3.4080    -3.6170    -1.2240 H     1 <1>   0.0800 
 38 H       -0.1050    -3.2940     0.5290 H     1 <1>   0.0800 
 39 H       -1.0530    -4.4820    -0.3640 H     1 <1>   0.0800 
 40 H       -1.6630     2.8130     2.5200 H     1 <1>   0.0800 
 41 H       -3.3540     3.1120     2.2350 H     1 <1>   0.0800 
 42 H       -0.4720     4.6350    -0.4770 H     1 <1>   0.0800 
 43 H        0.0450     3.7140     0.9040 H     1 <1>   0.0800 
 44 H       -3.8200    -4.3850     0.9110 H     1 <1>   0.0800 
 45 H       -3.6760    -2.7820     1.6220 H     1 <1>   0.0800 
 46 H       -4.0290    -1.2500    -1.6900 H     1 <1>   0.0800 
 47 H       -4.0270    -0.9430     0.0180 H     1 <1>   0.0800 
 48 H       -5.5330    -4.1870    -0.7400 H     1 <1>   0.1500 
 49 H       -1.5750     6.6170    -0.0200 H     1 <1>   0.0800 
 50 H       -2.3310     5.7420    -1.3240 H     1 <1>   0.0800 
 51 H       -5.3450     0.6850    -0.7080 H     1 <1>   0.1500 
 52 H       -7.8700    -4.6150    -0.5460 H     1 <1>   0.1500 
 53 H       -3.7120     7.7840     0.4360 H     1 <1>   0.0800 
 54 H       -4.4670     6.9090    -0.8730 H     1 <1>   0.0800 
 55 H       -3.1850     8.0510    -1.2110 H     1 <1>   0.0800 
 56 H      -10.0230    -0.6860    -0.1840 H     1 <1>   0.1500 
 57 H       -7.0780     2.3720    -0.4710 H     1 <1>   0.1500 
 58 H       -9.4220     1.7150    -0.2040 H     1 <1>   0.1500 
@<TRIPOS>BOND
  1   1   2  2   
  2   2   3  am  
  3   2   4  1   
  4   3   5  1   
  5   3  30  1   
  6   4   6  1   
  7   4   7  1   
  8   4  31  1   
  9   5   8  1   
 10   5   9  1   
 11   5  32  1   
 12   6  10  1   
 13   6  33  1   
 14   6  34  1   
 15   7  11  1   
 16   7  35  1   
 17   7  36  1   
 18   8  12  1   
 19   8  13  1   
 20   8  37  1   
 21   9  14  1   
 22   9  38  1   
 23   9  39  1   
 24  10  15  1   
 25  10  40  1   
 26  10  41  1   
 27  11  15  1   
 28  11  42  1   
 29  11  43  1   
 30  12  14  1   
 31  12  44  1   
 32  12  45  1   
 33  13  16  1   
 34  13  46  1   
 35  13  47  1   
 36  15  17  am  
 37  16  18  ar  
 38  16  19  ar  
 39  17  20  2   
 40  17  21  1   
 41  18  22  ar  
 42  18  23  ar  
 43  19  24  ar  
 44  19  48  1   
 45  21  25  1   
 46  21  49  1   
 47  21  50  1   
 48  22  26  ar  
 49  22  27  ar  
 50  23  28  ar  
 51  23  51  1   
 52  24  26  ar  
 53  24  52  1   
 54  25  53  1   
 55  25  54  1   
 56  25  55  1   
 57  27  29  ar  
 58  27  56  1   
 59  28  29  ar  
 60  28  57  1   
 61  29  58  1   
@<TRIPOS>SUBSTRUCTURE
  1 ****  13 GROUP 4 **** **** 0

# MOE 2024.06 (io_trps.svl 2023.06)
