@<TRIPOS>MOLECULE
NONAME
46 48 1 0 0 
SMALL
USER_CHARGES


@<TRIPOS>ATOM
  1 F        0.1670     0.4850     0.0560 F     1 <1>  -0.3400 
  2 C       -0.1980     1.7520     0.2160 C.3   1 <1>   1.3000 
  3 F       -0.3770     1.9740     1.5130 F     1 <1>  -0.3400 
  4 F        0.8030     2.5170    -0.1920 F     1 <1>  -0.3400 
  5 O       -1.3670     2.0470    -0.5220 O.3   1 <1>  -0.3630 
  6 C       -2.4850     1.3530    -0.2230 C.ar  1 <1>   0.0830 
  7 C       -2.7590     0.1680    -0.8850 C.ar  1 <1>  -0.1500 
  8 C       -3.3640     1.8390     0.7310 C.ar  1 <1>  -0.1500 
  9 C       -3.9100    -0.5380    -0.5850 C.ar  1 <1>  -0.1500 
 10 C       -4.5160     1.1320     1.0300 C.ar  1 <1>  -0.1500 
 11 C       -4.7970    -0.0580     0.3700 C.ar  1 <1>  -0.1430 
 12 C       -6.0690    -0.8260     0.6850 C.3   1 <1>   0.4870 
 13 N       -7.2250    -0.0980     0.1020 N.4   1 <1>  -0.9590 
 14 C       -8.5310    -0.6730     0.5670 C.3   1 <1>   0.3430 
 15 C       -7.1600     0.0150    -1.3800 C.3   1 <1>   0.3430 
 16 C       -9.7590    -0.0620    -0.1620 C.3   1 <1>   0.0000 
 17 C       -8.1980     1.0350    -1.8660 C.3   1 <1>  -0.1600 
 18 C      -10.9140     0.1660     0.8260 C.3   1 <1>   0.2000 
 19 C       -9.3870     1.2400    -0.9060 C.3   1 <1>  -0.1600 
 20 C      -10.3620    -1.1120    -1.1090 C.3   1 <1>  -0.1600 
 21 O      -10.4510     0.6490     2.0380 O.3   1 <1>  -0.6800 
 22 C      -11.5880    -1.1920     1.0160 C.3   1 <1>  -0.1600 
 23 C      -11.2110    -2.0250    -0.2180 C.3   1 <1>  -0.1600 
 24 H       -2.0720    -0.2000    -1.6290 H     1 <1>   0.1500 
 25 H       -3.1460     2.7640     1.2360 H     1 <1>   0.1500 
 26 H       -4.1010    -1.4630    -1.1050 H     1 <1>   0.1500 
 27 H       -5.1810     1.5210     1.7820 H     1 <1>   0.1500 
 28 H       -6.1810    -0.9010     1.7540 H     1 <1>   0.0800 
 29 H       -6.0100    -1.8210     0.2760 H     1 <1>   0.0800 
 30 H       -7.1820     0.8640     0.4600 H     1 <1>   0.4500 
 31 H       -8.5360    -1.7390     0.4110 H     1 <1>   0.0800 
 32 H       -8.6190    -0.5090     1.6280 H     1 <1>   0.0800 
 33 H       -6.1780     0.3300    -1.6960 H     1 <1>   0.0800 
 34 H       -7.3660    -0.9470    -1.8210 H     1 <1>   0.0800 
 35 H       -7.7120     1.9820    -2.0310 H     1 <1>   0.0800 
 36 H       -8.5630     0.7050    -2.8240 H     1 <1>   0.0800 
 37 H      -11.6200     0.8730     0.4210 H     1 <1>   0.0800 
 38 H      -10.2320     1.6240    -1.4520 H     1 <1>   0.0800 
 39 H       -9.1220     1.9860    -0.1750 H     1 <1>   0.0800 
 40 H      -11.0140    -0.6280    -1.8180 H     1 <1>   0.0800 
 41 H       -9.6210    -1.6680    -1.6570 H     1 <1>   0.0800 
 42 H      -11.2070     0.8360     2.6330 H     1 <1>   0.4000 
 43 H      -11.2330    -1.6840     1.9060 H     1 <1>   0.0800 
 44 H      -12.6560    -1.0720     1.0780 H     1 <1>   0.0800 
 45 H      -10.6420    -2.8870     0.0860 H     1 <1>   0.0800 
 46 H      -12.0880    -2.3660    -0.7430 H     1 <1>   0.0800 
@<TRIPOS>BOND
  1   1   2  1   
  2   2   3  1   
  3   2   4  1   
  4   2   5  1   
  5   5   6  1   
  6   6   7  ar  
  7   6   8  ar  
  8   7   9  ar  
  9   7  24  1   
 10   8  10  ar  
 11   8  25  1   
 12   9  11  ar  
 13   9  26  1   
 14  10  11  ar  
 15  10  27  1   
 16  11  12  1   
 17  12  13  1   
 18  12  28  1   
 19  12  29  1   
 20  13  14  1   
 21  13  15  1   
 22  13  30  1   
 23  14  16  1   
 24  14  31  1   
 25  14  32  1   
 26  15  17  1   
 27  15  33  1   
 28  15  34  1   
 29  16  18  1   
 30  16  19  1   
 31  16  20  1   
 32  17  19  1   
 33  17  35  1   
 34  17  36  1   
 35  18  21  1   
 36  18  22  1   
 37  18  37  1   
 38  19  38  1   
 39  19  39  1   
 40  20  23  1   
 41  20  40  1   
 42  20  41  1   
 43  21  42  1   
 44  22  23  1   
 45  22  43  1   
 46  22  44  1   
 47  23  45  1   
 48  23  46  1   
@<TRIPOS>SUBSTRUCTURE
  1 ****  11 GROUP 4 **** **** 0

# MOE 2024.06 (io_trps.svl 2023.06)
