@<TRIPOS>MOLECULE
NONAME
41 43 1 0 0 
SMALL
USER_CHARGES


@<TRIPOS>ATOM
  1 O       -1.8230     0.8930     2.3960 O.2   1 <1>  -0.5700 
  2 C       -2.2730     1.2640     1.3370 C.2   1 <1>   0.5690 
  3 N       -2.8110     0.3860     0.4330 N.am  1 <1>  -0.6600 
  4 C       -2.1410     2.7360     1.0280 C.3   1 <1>   0.1570 
  5 C       -2.5230    -1.0810     0.6170 C.3   1 <1>   0.3640 
  6 C       -3.6040     0.8140    -0.7680 C.3   1 <1>   0.1400 
  7 N       -1.0800     2.8910     0.0300 N.pl3 1 <1>   0.3140 
  8 C       -1.0320    -1.3200     0.3500 C.ar  1 <1>  -0.1440 
  9 C       -3.3790    -2.0600    -0.2420 C.3   1 <1>   0.2000 
 10 C       -3.9780    -0.3410    -1.7040 C.3   1 <1>   0.1200 
 11 N       -1.2730     3.4650    -1.1460 N.2   1 <1>  -0.4180 
 12 C        0.1640     2.4100     0.0490 C.2   1 <1>   0.2700 
 13 C       -0.4070    -0.8360    -0.7930 C.ar  1 <1>  -0.1500 
 14 C       -0.2780    -2.0260     1.2760 C.ar  1 <1>  -0.1500 
 15 O       -4.4100    -1.4260    -0.9520 O.3   1 <1>  -0.5600 
 16 C       -4.0330    -3.1560     0.6110 C.3   1 <1>   0.1200 
 17 N       -0.1740     3.3310    -1.7910 N.2   1 <1>   0.0000 
 18 N        0.7340     2.6750    -1.0680 N.2   1 <1>  -0.3380 
 19 N        0.7720     1.7000     1.0730 N.pl3 1 <1>  -0.8840 
 20 C        0.9440    -1.0540    -1.0040 C.ar  1 <1>  -0.1500 
 21 C        1.0720    -2.2460     1.0670 C.ar  1 <1>  -0.1500 
 22 O       -3.0680    -3.8930     1.2920 O.3   1 <1>  -0.6800 
 23 C        1.6850    -1.7600    -0.0740 C.ar  1 <1>  -0.1500 
 24 H       -1.8610     3.2730     1.9140 H     1 <1>   0.0800 
 25 H       -3.0620     3.1310     0.6460 H     1 <1>   0.0800 
 26 H       -2.7100    -1.3130     1.6520 H     1 <1>   0.0800 
 27 H       -4.5150     1.2780    -0.4300 H     1 <1>   0.0800 
 28 H       -3.0550     1.5400    -1.3380 H     1 <1>   0.0800 
 29 H       -2.7500    -2.5360    -0.9720 H     1 <1>   0.0800 
 30 H       -3.1410    -0.6410    -2.3120 H     1 <1>   0.0800 
 31 H       -4.7830    -0.0450    -2.3530 H     1 <1>   0.0800 
 32 H       -0.9580    -0.2750    -1.5250 H     1 <1>   0.1500 
 33 H       -0.7410    -2.4070     2.1720 H     1 <1>   0.1500 
 34 H       -4.5950    -3.8320    -0.0100 H     1 <1>   0.0800 
 35 H       -4.6860    -2.7150     1.3430 H     1 <1>   0.0800 
 36 H        0.1560     1.1120     1.6570 H     1 <1>   0.4000 
 37 H        1.5730     1.1470     0.7540 H     1 <1>   0.4000 
 38 H        1.4160    -0.6660    -1.8900 H     1 <1>   0.1500 
 39 H        1.6450    -2.7950     1.7930 H     1 <1>   0.1500 
 40 H       -2.5300    -4.4270     0.6730 H     1 <1>   0.4000 
 41 H        2.7350    -1.9300    -0.2380 H     1 <1>   0.1500 
@<TRIPOS>BOND
  1   1   2  2   
  2   2   3  am  
  3   2   4  1   
  4   3   5  1   
  5   3   6  1   
  6   4   7  1   
  7   4  24  1   
  8   4  25  1   
  9   5   8  1   
 10   5   9  1   
 11   5  26  1   
 12   6  10  1   
 13   6  27  1   
 14   6  28  1   
 15   7  11  1   
 16   7  12  1   
 17   8  13  ar  
 18   8  14  ar  
 19   9  15  1   
 20   9  16  1   
 21   9  29  1   
 22  10  15  1   
 23  10  30  1   
 24  10  31  1   
 25  11  17  2   
 26  12  18  2   
 27  12  19  1   
 28  13  20  ar  
 29  13  32  1   
 30  14  21  ar  
 31  14  33  1   
 32  16  22  1   
 33  16  34  1   
 34  16  35  1   
 35  17  18  1   
 36  19  36  1   
 37  19  37  1   
 38  20  23  ar  
 39  20  38  1   
 40  21  23  ar  
 41  21  39  1   
 42  22  40  1   
 43  23  41  1   
@<TRIPOS>SUBSTRUCTURE
  1 ****   3 GROUP 4 **** **** 0

# MOE 2024.06 (io_trps.svl 2023.06)
