@<TRIPOS>MOLECULE
NONAME
50 53 1 0 0 
SMALL
USER_CHARGES


@<TRIPOS>ATOM
  1 O        0.5430    -0.1280     1.3280 O.2   1 <1>  -0.5700 
  2 C        1.3100    -0.9980     0.9850 C.2   1 <1>   0.9370 
  3 N        2.6310    -0.6980     0.5570 N.pl3 1 <1>  -0.5760 
  4 C        0.8580    -2.3360     1.0070 C.2   1 <1>  -0.1360 
  5 C        3.4010    -1.7500     0.1440 C.cat 1 <1>   0.7390 
  6 C        3.1920     0.5770     0.5260 C.2   1 <1>   0.2030 
  7 C        1.6510    -3.3400     0.5990 C.2   1 <1>   0.2030 
  8 N        2.9140    -3.0110     0.1710 N.pl3 1 <1>  -0.6450 
  9 C        4.7090    -1.5470    -0.3130 C.2   1 <1>  -0.1800 
 10 C        4.4730     0.7680     0.0790 C.2   1 <1>  -0.1500 
 11 C        2.4390     1.8260     0.9800 C.3   1 <1>  -0.1020 
 12 C        1.2540    -4.8160     0.5850 C.3   1 <1>   0.2480 
 13 C        5.2580    -0.3000    -0.3530 C.2   1 <1>  -0.1500 
 14 N       -0.2070    -5.0170     0.6650 N.3   1 <1>  -0.8100 
 15 C       -0.9000    -4.7150    -0.6170 C.3   1 <1>   0.1100 
 16 C       -0.4960    -6.4310     0.9750 C.3   1 <1>   0.1100 
 17 C       -1.7000    -5.9630    -1.0090 C.3   1 <1>   0.2000 
 18 C       -0.9390    -7.0950    -0.3330 C.3   1 <1>  -0.0800 
 19 O       -2.9590    -5.8770    -0.4400 O.3   1 <1>  -0.6800 
 20 C        0.2290    -7.5720    -1.2270 C.3   1 <1>   0.0210 
 21 C        1.3150    -8.3040    -0.4600 C.2   1 <1>   0.1080 
 22 N        2.4360    -7.7470    -0.1040 N.2   1 <1>  -0.7070 
 23 C        1.2310    -9.6310    -0.0560 C.2   1 <1>  -0.1500 
 24 N        3.1070    -8.7300     0.5340 N.pl3 1 <1>   0.3000 
 25 C        2.3950    -9.8740     0.5800 C.2   1 <1>  -0.3320 
 26 C        2.8800   -11.1550     1.2360 C.3   1 <1>  -0.0600 
 27 H       -0.1420    -2.4980     1.3650 H     1 <1>   0.1500 
 28 H        3.5330    -3.7660    -0.1440 H     1 <1>   0.4500 
 29 H        5.2880    -2.3930    -0.6370 H     1 <1>   0.1500 
 30 H        4.9110     1.7520     0.0510 H     1 <1>   0.1500 
 31 H        2.1400     1.7320     2.0090 H     1 <1>   0.0800 
 32 H        1.5670     1.9830     0.3700 H     1 <1>   0.0800 
 33 H        3.0520     2.7050     0.9010 H     1 <1>   0.0800 
 34 H        1.7280    -5.2920     1.4270 H     1 <1>   0.0800 
 35 H        1.6350    -5.2790    -0.3070 H     1 <1>   0.0800 
 36 H        6.2640    -0.1240    -0.7020 H     1 <1>   0.1500 
 37 H       -1.5490    -3.8620    -0.5130 H     1 <1>   0.0800 
 38 H       -0.1850    -4.5070    -1.3930 H     1 <1>   0.0800 
 39 H        0.3310    -6.9370     1.4450 H     1 <1>   0.0800 
 40 H       -1.3180    -6.4590     1.6700 H     1 <1>   0.0800 
 41 H       -1.8180    -6.0840    -2.0730 H     1 <1>   0.0800 
 42 H       -1.5780    -7.9360    -0.1280 H     1 <1>   0.0800 
 43 H       -2.8650    -5.6200     0.4980 H     1 <1>   0.4000 
 44 H        0.6880    -6.7440    -1.7330 H     1 <1>   0.0800 
 45 H       -0.1560    -8.2270    -1.9870 H     1 <1>   0.0800 
 46 H        0.4050   -10.2970    -0.2300 H     1 <1>   0.1500 
 47 H        4.0490    -8.6000     0.9230 H     1 <1>   0.2700 
 48 H        2.1360   -11.9260     1.1370 H     1 <1>   0.0800 
 49 H        3.0660   -10.9910     2.2820 H     1 <1>   0.0800 
 50 H        3.7870   -11.4930     0.7670 H     1 <1>   0.0800 
@<TRIPOS>BOND
  1   1   2  2   
  2   2   3  1   
  3   2   4  1   
  4   3   5  ar  
  5   3   6  1   
  6   4   7  2   
  7   4  27  1   
  8   5   8  ar  
  9   5   9  1   
 10   6  10  2   
 11   6  11  1   
 12   7   8  1   
 13   7  12  1   
 14   8  28  1   
 15   9  13  2   
 16   9  29  1   
 17  10  13  1   
 18  10  30  1   
 19  11  31  1   
 20  11  32  1   
 21  11  33  1   
 22  12  14  1   
 23  12  34  1   
 24  12  35  1   
 25  13  36  1   
 26  14  15  1   
 27  14  16  1   
 28  15  17  1   
 29  15  37  1   
 30  15  38  1   
 31  16  18  1   
 32  16  39  1   
 33  16  40  1   
 34  17  18  1   
 35  17  19  1   
 36  17  41  1   
 37  18  20  1   
 38  18  42  1   
 39  19  43  1   
 40  20  21  1   
 41  20  44  1   
 42  20  45  1   
 43  21  22  2   
 44  21  23  1   
 45  22  24  1   
 46  23  25  2   
 47  23  46  1   
 48  24  25  1   
 49  24  47  1   
 50  25  26  1   
 51  26  48  1   
 52  26  49  1   
 53  26  50  1   
@<TRIPOS>SUBSTRUCTURE
  1 ****  12 GROUP 4 **** **** 0

# MOE 2024.06 (io_trps.svl 2023.06)
