@<TRIPOS>MOLECULE
NONAME
49 50 1 0 0 
SMALL
USER_CHARGES


@<TRIPOS>ATOM
  1 O       -0.1620     1.2540     1.0370 O.2   1 <1>  -0.5700 
  2 C       -0.1750     2.4230     0.7470 C.2   1 <1>   0.5690 
  3 N       -1.1320     3.2450     1.2310 N.am  1 <1>  -0.7300 
  4 C        0.8790     2.9920    -0.2060 C.3   1 <1>   0.1810 
  5 C       -1.2450     4.6810     0.8760 C.3   1 <1>   0.3640 
  6 O        0.9810     4.3970    -0.1220 O.3   1 <1>  -0.5600 
  7 C       -2.6930     4.9650     0.4920 C.ar  1 <1>  -0.1440 
  8 C       -0.2600     5.0860    -0.2510 C.3   1 <1>   0.2610 
  9 C       -3.3320     6.0830     1.0070 C.ar  1 <1>  -0.1500 
 10 C       -3.3940     4.1330    -0.3710 C.ar  1 <1>  -0.1500 
 11 C       -0.0360     6.6000    -0.2150 C.2   1 <1>   0.5690 
 12 C       -4.6410     6.3720     0.6660 C.ar  1 <1>   0.0830 
 13 C       -4.7090     4.4080    -0.7100 C.ar  1 <1>  -0.1500 
 14 O       -0.8850     7.3390    -0.6530 O.2   1 <1>  -0.5700 
 15 N        1.1190     7.0800     0.3190 N.am  1 <1>  -0.7300 
 16 O       -5.1910     7.4870     1.2040 O.3   1 <1>  -0.3630 
 17 C       -5.3520     5.5280    -0.1920 C.ar  1 <1>   0.0830 
 18 C        1.5200     8.4980     0.3860 C.3   1 <1>   0.1400 
 19 C       -5.3980     8.5620     0.3160 C.3   1 <1>   0.0400 
 20 O       -6.6500     5.8330    -0.4830 O.3   1 <1>  -0.3630 
 21 C        2.8990     8.6520    -0.2480 C.3   1 <1>  -0.1600 
 22 C       -7.4620     4.9600    -1.2360 C.3   1 <1>   0.0400 
 23 C        3.3360    10.1140    -0.2450 C.3   1 <1>   0.1200 
 24 O        4.6120    10.1710    -0.7860 O.3   1 <1>  -0.5600 
 25 C        5.1350    11.4570    -0.8710 C.3   1 <1>   0.0400 
 26 H       -1.8530     2.8580     1.8420 H     1 <1>   0.3700 
 27 H        0.6320     2.7270    -1.2170 H     1 <1>   0.0800 
 28 H        1.8400     2.5780     0.0380 H     1 <1>   0.0800 
 29 H       -1.0010     5.2530     1.7550 H     1 <1>   0.0800 
 30 H       -0.6790     4.8340    -1.2080 H     1 <1>   0.0800 
 31 H       -2.8200     6.7560     1.6720 H     1 <1>   0.1500 
 32 H       -2.9220     3.2590    -0.7860 H     1 <1>   0.1500 
 33 H       -5.2130     3.7360    -1.3770 H     1 <1>   0.1500 
 34 H        1.8340     6.3900     0.5730 H     1 <1>   0.3700 
 35 H        0.8010     9.1060    -0.1390 H     1 <1>   0.0800 
 36 H        1.5460     8.8110     1.4160 H     1 <1>   0.0800 
 37 H       -5.7250     9.4120     0.8880 H     1 <1>   0.0800 
 38 H       -6.1520     8.2900    -0.4000 H     1 <1>   0.0800 
 39 H       -4.4700     8.7850    -0.1820 H     1 <1>   0.0800 
 40 H        2.8640     8.3050    -1.2660 H     1 <1>   0.0800 
 41 H        3.6170     8.0730     0.3040 H     1 <1>   0.0800 
 42 H       -8.4480     5.3860    -1.2900 H     1 <1>   0.0800 
 43 H       -7.5020     4.0070    -0.7410 H     1 <1>   0.0800 
 44 H       -7.0500     4.8670    -2.2250 H     1 <1>   0.0800 
 45 H        3.3710    10.5020     0.7600 H     1 <1>   0.0800 
 46 H        2.6750    10.7110    -0.8500 H     1 <1>   0.0800 
 47 H        6.1190    11.3890    -1.2980 H     1 <1>   0.0800 
 48 H        5.1960    11.8820     0.1160 H     1 <1>   0.0800 
 49 H        4.5040    12.0550    -1.5060 H     1 <1>   0.0800 
@<TRIPOS>BOND
  1   1   2  2   
  2   2   3  am  
  3   2   4  1   
  4   3   5  1   
  5   3  26  1   
  6   4   6  1   
  7   4  27  1   
  8   4  28  1   
  9   5   7  1   
 10   5   8  1   
 11   5  29  1   
 12   6   8  1   
 13   7   9  ar  
 14   7  10  ar  
 15   8  11  1   
 16   8  30  1   
 17   9  12  ar  
 18   9  31  1   
 19  10  13  ar  
 20  10  32  1   
 21  11  14  2   
 22  11  15  am  
 23  12  16  1   
 24  12  17  ar  
 25  13  17  ar  
 26  13  33  1   
 27  15  18  1   
 28  15  34  1   
 29  16  19  1   
 30  17  20  1   
 31  18  21  1   
 32  18  35  1   
 33  18  36  1   
 34  19  37  1   
 35  19  38  1   
 36  19  39  1   
 37  20  22  1   
 38  21  23  1   
 39  21  40  1   
 40  21  41  1   
 41  22  42  1   
 42  22  43  1   
 43  22  44  1   
 44  23  24  1   
 45  23  45  1   
 46  23  46  1   
 47  24  25  1   
 48  25  47  1   
 49  25  48  1   
 50  25  49  1   
@<TRIPOS>SUBSTRUCTURE
  1 ****  11 GROUP 4 **** **** 0

# MOE 2024.06 (io_trps.svl 2023.06)
