@<TRIPOS>MOLECULE
NONAME
47 48 1 0 0 
SMALL
USER_CHARGES


@<TRIPOS>ATOM
  1 S       -0.8390    -0.4110     1.1790 S.3   1 <1>  -0.0800 
  2 C       -0.2180     0.8450     0.1690 C.2   1 <1>   0.1980 
  3 C       -0.8420    -1.4180    -0.2280 C.2   1 <1>   0.1980 
  4 N       -0.0630     0.4830    -1.0410 N.2   1 <1>  -0.3380 
  5 C        0.0730     2.2030     0.7900 C.3   1 <1>   0.5230 
  6 N       -0.4180    -0.8160    -1.2650 N.2   1 <1>  -0.3380 
  7 C       -1.3230    -2.8450    -0.0880 C.3   1 <1>  -0.0600 
  8 N        0.8060     3.0860    -0.1760 N.4   1 <1>  -0.9590 
  9 C        2.2150     2.6080    -0.4110 C.3   1 <1>   0.3430 
 10 C        0.7820     4.5340     0.2200 C.3   1 <1>   0.3430 
 11 C        2.9600     3.5130    -1.4120 C.3   1 <1>   0.1100 
 12 C        1.5540     5.4090    -0.7870 C.3   1 <1>   0.1100 
 13 N        2.9410     4.9260    -0.9820 N.3   1 <1>  -0.8100 
 14 C        3.6630     5.7870    -1.9680 C.3   1 <1>   0.1710 
 15 C        3.7370     7.2690    -1.5840 C.2   1 <1>   0.5690 
 16 O        3.1640     8.0680    -2.2840 O.2   1 <1>  -0.5700 
 17 N        4.4110     7.6060    -0.4500 N.am  1 <1>  -0.7300 
 18 C        4.6330     8.9310     0.1340 C.3   1 <1>   0.3000 
 19 C        5.3930     9.8120    -0.8580 C.3   1 <1>  -0.2400 
 20 C        3.2920     9.5540     0.5200 C.3   1 <1>  -0.2400 
 21 C        5.4810     8.7170     1.3860 C.3   1 <1>  -0.2400 
 22 H        0.6580     2.0710     1.6850 H     1 <1>   0.0800 
 23 H       -0.8650     2.6580     1.0610 H     1 <1>   0.0800 
 24 H       -0.7090    -3.3730     0.6170 H     1 <1>   0.0800 
 25 H       -1.2680    -3.3430    -1.0400 H     1 <1>   0.0800 
 26 H       -2.3430    -2.8570     0.2510 H     1 <1>   0.0800 
 27 H        0.3210     2.9850    -1.0800 H     1 <1>   0.4500 
 28 H        2.2040     1.5990    -0.7930 H     1 <1>   0.0800 
 29 H        2.7610     2.6070     0.5170 H     1 <1>   0.0800 
 30 H        1.2380     4.6560     1.1890 H     1 <1>   0.0800 
 31 H       -0.2350     4.8860     0.2810 H     1 <1>   0.0800 
 32 H        2.5120     3.4150    -2.3870 H     1 <1>   0.0800 
 33 H        3.9820     3.1790    -1.4850 H     1 <1>   0.0800 
 34 H        1.5730     6.4180    -0.4090 H     1 <1>   0.0800 
 35 H        1.0320     5.4250    -1.7300 H     1 <1>   0.0800 
 36 H        3.1840     5.7180    -2.9300 H     1 <1>   0.0800 
 37 H        4.6720     5.4310    -2.0800 H     1 <1>   0.0800 
 38 H        4.7930     6.8470     0.1110 H     1 <1>   0.3700 
 39 H        4.7980    10.0000    -1.7330 H     1 <1>   0.0800 
 40 H        6.3120     9.3390    -1.1550 H     1 <1>   0.0800 
 41 H        5.6270    10.7590    -0.4080 H     1 <1>   0.0800 
 42 H        2.6940     9.7370    -0.3540 H     1 <1>   0.0800 
 43 H        3.4520    10.4970     1.0110 H     1 <1>   0.0800 
 44 H        2.7530     8.9090     1.1880 H     1 <1>   0.0800 
 45 H        6.4250     8.2700     1.1330 H     1 <1>   0.0800 
 46 H        4.9670     8.0900     2.0920 H     1 <1>   0.0800 
 47 H        5.6770     9.6620     1.8620 H     1 <1>   0.0800 
@<TRIPOS>BOND
  1   1   2  1   
  2   1   3  1   
  3   2   4  2   
  4   2   5  1   
  5   3   6  2   
  6   3   7  1   
  7   4   6  1   
  8   5   8  1   
  9   5  22  1   
 10   5  23  1   
 11   7  24  1   
 12   7  25  1   
 13   7  26  1   
 14   8   9  1   
 15   8  10  1   
 16   8  27  1   
 17   9  11  1   
 18   9  28  1   
 19   9  29  1   
 20  10  12  1   
 21  10  30  1   
 22  10  31  1   
 23  11  13  1   
 24  11  32  1   
 25  11  33  1   
 26  12  13  1   
 27  12  34  1   
 28  12  35  1   
 29  13  14  1   
 30  14  15  1   
 31  14  36  1   
 32  14  37  1   
 33  15  16  2   
 34  15  17  am  
 35  17  18  1   
 36  17  38  1   
 37  18  19  1   
 38  18  20  1   
 39  18  21  1   
 40  19  39  1   
 41  19  40  1   
 42  19  41  1   
 43  20  42  1   
 44  20  43  1   
 45  20  44  1   
 46  21  45  1   
 47  21  46  1   
 48  21  47  1   
@<TRIPOS>SUBSTRUCTURE
  1 ****  13 GROUP 4 **** **** 0

# MOE 2024.06 (io_trps.svl 2023.06)
