@<TRIPOS>MOLECULE
NONAME
47 51 1 0 0 
SMALL
USER_CHARGES


@<TRIPOS>ATOM
  1 O       -0.3440    -0.1960     0.2470 O.2   1 <1>  -0.5700 
  2 C       -1.3550    -0.8630     0.1380 C.2   1 <1>   0.5440 
  3 N       -1.3700    -2.1860     0.5540 N.am  1 <1>  -0.6600 
  4 C       -2.5680    -0.2500    -0.3960 C.ar  1 <1>   0.0860 
  5 C       -0.1830    -3.0590     0.9110 C.3   1 <1>   0.2200 
  6 C       -2.7160    -2.7290     0.9200 C.3   1 <1>   0.1400 
  7 C       -3.7400    -0.9980    -0.5710 C.ar  1 <1>  -0.1440 
  8 C       -2.6060     1.1020    -0.7390 C.ar  1 <1>  -0.1500 
  9 C        1.2150    -2.5880     0.4070 C.3   1 <1>  -0.0800 
 10 C       -0.4140    -4.5010     0.3790 C.3   1 <1>   0.0960 
 11 C       -3.6900    -2.4880    -0.2380 C.3   1 <1>   0.0640 
 12 C       -4.9070    -0.4070    -1.0410 C.ar  1 <1>  -0.1440 
 13 C       -3.7580     1.6920    -1.2210 C.ar  1 <1>  -0.1500 
 14 C        1.2460    -2.6360    -1.1400 C.3   1 <1>  -0.1600 
 15 C        2.2650    -3.6100     0.9020 C.3   1 <1>  -0.1600 
 16 N        0.7120    -4.9610    -0.4690 N.4   1 <1>  -0.0180 
 17 C       -5.0830    -3.0530     0.0710 C.3   1 <1>  -0.1600 
 18 C       -4.9060     0.9390    -1.3680 C.ar  1 <1>  -0.1500 
 19 C       -6.2140    -1.1810    -1.1870 C.3   1 <1>  -0.0170 
 20 C        0.8740    -4.0520    -1.6330 C.3   1 <1>   0.0960 
 21 C        1.9630    -5.0110     0.3260 C.3   1 <1>   0.0960 
 22 O        0.4310    -6.1960    -0.9100 O.2   1 <1>  -0.7500 
 23 C       -6.0430    -2.7000    -1.0690 C.3   1 <1>  -0.1600 
 24 H       -0.1470    -3.1050     1.9850 H     1 <1>   0.0800 
 25 H       -2.6790    -3.7780     1.1500 H     1 <1>   0.0800 
 26 H       -3.0690    -2.2120     1.7970 H     1 <1>   0.0800 
 27 H       -1.7180     1.6980    -0.6220 H     1 <1>   0.1500 
 28 H        1.4790    -1.6190     0.7910 H     1 <1>   0.0800 
 29 H       -1.3030    -4.5340    -0.2200 H     1 <1>   0.0800 
 30 H       -0.5110    -5.1840     1.2010 H     1 <1>   0.0800 
 31 H       -3.3080    -3.0060    -1.1020 H     1 <1>   0.0800 
 32 H       -3.7610     2.7370    -1.4790 H     1 <1>   0.1500 
 33 H        2.2260    -2.3780    -1.4990 H     1 <1>   0.0800 
 34 H        0.5590    -1.9240    -1.5600 H     1 <1>   0.0800 
 35 H        2.2630    -3.6560     1.9770 H     1 <1>   0.0800 
 36 H        3.2510    -3.3070     0.5970 H     1 <1>   0.0800 
 37 H       -5.0270    -4.1220     0.1780 H     1 <1>   0.0800 
 38 H       -5.4520    -2.6380     0.9930 H     1 <1>   0.0800 
 39 H       -5.8030     1.4090    -1.7340 H     1 <1>   0.1500 
 40 H       -6.8830    -0.8470    -0.4130 H     1 <1>   0.0800 
 41 H       -6.6690    -0.9490    -2.1350 H     1 <1>   0.0800 
 42 H        1.6440    -4.4430    -2.2720 H     1 <1>   0.0800 
 43 H       -0.0540    -4.0250    -2.1730 H     1 <1>   0.0800 
 44 H        1.8390    -5.7280     1.1170 H     1 <1>   0.0800 
 45 H        2.7610    -5.3320    -0.3180 H     1 <1>   0.0800 
 46 H       -7.0030    -3.1570    -0.8990 H     1 <1>   0.0800 
 47 H       -5.6530    -3.0850    -1.9960 H     1 <1>   0.0800 
@<TRIPOS>BOND
  1   1   2  2   
  2   2   3  am  
  3   2   4  1   
  4   3   5  1   
  5   3   6  1   
  6   4   7  ar  
  7   4   8  ar  
  8   5   9  1   
  9   5  10  1   
 10   5  24  1   
 11   6  11  1   
 12   6  25  1   
 13   6  26  1   
 14   7  11  1   
 15   7  12  ar  
 16   8  13  ar  
 17   8  27  1   
 18   9  14  1   
 19   9  15  1   
 20   9  28  1   
 21  10  16  1   
 22  10  29  1   
 23  10  30  1   
 24  11  17  1   
 25  11  31  1   
 26  12  18  ar  
 27  12  19  1   
 28  13  18  ar  
 29  13  32  1   
 30  14  20  1   
 31  14  33  1   
 32  14  34  1   
 33  15  21  1   
 34  15  35  1   
 35  15  36  1   
 36  16  20  1   
 37  16  21  1   
 38  16  22  2   
 39  17  23  1   
 40  17  37  1   
 41  17  38  1   
 42  18  39  1   
 43  19  23  1   
 44  19  40  1   
 45  19  41  1   
 46  20  42  1   
 47  20  43  1   
 48  21  44  1   
 49  21  45  1   
 50  23  46  1   
 51  23  47  1   
@<TRIPOS>SUBSTRUCTURE
  1 ****   3 GROUP 4 **** **** 0

# MOE 2024.06 (io_trps.svl 2023.06)
