@<TRIPOS>MOLECULE
NONAME
46 48 1 0 0 
SMALL
USER_CHARGES


@<TRIPOS>ATOM
  1 F       -1.4490    -0.6990     2.9560 F     1 <1>  -0.1900 
  2 C       -1.9500    -1.0980     1.8060 C.ar  1 <1>   0.1900 
  3 C       -2.1830    -0.1540     0.7850 C.ar  1 <1>  -0.1710 
  4 C       -2.2280    -2.4310     1.6550 C.ar  1 <1>  -0.1500 
  5 O       -1.9650     1.0760     0.8950 O.3   1 <1>  -0.8290 
  6 C       -2.6950    -0.6460    -0.4190 C.ar  1 <1>  -0.1500 
  7 C       -2.7770    -2.9160     0.4580 C.ar  1 <1>   0.0860 
  8 C       -2.9760    -1.9830    -0.5760 C.ar  1 <1>  -0.1500 
  9 C       -3.1340    -4.3000     0.3090 C.2   1 <1>   0.5440 
 10 O       -2.5530    -5.1820     0.9310 O.2   1 <1>  -0.5700 
 11 N       -4.1880    -4.7090    -0.4920 N.am  1 <1>  -0.6600 
 12 C       -4.2790    -6.1400    -0.8740 C.3   1 <1>   0.1400 
 13 C       -5.5130    -4.0480    -0.3420 C.3   1 <1>   0.1400 
 14 C       -5.0250    -6.8990     0.2460 C.3   1 <1>   0.4230 
 15 C       -6.2970    -4.7810     0.7560 C.3   1 <1>  -0.1600 
 16 N       -4.9930    -8.4130     0.0960 N.4   1 <1>  -0.9590 
 17 C       -6.4460    -6.3120     0.5060 C.3   1 <1>   0.0000 
 18 C       -6.0240    -9.1310     0.9130 C.3   1 <1>   0.3430 
 19 C       -5.0040    -8.9260    -1.3130 C.3   1 <1>   0.2630 
 20 C       -7.0490    -6.9690     1.7830 C.3   1 <1>  -0.1600 
 21 C       -7.3640    -6.5690    -0.7230 C.3   1 <1>   0.1200 
 22 C       -6.4050    -8.3200     2.1500 C.3   1 <1>  -0.1600 
 23 O       -8.5660    -5.8910    -0.6170 O.3   1 <1>  -0.6800 
 24 H       -2.0300    -3.1080     2.4640 H     1 <1>   0.1500 
 25 H       -2.8530     0.0680    -1.2060 H     1 <1>   0.1500 
 26 H       -3.3620    -2.3230    -1.5180 H     1 <1>   0.1500 
 27 H       -4.7840    -6.2160    -1.8190 H     1 <1>   0.0800 
 28 H       -3.2840    -6.5370    -0.9860 H     1 <1>   0.0800 
 29 H       -5.3920    -3.0130    -0.0640 H     1 <1>   0.0800 
 30 H       -6.0460    -4.0760    -1.2780 H     1 <1>   0.0800 
 31 H       -4.4650    -6.6790     1.1410 H     1 <1>   0.0800 
 32 H       -5.7730    -4.6120     1.6820 H     1 <1>   0.0800 
 33 H       -7.2600    -4.3140     0.8630 H     1 <1>   0.0800 
 34 H       -4.0810    -8.6770     0.5000 H     1 <1>   0.4500 
 35 H       -6.9130    -9.2880     0.3230 H     1 <1>   0.0800 
 36 H       -5.6480   -10.0970     1.2110 H     1 <1>   0.0800 
 37 H       -5.9160    -8.6400    -1.8120 H     1 <1>   0.0800 
 38 H       -4.9330   -10.0020    -1.3190 H     1 <1>   0.0800 
 39 H       -4.1680    -8.5310    -1.8670 H     1 <1>   0.0800 
 40 H       -6.9340    -6.3190     2.6350 H     1 <1>   0.0800 
 41 H       -8.1090    -7.1110     1.6610 H     1 <1>   0.0800 
 42 H       -7.5940    -7.6140    -0.8320 H     1 <1>   0.0800 
 43 H       -6.9070    -6.2260    -1.6340 H     1 <1>   0.0800 
 44 H       -7.0960    -8.8880     2.7490 H     1 <1>   0.0800 
 45 H       -5.5260    -8.1600     2.7520 H     1 <1>   0.0800 
 46 H       -9.0940    -6.1870     0.1520 H     1 <1>   0.4000 
@<TRIPOS>BOND
  1   1   2  1   
  2   2   3  ar  
  3   2   4  ar  
  4   3   5  1   
  5   3   6  ar  
  6   4   7  ar  
  7   4  24  1   
  8   6   8  ar  
  9   6  25  1   
 10   7   8  ar  
 11   7   9  1   
 12   8  26  1   
 13   9  10  2   
 14   9  11  am  
 15  11  12  1   
 16  11  13  1   
 17  12  14  1   
 18  12  27  1   
 19  12  28  1   
 20  13  15  1   
 21  13  29  1   
 22  13  30  1   
 23  14  16  1   
 24  14  17  1   
 25  14  31  1   
 26  15  17  1   
 27  15  32  1   
 28  15  33  1   
 29  16  18  1   
 30  16  19  1   
 31  16  34  1   
 32  17  20  1   
 33  17  21  1   
 34  18  22  1   
 35  18  35  1   
 36  18  36  1   
 37  19  37  1   
 38  19  38  1   
 39  19  39  1   
 40  20  22  1   
 41  20  40  1   
 42  20  41  1   
 43  21  23  1   
 44  21  42  1   
 45  21  43  1   
 46  22  44  1   
 47  22  45  1   
 48  23  46  1   
@<TRIPOS>SUBSTRUCTURE
  1 ****  11 GROUP 4 **** **** 0

# MOE 2024.06 (io_trps.svl 2023.06)
