@<TRIPOS>MOLECULE
NONAME
41 42 1 0 0 
SMALL
USER_CHARGES


@<TRIPOS>ATOM
  1 F        1.0110     1.1840     2.2230 F     1 <1>  -0.1900 
  2 C        1.8380     1.3280     1.2190 C.ar  1 <1>   0.1900 
  3 C        2.4500     0.2100     0.6720 C.ar  1 <1>  -0.1440 
  4 C        2.0620     2.6120     0.7540 C.ar  1 <1>  -0.1500 
  5 C        3.3310     0.4230    -0.3830 C.ar  1 <1>   0.0830 
  6 C        2.1910    -1.1900     1.2190 C.3   1 <1>   0.2540 
  7 C        2.9400     2.7990    -0.2990 C.ar  1 <1>  -0.1500 
  8 O        3.9850    -0.6140    -0.9440 O.3   1 <1>  -0.3630 
  9 C        3.5750     1.7040    -0.8620 C.ar  1 <1>  -0.1500 
 10 N        1.2010    -1.9600     0.4290 N.3   1 <1>  -0.8100 
 11 C        3.3950    -1.1430    -2.1090 C.3   1 <1>   0.0400 
 12 C        1.1280    -3.3380     0.9480 C.3   1 <1>   0.2900 
 13 C       -0.1210    -1.2820     0.4090 C.3   1 <1>   0.1100 
 14 C        0.8820    -4.3350    -0.1700 C.2   1 <1>  -0.3320 
 15 C       -1.1290    -1.9240    -0.5540 C.3   1 <1>   0.1200 
 16 N        0.4970    -5.6120     0.0270 N.pl3 1 <1>   0.0480 
 17 C        1.0010    -4.1800    -1.5080 C.2   1 <1>   0.0770 
 18 O       -2.3130    -1.1960    -0.5260 O.3   1 <1>  -0.6800 
 19 C        0.4040    -6.1410    -1.2140 C.2   1 <1>   0.0360 
 20 C        0.2370    -6.3010     1.3030 C.3   1 <1>   0.0160 
 21 N        0.6960    -5.3150    -2.1640 N.2   1 <1>  -0.5650 
 22 H        1.5580     3.4450     1.2100 H     1 <1>   0.1500 
 23 H        1.8660    -1.1290     2.2440 H     1 <1>   0.0800 
 24 H        3.1300    -1.7190     1.2110 H     1 <1>   0.0800 
 25 H        3.1320     3.7880    -0.6770 H     1 <1>   0.1500 
 26 H        4.2670     1.8350    -1.6740 H     1 <1>   0.1500 
 27 H        3.8830    -2.0720    -2.3430 H     1 <1>   0.0800 
 28 H        3.5220    -0.4410    -2.9130 H     1 <1>   0.0800 
 29 H        2.3490    -1.3120    -1.9230 H     1 <1>   0.0800 
 30 H        0.3520    -3.4070     1.6910 H     1 <1>   0.0800 
 31 H        2.0590    -3.6100     1.4160 H     1 <1>   0.0800 
 32 H        0.0110    -0.2680     0.0760 H     1 <1>   0.0800 
 33 H       -0.5290    -1.2630     1.4040 H     1 <1>   0.0800 
 34 H       -1.3580    -2.9370    -0.2770 H     1 <1>   0.0800 
 35 H       -0.7510    -1.8980    -1.5610 H     1 <1>   0.0800 
 36 H        1.2940    -3.2910    -2.0370 H     1 <1>   0.1500 
 37 H       -2.7380    -1.2580     0.3500 H     1 <1>   0.4000 
 38 H        0.1100    -7.1630    -1.3790 H     1 <1>   0.1500 
 39 H        1.1150    -6.2500     1.9200 H     1 <1>   0.0800 
 40 H       -0.0060    -7.3310     1.1140 H     1 <1>   0.0800 
 41 H       -0.5870    -5.8250     1.8020 H     1 <1>   0.0800 
@<TRIPOS>BOND
  1   1   2  1   
  2   2   3  ar  
  3   2   4  ar  
  4   3   5  ar  
  5   3   6  1   
  6   4   7  ar  
  7   4  22  1   
  8   5   8  1   
  9   5   9  ar  
 10   6  10  1   
 11   6  23  1   
 12   6  24  1   
 13   7   9  ar  
 14   7  25  1   
 15   8  11  1   
 16   9  26  1   
 17  10  12  1   
 18  10  13  1   
 19  11  27  1   
 20  11  28  1   
 21  11  29  1   
 22  12  14  1   
 23  12  30  1   
 24  12  31  1   
 25  13  15  1   
 26  13  32  1   
 27  13  33  1   
 28  14  16  1   
 29  14  17  2   
 30  15  18  1   
 31  15  34  1   
 32  15  35  1   
 33  16  19  1   
 34  16  20  1   
 35  17  21  1   
 36  17  36  1   
 37  18  37  1   
 38  19  21  2   
 39  19  38  1   
 40  20  39  1   
 41  20  40  1   
 42  20  41  1   
@<TRIPOS>SUBSTRUCTURE
  1 ****  10 GROUP 4 **** **** 0

# MOE 2024.06 (io_trps.svl 2023.06)
