@<TRIPOS>MOLECULE
NONAME
45 47 1 0 0 
SMALL
USER_CHARGES


@<TRIPOS>ATOM
  1 F        1.6030     1.1080     0.5860 F     1 <1>  -0.1900 
  2 C        2.3880     0.0710     0.4710 C.ar  1 <1>   0.1900 
  3 C        3.5020     0.1530    -0.3610 C.ar  1 <1>   0.0860 
  4 C        2.0760    -1.0510     1.2130 C.ar  1 <1>  -0.1500 
  5 C        4.3310    -0.9750    -0.4250 C.ar  1 <1>  -0.1440 
  6 C        3.7800     1.3590    -1.1090 C.2   1 <1>   0.5440 
  7 C        2.9110    -2.1500     1.1360 C.ar  1 <1>  -0.1500 
  8 C        4.0310    -2.1060     0.3210 C.ar  1 <1>  -0.1500 
  9 C        5.5660    -0.9810    -1.3200 C.3   1 <1>  -0.0960 
 10 O        3.3770     1.4540    -2.2510 O.2   1 <1>  -0.5700 
 11 N        4.5230     2.3970    -0.5810 N.am  1 <1>  -0.6600 
 12 C        4.7600     2.5430     0.9030 C.3   1 <1>   0.2200 
 13 C        5.0640     3.4220    -1.5320 C.3   1 <1>   0.1400 
 14 C        4.2610     3.8940     1.4360 C.3   1 <1>   0.1200 
 15 C        6.2340     2.2880     1.2970 C.3   1 <1>   0.3430 
 16 C        6.0390     4.4520    -0.9350 C.3   1 <1>  -0.0800 
 17 O        5.2340     4.8850     1.3020 O.3   1 <1>  -0.5600 
 18 N        7.1860     2.4760     0.1650 N.4   1 <1>  -0.9590 
 19 C        5.3550     5.4310     0.0310 C.3   1 <1>   0.1200 
 20 C        7.3360     3.8610    -0.3580 C.3   1 <1>   0.3430 
 21 C        8.5370     1.8180     0.3580 C.3   1 <1>   0.2370 
 22 C        9.0860     1.3000    -0.9730 C.2   1 <1>   0.9060 
 23 O       10.2900     1.0860    -1.0960 O.co2 1 <1>  -0.9000 
 24 O        8.2540     1.1640    -1.8820 O.co2 1 <1>  -0.9000 
 25 H        1.2000    -1.0630     1.8360 H     1 <1>   0.1500 
 26 H        2.6900    -3.0390     1.7030 H     1 <1>   0.1500 
 27 H        4.6700    -2.9720     0.2670 H     1 <1>   0.1500 
 28 H        5.9700    -1.9730    -1.4220 H     1 <1>   0.0800 
 29 H        6.3310    -0.3490    -0.9100 H     1 <1>   0.0800 
 30 H        5.3230    -0.6240    -2.3060 H     1 <1>   0.0800 
 31 H        4.1730     1.8080     1.4200 H     1 <1>   0.0800 
 32 H        5.5660     2.9000    -2.3330 H     1 <1>   0.0800 
 33 H        4.2300     3.9410    -1.9750 H     1 <1>   0.0800 
 34 H        4.0630     3.8050     2.4900 H     1 <1>   0.0800 
 35 H        3.3500     4.1990     0.9490 H     1 <1>   0.0800 
 36 H        6.3080     1.2710     1.6440 H     1 <1>   0.0800 
 37 H        6.5030     2.9330     2.1160 H     1 <1>   0.0800 
 38 H        6.3460     5.0610    -1.7650 H     1 <1>   0.0800 
 39 H        6.8150     1.9440    -0.6560 H     1 <1>   0.4500 
 40 H        4.3820     5.7270    -0.3250 H     1 <1>   0.0800 
 41 H        5.9580     6.3170     0.1320 H     1 <1>   0.0800 
 42 H        7.7130     4.5060     0.4180 H     1 <1>   0.0800 
 43 H        8.0670     3.8360    -1.1510 H     1 <1>   0.0800 
 44 H        9.2460     2.5070     0.7780 H     1 <1>   0.0800 
 45 H        8.4490     0.9700     1.0110 H     1 <1>   0.0800 
@<TRIPOS>BOND
  1   1   2  1   
  2   2   3  ar  
  3   2   4  ar  
  4   3   5  ar  
  5   3   6  1   
  6   4   7  ar  
  7   4  25  1   
  8   5   8  ar  
  9   5   9  1   
 10   6  10  2   
 11   6  11  am  
 12   7   8  ar  
 13   7  26  1   
 14   8  27  1   
 15   9  28  1   
 16   9  29  1   
 17   9  30  1   
 18  11  12  1   
 19  11  13  1   
 20  12  14  1   
 21  12  15  1   
 22  12  31  1   
 23  13  16  1   
 24  13  32  1   
 25  13  33  1   
 26  14  17  1   
 27  14  34  1   
 28  14  35  1   
 29  15  18  1   
 30  15  36  1   
 31  15  37  1   
 32  16  19  1   
 33  16  20  1   
 34  16  38  1   
 35  17  19  1   
 36  18  20  1   
 37  18  21  1   
 38  18  39  1   
 39  19  40  1   
 40  19  41  1   
 41  20  42  1   
 42  20  43  1   
 43  21  22  1   
 44  21  44  1   
 45  21  45  1   
 46  22  23  ar  
 47  22  24  ar  
@<TRIPOS>SUBSTRUCTURE
  1 ****  11 GROUP 4 **** **** 0

# MOE 2024.06 (io_trps.svl 2023.06)
