@<TRIPOS>MOLECULE
NONAME
54 57 1 0 0 
SMALL
USER_CHARGES


@<TRIPOS>ATOM
  1 O        2.3930    -0.6120     1.4100 O.2   1 <1>  -0.5700 
  2 C        1.6390    -1.2510     0.6940 C.2   1 <1>   0.5440 
  3 N        0.8710    -0.5410    -0.2220 N.am  1 <1>  -0.6600 
  4 C        1.6180    -2.7100     0.8280 C.ar  1 <1>   0.3960 
  5 C        0.7570     0.9440    -0.1740 C.3   1 <1>   0.0600 
  6 C        0.1160    -1.1780    -1.3360 C.3   1 <1>   0.0600 
  7 N        0.4890    -3.4110     0.6250 N.ar  1 <1>  -0.6200 
  8 C        2.8120    -3.3460     1.1840 C.ar  1 <1>   0.1600 
  9 C        0.6290    -4.7170     0.7810 C.ar  1 <1>   0.4100 
 10 N        2.9770    -4.6520     1.3450 N.ar  1 <1>  -0.6200 
 11 N       -0.4950    -5.4980     0.5630 N.pl3 1 <1>  -0.8380 
 12 C        1.8520    -5.3050     1.1390 C.ar  1 <1>   0.1600 
 13 C       -0.4790    -6.4500    -0.5770 C.3   1 <1>   0.2090 
 14 C       -1.8460    -4.9260     0.8180 C.3   1 <1>   0.2090 
 15 C       -1.4180    -7.6130    -0.2640 C.3   1 <1>  -0.1600 
 16 C       -2.8120    -6.0620     1.1480 C.3   1 <1>  -0.1600 
 17 C       -2.8430    -7.1240     0.0360 C.3   1 <1>   0.4240 
 18 O       -3.2770    -6.5040    -1.1530 O.3   1 <1>  -0.5600 
 19 C       -3.7490    -8.3140     0.4230 C.ar  1 <1>  -0.1430 
 20 C       -4.6500    -6.3700    -1.3460 C.3   1 <1>   0.1200 
 21 C       -4.8930    -8.6170    -0.3090 C.ar  1 <1>  -0.1430 
 22 C       -3.4390    -9.1080     1.5220 C.ar  1 <1>  -0.1500 
 23 C       -5.2630    -7.7580    -1.5020 C.3   1 <1>  -0.0170 
 24 C       -5.6970    -9.6900     0.0420 C.ar  1 <1>  -0.1500 
 25 C       -4.2410   -10.1770     1.8760 C.ar  1 <1>  -0.1500 
 26 C       -5.3730   -10.4790     1.1410 C.ar  1 <1>   0.0830 
 27 O       -6.1050   -11.5450     1.5520 O.3   1 <1>  -0.3630 
 28 C       -7.2640   -11.9490     0.8590 C.3   1 <1>   0.0400 
 29 H        1.1380     1.3290     0.7570 H     1 <1>   0.0800 
 30 H       -0.2750     1.2340    -0.2620 H     1 <1>   0.0800 
 31 H        1.3190     1.3770    -0.9820 H     1 <1>   0.0800 
 32 H        0.6040    -2.0830    -1.6530 H     1 <1>   0.0800 
 33 H        0.0600    -0.5110    -2.1780 H     1 <1>   0.0800 
 34 H       -0.8810    -1.4160    -1.0050 H     1 <1>   0.0800 
 35 H        3.6800    -2.7300     1.3420 H     1 <1>   0.1500 
 36 H        1.8670    -6.3720     1.2560 H     1 <1>   0.1500 
 37 H        0.5180    -6.8210    -0.7440 H     1 <1>   0.0800 
 38 H       -0.8020    -5.9420    -1.4710 H     1 <1>   0.0800 
 39 H       -2.1790    -4.3900    -0.0550 H     1 <1>   0.0800 
 40 H       -1.8010    -4.2360     1.6440 H     1 <1>   0.0800 
 41 H       -1.0220    -8.1450     0.5800 H     1 <1>   0.0800 
 42 H       -1.4480    -8.2940    -1.0940 H     1 <1>   0.0800 
 43 H       -3.7960    -5.6720     1.3170 H     1 <1>   0.0800 
 44 H       -2.4880    -6.5130     2.0670 H     1 <1>   0.0800 
 45 H       -4.8030    -5.7890    -2.2380 H     1 <1>   0.0800 
 46 H       -5.0780    -5.8490    -0.5080 H     1 <1>   0.0800 
 47 H       -2.5680    -8.9020     2.1180 H     1 <1>   0.1500 
 48 H       -4.8950    -8.2120    -2.4040 H     1 <1>   0.0800 
 49 H       -6.3310    -7.6660    -1.5780 H     1 <1>   0.0800 
 50 H       -6.5690    -9.9000    -0.5450 H     1 <1>   0.1500 
 51 H       -3.9950   -10.7860     2.7260 H     1 <1>   0.1500 
 52 H       -7.6670   -12.8130     1.3570 H     1 <1>   0.0800 
 53 H       -6.9960   -12.2020    -0.1520 H     1 <1>   0.0800 
 54 H       -7.9810   -11.1480     0.8800 H     1 <1>   0.0800 
@<TRIPOS>BOND
  1   1   2  2   
  2   2   3  am  
  3   2   4  1   
  4   3   5  1   
  5   3   6  1   
  6   4   7  ar  
  7   4   8  ar  
  8   5  29  1   
  9   5  30  1   
 10   5  31  1   
 11   6  32  1   
 12   6  33  1   
 13   6  34  1   
 14   7   9  ar  
 15   8  10  ar  
 16   8  35  1   
 17   9  11  1   
 18   9  12  ar  
 19  10  12  ar  
 20  11  13  1   
 21  11  14  1   
 22  12  36  1   
 23  13  15  1   
 24  13  37  1   
 25  13  38  1   
 26  14  16  1   
 27  14  39  1   
 28  14  40  1   
 29  15  17  1   
 30  15  41  1   
 31  15  42  1   
 32  16  17  1   
 33  16  43  1   
 34  16  44  1   
 35  17  18  1   
 36  17  19  1   
 37  18  20  1   
 38  19  21  ar  
 39  19  22  ar  
 40  20  23  1   
 41  20  45  1   
 42  20  46  1   
 43  21  23  1   
 44  21  24  ar  
 45  22  25  ar  
 46  22  47  1   
 47  23  48  1   
 48  23  49  1   
 49  24  26  ar  
 50  24  50  1   
 51  25  26  ar  
 52  25  51  1   
 53  26  27  1   
 54  27  28  1   
 55  28  52  1   
 56  28  53  1   
 57  28  54  1   
@<TRIPOS>SUBSTRUCTURE
  1 ****  14 GROUP 4 **** **** 0

# MOE 2024.06 (io_trps.svl 2023.06)
