@<TRIPOS>MOLECULE
NONAME
40 42 1 0 0 
SMALL
USER_CHARGES


@<TRIPOS>ATOM
  1 O        0.4850     0.5110    -0.5000 O.2   1 <1>  -0.5700 
  2 C        1.3470    -0.3310    -0.6040 C.2   1 <1>   0.5690 
  3 N        2.6750     0.0090    -0.6190 N.am  1 <1>  -0.6600 
  4 C        0.9080    -1.7830    -0.7620 C.3   1 <1>   0.1810 
  5 C        3.1430     1.4020    -0.4110 C.3   1 <1>   0.1400 
  6 C        3.8350    -0.9160    -0.6980 C.3   1 <1>   0.1400 
  7 O        1.3530    -2.5820     0.3260 O.3   1 <1>  -0.3620 
  8 C        4.6480     1.3280    -0.6620 C.3   1 <1>  -0.0800 
  9 C        5.0120    -0.0840    -0.1850 C.3   1 <1>  -0.0800 
 10 C        1.1380    -3.9220     0.3510 C.ar  1 <1>   0.0820 
 11 C        5.4710     2.4670    -0.0330 C.3   1 <1>  -0.0220 
 12 C        5.0980    -0.2020     1.3540 C.3   1 <1>  -0.0220 
 13 C        1.6790    -4.6420     1.4100 C.ar  1 <1>   0.1600 
 14 C        0.4170    -4.6050    -0.6170 C.ar  1 <1>  -0.1500 
 15 C        5.8810     2.1990     1.4060 C.2   1 <1>  -0.2760 
 16 C        5.7140     1.0200     2.0080 C.2   1 <1>  -0.2880 
 17 N        1.5730    -5.9530     1.5770 N.ar  1 <1>  -0.6200 
 18 C        0.2960    -5.9690    -0.4540 C.ar  1 <1>  -0.1500 
 19 C        6.5090     3.3950     2.0990 C.3   1 <1>  -0.1020 
 20 C        0.8830    -6.5840     0.6400 C.ar  1 <1>   0.1600 
 21 H        1.3190    -2.1810    -1.6710 H     1 <1>   0.0800 
 22 H       -0.1650    -1.8280    -0.7940 H     1 <1>   0.0800 
 23 H        2.6540     2.0790    -1.0900 H     1 <1>   0.0800 
 24 H        2.9390     1.6960     0.6050 H     1 <1>   0.0800 
 25 H        3.6860    -1.8010    -0.1040 H     1 <1>   0.0800 
 26 H        3.9950    -1.1920    -1.7260 H     1 <1>   0.0800 
 27 H        4.7860     1.3770    -1.7290 H     1 <1>   0.0800 
 28 H        5.9420    -0.4040    -0.6200 H     1 <1>   0.0800 
 29 H        4.9080     3.3820    -0.0910 H     1 <1>   0.0800 
 30 H        6.3690     2.6010    -0.6110 H     1 <1>   0.0800 
 31 H        4.1180    -0.3350     1.7780 H     1 <1>   0.0800 
 32 H        5.6810    -1.0720     1.6030 H     1 <1>   0.0800 
 33 H        2.2290    -4.0970     2.1560 H     1 <1>   0.1500 
 34 H       -0.0370    -4.1200    -1.4600 H     1 <1>   0.1500 
 35 H        5.9980     0.8420     3.0310 H     1 <1>   0.1500 
 36 H       -0.2500    -6.5580    -1.1680 H     1 <1>   0.1500 
 37 H        7.3900     3.7100     1.5700 H     1 <1>   0.0800 
 38 H        6.7890     3.1450     3.1070 H     1 <1>   0.0800 
 39 H        5.8110     4.2130     2.1340 H     1 <1>   0.0800 
 40 H        0.7790    -7.6500     0.7520 H     1 <1>   0.1500 
@<TRIPOS>BOND
  1   1   2  2   
  2   2   3  am  
  3   2   4  1   
  4   3   5  1   
  5   3   6  1   
  6   4   7  1   
  7   4  21  1   
  8   4  22  1   
  9   5   8  1   
 10   5  23  1   
 11   5  24  1   
 12   6   9  1   
 13   6  25  1   
 14   6  26  1   
 15   7  10  1   
 16   8   9  1   
 17   8  11  1   
 18   8  27  1   
 19   9  12  1   
 20   9  28  1   
 21  10  13  ar  
 22  10  14  ar  
 23  11  15  1   
 24  11  29  1   
 25  11  30  1   
 26  12  16  1   
 27  12  31  1   
 28  12  32  1   
 29  13  17  ar  
 30  13  33  1   
 31  14  18  ar  
 32  14  34  1   
 33  15  16  2   
 34  15  19  1   
 35  16  35  1   
 36  17  20  ar  
 37  18  20  ar  
 38  18  36  1   
 39  19  37  1   
 40  19  38  1   
 41  19  39  1   
 42  20  40  1   
@<TRIPOS>SUBSTRUCTURE
  1 ****   6 GROUP 4 **** **** 0

# MOE 2024.06 (io_trps.svl 2023.06)
