@<TRIPOS>MOLECULE
NONAME
45 46 1 0 0 
SMALL
USER_CHARGES


@<TRIPOS>ATOM
  1 S        0.3310     1.0160    -0.4980 S.o2  1 <1>   1.3330 
  2 O        0.3210    -0.3680    -0.9180 O.2   1 <1>  -0.6500 
  3 O       -0.6750     1.9240    -1.0000 O.2   1 <1>  -0.6500 
  4 N        0.2300     1.0450     1.1980 N.am  1 <1>  -0.8490 
  5 C        1.9590     1.6880    -0.8400 C.3   1 <1>  -0.0550 
  6 C       -0.7050     0.0390     1.7110 C.3   1 <1>   0.1160 
  7 C       -0.1190     2.3640     1.7360 C.3   1 <1>   0.1160 
  8 C        3.1280     0.7570    -0.4480 C.3   1 <1>  -0.0800 
  9 C        4.5070     1.2580    -0.8490 C.3   1 <1>   0.2200 
 10 C        3.2860     0.5050     1.0570 C.3   1 <1>   0.1200 
 11 N        4.6420     2.7030    -0.5570 N.am  1 <1>  -0.7300 
 12 C        5.3810     0.4760     0.1210 C.3   1 <1>   0.1200 
 13 O        4.6600     0.4500     1.3160 O.3   1 <1>  -0.5600 
 14 C        4.5480     3.7140    -1.4580 C.2   1 <1>   0.5690 
 15 O        4.3620     3.4970    -2.6300 O.2   1 <1>  -0.5700 
 16 C        4.6550     5.1570    -0.9800 C.3   1 <1>   0.1810 
 17 O        4.4000     5.2490     0.4170 O.3   1 <1>  -0.3630 
 18 C        4.4280     6.4410     1.0620 C.ar  1 <1>   0.0820 
 19 C        4.6510     7.6620     0.4230 C.ar  1 <1>  -0.1500 
 20 C        4.2170     6.4030     2.4350 C.ar  1 <1>  -0.1500 
 21 C        4.6600     8.8360     1.1590 C.ar  1 <1>  -0.1500 
 22 C        4.2250     7.5710     3.1780 C.ar  1 <1>  -0.1500 
 23 C        4.4470     8.7670     2.5230 C.ar  1 <1>   0.1900 
 24 F        4.4550     9.8740     3.2180 F     1 <1>  -0.1900 
 25 H        2.0290     1.8770    -1.8940 H     1 <1>   0.0800 
 26 H        2.0600     2.6310    -0.3420 H     1 <1>   0.0800 
 27 H       -0.7380     0.0720     2.7860 H     1 <1>   0.0800 
 28 H       -0.3860    -0.9470     1.4150 H     1 <1>   0.0800 
 29 H       -1.6940     0.2130     1.3180 H     1 <1>   0.0800 
 30 H       -0.0850     2.3460     2.8120 H     1 <1>   0.0800 
 31 H       -1.1110     2.6500     1.4230 H     1 <1>   0.0800 
 32 H        0.5790     3.1060     1.3890 H     1 <1>   0.0800 
 33 H        2.9740    -0.1980    -0.9210 H     1 <1>   0.0800 
 34 H        4.7460     1.0520    -1.8800 H     1 <1>   0.0800 
 35 H        2.8330    -0.4240     1.3580 H     1 <1>   0.0800 
 36 H        2.8820     1.3120     1.6420 H     1 <1>   0.0800 
 37 H        4.7530     2.9300     0.4370 H     1 <1>   0.3700 
 38 H        6.3400     0.9350     0.2840 H     1 <1>   0.0800 
 39 H        5.5080    -0.5390    -0.2110 H     1 <1>   0.0800 
 40 H        3.9290     5.7550    -1.4990 H     1 <1>   0.0800 
 41 H        5.6460     5.5250    -1.1730 H     1 <1>   0.0800 
 42 H        4.8170     7.7220    -0.6360 H     1 <1>   0.1500 
 43 H        4.0480     5.4570     2.9170 H     1 <1>   0.1500 
 44 H        4.8300     9.7880     0.6900 H     1 <1>   0.1500 
 45 H        4.0640     7.5600     4.2410 H     1 <1>   0.1500 
@<TRIPOS>BOND
  1   1   2  2   
  2   1   3  2   
  3   1   4  am  
  4   1   5  1   
  5   4   6  1   
  6   4   7  1   
  7   5   8  1   
  8   5  25  1   
  9   5  26  1   
 10   6  27  1   
 11   6  28  1   
 12   6  29  1   
 13   7  30  1   
 14   7  31  1   
 15   7  32  1   
 16   8   9  1   
 17   8  10  1   
 18   8  33  1   
 19   9  11  1   
 20   9  12  1   
 21   9  34  1   
 22  10  13  1   
 23  10  35  1   
 24  10  36  1   
 25  11  14  am  
 26  11  37  1   
 27  12  13  1   
 28  12  38  1   
 29  12  39  1   
 30  14  15  2   
 31  14  16  1   
 32  16  17  1   
 33  16  40  1   
 34  16  41  1   
 35  17  18  1   
 36  18  19  ar  
 37  18  20  ar  
 38  19  21  ar  
 39  19  42  1   
 40  20  22  ar  
 41  20  43  1   
 42  21  23  ar  
 43  21  44  1   
 44  22  23  ar  
 45  22  45  1   
 46  23  24  1   
@<TRIPOS>SUBSTRUCTURE
  1 ****  11 GROUP 4 **** **** 0

# MOE 2024.06 (io_trps.svl 2023.06)
