@<TRIPOS>MOLECULE
NONAME
51 54 1 0 0 
SMALL
USER_CHARGES


@<TRIPOS>ATOM
  1 S       -0.2490    -0.0460    -2.1110 S.3   1 <1>  -0.0800 
  2 C        0.7540    -0.9120    -0.9700 C.2   1 <1>  -0.1400 
  3 C       -1.2400    -1.4670    -2.3560 C.2   1 <1>  -0.1100 
  4 C        0.3380    -2.1780    -0.8200 C.2   1 <1>  -0.1810 
  5 C        1.9320    -0.2330    -0.3080 C.3   1 <1>   0.0200 
  6 C       -0.8300    -2.5140    -1.5990 C.2   1 <1>  -0.0860 
  7 C        1.0730    -3.1520     0.0890 C.3   1 <1>   0.0210 
  8 C        2.4440    -1.1200     0.8420 C.3   1 <1>  -0.1600 
  9 C       -1.4700    -3.8110    -1.5550 C.2   1 <1>   0.7160 
 10 C        2.4720    -2.6130     0.4530 C.3   1 <1>  -0.1600 
 11 O       -1.4390    -4.5280    -2.5380 O.2   1 <1>  -0.5700 
 12 N       -2.1390    -4.2490    -0.4290 N.am  1 <1>  -0.6600 
 13 C       -2.7110    -5.6260    -0.3870 C.3   1 <1>   0.1400 
 14 C       -2.4610    -3.3540     0.7210 C.3   1 <1>   0.1400 
 15 C       -4.0700    -5.6910    -1.1020 C.3   1 <1>   0.1400 
 16 C       -3.9490    -3.3590     1.0980 C.3   1 <1>  -0.1600 
 17 N       -5.1500    -4.9790    -0.3430 N.am  1 <1>  -0.6600 
 18 C       -4.9060    -3.5290    -0.0870 C.3   1 <1>   0.1400 
 19 C       -6.3040    -5.5690     0.1340 C.2   1 <1>   0.5690 
 20 O       -6.9720    -5.0060     0.9770 O.2   1 <1>  -0.5700 
 21 C       -6.7560    -6.9720    -0.3460 C.3   1 <1>   0.2610 
 22 O       -8.1370    -7.0420    -0.5970 O.3   1 <1>  -0.5600 
 23 C       -6.4710    -8.0730     0.6850 C.3   1 <1>  -0.1600 
 24 C       -8.7920    -7.5970     0.4920 C.3   1 <1>   0.1200 
 25 C       -7.8370    -8.6630     1.0010 C.3   1 <1>  -0.1600 
 26 H       -2.0560    -1.3880    -3.0520 H     1 <1>   0.1500 
 27 H        2.7060    -0.0930    -1.0410 H     1 <1>   0.0800 
 28 H        1.6390     0.7300     0.0720 H     1 <1>   0.0800 
 29 H        0.4990    -3.2960     0.9860 H     1 <1>   0.0800 
 30 H        1.1770    -4.1040    -0.4020 H     1 <1>   0.0800 
 31 H        3.4290    -0.7960     1.1310 H     1 <1>   0.0800 
 32 H        1.7950    -0.9960     1.6910 H     1 <1>   0.0800 
 33 H        2.8780    -3.1950     1.2620 H     1 <1>   0.0800 
 34 H        3.1200    -2.7360    -0.3970 H     1 <1>   0.0800 
 35 H       -2.0300    -6.2980    -0.8810 H     1 <1>   0.0800 
 36 H       -2.8130    -5.9580     0.6310 H     1 <1>   0.0800 
 37 H       -1.8770    -3.6520     1.5750 H     1 <1>   0.0800 
 38 H       -2.1860    -2.3410     0.4810 H     1 <1>   0.0800 
 39 H       -4.3130    -6.7280    -1.2210 H     1 <1>   0.0800 
 40 H       -3.9800    -5.2640    -2.0860 H     1 <1>   0.0800 
 41 H       -4.1650    -2.4190     1.5730 H     1 <1>   0.0800 
 42 H       -4.1460    -4.1220     1.8290 H     1 <1>   0.0800 
 43 H       -4.5130    -3.0570    -0.9720 H     1 <1>   0.0800 
 44 H       -5.8410    -3.0470     0.1440 H     1 <1>   0.0800 
 45 H       -6.2890    -7.2050    -1.2820 H     1 <1>   0.0800 
 46 H       -5.8000    -8.8140     0.2890 H     1 <1>   0.0800 
 47 H       -6.0330    -7.6450     1.5710 H     1 <1>   0.0800 
 48 H       -8.9410    -6.8200     1.2230 H     1 <1>   0.0800 
 49 H       -9.7380    -7.9980     0.1730 H     1 <1>   0.0800 
 50 H       -7.9760    -8.8540     2.0500 H     1 <1>   0.0800 
 51 H       -7.9940    -9.5720     0.4460 H     1 <1>   0.0800 
@<TRIPOS>BOND
  1   1   2  1   
  2   1   3  1   
  3   2   4  2   
  4   2   5  1   
  5   3   6  2   
  6   3  26  1   
  7   4   6  1   
  8   4   7  1   
  9   5   8  1   
 10   5  27  1   
 11   5  28  1   
 12   6   9  1   
 13   7  10  1   
 14   7  29  1   
 15   7  30  1   
 16   8  10  1   
 17   8  31  1   
 18   8  32  1   
 19   9  11  2   
 20   9  12  am  
 21  10  33  1   
 22  10  34  1   
 23  12  13  1   
 24  12  14  1   
 25  13  15  1   
 26  13  35  1   
 27  13  36  1   
 28  14  16  1   
 29  14  37  1   
 30  14  38  1   
 31  15  17  1   
 32  15  39  1   
 33  15  40  1   
 34  16  18  1   
 35  16  41  1   
 36  16  42  1   
 37  17  18  1   
 38  17  19  am  
 39  18  43  1   
 40  18  44  1   
 41  19  20  2   
 42  19  21  1   
 43  21  22  1   
 44  21  23  1   
 45  21  45  1   
 46  22  24  1   
 47  23  25  1   
 48  23  46  1   
 49  23  47  1   
 50  24  25  1   
 51  24  48  1   
 52  24  49  1   
 53  25  50  1   
 54  25  51  1   
@<TRIPOS>SUBSTRUCTURE
  1 ****  12 GROUP 4 **** **** 0

# MOE 2024.06 (io_trps.svl 2023.06)
