@<TRIPOS>MOLECULE
NONAME
53 55 1 0 0 
SMALL
USER_CHARGES


@<TRIPOS>ATOM
  1 O        0.7860     0.1670     0.1880 O.3   1 <1>  -0.6800 
  2 C        1.5990    -0.4170    -0.7790 C.3   1 <1>   0.2000 
  3 C        2.1870    -1.6970    -0.1910 C.3   1 <1>  -0.0800 
  4 C        2.8320     0.4680    -0.9780 C.3   1 <1>   0.3430 
  5 C        3.3520    -1.2020     0.6780 C.3   1 <1>   0.3430 
  6 C        2.6650    -2.6670    -1.2910 C.3   1 <1>  -0.0160 
  7 N        3.7420     0.1480     0.1670 N.4   1 <1>  -0.9590 
  8 C        3.4400    -3.8300    -0.6920 C.ar  1 <1>  -0.1430 
  9 C        3.6140     1.1810     1.2280 C.3   1 <1>   0.5240 
 10 C        2.8330    -4.7690     0.1200 C.ar  1 <1>  -0.1500 
 11 C        4.7900    -4.0080    -0.9260 C.ar  1 <1>  -0.1500 
 12 C        4.2110     2.4540     0.6780 C.2   1 <1>  -0.1810 
 13 C        3.5880    -5.7970     0.6600 C.ar  1 <1>   0.1600 
 14 C        5.4520    -5.0730    -0.3380 C.ar  1 <1>   0.1600 
 15 C        3.4980     3.5740     0.2630 C.2   1 <1>   0.1080 
 16 C        5.5110     2.7660     0.4650 C.2   1 <1>  -0.3320 
 17 N        4.8840    -5.9630     0.4570 N.ar  1 <1>  -0.6200 
 18 N        4.2770     4.4950    -0.1910 N.2   1 <1>  -0.7070 
 19 C        1.9990     3.7910     0.3010 C.3   1 <1>  -0.0590 
 20 N        5.5310     4.0160    -0.0640 N.pl3 1 <1>   0.3140 
 21 C        6.7630     1.9450     0.7510 C.3   1 <1>  -0.0600 
 22 C        6.7270     4.8230    -0.4640 C.3   1 <1>   0.1760 
 23 C        6.8150     6.1100     0.3690 C.3   1 <1>  -0.2400 
 24 C        6.6880     5.1460    -1.9640 C.3   1 <1>  -0.2400 
 25 H       -0.1000    -0.2570     0.2100 H     1 <1>   0.4000 
 26 H        1.0280    -0.5550    -1.6820 H     1 <1>   0.0800 
 27 H        1.4640    -2.2110     0.4190 H     1 <1>   0.0800 
 28 H        2.5650     1.5110    -1.0190 H     1 <1>   0.0800 
 29 H        3.3140     0.1970    -1.9020 H     1 <1>   0.0800 
 30 H        4.1840    -1.8870     0.6440 H     1 <1>   0.0800 
 31 H        3.0160    -1.1230     1.7000 H     1 <1>   0.0800 
 32 H        3.2880    -2.1570    -2.0050 H     1 <1>   0.0800 
 33 H        1.8150    -3.0560    -1.8260 H     1 <1>   0.0800 
 34 H        4.7170     0.1920    -0.1500 H     1 <1>   0.4500 
 35 H        2.5800     1.3260     1.4950 H     1 <1>   0.0800 
 36 H        4.1630     0.8840     2.1070 H     1 <1>   0.0800 
 37 H        1.7820    -4.7210     0.3390 H     1 <1>   0.1500 
 38 H        5.3400    -3.3400    -1.5630 H     1 <1>   0.1500 
 39 H        3.1010    -6.5220     1.2910 H     1 <1>   0.1500 
 40 H        6.5040    -5.2030    -0.5320 H     1 <1>   0.1500 
 41 H        1.4740     2.9250     0.6560 H     1 <1>   0.0800 
 42 H        1.6490     4.0330    -0.6860 H     1 <1>   0.0800 
 43 H        1.7800     4.6200     0.9490 H     1 <1>   0.0800 
 44 H        6.5160     1.0030     1.2050 H     1 <1>   0.0800 
 45 H        7.4060     2.4810     1.4270 H     1 <1>   0.0800 
 46 H        7.3030     1.7580    -0.1610 H     1 <1>   0.0800 
 47 H        7.6070     4.2380    -0.2700 H     1 <1>   0.0800 
 48 H        5.9570     6.7320     0.1850 H     1 <1>   0.0800 
 49 H        7.7000     6.6620     0.1090 H     1 <1>   0.0800 
 50 H        6.8550     5.8710     1.4160 H     1 <1>   0.0800 
 51 H        5.8250     5.7490    -2.1930 H     1 <1>   0.0800 
 52 H        6.6450     4.2390    -2.5390 H     1 <1>   0.0800 
 53 H        7.5690     5.6910    -2.2500 H     1 <1>   0.0800 
@<TRIPOS>BOND
  1   1   2  1   
  2   1  25  1   
  3   2   3  1   
  4   2   4  1   
  5   2  26  1   
  6   3   5  1   
  7   3   6  1   
  8   3  27  1   
  9   4   7  1   
 10   4  28  1   
 11   4  29  1   
 12   5   7  1   
 13   5  30  1   
 14   5  31  1   
 15   6   8  1   
 16   6  32  1   
 17   6  33  1   
 18   7   9  1   
 19   7  34  1   
 20   8  10  ar  
 21   8  11  ar  
 22   9  12  1   
 23   9  35  1   
 24   9  36  1   
 25  10  13  ar  
 26  10  37  1   
 27  11  14  ar  
 28  11  38  1   
 29  12  15  1   
 30  12  16  2   
 31  13  17  ar  
 32  13  39  1   
 33  14  17  ar  
 34  14  40  1   
 35  15  18  2   
 36  15  19  1   
 37  16  20  1   
 38  16  21  1   
 39  18  20  1   
 40  19  41  1   
 41  19  42  1   
 42  19  43  1   
 43  20  22  1   
 44  21  44  1   
 45  21  45  1   
 46  21  46  1   
 47  22  23  1   
 48  22  24  1   
 49  22  47  1   
 50  23  48  1   
 51  23  49  1   
 52  23  50  1   
 53  24  51  1   
 54  24  52  1   
 55  24  53  1   
@<TRIPOS>SUBSTRUCTURE
  1 ****   7 GROUP 4 **** **** 0

# MOE 2024.06 (io_trps.svl 2023.06)
