@<TRIPOS>MOLECULE
NONAME
43 45 1 0 0 
SMALL
USER_CHARGES


@<TRIPOS>ATOM
  1 S        1.8750     0.6150     0.0490 S.3   1 <1>  -0.3310 
  2 C        1.5620    -1.1110    -0.3590 C.ar  1 <1>   0.1020 
  3 C        0.2740     1.3020     0.7130 C.3   1 <1>   0.1310 
  4 C        2.6160    -1.8290    -0.8960 C.ar  1 <1>  -0.1500 
  5 C        0.3280    -1.7090    -0.1520 C.ar  1 <1>  -0.1500 
  6 C        0.3990     2.7730     1.0810 C.2   1 <1>   0.5690 
  7 C        2.4380    -3.1600    -1.2310 C.ar  1 <1>  -0.1500 
  8 C        0.1560    -3.0410    -0.4900 C.ar  1 <1>  -0.1500 
  9 O       -0.5580     3.3070     1.5880 O.2   1 <1>  -0.5700 
 10 N        1.5790     3.4160     0.8210 N.am  1 <1>  -0.4940 
 11 C        1.2080    -3.7640    -1.0270 C.ar  1 <1>  -0.1500 
 12 C        1.9580     4.7620     1.0450 C.2   1 <1>  -0.0880 
 13 N        3.1920     5.2900     0.7960 N.pl3 1 <1>   0.3140 
 14 C        1.2070     5.7750     1.5350 C.2   1 <1>  -0.1500 
 15 N        3.2340     6.6060     1.1240 N.2   1 <1>  -0.7070 
 16 C        4.4170     4.6110     0.2810 C.3   1 <1>   0.2710 
 17 C        2.0460     6.8790     1.5590 C.2   1 <1>   0.1080 
 18 C        4.1780     3.9620    -1.0960 C.3   1 <1>  -0.1950 
 19 C        4.9570     3.5870     1.2890 C.3   1 <1>  -0.2400 
 20 C        1.6550     8.2590     2.0320 C.3   1 <1>  -0.0590 
 21 C        5.2600     3.9540    -2.1310 C.3   1 <1>  -0.2000 
 22 C        4.0340     4.7990    -2.3280 C.3   1 <1>  -0.2000 
 23 H        0.0140     0.7290     1.5840 H     1 <1>   0.0800 
 24 H       -0.4710     1.1790    -0.0510 H     1 <1>   0.0800 
 25 H        3.5670    -1.3500    -1.0490 H     1 <1>   0.1500 
 26 H       -0.4990    -1.1680     0.2630 H     1 <1>   0.1500 
 27 H        3.2540    -3.7250    -1.6480 H     1 <1>   0.1500 
 28 H       -0.7970    -3.5180    -0.3350 H     1 <1>   0.1500 
 29 H        2.2860     2.8150     0.3920 H     1 <1>   0.3700 
 30 H        1.0700    -4.8000    -1.2880 H     1 <1>   0.1500 
 31 H        0.1790     5.7470     1.8460 H     1 <1>   0.1500 
 32 H        5.1590     5.3810     0.1610 H     1 <1>   0.0800 
 33 H        3.5870     3.0650    -1.0390 H     1 <1>   0.1000 
 34 H        4.2580     2.7860     1.4420 H     1 <1>   0.0800 
 35 H        5.1520     4.0720     2.2300 H     1 <1>   0.0800 
 36 H        5.8790     3.1710     0.9240 H     1 <1>   0.0800 
 37 H        0.6290     8.2690     2.3510 H     1 <1>   0.0800 
 38 H        1.7830     8.9620     1.2300 H     1 <1>   0.0800 
 39 H        2.2840     8.5470     2.8530 H     1 <1>   0.0800 
 40 H        5.3850     3.0790    -2.7470 H     1 <1>   0.1000 
 41 H        6.1930     4.4530    -1.9330 H     1 <1>   0.1000 
 42 H        4.1160     5.8690    -2.2380 H     1 <1>   0.1000 
 43 H        3.3090     4.5050    -3.0670 H     1 <1>   0.1000 
@<TRIPOS>BOND
  1   1   2  1   
  2   1   3  1   
  3   2   4  ar  
  4   2   5  ar  
  5   3   6  1   
  6   3  23  1   
  7   3  24  1   
  8   4   7  ar  
  9   4  25  1   
 10   5   8  ar  
 11   5  26  1   
 12   6   9  2   
 13   6  10  am  
 14   7  11  ar  
 15   7  27  1   
 16   8  11  ar  
 17   8  28  1   
 18  10  12  1   
 19  10  29  1   
 20  11  30  1   
 21  12  13  1   
 22  12  14  2   
 23  13  15  1   
 24  13  16  1   
 25  14  17  1   
 26  14  31  1   
 27  15  17  2   
 28  16  18  1   
 29  16  19  1   
 30  16  32  1   
 31  17  20  1   
 32  18  21  1   
 33  18  22  1   
 34  18  33  1   
 35  19  34  1   
 36  19  35  1   
 37  19  36  1   
 38  20  37  1   
 39  20  38  1   
 40  20  39  1   
 41  21  22  1   
 42  21  40  1   
 43  21  41  1   
 44  22  42  1   
 45  22  43  1   
@<TRIPOS>SUBSTRUCTURE
  1 ****  10 GROUP 4 **** **** 0

# MOE 2024.06 (io_trps.svl 2023.06)
