@<TRIPOS>MOLECULE
NONAME
53 54 1 0 0 
SMALL
USER_CHARGES


@<TRIPOS>ATOM
  1 O        0.9450    -0.6270    -2.0840 O.2   1 <1>  -0.5700 
  2 C        1.4290    -0.9880    -1.0280 C.2   1 <1>   0.5440 
  3 N        1.9330    -0.0420    -0.1550 N.am  1 <1>  -0.6600 
  4 C        1.4540    -2.4040    -0.7130 C.ar  1 <1>   0.0860 
  5 C        2.1200     1.3730    -0.6060 C.3   1 <1>   0.2200 
  6 C        2.1800    -0.3480     1.2870 C.3   1 <1>   0.0600 
  7 C        0.2850    -3.1580    -0.7200 C.ar  1 <1>  -0.1500 
  8 C        2.6440    -3.0580    -0.3940 C.ar  1 <1>  -0.1500 
  9 C        3.4510     1.9590    -0.1230 C.3   1 <1>  -0.1600 
 10 C        0.9410     2.2510    -0.1640 C.3   1 <1>  -0.1600 
 11 C        0.2860    -4.5050    -0.4040 C.ar  1 <1>   0.0830 
 12 C        2.6620    -4.4050    -0.0790 C.ar  1 <1>  -0.1500 
 13 C        3.6220     3.4050    -0.6400 C.3   1 <1>   0.2800 
 14 C        1.3760     3.6940     0.1240 C.3   1 <1>   0.1200 
 15 O       -0.9120    -5.1380    -0.4310 O.3   1 <1>  -0.3630 
 16 C        1.4850    -5.1320    -0.0800 C.ar  1 <1>  -0.1500 
 17 O        2.3910     4.0570    -0.7610 O.3   1 <1>  -0.5600 
 18 C        4.4950     4.2380     0.3010 C.3   1 <1>  -0.2400 
 19 C        4.2240     3.4160    -2.0450 C.3   1 <1>  -0.2400 
 20 C       -1.0170    -6.5200    -0.1590 C.3   1 <1>   0.1200 
 21 C       -2.4800    -6.9280    -0.2890 C.3   1 <1>   0.1200 
 22 O       -2.5780    -8.2880    -0.0090 O.3   1 <1>  -0.5600 
 23 C       -3.8700    -8.7880    -0.0930 C.3   1 <1>   0.1200 
 24 C       -3.8090   -10.2730     0.2370 C.3   1 <1>  -0.2400 
 25 H        2.1480     1.3930    -1.6830 H     1 <1>   0.0800 
 26 H        1.6350    -1.2250     1.5900 H     1 <1>   0.0800 
 27 H        1.8590     0.4720     1.9040 H     1 <1>   0.0800 
 28 H        3.2310    -0.5170     1.4460 H     1 <1>   0.0800 
 29 H       -0.6430    -2.6800    -0.9790 H     1 <1>   0.1500 
 30 H        3.5620    -2.4980    -0.3990 H     1 <1>   0.1500 
 31 H        4.2670     1.3480    -0.4640 H     1 <1>   0.0800 
 32 H        3.4760     1.9710     0.9500 H     1 <1>   0.0800 
 33 H        0.4660     1.8560     0.7140 H     1 <1>   0.0800 
 34 H        0.2110     2.2570    -0.9530 H     1 <1>   0.0800 
 35 H        3.5920    -4.8890     0.1650 H     1 <1>   0.1500 
 36 H        1.7460     3.7980     1.1290 H     1 <1>   0.0800 
 37 H        0.5530     4.3730    -0.0160 H     1 <1>   0.0800 
 38 H        1.5230    -6.1760     0.1690 H     1 <1>   0.1500 
 39 H        4.0670     4.2760     1.2860 H     1 <1>   0.0800 
 40 H        4.5910     5.2400    -0.0760 H     1 <1>   0.0800 
 41 H        5.4760     3.8050     0.3740 H     1 <1>   0.0800 
 42 H        3.5980     2.8690    -2.7270 H     1 <1>   0.0800 
 43 H        5.1990     2.9650    -2.0400 H     1 <1>   0.0800 
 44 H        4.3190     4.4270    -2.3990 H     1 <1>   0.0800 
 45 H       -0.6700    -6.6970     0.8430 H     1 <1>   0.0800 
 46 H       -0.4180    -7.0550    -0.8750 H     1 <1>   0.0800 
 47 H       -2.8260    -6.7550    -1.2940 H     1 <1>   0.0800 
 48 H       -3.0810    -6.3840     0.4190 H     1 <1>   0.0800 
 49 H       -4.2390    -8.6360    -1.0940 H     1 <1>   0.0800 
 50 H       -4.4930    -8.2660     0.6140 H     1 <1>   0.0800 
 51 H       -3.1740   -10.7810    -0.4660 H     1 <1>   0.0800 
 52 H       -4.7940   -10.7000     0.1830 H     1 <1>   0.0800 
 53 H       -3.4270   -10.4140     1.2320 H     1 <1>   0.0800 
@<TRIPOS>BOND
  1   1   2  2   
  2   2   3  am  
  3   2   4  1   
  4   3   5  1   
  5   3   6  1   
  6   4   7  ar  
  7   4   8  ar  
  8   5   9  1   
  9   5  10  1   
 10   5  25  1   
 11   6  26  1   
 12   6  27  1   
 13   6  28  1   
 14   7  11  ar  
 15   7  29  1   
 16   8  12  ar  
 17   8  30  1   
 18   9  13  1   
 19   9  31  1   
 20   9  32  1   
 21  10  14  1   
 22  10  33  1   
 23  10  34  1   
 24  11  15  1   
 25  11  16  ar  
 26  12  16  ar  
 27  12  35  1   
 28  13  17  1   
 29  13  18  1   
 30  13  19  1   
 31  14  17  1   
 32  14  36  1   
 33  14  37  1   
 34  15  20  1   
 35  16  38  1   
 36  18  39  1   
 37  18  40  1   
 38  18  41  1   
 39  19  42  1   
 40  19  43  1   
 41  19  44  1   
 42  20  21  1   
 43  20  45  1   
 44  20  46  1   
 45  21  22  1   
 46  21  47  1   
 47  21  48  1   
 48  22  23  1   
 49  23  24  1   
 50  23  49  1   
 51  23  50  1   
 52  24  51  1   
 53  24  52  1   
 54  24  53  1   
@<TRIPOS>SUBSTRUCTURE
  1 ****   4 GROUP 4 **** **** 0

# MOE 2024.06 (io_trps.svl 2023.06)
