@<TRIPOS>MOLECULE
NONAME
48 50 1 0 0 
SMALL
USER_CHARGES


@<TRIPOS>ATOM
  1 S       -0.1200    -0.8310     0.5310 S.o2  1 <1>   1.5760 
  2 O        0.5100    -1.5330     1.6230 O.2   1 <1>  -0.6500 
  3 O       -1.4900    -0.3800     0.5940 O.2   1 <1>  -0.6500 
  4 N        0.8530     0.4590     0.0650 N.am  1 <1>  -0.8490 
  5 N       -0.0090    -1.7220    -0.8730 N.am  1 <1>  -0.9140 
  6 C        2.2710     0.0840     0.0360 C.3   1 <1>   0.1960 
  7 C        0.6350     1.6170     0.9330 C.3   1 <1>   0.1960 
  8 C       -0.4960    -3.1050    -0.8670 C.3   1 <1>   0.2760 
  9 C        3.1130     1.2360    -0.5200 C.3   1 <1>  -0.1600 
 10 C        1.4230     2.8250     0.4160 C.3   1 <1>  -0.1600 
 11 C       -1.8440    -3.3730    -0.2120 C.3   1 <1>  -0.0800 
 12 C        0.3960    -4.1230    -0.1690 C.3   1 <1>   0.1200 
 13 C        2.9210     2.5130     0.3090 C.3   1 <1>  -0.0800 
 14 C       -1.7680    -4.8730     0.0880 C.3   1 <1>   0.1200 
 15 C       -3.0430    -2.9660    -1.0810 C.3   1 <1>  -0.0170 
 16 O       -0.4210    -5.2420     0.0010 O.3   1 <1>  -0.5600 
 17 C        3.6820     3.6880    -0.3140 C.3   1 <1>  -0.2400 
 18 C       -4.3510    -3.2510    -0.3630 C.ar  1 <1>  -0.1430 
 19 C       -4.7940    -2.4390     0.6620 C.ar  1 <1>  -0.1500 
 20 C       -5.1570    -4.3230    -0.6860 C.ar  1 <1>  -0.1500 
 21 C       -5.9890    -2.7330     1.2980 C.ar  1 <1>   0.1600 
 22 C       -6.3350    -4.5270     0.0140 C.ar  1 <1>   0.1600 
 23 N       -6.7700    -3.7590     1.0000 N.ar  1 <1>  -0.6200 
 24 H       -0.5970    -1.1800    -1.4970 H     1 <1>   0.4200 
 25 H        2.6070    -0.1680     1.0300 H     1 <1>   0.0800 
 26 H        2.4070    -0.7810    -0.5910 H     1 <1>   0.0800 
 27 H       -0.4130     1.8700     0.9460 H     1 <1>   0.0800 
 28 H        0.9380     1.3820     1.9410 H     1 <1>   0.0800 
 29 H       -0.5510    -3.4230    -1.8950 H     1 <1>   0.0800 
 30 H        4.1500     0.9500    -0.5130 H     1 <1>   0.0800 
 31 H        2.8240     1.4090    -1.5420 H     1 <1>   0.0800 
 32 H        1.0330     3.1000    -0.5480 H     1 <1>   0.0800 
 33 H        1.2710     3.6560     1.0820 H     1 <1>   0.0800 
 34 H       -1.9130    -2.8890     0.7440 H     1 <1>   0.0800 
 35 H        0.7060    -3.7970     0.8060 H     1 <1>   0.0800 
 36 H        1.2470    -4.3970    -0.7660 H     1 <1>   0.0800 
 37 H        3.3080     2.3410     1.3000 H     1 <1>   0.0800 
 38 H       -2.3110    -5.4550    -0.6350 H     1 <1>   0.0800 
 39 H       -2.1270    -5.0970     1.0780 H     1 <1>   0.0800 
 40 H       -3.0170    -3.4910    -2.0200 H     1 <1>   0.0800 
 41 H       -2.9900    -1.9120    -1.2940 H     1 <1>   0.0800 
 42 H        3.3220     3.8900    -1.3080 H     1 <1>   0.0800 
 43 H        4.7330     3.4660    -0.3680 H     1 <1>   0.0800 
 44 H        3.5540     4.5740     0.2830 H     1 <1>   0.0800 
 45 H       -4.2200    -1.5830     0.9700 H     1 <1>   0.1500 
 46 H       -4.8850    -5.0020    -1.4730 H     1 <1>   0.1500 
 47 H       -6.3180    -2.0880     2.0950 H     1 <1>   0.1500 
 48 H       -6.9530    -5.3680    -0.2500 H     1 <1>   0.1500 
@<TRIPOS>BOND
  1   1   2  2   
  2   1   3  2   
  3   1   4  am  
  4   1   5  am  
  5   4   6  1   
  6   4   7  1   
  7   5   8  1   
  8   5  24  1   
  9   6   9  1   
 10   6  25  1   
 11   6  26  1   
 12   7  10  1   
 13   7  27  1   
 14   7  28  1   
 15   8  11  1   
 16   8  12  1   
 17   8  29  1   
 18   9  13  1   
 19   9  30  1   
 20   9  31  1   
 21  10  13  1   
 22  10  32  1   
 23  10  33  1   
 24  11  14  1   
 25  11  15  1   
 26  11  34  1   
 27  12  16  1   
 28  12  35  1   
 29  12  36  1   
 30  13  17  1   
 31  13  37  1   
 32  14  16  1   
 33  14  38  1   
 34  14  39  1   
 35  15  18  1   
 36  15  40  1   
 37  15  41  1   
 38  17  42  1   
 39  17  43  1   
 40  17  44  1   
 41  18  19  ar  
 42  18  20  ar  
 43  19  21  ar  
 44  19  45  1   
 45  20  22  ar  
 46  20  46  1   
 47  21  23  ar  
 48  21  47  1   
 49  22  23  ar  
 50  22  48  1   
@<TRIPOS>SUBSTRUCTURE
  1 ****   3 GROUP 4 **** **** 0

# MOE 2024.06 (io_trps.svl 2023.06)
