@<TRIPOS>MOLECULE
NONAME
45 47 1 0 0 
SMALL
USER_CHARGES


@<TRIPOS>ATOM
  1 O       -0.8840     0.5240    -1.8600 O.co2 1 <1>  -0.9000 
  2 C       -1.3040     0.6870    -0.7100 C.2   1 <1>   0.9060 
  3 O       -2.0080    -0.1420    -0.1270 O.co2 1 <1>  -0.9000 
  4 C       -0.9650     1.9780     0.0080 C.3   1 <1>  -0.1060 
  5 C       -2.2710     2.5370     0.6040 C.3   1 <1>   0.2000 
  6 C       -0.5390     2.9490    -1.0990 C.3   1 <1>   0.3430 
  7 C        0.1310     1.6700     1.0810 C.3   1 <1>  -0.0170 
  8 O       -2.6300     1.7800     1.6960 O.3   1 <1>  -0.6800 
  9 C       -2.1920     4.0150     1.0260 C.3   1 <1>  -0.1600 
 10 N       -0.4170     4.3840    -0.6670 N.4   1 <1>  -0.9590 
 11 C        1.5590     2.0370     0.6880 C.ar  1 <1>  -0.1440 
 12 C       -0.8270     4.6430     0.7450 C.3   1 <1>   0.3430 
 13 C        0.9800     4.8740    -0.9380 C.3   1 <1>   0.5240 
 14 C        2.1510     1.4710    -0.4320 C.ar  1 <1>  -0.1500 
 15 C        2.2850     2.9370     1.4560 C.ar  1 <1>  -0.1500 
 16 C        1.0940     6.3980    -0.8500 C.2   1 <1>   0.3350 
 17 C        3.4320     1.8350    -0.8060 C.ar  1 <1>  -0.1500 
 18 C        3.5670     3.3010     1.0820 C.ar  1 <1>  -0.1500 
 19 N        0.1260     7.2130    -1.0130 N.2   1 <1>  -0.4100 
 20 N        2.2460     6.9970    -0.5820 N.2   1 <1>  -0.5650 
 21 C        4.1390     2.7560    -0.0530 C.ar  1 <1>  -0.1500 
 22 O        0.6050     8.4110    -0.8630 O.3   1 <1>  -0.0190 
 23 C        1.8760     8.2140    -0.6100 C.2   1 <1>   0.2980 
 24 C        2.7680     9.4130    -0.3790 C.3   1 <1>  -0.0600 
 25 H       -3.0650     2.4260    -0.1190 H     1 <1>   0.0800 
 26 H       -1.2810     2.8870    -1.8810 H     1 <1>   0.0800 
 27 H        0.3810     2.6020    -1.5380 H     1 <1>   0.0800 
 28 H       -0.1080     2.1710     2.0010 H     1 <1>   0.0800 
 29 H        0.1100     0.6190     1.3210 H     1 <1>   0.0800 
 30 H       -2.6390     0.8330     1.3820 H     1 <1>   0.4000 
 31 H       -2.9410     4.5690     0.4910 H     1 <1>   0.0800 
 32 H       -2.4080     4.1150     2.0750 H     1 <1>   0.0800 
 33 H       -1.0320     4.9490    -1.2680 H     1 <1>   0.4500 
 34 H       -0.1000     4.2160     1.4150 H     1 <1>   0.0800 
 35 H       -0.8710     5.7040     0.9310 H     1 <1>   0.0800 
 36 H        1.6660     4.4380    -0.2370 H     1 <1>   0.0800 
 37 H        1.2860     4.5720    -1.9240 H     1 <1>   0.0800 
 38 H        1.6140     0.7400    -1.0190 H     1 <1>   0.1500 
 39 H        1.8620     3.3570     2.3520 H     1 <1>   0.1500 
 40 H        3.8790     1.3920    -1.6800 H     1 <1>   0.1500 
 41 H        4.1260     4.0020     1.6790 H     1 <1>   0.1500 
 42 H        5.1370     3.0360    -0.3440 H     1 <1>   0.1500 
 43 H        3.7750     9.0920    -0.1860 H     1 <1>   0.0800 
 44 H        2.4120     9.9750     0.4650 H     1 <1>   0.0800 
 45 H        2.7630    10.0430    -1.2500 H     1 <1>   0.0800 
@<TRIPOS>BOND
  1   1   2  ar  
  2   2   3  ar  
  3   2   4  1   
  4   4   5  1   
  5   4   6  1   
  6   4   7  1   
  7   5   8  1   
  8   5   9  1   
  9   5  25  1   
 10   6  10  1   
 11   6  26  1   
 12   6  27  1   
 13   7  11  1   
 14   7  28  1   
 15   7  29  1   
 16   8  30  1   
 17   9  12  1   
 18   9  31  1   
 19   9  32  1   
 20  10  12  1   
 21  10  13  1   
 22  10  33  1   
 23  11  14  ar  
 24  11  15  ar  
 25  12  34  1   
 26  12  35  1   
 27  13  16  1   
 28  13  36  1   
 29  13  37  1   
 30  14  17  ar  
 31  14  38  1   
 32  15  18  ar  
 33  15  39  1   
 34  16  19  2   
 35  16  20  1   
 36  17  21  ar  
 37  17  40  1   
 38  18  21  ar  
 39  18  41  1   
 40  19  22  1   
 41  20  23  2   
 42  21  42  1   
 43  22  23  1   
 44  23  24  1   
 45  24  43  1   
 46  24  44  1   
 47  24  45  1   
@<TRIPOS>SUBSTRUCTURE
  1 ****  10 GROUP 4 **** **** 0

# MOE 2024.06 (io_trps.svl 2023.06)
