@<TRIPOS>MOLECULE
NONAME
35 37 1 0 0 
SMALL
USER_CHARGES


@<TRIPOS>ATOM
  1 CL       0.2150     0.1310    -1.4030 Cl    1 <1>  -0.1770 
  2 C        1.4960    -0.8260    -0.6760 C.ar  1 <1>   0.1770 
  3 C        1.2900    -2.1250    -0.2150 C.ar  1 <1>   0.4100 
  4 C        2.7480    -0.2880    -0.5630 C.ar  1 <1>   0.1600 
  5 N        2.3000    -2.8050     0.3060 N.ar  1 <1>  -0.6200 
  6 N        0.0610    -2.7630    -0.2720 N.pl3 1 <1>  -0.8380 
  7 N        3.7570    -0.9600    -0.0370 N.ar  1 <1>  -0.6200 
  8 C        3.4650    -2.1860     0.3650 C.ar  1 <1>   0.4770 
  9 C       -0.0500    -4.2290    -0.2100 C.3   1 <1>   0.2090 
 10 C       -1.0240    -2.2960     0.5260 C.3   1 <1>   0.2090 
 11 C        4.6010    -2.9820     0.9620 C.3   1 <1>  -0.0960 
 12 C       -1.5350    -4.7790    -0.1790 C.3   1 <1>   0.0000 
 13 C       -2.0710    -3.3480     0.2400 C.3   1 <1>  -0.1600 
 14 C       -3.0230    -5.3250    -0.2710 C.3   1 <1>  -0.1600 
 15 C       -1.0080    -6.2440    -0.4850 C.3   1 <1>  -0.1600 
 16 C       -3.1490    -6.6250     0.5020 C.3   1 <1>  -0.1600 
 17 C       -1.8360    -7.3030     0.2380 C.3   1 <1>  -0.1600 
 18 H        2.9320     0.7120    -0.9130 H     1 <1>   0.1500 
 19 H        0.4630    -4.5620     0.6780 H     1 <1>   0.0800 
 20 H        0.4920    -4.5920    -1.0700 H     1 <1>   0.0800 
 21 H       -1.3520    -1.3150     0.2290 H     1 <1>   0.0800 
 22 H       -0.7400    -2.3000     1.5660 H     1 <1>   0.0800 
 23 H        4.2570    -3.5070     1.8340 H     1 <1>   0.0800 
 24 H        5.4080    -2.3310     1.2430 H     1 <1>   0.0800 
 25 H        4.9540    -3.6910     0.2390 H     1 <1>   0.0800 
 26 H       -2.6720    -2.9400    -0.5580 H     1 <1>   0.0800 
 27 H       -2.6700    -3.3880     1.1350 H     1 <1>   0.0800 
 28 H       -3.2310    -5.5280    -1.3100 H     1 <1>   0.0800 
 29 H       -3.8570    -4.7150     0.0460 H     1 <1>   0.0800 
 30 H        0.0130    -6.4820    -0.2200 H     1 <1>   0.0800 
 31 H       -1.0840    -6.4130    -1.5480 H     1 <1>   0.0800 
 32 H       -3.9840    -7.2130     0.1630 H     1 <1>   0.0800 
 33 H       -3.2550    -6.4190     1.5540 H     1 <1>   0.0800 
 34 H       -1.3730    -7.5810     1.1700 H     1 <1>   0.0800 
 35 H       -1.9580    -8.1790    -0.3760 H     1 <1>   0.0800 
@<TRIPOS>BOND
  1   1   2  1   
  2   2   3  ar  
  3   2   4  ar  
  4   3   5  ar  
  5   3   6  1   
  6   4   7  ar  
  7   4  18  1   
  8   5   8  ar  
  9   6   9  1   
 10   6  10  1   
 11   7   8  ar  
 12   8  11  1   
 13   9  12  1   
 14   9  19  1   
 15   9  20  1   
 16  10  13  1   
 17  10  21  1   
 18  10  22  1   
 19  11  23  1   
 20  11  24  1   
 21  11  25  1   
 22  12  13  1   
 23  12  14  1   
 24  12  15  1   
 25  13  26  1   
 26  13  27  1   
 27  14  16  1   
 28  14  28  1   
 29  14  29  1   
 30  15  17  1   
 31  15  30  1   
 32  15  31  1   
 33  16  17  1   
 34  16  32  1   
 35  16  33  1   
 36  17  34  1   
 37  17  35  1   
@<TRIPOS>SUBSTRUCTURE
  1 ****   6 GROUP 4 **** **** 0

# MOE 2024.06 (io_trps.svl 2023.06)
