@<TRIPOS>MOLECULE
NONAME
49 52 1 0 0 
SMALL
USER_CHARGES


@<TRIPOS>ATOM
  1 S       -2.1280     1.7480    -2.6780 S.3   1 <1>  -0.0800 
  2 C       -1.4910     3.0240    -1.6360 C.2   1 <1>  -0.0450 
  3 C       -3.0060     1.0070    -1.3620 C.2   1 <1>  -0.1100 
  4 C       -0.6230     4.0140    -2.2090 C.2   1 <1>   0.5940 
  5 C       -1.9700     2.8270    -0.3770 C.2   1 <1>  -0.1500 
  6 C       -2.8240     1.6960    -0.2190 C.2   1 <1>  -0.1810 
  7 O       -0.2910     4.0450    -3.3660 O.2   1 <1>  -0.5700 
  8 C       -0.0800     5.1000    -1.3060 C.3   1 <1>  -0.1790 
  9 C       -3.4330     1.3590     1.1410 C.3   1 <1>   0.0820 
 10 C       -4.5070     0.2760     1.0960 C.2   1 <1>   0.5690 
 11 O       -4.2460    -0.7750     1.6330 O.2   1 <1>  -0.5700 
 12 N       -5.7230     0.4910     0.4870 N.am  1 <1>  -0.6600 
 13 C       -6.1340     1.7600    -0.1990 C.3   1 <1>   0.1400 
 14 C       -6.7440    -0.5930     0.3960 C.3   1 <1>   0.1400 
 15 C       -7.4610     2.2950     0.3720 C.3   1 <1>   0.1430 
 16 C       -8.0860    -0.1040     0.9570 C.3   1 <1>  -0.1600 
 17 C       -7.8420     3.5480    -0.3940 C.ar  1 <1>   0.1670 
 18 C       -8.5450     1.2000     0.2800 C.3   1 <1>  -0.1600 
 19 C       -7.2960     2.8240     1.8230 C.3   1 <1>  -0.1600 
 20 N       -8.2680     3.5810    -1.6370 N.ar  1 <1>  -0.6200 
 21 C       -7.6700     4.6710     0.3590 C.ar  1 <1>  -0.1430 
 22 C       -7.1470     4.3540     1.7370 C.3   1 <1>  -0.0170 
 23 C       -8.5310     4.7970    -2.0940 C.ar  1 <1>   0.4770 
 24 C       -7.9740     5.8800    -0.2150 C.ar  1 <1>   0.1600 
 25 N       -8.4110     5.9540    -1.4560 N.ar  1 <1>  -0.6200 
 26 C       -9.0230     4.8730    -3.5190 C.3   1 <1>  -0.0970 
 27 H       -3.5740     0.1200    -1.5840 H     1 <1>   0.1500 
 28 H       -1.7390     3.4570     0.4650 H     1 <1>   0.1500 
 29 H        0.4900     4.6600    -0.5100 H     1 <1>   0.0800 
 30 H       -0.8920     5.6710    -0.8970 H     1 <1>   0.0800 
 31 H        0.5580     5.7570    -1.8680 H     1 <1>   0.0800 
 32 H       -3.8610     2.2420     1.5760 H     1 <1>   0.0800 
 33 H       -2.6460     1.0300     1.7940 H     1 <1>   0.0800 
 34 H       -6.2620     1.5570    -1.2490 H     1 <1>   0.0800 
 35 H       -5.3800     2.5200    -0.1110 H     1 <1>   0.0800 
 36 H       -6.4260    -1.4660     0.9410 H     1 <1>   0.0800 
 37 H       -6.8620    -0.8730    -0.6360 H     1 <1>   0.0800 
 38 H       -7.9850     0.0420     2.0180 H     1 <1>   0.0800 
 39 H       -8.8280    -0.8670     0.8050 H     1 <1>   0.0800 
 40 H       -8.7480     0.9970    -0.7580 H     1 <1>   0.0800 
 41 H       -9.4620     1.5460     0.7240 H     1 <1>   0.0800 
 42 H       -6.4650     2.3720     2.3350 H     1 <1>   0.0800 
 43 H       -8.1870     2.6110     2.3860 H     1 <1>   0.0800 
 44 H       -6.1130     4.6420     1.8080 H     1 <1>   0.0800 
 45 H       -7.7190     4.8500     2.5020 H     1 <1>   0.0800 
 46 H       -7.8590     6.7950     0.3400 H     1 <1>   0.1500 
 47 H       -9.6630     4.0360    -3.7300 H     1 <1>   0.0800 
 48 H       -8.1820     4.8520    -4.1850 H     1 <1>   0.0800 
 49 H       -9.5750     5.7810    -3.6750 H     1 <1>   0.0800 
@<TRIPOS>BOND
  1   1   2  1   
  2   1   3  1   
  3   2   4  1   
  4   2   5  2   
  5   3   6  2   
  6   3  27  1   
  7   4   7  2   
  8   4   8  1   
  9   5   6  1   
 10   5  28  1   
 11   6   9  1   
 12   8  29  1   
 13   8  30  1   
 14   8  31  1   
 15   9  10  1   
 16   9  32  1   
 17   9  33  1   
 18  10  11  2   
 19  10  12  am  
 20  12  13  1   
 21  12  14  1   
 22  13  15  1   
 23  13  34  1   
 24  13  35  1   
 25  14  16  1   
 26  14  36  1   
 27  14  37  1   
 28  15  17  1   
 29  15  18  1   
 30  15  19  1   
 31  16  18  1   
 32  16  38  1   
 33  16  39  1   
 34  17  20  ar  
 35  17  21  ar  
 36  18  40  1   
 37  18  41  1   
 38  19  22  1   
 39  19  42  1   
 40  19  43  1   
 41  20  23  ar  
 42  21  22  1   
 43  21  24  ar  
 44  22  44  1   
 45  22  45  1   
 46  23  25  ar  
 47  23  26  1   
 48  24  25  ar  
 49  24  46  1   
 50  26  47  1   
 51  26  48  1   
 52  26  49  1   
@<TRIPOS>SUBSTRUCTURE
  1 ****  13 GROUP 4 **** **** 0

# MOE 2024.06 (io_trps.svl 2023.06)
