@<TRIPOS>MOLECULE
NONAME
33 33 1 0 0 
SMALL
USER_CHARGES


@<TRIPOS>ATOM
  1 CL      -0.9170     0.3960     0.3520 Cl    1 <1>  -0.1770 
  2 C       -0.5980     2.0820     0.0450 C.ar  1 <1>   0.1770 
  3 C       -1.5930     2.8770    -0.4880 C.ar  1 <1>  -0.1500 
  4 C        0.6470     2.6030     0.3380 C.ar  1 <1>  -0.1500 
  5 C       -1.3330     4.2170    -0.7290 C.ar  1 <1>  -0.1500 
  6 C        0.8940     3.9440     0.0930 C.ar  1 <1>  -0.1500 
  7 C       -0.0890     4.7730    -0.4410 C.ar  1 <1>  -0.0090 
  8 S        0.2520     6.5260    -0.7640 S.o2  1 <1>   1.4470 
  9 O        1.2690     6.6440    -1.7830 O.2   1 <1>  -0.6500 
 10 O       -0.9810     7.2660    -0.8790 O.2   1 <1>  -0.6500 
 11 N        0.8900     7.0590     0.6950 N.am  1 <1>  -0.9140 
 12 C        1.7860     8.2390     0.7030 C.3   1 <1>   0.3370 
 13 C        3.2840     7.9690     0.3930 C.2   1 <1>   0.5690 
 14 C        1.2050     9.4190    -0.1040 C.3   1 <1>  -0.1600 
 15 O        4.1130     8.3520     1.1800 O.2   1 <1>  -0.5700 
 16 N        3.6910     7.3530    -0.7350 N.am  1 <1>  -0.8000 
 17 C        1.9540    10.7470     0.1680 C.3   1 <1>  -0.1600 
 18 C        1.3660    11.9620    -0.5590 C.3   1 <1>   1.0200 
 19 F        1.3670    11.8100    -1.8760 F     1 <1>  -0.3400 
 20 F        2.0430    13.0710    -0.3020 F     1 <1>  -0.3400 
 21 F        0.1100    12.1930    -0.2070 F     1 <1>  -0.3400 
 22 H       -2.5560     2.4510    -0.7110 H     1 <1>   0.1500 
 23 H        1.4090     1.9660     0.7520 H     1 <1>   0.1500 
 24 H       -2.1100     4.8380    -1.1460 H     1 <1>   0.1500 
 25 H        1.8650     4.3530     0.3200 H     1 <1>   0.1500 
 26 H        0.0580     7.3240     1.2180 H     1 <1>   0.4200 
 27 H        1.7960     8.5660     1.7290 H     1 <1>   0.0800 
 28 H        1.2650     9.2060    -1.1570 H     1 <1>   0.0800 
 29 H        0.1680     9.5480     0.1580 H     1 <1>   0.0800 
 30 H        4.6820     7.1940    -0.9140 H     1 <1>   0.3700 
 31 H        3.0260     7.0070    -1.4420 H     1 <1>   0.3700 
 32 H        2.9810    10.6560    -0.1380 H     1 <1>   0.0800 
 33 H        1.9430    10.9610     1.2210 H     1 <1>   0.0800 
@<TRIPOS>BOND
  1   1   2  1   
  2   2   3  ar  
  3   2   4  ar  
  4   3   5  ar  
  5   3  22  1   
  6   4   6  ar  
  7   4  23  1   
  8   5   7  ar  
  9   5  24  1   
 10   6   7  ar  
 11   6  25  1   
 12   7   8  1   
 13   8   9  2   
 14   8  10  2   
 15   8  11  am  
 16  11  12  1   
 17  11  26  1   
 18  12  13  1   
 19  12  14  1   
 20  12  27  1   
 21  13  15  2   
 22  13  16  am  
 23  14  17  1   
 24  14  28  1   
 25  14  29  1   
 26  16  30  1   
 27  16  31  1   
 28  17  18  1   
 29  17  32  1   
 30  17  33  1   
 31  18  19  1   
 32  18  20  1   
 33  18  21  1   
@<TRIPOS>SUBSTRUCTURE
  1 ****  11 GROUP 4 **** **** 0

# MOE 2024.06 (io_trps.svl 2023.06)
