@<TRIPOS>MOLECULE
NONAME
43 45 1 0 0 
SMALL
USER_CHARGES


@<TRIPOS>ATOM
  1 CL       0.3830     1.7560     1.4450 Cl    1 <1>  -0.1770 
  2 C        1.8940     2.0870     0.6310 C.ar  1 <1>   0.1770 
  3 C        2.1680     3.3630     0.1670 C.ar  1 <1>   0.1600 
  4 C        2.8070     1.0700     0.4590 C.ar  1 <1>  -0.1500 
  5 N        3.2850     3.7140    -0.4620 N.ar  1 <1>  -0.6200 
  6 C        3.9610     1.4320    -0.1910 C.ar  1 <1>   0.1900 
  7 C        4.1860     2.7470    -0.6480 C.ar  1 <1>   0.4100 
  8 F        4.8690     0.5010    -0.3670 F     1 <1>  -0.1900 
  9 N        5.3570     3.1180    -1.3120 N.pl3 1 <1>  -0.8380 
 10 C        5.8730     4.5140    -1.2120 C.3   1 <1>   0.2090 
 11 C        5.7370     2.4020    -2.5610 C.3   1 <1>   0.1290 
 12 C        6.4120     4.7870     0.2010 C.3   1 <1>  -0.0800 
 13 C        6.9050     6.2390     0.2850 C.3   1 <1>   0.1400 
 14 C        7.6600     3.9350     0.5060 C.3   1 <1>  -0.0990 
 15 N        8.3560     6.1330     0.0370 N.am  1 <1>  -0.6600 
 16 C        8.7940     4.8590     0.1620 C.2   1 <1>   0.5690 
 17 C        9.2380     7.2910    -0.2610 C.3   1 <1>   0.2200 
 18 O        9.9310     4.4800     0.0220 O.2   1 <1>  -0.5700 
 19 C        9.1510     8.3540     0.8300 C.3   1 <1>  -0.1600 
 20 C        8.7930     8.0090    -1.5350 C.3   1 <1>  -0.1600 
 21 C        8.0360     9.3170     0.4130 C.3   1 <1>  -0.1600 
 22 C        7.9060     9.1880    -1.1090 C.3   1 <1>  -0.1600 
 23 H        1.4290     4.1300     0.3210 H     1 <1>   0.1500 
 24 H        2.6290     0.0710     0.8100 H     1 <1>   0.1500 
 25 H        5.0830     5.2060    -1.4490 H     1 <1>   0.0800 
 26 H        6.6640     4.6620    -1.9280 H     1 <1>   0.0800 
 27 H        5.1070     1.5440    -2.7160 H     1 <1>   0.0800 
 28 H        6.7600     2.0750    -2.4910 H     1 <1>   0.0800 
 29 H        5.6320     3.0580    -3.4070 H     1 <1>   0.0800 
 30 H        5.6270     4.6200     0.9170 H     1 <1>   0.0800 
 31 H        6.7440     6.6350     1.2730 H     1 <1>   0.0800 
 32 H        6.4260     6.8690    -0.4420 H     1 <1>   0.0800 
 33 H        7.7090     3.0320    -0.0730 H     1 <1>   0.0800 
 34 H        7.7140     3.6980     1.5510 H     1 <1>   0.0800 
 35 H       10.2520     6.9400    -0.3630 H     1 <1>   0.0800 
 36 H       10.0810     8.8940     0.8440 H     1 <1>   0.0800 
 37 H        8.9920     7.9250     1.8040 H     1 <1>   0.0800 
 38 H        8.2960     7.3440    -2.2180 H     1 <1>   0.0800 
 39 H        9.6690     8.4000    -2.0210 H     1 <1>   0.0800 
 40 H        8.2660    10.3270     0.7050 H     1 <1>   0.0800 
 41 H        7.1120     9.0290     0.8810 H     1 <1>   0.0800 
 42 H        6.8800     9.0080    -1.3790 H     1 <1>   0.0800 
 43 H        8.2340    10.0910    -1.5940 H     1 <1>   0.0800 
@<TRIPOS>BOND
  1   1   2  1   
  2   2   3  ar  
  3   2   4  ar  
  4   3   5  ar  
  5   3  23  1   
  6   4   6  ar  
  7   4  24  1   
  8   5   7  ar  
  9   6   7  ar  
 10   6   8  1   
 11   7   9  1   
 12   9  10  1   
 13   9  11  1   
 14  10  12  1   
 15  10  25  1   
 16  10  26  1   
 17  11  27  1   
 18  11  28  1   
 19  11  29  1   
 20  12  13  1   
 21  12  14  1   
 22  12  30  1   
 23  13  15  1   
 24  13  31  1   
 25  13  32  1   
 26  14  16  1   
 27  14  33  1   
 28  14  34  1   
 29  15  16  am  
 30  15  17  1   
 31  16  18  2   
 32  17  19  1   
 33  17  20  1   
 34  17  35  1   
 35  19  21  1   
 36  19  36  1   
 37  19  37  1   
 38  20  22  1   
 39  20  38  1   
 40  20  39  1   
 41  21  22  1   
 42  21  40  1   
 43  21  41  1   
 44  22  42  1   
 45  22  43  1   
@<TRIPOS>SUBSTRUCTURE
  1 ****  12 GROUP 4 **** **** 0

# MOE 2024.06 (io_trps.svl 2023.06)
