@<TRIPOS>MOLECULE
NONAME
50 52 1 0 0 
SMALL
USER_CHARGES


@<TRIPOS>ATOM
  1 S        1.3510     1.5200    -0.4080 S.o2  1 <1>   1.3330 
  2 O        0.6780     2.2050    -1.4860 O.2   1 <1>  -0.6500 
  3 O        2.6430     2.0030     0.0230 O.2   1 <1>  -0.6500 
  4 N        1.4540    -0.1320    -0.7600 N.am  1 <1>  -0.8490 
  5 C        0.2930     1.5900     1.0390 C.3   1 <1>  -0.0550 
  6 C        0.3300    -0.6320    -1.5630 C.3   1 <1>   0.1160 
  7 C        2.7200    -0.4930    -1.4070 C.3   1 <1>   0.1160 
  8 C        0.0420     3.0030     1.6240 C.3   1 <1>  -0.0800 
  9 C       -0.7160     3.9310     0.6690 C.3   1 <1>   0.2000 
 10 C        1.3260     3.7750     1.9560 C.3   1 <1>   0.3430 
 11 O       -1.5580     4.7370     1.4250 O.3   1 <1>  -0.6800 
 12 C        0.3440     4.8040    -0.0150 C.3   1 <1>   0.3430 
 13 N        1.5950     4.6770     0.8030 N.4   1 <1>  -0.9590 
 14 C        2.2400     5.9670     1.1870 C.3   1 <1>   0.4860 
 15 C        2.3010     6.9220     0.0050 C.ar  1 <1>  -0.1440 
 16 C        3.3000     6.8130    -0.9730 C.ar  1 <1>   0.0530 
 17 C        1.3500     7.9300    -0.0730 C.ar  1 <1>  -0.1500 
 18 C        4.3440     5.8120    -0.9490 C.2   1 <1>   0.0870 
 19 C        3.2850     7.7340    -2.0190 C.ar  1 <1>  -0.1500 
 20 C        1.3610     8.8300    -1.1210 C.ar  1 <1>  -0.1500 
 21 O        4.0920     4.5750    -0.5450 O.3   1 <1>  -0.2800 
 22 C        5.6530     5.8920    -1.3080 C.2   1 <1>  -0.1500 
 23 C        2.3310     8.7290    -2.0980 C.ar  1 <1>  -0.1500 
 24 C        5.1960     3.8640    -0.6410 C.2   1 <1>  -0.0100 
 25 C        6.2060     4.6250    -1.1070 C.2   1 <1>  -0.1500 
 26 H       -0.6550     1.1480     0.7970 H     1 <1>   0.0800 
 27 H        0.7340     0.9790     1.8030 H     1 <1>   0.0800 
 28 H        0.4080    -1.7000    -1.6830 H     1 <1>   0.0800 
 29 H        0.3270    -0.1710    -2.5370 H     1 <1>   0.0800 
 30 H       -0.6040    -0.4160    -1.0750 H     1 <1>   0.0800 
 31 H        2.7580    -1.5540    -1.5890 H     1 <1>   0.0800 
 32 H        3.5490    -0.2330    -0.7700 H     1 <1>   0.0800 
 33 H        2.8260     0.0300    -2.3440 H     1 <1>   0.0800 
 34 H       -0.5280     2.8580     2.5270 H     1 <1>   0.0800 
 35 H       -1.3270     3.4070    -0.0490 H     1 <1>   0.0800 
 36 H        2.1570     3.1100     2.1320 H     1 <1>   0.0800 
 37 H        1.1590     4.3650     2.8430 H     1 <1>   0.0800 
 38 H       -1.0920     5.2270     2.1280 H     1 <1>   0.4000 
 39 H       -0.0010     5.8210    -0.0800 H     1 <1>   0.0800 
 40 H        0.5320     4.4410    -1.0130 H     1 <1>   0.0800 
 41 H        2.3000     4.2030     0.1960 H     1 <1>   0.4500 
 42 H        1.6810     6.4320     1.9810 H     1 <1>   0.0800 
 43 H        3.2400     5.7800     1.5440 H     1 <1>   0.0800 
 44 H        0.5870     8.0330     0.6800 H     1 <1>   0.1500 
 45 H        4.0330     7.6680    -2.7900 H     1 <1>   0.1500 
 46 H        0.6190     9.6100    -1.1790 H     1 <1>   0.1500 
 47 H        6.1860     6.7480    -1.6800 H     1 <1>   0.1500 
 48 H        2.3440     9.4270    -2.9190 H     1 <1>   0.1500 
 49 H        5.1750     2.8240    -0.3600 H     1 <1>   0.1500 
 50 H        7.2280     4.3460    -1.2980 H     1 <1>   0.1500 
@<TRIPOS>BOND
  1   1   2  2   
  2   1   3  2   
  3   1   4  am  
  4   1   5  1   
  5   4   6  1   
  6   4   7  1   
  7   5   8  1   
  8   5  26  1   
  9   5  27  1   
 10   6  28  1   
 11   6  29  1   
 12   6  30  1   
 13   7  31  1   
 14   7  32  1   
 15   7  33  1   
 16   8   9  1   
 17   8  10  1   
 18   8  34  1   
 19   9  11  1   
 20   9  12  1   
 21   9  35  1   
 22  10  13  1   
 23  10  36  1   
 24  10  37  1   
 25  11  38  1   
 26  12  13  1   
 27  12  39  1   
 28  12  40  1   
 29  13  14  1   
 30  13  41  1   
 31  14  15  1   
 32  14  42  1   
 33  14  43  1   
 34  15  16  ar  
 35  15  17  ar  
 36  16  18  1   
 37  16  19  ar  
 38  17  20  ar  
 39  17  44  1   
 40  18  21  1   
 41  18  22  2   
 42  19  23  ar  
 43  19  45  1   
 44  20  23  ar  
 45  20  46  1   
 46  21  24  1   
 47  22  25  1   
 48  22  47  1   
 49  23  48  1   
 50  24  25  2   
 51  24  49  1   
 52  25  50  1   
@<TRIPOS>SUBSTRUCTURE
  1 ****  13 GROUP 4 **** **** 0

# MOE 2024.06 (io_trps.svl 2023.06)
