@<TRIPOS>MOLECULE
NONAME
62 64 1 0 0 
SMALL
USER_CHARGES


@<TRIPOS>ATOM
  1 O       -3.6950    -1.2620     2.5090 O.2   1 <1>  -0.5700 
  2 C       -2.9240    -0.9180     1.6430 C.2   1 <1>   0.5690 
  3 N       -2.8510    -1.5660     0.4390 N.am  1 <1>  -0.6600 
  4 C       -2.0350     0.2780     1.9320 C.3   1 <1>  -0.0990 
  5 C       -1.9530    -1.1550    -0.6700 C.3   1 <1>   0.1400 
  6 C       -3.6900    -2.7680     0.1820 C.3   1 <1>   0.1400 
  7 C       -2.3590     1.4950     1.0500 C.3   1 <1>  -0.1600 
  8 C       -2.3330     0.2310    -1.2030 C.3   1 <1>  -0.1600 
  9 C       -5.0430    -2.3470    -0.3860 C.3   1 <1>  -0.0990 
 10 C       -1.7780     1.3950    -0.3670 C.3   1 <1>  -0.1600 
 11 C       -5.8930    -3.5530    -0.7110 C.2   1 <1>   0.5690 
 12 O       -6.2260    -3.7480    -1.8560 O.2   1 <1>  -0.5700 
 13 N       -6.3150    -4.3610     0.2970 N.am  1 <1>  -0.6600 
 14 C       -5.8900    -5.8000     0.3620 C.3   1 <1>   0.3640 
 15 C       -7.7160    -4.1780     0.7510 C.3   1 <1>   0.1400 
 16 C       -4.4520    -5.9590    -0.1550 C.ar  1 <1>  -0.1430 
 17 C       -6.9310    -6.7300    -0.3310 C.3   1 <1>   0.2000 
 18 C       -8.6410    -5.1080    -0.0460 C.3   1 <1>   0.1200 
 19 C       -3.4180    -6.0810     0.7650 C.ar  1 <1>  -0.1500 
 20 C       -4.1440    -5.9940    -1.5120 C.ar  1 <1>  -0.1500 
 21 O       -8.2370    -6.4370     0.1120 O.3   1 <1>  -0.5600 
 22 C       -6.7440    -8.2360    -0.0520 C.3   1 <1>   0.1200 
 23 C       -2.1070    -6.2320     0.3480 C.ar  1 <1>   0.0820 
 24 C       -2.8340    -6.1270    -1.9370 C.ar  1 <1>  -0.1500 
 25 O       -5.4260    -8.6710    -0.1540 O.3   1 <1>  -0.6800 
 26 O       -1.1630    -6.3920     1.3050 O.3   1 <1>  -0.3630 
 27 C       -1.8050    -6.2280    -1.0170 C.ar  1 <1>   0.0820 
 28 C       -0.6390    -7.6950     1.4240 C.3   1 <1>   0.0400 
 29 O       -0.5420    -6.3130    -1.5080 O.3   1 <1>  -0.3630 
 30 C        0.3910    -5.3500    -1.0670 C.3   1 <1>   0.0400 
 31 H       -2.1860     0.5540     2.9600 H     1 <1>   0.0800 
 32 H       -1.0050    -0.0060     1.8270 H     1 <1>   0.0800 
 33 H       -0.9320    -1.1630    -0.3320 H     1 <1>   0.0800 
 34 H       -2.0340    -1.8670    -1.4750 H     1 <1>   0.0800 
 35 H       -3.1870    -3.4300    -0.5010 H     1 <1>   0.0800 
 36 H       -3.8400    -3.3040     1.1050 H     1 <1>   0.0800 
 37 H       -3.4270     1.6280     1.0020 H     1 <1>   0.0800 
 38 H       -1.9470     2.3720     1.5190 H     1 <1>   0.0800 
 39 H       -1.9240     0.3210    -2.1940 H     1 <1>   0.0800 
 40 H       -3.4030     0.3080    -1.2930 H     1 <1>   0.0800 
 41 H       -4.8970    -1.7750    -1.2830 H     1 <1>   0.0800 
 42 H       -5.5610    -1.7420     0.3340 H     1 <1>   0.0800 
 43 H       -0.7060     1.3140    -0.3090 H     1 <1>   0.0800 
 44 H       -1.9980     2.3140    -0.8840 H     1 <1>   0.0800 
 45 H       -5.8830    -6.0800     1.4010 H     1 <1>   0.0800 
 46 H       -7.7910    -4.3970     1.8020 H     1 <1>   0.0800 
 47 H       -8.0180    -3.1560     0.5980 H     1 <1>   0.0800 
 48 H       -6.9100    -6.5630    -1.3930 H     1 <1>   0.0800 
 49 H       -8.6220    -4.8610    -1.0940 H     1 <1>   0.0800 
 50 H       -9.6510    -5.0270     0.3130 H     1 <1>   0.0800 
 51 H       -3.6200    -6.0660     1.8210 H     1 <1>   0.1500 
 52 H       -4.9200    -5.9010    -2.2530 H     1 <1>   0.1500 
 53 H       -7.3330    -8.8070    -0.7490 H     1 <1>   0.0800 
 54 H       -7.0710    -8.4630     0.9480 H     1 <1>   0.0800 
 55 H       -2.6020    -6.1430    -2.9860 H     1 <1>   0.1500 
 56 H       -4.9810    -8.2980    -0.9430 H     1 <1>   0.4000 
 57 H        0.0670    -7.7020     2.2340 H     1 <1>   0.0800 
 58 H       -0.1500    -7.9650     0.5050 H     1 <1>   0.0800 
 59 H       -1.4470    -8.3760     1.6300 H     1 <1>   0.0800 
 60 H        1.2240    -5.3550    -1.7470 H     1 <1>   0.0800 
 61 H        0.7270    -5.6060    -0.0800 H     1 <1>   0.0800 
 62 H       -0.0790    -4.3820    -1.0650 H     1 <1>   0.0800 
@<TRIPOS>BOND
  1   1   2  2   
  2   2   3  am  
  3   2   4  1   
  4   3   5  1   
  5   3   6  1   
  6   4   7  1   
  7   4  31  1   
  8   4  32  1   
  9   5   8  1   
 10   5  33  1   
 11   5  34  1   
 12   6   9  1   
 13   6  35  1   
 14   6  36  1   
 15   7  10  1   
 16   7  37  1   
 17   7  38  1   
 18   8  10  1   
 19   8  39  1   
 20   8  40  1   
 21   9  11  1   
 22   9  41  1   
 23   9  42  1   
 24  10  43  1   
 25  10  44  1   
 26  11  12  2   
 27  11  13  am  
 28  13  14  1   
 29  13  15  1   
 30  14  16  1   
 31  14  17  1   
 32  14  45  1   
 33  15  18  1   
 34  15  46  1   
 35  15  47  1   
 36  16  19  ar  
 37  16  20  ar  
 38  17  21  1   
 39  17  22  1   
 40  17  48  1   
 41  18  21  1   
 42  18  49  1   
 43  18  50  1   
 44  19  23  ar  
 45  19  51  1   
 46  20  24  ar  
 47  20  52  1   
 48  22  25  1   
 49  22  53  1   
 50  22  54  1   
 51  23  26  1   
 52  23  27  ar  
 53  24  27  ar  
 54  24  55  1   
 55  25  56  1   
 56  26  28  1   
 57  27  29  1   
 58  28  57  1   
 59  28  58  1   
 60  28  59  1   
 61  29  30  1   
 62  30  60  1   
 63  30  61  1   
 64  30  62  1   
@<TRIPOS>SUBSTRUCTURE
  1 ****   6 GROUP 4 **** **** 0

# MOE 2024.06 (io_trps.svl 2023.06)
