@<TRIPOS>MOLECULE
NONAME
46 49 1 0 0 
SMALL
USER_CHARGES


@<TRIPOS>ATOM
  1 F       -1.1570    -0.3100     2.1730 F     1 <1>  -0.1900 
  2 C       -2.1950    -0.4000     1.3830 C.ar  1 <1>   0.1900 
  3 C       -3.2890    -1.1200     1.7990 C.ar  1 <1>  -0.1500 
  4 C       -2.1330     0.2490     0.1460 C.ar  1 <1>  -0.1500 
  5 C       -4.3750    -1.1950     0.9310 C.ar  1 <1>   0.2270 
  6 C       -3.2100     0.1730    -0.7100 C.ar  1 <1>  -0.1500 
  7 N       -5.5680    -1.8330     1.0910 N.2   1 <1>  -0.5650 
  8 C       -4.3300    -0.5580    -0.2980 C.ar  1 <1>  -0.1520 
  9 C       -6.2140    -1.5900     0.0030 C.2   1 <1>   0.0060 
 10 N       -5.5240    -0.8240    -0.8830 N.pl3 1 <1>   0.0330 
 11 C       -7.6160    -2.1070    -0.2840 C.3   1 <1>   0.1000 
 12 C       -8.5820    -1.6820     0.8310 C.3   1 <1>  -0.1600 
 13 C       -7.5990    -3.6360    -0.4140 C.3   1 <1>  -0.1600 
 14 C       -9.9700    -2.2770     0.6160 C.3   1 <1>   0.3430 
 15 C       -9.0070    -4.1880    -0.6060 C.3   1 <1>   0.3430 
 16 N       -9.8760    -3.7610     0.5310 N.4   1 <1>  -0.9590 
 17 C      -11.2840    -4.3100     0.3300 C.3   1 <1>   0.4610 
 18 C      -11.2100    -5.8390     0.3720 C.ar  1 <1>  -0.1430 
 19 C      -12.0550    -3.6810    -0.8670 C.2   1 <1>   0.9060 
 20 C      -11.1080    -6.4690     1.6060 C.ar  1 <1>  -0.1500 
 21 C      -11.2300    -6.6190    -0.7790 C.ar  1 <1>  -0.1500 
 22 O      -11.5600    -3.7180    -2.0050 O.co2 1 <1>  -0.9000 
 23 O      -13.0440    -2.9890    -0.6100 O.co2 1 <1>  -0.9000 
 24 C      -11.0170    -7.8480     1.6890 C.ar  1 <1>  -0.1500 
 25 C      -11.1410    -7.9970    -0.6960 C.ar  1 <1>  -0.1500 
 26 C      -11.0320    -8.6130     0.5370 C.ar  1 <1>  -0.1500 
 27 H       -3.3230    -1.6130     2.7510 H     1 <1>   0.1500 
 28 H       -1.2440     0.7950    -0.1150 H     1 <1>   0.1500 
 29 H       -3.1960     0.6600    -1.6700 H     1 <1>   0.1500 
 30 H       -5.8280    -0.5050    -1.8070 H     1 <1>   0.2700 
 31 H       -7.9640    -1.6880    -1.2140 H     1 <1>   0.0800 
 32 H       -8.6570    -0.6100     0.8490 H     1 <1>   0.0800 
 33 H       -8.2060    -1.9970     1.7890 H     1 <1>   0.0800 
 34 H       -7.1580    -4.0780     0.4620 H     1 <1>   0.0800 
 35 H       -6.9940    -3.9170    -1.2580 H     1 <1>   0.0800 
 36 H      -10.3890    -1.8880    -0.3010 H     1 <1>   0.0800 
 37 H      -10.6210    -1.9930     1.4270 H     1 <1>   0.0800 
 38 H       -8.9720    -5.2640    -0.6610 H     1 <1>   0.0800 
 39 H       -9.4110    -3.8200    -1.5360 H     1 <1>   0.0800 
 40 H       -9.5020    -4.1560     1.3970 H     1 <1>   0.4500 
 41 H      -11.8680    -4.0170     1.1840 H     1 <1>   0.0800 
 42 H      -11.1030    -5.8950     2.5160 H     1 <1>   0.1500 
 43 H      -11.3200    -6.1660    -1.7540 H     1 <1>   0.1500 
 44 H      -10.9380    -8.3280     2.6490 H     1 <1>   0.1500 
 45 H      -11.1600    -8.5900    -1.5950 H     1 <1>   0.1500 
 46 H      -10.9640    -9.6860     0.5990 H     1 <1>   0.1500 
@<TRIPOS>BOND
  1   1   2  1   
  2   2   3  ar  
  3   2   4  ar  
  4   3   5  ar  
  5   3  27  1   
  6   4   6  ar  
  7   4  28  1   
  8   5   7  1   
  9   5   8  ar  
 10   6   8  ar  
 11   6  29  1   
 12   7   9  2   
 13   8  10  1   
 14   9  10  1   
 15   9  11  1   
 16  10  30  1   
 17  11  12  1   
 18  11  13  1   
 19  11  31  1   
 20  12  14  1   
 21  12  32  1   
 22  12  33  1   
 23  13  15  1   
 24  13  34  1   
 25  13  35  1   
 26  14  16  1   
 27  14  36  1   
 28  14  37  1   
 29  15  16  1   
 30  15  38  1   
 31  15  39  1   
 32  16  17  1   
 33  16  40  1   
 34  17  18  1   
 35  17  19  1   
 36  17  41  1   
 37  18  20  ar  
 38  18  21  ar  
 39  19  22  ar  
 40  19  23  ar  
 41  20  24  ar  
 42  20  42  1   
 43  21  25  ar  
 44  21  43  1   
 45  24  26  ar  
 46  24  44  1   
 47  25  26  ar  
 48  25  45  1   
 49  26  46  1   
@<TRIPOS>SUBSTRUCTURE
  1 ****  13 GROUP 4 **** **** 0

# MOE 2024.06 (io_trps.svl 2023.06)
