@<TRIPOS>MOLECULE
NONAME
41 43 1 0 0 
SMALL
USER_CHARGES


@<TRIPOS>ATOM
  1 O       -0.5400     0.2000     0.7770 O.2   1 <1>  -0.5700 
  2 C       -1.5060     0.8550     0.4270 C.2   1 <1>   0.7150 
  3 N       -2.7030     0.1770     0.2870 N.am  1 <1>  -0.6600 
  4 C       -1.3520     2.2760     0.1710 C.2   1 <1>   0.0550 
  5 C       -3.9910     0.7270    -0.2140 C.3   1 <1>   0.1400 
  6 C       -2.7880    -1.3040     0.3880 C.3   1 <1>   0.1400 
  7 O       -2.3850     3.1080     0.2240 O.3   1 <1>  -0.2800 
  8 C       -0.2460     2.9960    -0.1280 C.2   1 <1>   0.0460 
  9 C       -4.9940    -0.4140    -0.0400 C.3   1 <1>   0.2000 
 10 C       -4.1450    -1.6750    -0.2190 C.3   1 <1>  -0.0800 
 11 C       -1.8260     4.2690    -0.0440 C.2   1 <1>   0.2980 
 12 N       -0.5670     4.2780    -0.2650 N.2   1 <1>  -0.5650 
 13 C        1.1990     2.5780    -0.3190 C.3   1 <1>  -0.0590 
 14 O       -5.4820    -0.3630     1.2570 O.3   1 <1>  -0.6800 
 15 C       -4.7510    -2.9690     0.3540 C.3   1 <1>  -0.0170 
 16 C       -2.7110     5.4910    -0.0670 C.3   1 <1>  -0.0600 
 17 C       -3.8540    -4.1620     0.0620 C.ar  1 <1>  -0.1440 
 18 C       -3.8840    -4.8120    -1.1550 C.ar  1 <1>  -0.1500 
 19 C       -2.9610    -4.6530     0.9930 C.ar  1 <1>  -0.1500 
 20 C       -3.0410    -5.8880    -1.3780 C.ar  1 <1>   0.1600 
 21 C       -2.1600    -5.7360     0.6690 C.ar  1 <1>   0.1600 
 22 N       -2.1780    -6.3640    -0.4950 N.ar  1 <1>  -0.6200 
 23 H       -4.3030     1.5970     0.3380 H     1 <1>   0.0800 
 24 H       -3.8860     0.9740    -1.2550 H     1 <1>   0.0800 
 25 H       -1.9790    -1.7770    -0.1430 H     1 <1>   0.0800 
 26 H       -2.7410    -1.5850     1.4270 H     1 <1>   0.0800 
 27 H       -5.8260    -0.3550    -0.7220 H     1 <1>   0.0800 
 28 H       -3.9920    -1.8150    -1.2750 H     1 <1>   0.0800 
 29 H        1.3110     1.5120    -0.2770 H     1 <1>   0.0800 
 30 H        1.8040     3.0220     0.4500 H     1 <1>   0.0800 
 31 H        1.5480     2.9220    -1.2750 H     1 <1>   0.0800 
 32 H       -4.7320    -0.2350     1.8720 H     1 <1>   0.4000 
 33 H       -5.7190    -3.1360    -0.0840 H     1 <1>   0.0800 
 34 H       -4.8920    -2.8800     1.4170 H     1 <1>   0.0800 
 35 H       -2.1250     6.3620    -0.2930 H     1 <1>   0.0800 
 36 H       -3.1750     5.6190     0.8930 H     1 <1>   0.0800 
 37 H       -3.4700     5.3740    -0.8170 H     1 <1>   0.0800 
 38 H       -4.5540    -4.4940    -1.9320 H     1 <1>   0.1500 
 39 H       -2.8770    -4.2060     1.9670 H     1 <1>   0.1500 
 40 H       -3.0780    -6.3840    -2.3330 H     1 <1>   0.1500 
 41 H       -1.4680    -6.1040     1.4070 H     1 <1>   0.1500 
@<TRIPOS>BOND
  1   1   2  2   
  2   2   3  am  
  3   2   4  1   
  4   3   5  1   
  5   3   6  1   
  6   4   7  1   
  7   4   8  2   
  8   5   9  1   
  9   5  23  1   
 10   5  24  1   
 11   6  10  1   
 12   6  25  1   
 13   6  26  1   
 14   7  11  1   
 15   8  12  1   
 16   8  13  1   
 17   9  10  1   
 18   9  14  1   
 19   9  27  1   
 20  10  15  1   
 21  10  28  1   
 22  11  12  2   
 23  11  16  1   
 24  13  29  1   
 25  13  30  1   
 26  13  31  1   
 27  14  32  1   
 28  15  17  1   
 29  15  33  1   
 30  15  34  1   
 31  16  35  1   
 32  16  36  1   
 33  16  37  1   
 34  17  18  ar  
 35  17  19  ar  
 36  18  20  ar  
 37  18  38  1   
 38  19  21  ar  
 39  19  39  1   
 40  20  22  ar  
 41  20  40  1   
 42  21  22  ar  
 43  21  41  1   
@<TRIPOS>SUBSTRUCTURE
  1 ****   3 GROUP 4 **** **** 0

# MOE 2024.06 (io_trps.svl 2023.06)
