@<TRIPOS>MOLECULE
NONAME
47 49 1 0 0 
SMALL
USER_CHARGES


@<TRIPOS>ATOM
  1 O       -0.6530    -0.1110     1.3530 O.2   1 <1>  -0.5700 
  2 C       -1.4240     0.5160     0.6650 C.2   1 <1>   0.5770 
  3 N       -2.4520    -0.1330     0.0250 N.am  1 <1>  -0.6600 
  4 C       -1.1870     2.0200     0.4890 C.3   1 <1>   0.0530 
  5 C       -3.4850     0.4230    -0.8930 C.3   1 <1>   0.1400 
  6 C       -2.6560    -1.6000     0.1710 C.3   1 <1>   0.1400 
  7 C       -0.4090     2.6780     1.6740 C.3   1 <1>   0.0000 
  8 C       -2.4020     2.9160     0.8850 C.3   1 <1>   0.0000 
  9 C       -0.5450     2.2810    -0.8900 C.3   1 <1>   0.1200 
 10 C       -4.6080    -0.6100    -0.8660 C.3   1 <1>   0.2000 
 11 C       -3.8630    -1.9370    -0.7110 C.3   1 <1>  -0.0800 
 12 C       -1.4350     3.8390     1.6690 C.3   1 <1>   0.0000 
 13 O       -0.4780     3.6420    -1.1870 O.3   1 <1>  -0.5600 
 14 O       -5.3760    -0.3730     0.2650 O.3   1 <1>  -0.6800 
 15 C       -4.7030    -3.1160    -0.1900 C.3   1 <1>   0.0210 
 16 C        0.1880     3.9330    -2.3720 C.3   1 <1>   0.0400 
 17 C       -3.8570    -4.3700    -0.0800 C.2   1 <1>   0.1080 
 18 N       -3.2920    -4.9300    -1.1050 N.2   1 <1>  -0.7070 
 19 C       -3.5850    -5.0450     1.1050 C.2   1 <1>  -0.1500 
 20 N       -2.6380    -5.9900    -0.5940 N.pl3 1 <1>   0.3000 
 21 C       -2.7980    -6.0800     0.7430 C.2   1 <1>  -0.3320 
 22 C       -2.1810    -7.1650     1.6050 C.3   1 <1>  -0.0600 
 23 H       -3.8460     1.3880    -0.5920 H     1 <1>   0.0800 
 24 H       -3.0750     0.4840    -1.8860 H     1 <1>   0.0800 
 25 H       -1.7790    -2.1420    -0.1440 H     1 <1>   0.0800 
 26 H       -2.8550    -1.8270     1.2050 H     1 <1>   0.0800 
 27 H       -0.4620     2.1210     2.5940 H     1 <1>   0.0000 
 28 H        0.5920     2.9900     1.4300 H     1 <1>   0.0000 
 29 H       -2.8830     3.4080     0.0580 H     1 <1>   0.0000 
 30 H       -3.0940     2.4160     1.5410 H     1 <1>   0.0000 
 31 H       -1.1220     1.8050    -1.6620 H     1 <1>   0.0800 
 32 H        0.4530     1.8770    -0.8980 H     1 <1>   0.0800 
 33 H       -5.2460    -0.5730    -1.7320 H     1 <1>   0.0800 
 34 H       -3.4790    -2.2090    -1.6800 H     1 <1>   0.0800 
 35 H       -1.1060     4.6890     1.0980 H     1 <1>   0.0000 
 36 H       -1.7920     4.0990     2.6490 H     1 <1>   0.0000 
 37 H       -4.7760    -0.2680     1.0300 H     1 <1>   0.4000 
 38 H       -5.5140    -3.3070    -0.8690 H     1 <1>   0.0800 
 39 H       -5.1210    -2.8890     0.7730 H     1 <1>   0.0800 
 40 H        0.1730     5.0000    -2.5100 H     1 <1>   0.0800 
 41 H       -0.3180     3.4540    -3.1920 H     1 <1>   0.0800 
 42 H        1.2060     3.5920    -2.3000 H     1 <1>   0.0800 
 43 H       -3.9370    -4.7770     2.0850 H     1 <1>   0.1500 
 44 H       -2.0930    -6.6310    -1.1830 H     1 <1>   0.2700 
 45 H       -2.4550    -7.0190     2.6350 H     1 <1>   0.0800 
 46 H       -1.1080    -7.1350     1.5290 H     1 <1>   0.0800 
 47 H       -2.5300    -8.1330     1.2920 H     1 <1>   0.0800 
@<TRIPOS>BOND
  1   1   2  2   
  2   2   3  am  
  3   2   4  1   
  4   3   5  1   
  5   3   6  1   
  6   4   7  1   
  7   4   8  1   
  8   4   9  1   
  9   5  10  1   
 10   5  23  1   
 11   5  24  1   
 12   6  11  1   
 13   6  25  1   
 14   6  26  1   
 15   7  12  1   
 16   7  27  1   
 17   7  28  1   
 18   8  12  1   
 19   8  29  1   
 20   8  30  1   
 21   9  13  1   
 22   9  31  1   
 23   9  32  1   
 24  10  11  1   
 25  10  14  1   
 26  10  33  1   
 27  11  15  1   
 28  11  34  1   
 29  12  35  1   
 30  12  36  1   
 31  13  16  1   
 32  14  37  1   
 33  15  17  1   
 34  15  38  1   
 35  15  39  1   
 36  16  40  1   
 37  16  41  1   
 38  16  42  1   
 39  17  18  2   
 40  17  19  1   
 41  18  20  1   
 42  19  21  2   
 43  19  43  1   
 44  20  21  1   
 45  20  44  1   
 46  21  22  1   
 47  22  45  1   
 48  22  46  1   
 49  22  47  1   
@<TRIPOS>SUBSTRUCTURE
  1 ****   3 GROUP 4 **** **** 0

# MOE 2024.06 (io_trps.svl 2023.06)
