@<TRIPOS>MOLECULE
NONAME
49 52 1 0 0 
SMALL
USER_CHARGES


@<TRIPOS>ATOM
  1 O       -1.0160     0.1320     0.7280 O.3   1 <1>  -0.2800 
  2 C       -1.2210     1.4260     0.7790 C.2   1 <1>   0.4250 
  3 C       -2.0560    -0.2950     1.3840 C.2   1 <1>   0.2980 
  4 N       -2.2880     1.7490     1.4270 N.2   1 <1>  -0.3380 
  5 C       -0.2870     2.3280     0.1450 C.ar  1 <1>   0.0530 
  6 N       -2.8300     0.6200     1.8200 N.2   1 <1>  -0.3380 
  7 C       -2.2560    -1.7960     1.5750 C.3   1 <1>   0.2900 
  8 C        0.8040     1.8530    -0.5860 C.ar  1 <1>   0.1600 
  9 C       -0.4280     3.7080     0.2310 C.ar  1 <1>  -0.1500 
 10 N       -2.4280    -2.5220     0.2960 N.3   1 <1>  -0.8100 
 11 N        1.7130     2.5960    -1.1980 N.ar  1 <1>  -0.6200 
 12 C        0.5060     4.5000    -0.4000 C.ar  1 <1>  -0.1500 
 13 C       -2.4650    -3.9820     0.4940 C.3   1 <1>   0.1100 
 14 C       -3.6380    -2.1290    -0.4410 C.3   1 <1>   0.1100 
 15 C        1.5440     3.9030    -1.0920 C.ar  1 <1>   0.1600 
 16 C       -3.5160    -4.5230    -0.4710 C.3   1 <1>   0.0630 
 17 C       -4.5150    -3.3710    -0.5090 C.3   1 <1>  -0.1600 
 18 C       -4.0500    -5.9070    -0.0650 C.ar  1 <1>  -0.1430 
 19 C       -3.1780    -6.9970    -0.0390 C.ar  1 <1>   0.0830 
 20 C       -5.3820    -6.1200     0.2720 C.ar  1 <1>  -0.1500 
 21 O       -1.8820    -6.8030    -0.4000 O.3   1 <1>  -0.3630 
 22 C       -3.6190    -8.2640     0.3600 C.ar  1 <1>   0.0830 
 23 C       -5.8300    -7.3730     0.6470 C.ar  1 <1>  -0.1500 
 24 C       -1.4800    -7.3620    -1.6300 C.3   1 <1>   0.0400 
 25 O       -2.7140    -9.2850     0.4150 O.3   1 <1>  -0.3630 
 26 C       -4.9560    -8.4420     0.6960 C.ar  1 <1>  -0.1500 
 27 C       -3.0340   -10.5260     1.0050 C.3   1 <1>   0.0400 
 28 H       -3.1160    -1.9580     2.2000 H     1 <1>   0.0800 
 29 H       -1.3920    -2.1840     2.0840 H     1 <1>   0.0800 
 30 H        0.9330     0.7870    -0.6690 H     1 <1>   0.1500 
 31 H       -1.2470     4.1460     0.7780 H     1 <1>   0.1500 
 32 H        0.4330     5.5720    -0.3580 H     1 <1>   0.1500 
 33 H       -2.7630    -4.2220     1.5010 H     1 <1>   0.0800 
 34 H       -1.4960    -4.4110     0.3030 H     1 <1>   0.0800 
 35 H       -3.3470    -1.8350    -1.4360 H     1 <1>   0.0800 
 36 H       -4.1590    -1.3080     0.0240 H     1 <1>   0.0800 
 37 H        2.2700     4.5300    -1.5830 H     1 <1>   0.1500 
 38 H       -3.0580    -4.6070    -1.4410 H     1 <1>   0.0800 
 39 H       -5.1260    -3.3850    -1.3930 H     1 <1>   0.0800 
 40 H       -5.1410    -3.3730     0.3640 H     1 <1>   0.0800 
 41 H       -6.1000    -5.3220     0.2470 H     1 <1>   0.1500 
 42 H       -6.8660    -7.5160     0.9030 H     1 <1>   0.1500 
 43 H       -0.4860    -7.0140    -1.8470 H     1 <1>   0.0800 
 44 H       -2.1610    -7.0410    -2.3980 H     1 <1>   0.0800 
 45 H       -1.4820    -8.4340    -1.5510 H     1 <1>   0.0800 
 46 H       -5.3370    -9.3990     0.9960 H     1 <1>   0.1500 
 47 H       -2.1450   -11.1300     1.0100 H     1 <1>   0.0800 
 48 H       -3.7980   -11.0040     0.4190 H     1 <1>   0.0800 
 49 H       -3.3670   -10.3570     2.0140 H     1 <1>   0.0800 
@<TRIPOS>BOND
  1   1   2  1   
  2   1   3  1   
  3   2   4  2   
  4   2   5  1   
  5   3   6  2   
  6   3   7  1   
  7   4   6  1   
  8   5   8  ar  
  9   5   9  ar  
 10   7  10  1   
 11   7  28  1   
 12   7  29  1   
 13   8  11  ar  
 14   8  30  1   
 15   9  12  ar  
 16   9  31  1   
 17  10  13  1   
 18  10  14  1   
 19  11  15  ar  
 20  12  15  ar  
 21  12  32  1   
 22  13  16  1   
 23  13  33  1   
 24  13  34  1   
 25  14  17  1   
 26  14  35  1   
 27  14  36  1   
 28  15  37  1   
 29  16  17  1   
 30  16  18  1   
 31  16  38  1   
 32  17  39  1   
 33  17  40  1   
 34  18  19  ar  
 35  18  20  ar  
 36  19  21  1   
 37  19  22  ar  
 38  20  23  ar  
 39  20  41  1   
 40  21  24  1   
 41  22  25  1   
 42  22  26  ar  
 43  23  26  ar  
 44  23  42  1   
 45  24  43  1   
 46  24  44  1   
 47  24  45  1   
 48  25  27  1   
 49  26  46  1   
 50  27  47  1   
 51  27  48  1   
 52  27  49  1   
@<TRIPOS>SUBSTRUCTURE
  1 ****  10 GROUP 4 **** **** 0

# MOE 2024.06 (io_trps.svl 2023.06)
