@<TRIPOS>MOLECULE
NONAME
42 44 1 0 0 
SMALL
USER_CHARGES


@<TRIPOS>ATOM
  1 S        0.2080    -0.1060    -1.2730 S.3   1 <1>  -0.0800 
  2 C       -0.9080     1.0620    -0.6160 C.2   1 <1>  -0.1400 
  3 C       -0.4990    -1.3210    -0.2360 C.2   1 <1>   0.2280 
  4 C       -1.6870     0.4480     0.2910 C.2   1 <1>   0.0460 
  5 C       -0.8170     2.4840    -1.1380 C.3   1 <1>   0.2900 
  6 N       -1.4450    -0.8980     0.5020 N.2   1 <1>  -0.5650 
  7 C       -2.8030     1.0530     1.1160 C.3   1 <1>  -0.0590 
  8 N        0.5170     3.0420    -0.8550 N.3   1 <1>  -0.8100 
  9 C        0.8510     3.1430     0.6090 C.3   1 <1>   0.1900 
 10 C        0.8300     4.2160    -1.6950 C.3   1 <1>   0.1100 
 11 C        0.4490     4.4860     1.2460 C.3   1 <1>   0.1200 
 12 C        2.3530     2.8430     0.8500 C.3   1 <1>   0.3430 
 13 C        2.0280     5.0660    -1.2170 C.3   1 <1>  -0.0800 
 14 O        1.4690     5.4310     1.1260 O.3   1 <1>  -0.5600 
 15 N        3.1040     2.8940    -0.4420 N.4   1 <1>  -0.9590 
 16 C        1.6150     6.0500    -0.1080 C.3   1 <1>   0.1200 
 17 C        3.3280     4.3040    -0.8720 C.3   1 <1>   0.3430 
 18 C        4.4340     2.1760    -0.2920 C.3   1 <1>   0.2370 
 19 C        5.3840     2.8070     0.7310 C.2   1 <1>   0.9060 
 20 O        6.0930     3.7460     0.3560 O.co2 1 <1>  -0.9000 
 21 O        5.3120     2.4240     1.9020 O.co2 1 <1>  -0.9000 
 22 H       -0.0930    -2.3160    -0.2940 H     1 <1>   0.1500 
 23 H       -1.5750     3.1010    -0.6890 H     1 <1>   0.0800 
 24 H       -0.9830     2.4650    -2.2020 H     1 <1>   0.0800 
 25 H       -2.9250     2.0980     0.9010 H     1 <1>   0.0800 
 26 H       -2.5840     0.9340     2.1610 H     1 <1>   0.0800 
 27 H       -3.7240     0.5440     0.8990 H     1 <1>   0.0800 
 28 H        0.3080     2.3840     1.1440 H     1 <1>   0.0800 
 29 H        1.0350     3.8630    -2.6920 H     1 <1>   0.0800 
 30 H       -0.0380     4.8520    -1.7570 H     1 <1>   0.0800 
 31 H        0.3030     4.3380     2.3020 H     1 <1>   0.0800 
 32 H       -0.4630     4.8740     0.8290 H     1 <1>   0.0800 
 33 H        2.4410     1.8570     1.2740 H     1 <1>   0.0800 
 34 H        2.7760     3.5360     1.5600 H     1 <1>   0.0800 
 35 H        2.2810     5.7010    -2.0460 H     1 <1>   0.0800 
 36 H        2.4620     2.4490    -1.1160 H     1 <1>   0.4500 
 37 H        0.6940     6.5530    -0.3500 H     1 <1>   0.0800 
 38 H        2.3800     6.7980     0.0130 H     1 <1>   0.0800 
 39 H        3.8660     4.8350    -0.1010 H     1 <1>   0.0800 
 40 H        3.9590     4.2930    -1.7450 H     1 <1>   0.0800 
 41 H        4.2660     1.1610     0.0170 H     1 <1>   0.0800 
 42 H        4.9480     2.1640    -1.2350 H     1 <1>   0.0800 
@<TRIPOS>BOND
  1   1   2  1   
  2   1   3  1   
  3   2   4  2   
  4   2   5  1   
  5   3   6  2   
  6   3  22  1   
  7   4   6  1   
  8   4   7  1   
  9   5   8  1   
 10   5  23  1   
 11   5  24  1   
 12   7  25  1   
 13   7  26  1   
 14   7  27  1   
 15   8   9  1   
 16   8  10  1   
 17   9  11  1   
 18   9  12  1   
 19   9  28  1   
 20  10  13  1   
 21  10  29  1   
 22  10  30  1   
 23  11  14  1   
 24  11  31  1   
 25  11  32  1   
 26  12  15  1   
 27  12  33  1   
 28  12  34  1   
 29  13  16  1   
 30  13  17  1   
 31  13  35  1   
 32  14  16  1   
 33  15  17  1   
 34  15  18  1   
 35  15  36  1   
 36  16  37  1   
 37  16  38  1   
 38  17  39  1   
 39  17  40  1   
 40  18  19  1   
 41  18  41  1   
 42  18  42  1   
 43  19  20  ar  
 44  19  21  ar  
@<TRIPOS>SUBSTRUCTURE
  1 ****   9 GROUP 4 **** **** 0

# MOE 2024.06 (io_trps.svl 2023.06)
