@<TRIPOS>MOLECULE
NONAME
52 55 1 0 0 
SMALL
USER_CHARGES


@<TRIPOS>ATOM
  1 S       -0.1700    -0.3170    -0.5070 S.3   1 <1>  -0.0800 
  2 C       -0.6440     1.0290     0.5270 C.2   1 <1>   0.4620 
  3 C       -0.8100    -1.4350     0.6700 C.2   1 <1>  -0.1400 
  4 N       -1.2050     0.6470     1.6180 N.2   1 <1>  -0.5650 
  5 N       -0.4150     2.3240     0.1200 N.pl3 1 <1>  -0.8220 
  6 C       -1.2860    -0.7260     1.7030 C.2   1 <1>   0.0770 
  7 C       -0.7280    -2.9140     0.3790 C.3   1 <1>   0.5230 
  8 C       -0.9000     3.4830     0.9320 C.3   1 <1>   0.2090 
  9 C        0.4340     2.7340    -1.0410 C.3   1 <1>   0.2090 
 10 N       -1.9410    -3.3300    -0.3760 N.4   1 <1>  -0.9590 
 11 C        0.2530     4.4500     1.2500 C.3   1 <1>   0.1200 
 12 C        1.5050     3.7510    -0.6040 C.3   1 <1>   0.1200 
 13 C       -2.1260    -4.8220    -0.3760 C.3   1 <1>   0.5660 
 14 C       -2.0130    -2.7550    -1.7610 C.3   1 <1>   0.3430 
 15 O        0.9300     4.8280     0.0820 O.3   1 <1>  -0.5600 
 16 C       -0.8330    -5.5160    -0.8100 C.ar  1 <1>  -0.1430 
 17 C       -3.3730    -5.2570    -1.2040 C.3   1 <1>   0.2000 
 18 C       -3.1930    -3.3310    -2.5780 C.3   1 <1>   0.1200 
 19 C       -0.0700    -6.1420     0.1680 C.ar  1 <1>  -0.1500 
 20 C       -0.3860    -5.5470    -2.1270 C.ar  1 <1>  -0.1500 
 21 O       -4.0160    -4.1460    -1.7900 O.3   1 <1>  -0.5600 
 22 C       -4.4200    -5.9670    -0.3330 C.3   1 <1>   0.1200 
 23 C        1.1220    -6.7650    -0.1560 C.ar  1 <1>  -0.1500 
 24 C        0.8060    -6.1700    -2.4510 C.ar  1 <1>  -0.1500 
 25 O       -3.7890    -6.7970     0.5850 O.3   1 <1>  -0.6800 
 26 C        1.5630    -6.7760    -1.4660 C.ar  1 <1>  -0.1500 
 27 H       -1.7340    -1.1300     2.5960 H     1 <1>   0.1500 
 28 H       -0.6840    -3.4490     1.3130 H     1 <1>   0.0800 
 29 H        0.1660    -3.1390    -0.1810 H     1 <1>   0.0800 
 30 H       -1.6580     4.0090     0.3780 H     1 <1>   0.0800 
 31 H       -1.3410     3.1460     1.8530 H     1 <1>   0.0800 
 32 H        0.9240     1.8880    -1.4840 H     1 <1>   0.0800 
 33 H       -0.1910     3.1860    -1.7920 H     1 <1>   0.0800 
 34 H       -2.7650    -2.9600     0.1130 H     1 <1>   0.4500 
 35 H        0.9540     3.9870     1.9220 H     1 <1>   0.0800 
 36 H       -0.1300     5.3430     1.7120 H     1 <1>   0.0800 
 37 H        2.0150     4.1450    -1.4640 H     1 <1>   0.0800 
 38 H        2.2270     3.2800     0.0410 H     1 <1>   0.0800 
 39 H       -2.3010    -5.1270     0.6420 H     1 <1>   0.0800 
 40 H       -2.1300    -1.6850    -1.7030 H     1 <1>   0.0800 
 41 H       -1.0940    -2.9470    -2.2890 H     1 <1>   0.0800 
 42 H       -3.0820    -5.9290    -1.9930 H     1 <1>   0.0800 
 43 H       -2.8390    -3.9070    -3.4160 H     1 <1>   0.0800 
 44 H       -3.7990    -2.5280    -2.9620 H     1 <1>   0.0800 
 45 H       -0.3950    -6.1630     1.1960 H     1 <1>   0.1500 
 46 H       -0.9490    -5.1020    -2.9260 H     1 <1>   0.1500 
 47 H       -5.0680    -6.5680    -0.9480 H     1 <1>   0.0800 
 48 H       -5.0050    -5.2500     0.2190 H     1 <1>   0.0800 
 49 H        1.7070    -7.2490     0.6080 H     1 <1>   0.1500 
 50 H        1.1490    -6.1920    -3.4720 H     1 <1>   0.1500 
 51 H       -4.4400    -7.3860     1.0250 H     1 <1>   0.4000 
 52 H        2.4900    -7.2630    -1.7190 H     1 <1>   0.1500 
@<TRIPOS>BOND
  1   1   2  1   
  2   1   3  1   
  3   2   4  2   
  4   2   5  1   
  5   3   6  2   
  6   3   7  1   
  7   4   6  1   
  8   5   8  1   
  9   5   9  1   
 10   6  27  1   
 11   7  10  1   
 12   7  28  1   
 13   7  29  1   
 14   8  11  1   
 15   8  30  1   
 16   8  31  1   
 17   9  12  1   
 18   9  32  1   
 19   9  33  1   
 20  10  13  1   
 21  10  14  1   
 22  10  34  1   
 23  11  15  1   
 24  11  35  1   
 25  11  36  1   
 26  12  15  1   
 27  12  37  1   
 28  12  38  1   
 29  13  16  1   
 30  13  17  1   
 31  13  39  1   
 32  14  18  1   
 33  14  40  1   
 34  14  41  1   
 35  16  19  ar  
 36  16  20  ar  
 37  17  21  1   
 38  17  22  1   
 39  17  42  1   
 40  18  21  1   
 41  18  43  1   
 42  18  44  1   
 43  19  23  ar  
 44  19  45  1   
 45  20  24  ar  
 46  20  46  1   
 47  22  25  1   
 48  22  47  1   
 49  22  48  1   
 50  23  26  ar  
 51  23  49  1   
 52  24  26  ar  
 53  24  50  1   
 54  25  51  1   
 55  26  52  1   
@<TRIPOS>SUBSTRUCTURE
  1 ****   7 GROUP 4 **** **** 0

# MOE 2024.06 (io_trps.svl 2023.06)
