@<TRIPOS>MOLECULE
NONAME
48 50 1 0 0 
SMALL
USER_CHARGES


@<TRIPOS>ATOM
  1 N        0.1270    -0.6000    -0.3910 N.ar  1 <1>  -0.1790 
  2 C        1.0900     0.3880    -0.2590 C.ar  1 <1>   0.3610 
  3 C        0.3270    -1.8970    -0.1600 C.ar  1 <1>   0.4610 
  4 C        2.3810     0.0020     0.1500 C.ar  1 <1>   0.0000 
  5 C        0.7830     1.7370    -0.5240 C.ar  1 <1>  -0.1440 
  6 N       -0.6920    -2.7570    -0.3210 N.pl3 1 <1>  -0.8690 
  7 C        1.6260    -2.2870     0.2450 C.ar  1 <1>  -0.1500 
  8 C        2.6320    -1.3830     0.4010 C.ar  1 <1>  -0.1430 
  9 C        3.3470     1.0070     0.2840 C.ar  1 <1>  -0.1500 
 10 C        1.7660     2.7000    -0.3780 C.ar  1 <1>  -0.1430 
 11 C       -0.6380     2.1100    -0.9700 C.3   1 <1>  -0.0970 
 12 C       -0.6710    -4.2200    -0.0740 C.3   1 <1>   0.2090 
 13 C        4.0160    -1.8460     0.8390 C.3   1 <1>  -0.0970 
 14 C        3.0440     2.3190     0.0270 C.ar  1 <1>  -0.1500 
 15 C        1.5360     4.1860    -0.6380 C.3   1 <1>  -0.0970 
 16 C       -2.1100    -4.7000     0.0990 C.3   1 <1>  -0.1600 
 17 C       -2.1750    -6.2100     0.3530 C.3   1 <1>   0.0210 
 18 C       -3.6200    -6.6460     0.4760 C.2   1 <1>  -0.1810 
 19 C       -4.4540    -6.4770     1.5760 C.2   1 <1>   0.1390 
 20 C       -4.3900    -7.2730    -0.4380 C.2   1 <1>  -0.3020 
 21 N       -5.6430    -6.9500     1.3680 N.2   1 <1>  -0.7070 
 22 N       -5.6030    -7.4460     0.1210 N.pl3 1 <1>   0.3140 
 23 C       -6.7770    -8.0800    -0.4880 C.3   1 <1>   0.0160 
 24 H       -0.7960    -0.3020    -0.6780 H     1 <1>   0.4570 
 25 H       -1.6180    -2.4630    -0.6500 H     1 <1>   0.4000 
 26 H        1.8040    -3.3310     0.4260 H     1 <1>   0.1500 
 27 H        4.3470     0.7590     0.5950 H     1 <1>   0.1500 
 28 H       -0.8920     1.5980    -1.8820 H     1 <1>   0.0800 
 29 H       -0.7500     3.1600    -1.1630 H     1 <1>   0.0800 
 30 H       -1.3500     1.8560    -0.2040 H     1 <1>   0.0800 
 31 H       -0.1070    -4.4410     0.8170 H     1 <1>   0.0800 
 32 H       -0.2140    -4.7210    -0.9120 H     1 <1>   0.0800 
 33 H        4.2900    -1.3760     1.7670 H     1 <1>   0.0800 
 34 H        4.7480    -1.5940     0.0910 H     1 <1>   0.0800 
 35 H        4.0440    -2.9120     0.9840 H     1 <1>   0.0800 
 36 H        3.8130     3.0660     0.1410 H     1 <1>   0.1500 
 37 H        0.7630     4.5620     0.0080 H     1 <1>   0.0800 
 38 H        1.2490     4.3440    -1.6630 H     1 <1>   0.0800 
 39 H        2.4270     4.7590    -0.4540 H     1 <1>   0.0800 
 40 H       -2.6740    -4.4810    -0.7910 H     1 <1>   0.0800 
 41 H       -2.5630    -4.1900     0.9310 H     1 <1>   0.0800 
 42 H       -1.6500    -6.4660     1.2570 H     1 <1>   0.0800 
 43 H       -1.7180    -6.7420    -0.4640 H     1 <1>   0.0800 
 44 H       -4.1620    -6.0080     2.5010 H     1 <1>   0.1500 
 45 H       -4.1510    -7.5980    -1.4330 H     1 <1>   0.1500 
 46 H       -6.5080    -8.5040    -1.4360 H     1 <1>   0.0800 
 47 H       -7.5410    -7.3370    -0.6200 H     1 <1>   0.0800 
 48 H       -7.1350    -8.8500     0.1690 H     1 <1>   0.0800 
@<TRIPOS>BOND
  1   1   2  ar  
  2   1   3  ar  
  3   1  24  1   
  4   2   4  ar  
  5   2   5  ar  
  6   3   6  1   
  7   3   7  ar  
  8   4   8  ar  
  9   4   9  ar  
 10   5  10  ar  
 11   5  11  1   
 12   6  12  1   
 13   6  25  1   
 14   7   8  ar  
 15   7  26  1   
 16   8  13  1   
 17   9  14  ar  
 18   9  27  1   
 19  10  14  ar  
 20  10  15  1   
 21  11  28  1   
 22  11  29  1   
 23  11  30  1   
 24  12  16  1   
 25  12  31  1   
 26  12  32  1   
 27  13  33  1   
 28  13  34  1   
 29  13  35  1   
 30  14  36  1   
 31  15  37  1   
 32  15  38  1   
 33  15  39  1   
 34  16  17  1   
 35  16  40  1   
 36  16  41  1   
 37  17  18  1   
 38  17  42  1   
 39  17  43  1   
 40  18  19  1   
 41  18  20  2   
 42  19  21  2   
 43  19  44  1   
 44  20  22  1   
 45  20  45  1   
 46  21  22  1   
 47  22  23  1   
 48  23  46  1   
 49  23  47  1   
 50  23  48  1   
@<TRIPOS>SUBSTRUCTURE
  1 ****   6 GROUP 4 **** **** 0

# MOE 2024.06 (io_trps.svl 2023.06)
