@<TRIPOS>MOLECULE
NONAME
48 51 1 0 0 
SMALL
USER_CHARGES


@<TRIPOS>ATOM
  1 S        0.3210     0.9450    -2.4210 S.3   1 <1>  -0.0800 
  2 C        0.2510     2.1300    -1.1330 C.2   1 <1>  -0.1400 
  3 C        2.0000     1.3590    -2.7350 C.2   1 <1>  -0.1100 
  4 C        1.4200     2.7610    -0.9690 C.2   1 <1>  -0.1810 
  5 C       -0.9960     2.3830    -0.3300 C.3   1 <1>   0.0200 
  6 C        2.4260     2.3230    -1.8950 C.2   1 <1>  -0.1500 
  7 C        1.5950     3.8290     0.1140 C.3   1 <1>   0.4610 
  8 C       -0.8210     3.7450     0.3620 C.3   1 <1>   0.1200 
  9 O        0.4530     3.8570     0.9530 O.3   1 <1>  -0.5600 
 10 C        1.7950     5.2190    -0.5070 C.3   1 <1>  -0.1600 
 11 C        2.7780     3.4770     1.0230 C.3   1 <1>  -0.1600 
 12 C        2.0470     6.2860     0.5600 C.3   1 <1>   0.1400 
 13 C        3.0240     4.5600     2.0740 C.3   1 <1>   0.1400 
 14 N        3.2090     5.8720     1.3930 N.am  1 <1>  -0.6600 
 15 C        4.4180     6.5390     1.4120 C.2   1 <1>   0.5440 
 16 O        5.4080     5.9560     1.8110 O.2   1 <1>  -0.5700 
 17 C        4.5400     7.9130     0.9620 C.ar  1 <1>   0.0860 
 18 C        5.4440     8.2620    -0.0370 C.ar  1 <1>  -0.1500 
 19 C        3.7610     8.9300     1.5140 C.ar  1 <1>  -0.1500 
 20 C        5.5640     9.5660    -0.4860 C.ar  1 <1>   0.0830 
 21 C        3.8700    10.2370     1.0770 C.ar  1 <1>  -0.1500 
 22 O        6.4720     9.7920    -1.4670 O.3   1 <1>  -0.3630 
 23 C        4.7680    10.5600     0.0750 C.ar  1 <1>  -0.1500 
 24 C        6.7420    11.0930    -1.9340 C.3   1 <1>   0.1200 
 25 C        7.8400    10.9970    -2.9880 C.3   1 <1>  -0.2400 
 26 H        2.4970     0.8280    -3.5270 H     1 <1>   0.1500 
 27 H       -1.1270     1.6060     0.4010 H     1 <1>   0.0800 
 28 H       -1.8590     2.4070    -0.9710 H     1 <1>   0.0800 
 29 H        3.4150     2.7470    -1.8880 H     1 <1>   0.1500 
 30 H       -1.5550     3.8630     1.1390 H     1 <1>   0.0800 
 31 H       -0.9400     4.5430    -0.3480 H     1 <1>   0.0800 
 32 H        0.9440     5.4850    -1.1040 H     1 <1>   0.0800 
 33 H        2.6450     5.1900    -1.1640 H     1 <1>   0.0800 
 34 H        3.6720     3.3700     0.4370 H     1 <1>   0.0800 
 35 H        2.5890     2.5360     1.5030 H     1 <1>   0.0800 
 36 H        1.1800     6.3890     1.1920 H     1 <1>   0.0800 
 37 H        2.2300     7.2300     0.0800 H     1 <1>   0.0800 
 38 H        3.8910     4.3080     2.6610 H     1 <1>   0.0800 
 39 H        2.1810     4.6250     2.7400 H     1 <1>   0.0800 
 40 H        6.0690     7.5010    -0.4680 H     1 <1>   0.1500 
 41 H        3.0660     8.6830     2.2980 H     1 <1>   0.1500 
 42 H        3.2570    11.0060     1.5170 H     1 <1>   0.1500 
 43 H        4.8350    11.5810    -0.2500 H     1 <1>   0.1500 
 44 H        7.0660    11.6930    -1.1010 H     1 <1>   0.0800 
 45 H        5.8400    11.4980    -2.3590 H     1 <1>   0.0800 
 46 H        8.7300    10.5750    -2.5560 H     1 <1>   0.0800 
 47 H        8.0720    11.9770    -3.3640 H     1 <1>   0.0800 
 48 H        7.5120    10.3830    -3.8080 H     1 <1>   0.0800 
@<TRIPOS>BOND
  1   1   2  1   
  2   1   3  1   
  3   2   4  2   
  4   2   5  1   
  5   3   6  2   
  6   3  26  1   
  7   4   6  1   
  8   4   7  1   
  9   5   8  1   
 10   5  27  1   
 11   5  28  1   
 12   6  29  1   
 13   7   9  1   
 14   7  10  1   
 15   7  11  1   
 16   8   9  1   
 17   8  30  1   
 18   8  31  1   
 19  10  12  1   
 20  10  32  1   
 21  10  33  1   
 22  11  13  1   
 23  11  34  1   
 24  11  35  1   
 25  12  14  1   
 26  12  36  1   
 27  12  37  1   
 28  13  14  1   
 29  13  38  1   
 30  13  39  1   
 31  14  15  am  
 32  15  16  2   
 33  15  17  1   
 34  17  18  ar  
 35  17  19  ar  
 36  18  20  ar  
 37  18  40  1   
 38  19  21  ar  
 39  19  41  1   
 40  20  22  1   
 41  20  23  ar  
 42  21  23  ar  
 43  21  42  1   
 44  22  24  1   
 45  23  43  1   
 46  24  25  1   
 47  24  44  1   
 48  24  45  1   
 49  25  46  1   
 50  25  47  1   
 51  25  48  1   
@<TRIPOS>SUBSTRUCTURE
  1 ****  12 GROUP 4 **** **** 0

# MOE 2024.06 (io_trps.svl 2023.06)
