@<TRIPOS>MOLECULE
NONAME
38 39 1 0 0 
SMALL
USER_CHARGES


@<TRIPOS>ATOM
  1 CL      -5.9540    -2.7960     3.9750 Cl    1 <1>  -0.1770 
  2 C       -5.0540    -2.5090     2.5060 C.ar  1 <1>   0.1770 
  3 C       -4.6770    -1.2280     2.1390 C.ar  1 <1>   0.1770 
  4 C       -4.7260    -3.5900     1.7080 C.ar  1 <1>  -0.1500 
  5 CL      -5.0880     0.1480     3.1340 Cl    1 <1>  -0.1770 
  6 C       -3.9650    -1.0200     0.9710 C.ar  1 <1>  -0.1500 
  7 C       -4.0160    -3.3900     0.5300 C.ar  1 <1>  -0.1440 
  8 C       -3.6350    -2.1020     0.1690 C.ar  1 <1>  -0.1500 
  9 C       -3.6680    -4.5790    -0.3480 C.3   1 <1>   0.4870 
 10 N       -4.9060    -5.0220    -1.0330 N.4   1 <1>  -0.9590 
 11 C       -4.8170    -6.4430    -1.4620 C.3   1 <1>   0.5240 
 12 C       -5.3860    -4.0760    -2.0840 C.3   1 <1>   0.3430 
 13 C       -5.0340    -7.2750    -0.2060 C.2   1 <1>   0.0460 
 14 C       -6.8780    -4.2630    -2.3960 C.3   1 <1>   0.1200 
 15 N       -5.8970    -6.8400     0.7380 N.2   1 <1>  -0.5650 
 16 C       -4.4620    -8.4400     0.1690 C.2   1 <1>  -0.3020 
 17 O       -7.1900    -3.4330    -3.4560 O.3   1 <1>  -0.6800 
 18 C       -5.8410    -7.7480     1.6570 C.2   1 <1>   0.0060 
 19 N       -4.9850    -8.7530     1.3700 N.pl3 1 <1>   0.0330 
 20 C       -6.6500    -7.7060     2.9370 C.3   1 <1>  -0.0600 
 21 H       -5.0300    -4.5740     2.0250 H     1 <1>   0.1500 
 22 H       -3.6740    -0.0200     0.6990 H     1 <1>   0.1500 
 23 H       -3.0760    -1.9230    -0.7360 H     1 <1>   0.1500 
 24 H       -3.2880    -5.3720     0.2770 H     1 <1>   0.0800 
 25 H       -2.9110    -4.3120    -1.0670 H     1 <1>   0.0800 
 26 H       -5.6090    -5.0790    -0.2730 H     1 <1>   0.4500 
 27 H       -3.8650    -6.6630    -1.9140 H     1 <1>   0.0800 
 28 H       -5.6030    -6.6720    -2.1610 H     1 <1>   0.0800 
 29 H       -4.8160    -4.2130    -2.9880 H     1 <1>   0.0800 
 30 H       -5.2480    -3.0620    -1.7460 H     1 <1>   0.0800 
 31 H       -7.4850    -3.9770    -1.5540 H     1 <1>   0.0800 
 32 H       -7.1010    -5.2730    -2.6930 H     1 <1>   0.0800 
 33 H       -3.7350    -9.0610    -0.3280 H     1 <1>   0.1500 
 34 H       -8.1470    -3.4640    -3.6720 H     1 <1>   0.4000 
 35 H       -4.7880    -9.5770     1.9490 H     1 <1>   0.2700 
 36 H       -7.2620    -6.8220     2.9580 H     1 <1>   0.0800 
 37 H       -5.9960    -7.6900     3.7900 H     1 <1>   0.0800 
 38 H       -7.2910    -8.5660     2.9980 H     1 <1>   0.0800 
@<TRIPOS>BOND
  1   1   2  1   
  2   2   3  ar  
  3   2   4  ar  
  4   3   5  1   
  5   3   6  ar  
  6   4   7  ar  
  7   4  21  1   
  8   6   8  ar  
  9   6  22  1   
 10   7   8  ar  
 11   7   9  1   
 12   8  23  1   
 13   9  10  1   
 14   9  24  1   
 15   9  25  1   
 16  10  11  1   
 17  10  12  1   
 18  10  26  1   
 19  11  13  1   
 20  11  27  1   
 21  11  28  1   
 22  12  14  1   
 23  12  29  1   
 24  12  30  1   
 25  13  15  1   
 26  13  16  2   
 27  14  17  1   
 28  14  31  1   
 29  14  32  1   
 30  15  18  2   
 31  16  19  1   
 32  16  33  1   
 33  17  34  1   
 34  18  19  1   
 35  18  20  1   
 36  19  35  1   
 37  20  36  1   
 38  20  37  1   
 39  20  38  1   
@<TRIPOS>SUBSTRUCTURE
  1 ****   4 GROUP 4 **** **** 0

# MOE 2024.06 (io_trps.svl 2023.06)
