@<TRIPOS>MOLECULE
NONAME
54 56 1 0 0 
SMALL
USER_CHARGES


@<TRIPOS>ATOM
  1 S       -0.1320     1.5740    -0.0070 S.o2  1 <1>   1.2040 
  2 O       -0.8470     2.8120     0.1950 O.2   1 <1>  -0.6500 
  3 O        0.6970     1.0630     1.0660 O.2   1 <1>  -0.6500 
  4 C       -1.1910     0.2910    -0.7080 C.ar  1 <1>  -0.0090 
  5 C        1.0130     1.9180    -1.3230 C.3   1 <1>  -0.0550 
  6 C       -2.3180     0.6230    -1.4520 C.ar  1 <1>  -0.1500 
  7 C       -0.8870    -1.0570    -0.5490 C.ar  1 <1>  -0.1500 
  8 C        1.8990     3.0820    -0.8950 C.3   1 <1>   0.3430 
  9 C       -3.1100    -0.3550    -2.0260 C.ar  1 <1>  -0.1500 
 10 C       -1.6750    -2.0410    -1.1210 C.ar  1 <1>  -0.1500 
 11 N        2.7790     2.7320     0.2630 N.4   1 <1>  -0.9590 
 12 C       -2.7870    -1.6890    -1.8630 C.ar  1 <1>  -0.1500 
 13 C        3.1570     3.9080     1.1210 C.3   1 <1>   0.4230 
 14 C        3.9760     1.9880    -0.2330 C.3   1 <1>   0.3430 
 15 C        4.0200     3.4070     2.2940 C.3   1 <1>  -0.1600 
 16 C        1.9350     4.6560     1.7130 C.3   1 <1>  -0.1600 
 17 C        4.8010     1.4590     0.9350 C.3   1 <1>  -0.1600 
 18 C        5.2440     2.6040     1.8460 C.3   1 <1>  -0.1600 
 19 C        1.2700     5.7460     0.8450 C.3   1 <1>  -0.0170 
 20 C        2.2310     6.3480    -0.1690 C.ar  1 <1>  -0.1430 
 21 C        2.0070     6.1860    -1.5270 C.ar  1 <1>  -0.1500 
 22 C        3.3470     7.0580     0.2520 C.ar  1 <1>  -0.1500 
 23 C        2.9140     6.6800    -2.4450 C.ar  1 <1>   0.0820 
 24 C        4.2450     7.5690    -0.6710 C.ar  1 <1>  -0.1500 
 25 O        2.6910     6.4710    -3.7500 O.3   1 <1>  -0.5330 
 26 C        4.0350     7.3770    -2.0250 C.ar  1 <1>  -0.1500 
 27 H        0.4690     2.2100    -2.2010 H     1 <1>   0.0800 
 28 H        1.6030     1.0560    -1.5640 H     1 <1>   0.0800 
 29 H       -2.5890     1.6580    -1.5830 H     1 <1>   0.1500 
 30 H       -0.0290    -1.3500     0.0320 H     1 <1>   0.1500 
 31 H        1.2450     3.8880    -0.6250 H     1 <1>   0.0800 
 32 H        2.5020     3.4190    -1.7230 H     1 <1>   0.0800 
 33 H       -3.9810    -0.0810    -2.5980 H     1 <1>   0.1500 
 34 H       -1.4270    -3.0810    -0.9870 H     1 <1>   0.1500 
 35 H        2.2550     2.0960     0.8970 H     1 <1>   0.4500 
 36 H       -3.4030    -2.4530    -2.3080 H     1 <1>   0.1500 
 37 H        3.7520     4.5940     0.5400 H     1 <1>   0.0800 
 38 H        4.5870     2.6450    -0.8320 H     1 <1>   0.0800 
 39 H        3.6690     1.1580    -0.8470 H     1 <1>   0.0800 
 40 H        3.4170     2.8020     2.9490 H     1 <1>   0.0800 
 41 H        4.3650     4.2510     2.8660 H     1 <1>   0.0800 
 42 H        2.2750     5.1750     2.5920 H     1 <1>   0.0800 
 43 H        1.1940     3.9530     2.0530 H     1 <1>   0.0800 
 44 H        5.6700     0.9500     0.5540 H     1 <1>   0.0800 
 45 H        4.2220     0.7420     1.4920 H     1 <1>   0.0800 
 46 H        5.7600     2.2100     2.7060 H     1 <1>   0.0800 
 47 H        5.9280     3.2480     1.3170 H     1 <1>   0.0800 
 48 H        0.9020     6.5320     1.4840 H     1 <1>   0.0800 
 49 H        0.4040     5.3450     0.3470 H     1 <1>   0.0800 
 50 H        1.1290     5.6870    -1.8950 H     1 <1>   0.1500 
 51 H        3.5240     7.2220     1.3020 H     1 <1>   0.1500 
 52 H        5.1070     8.1210    -0.3350 H     1 <1>   0.1500 
 53 H        3.3050     6.9620    -4.3280 H     1 <1>   0.4500 
 54 H        4.7360     7.7710    -2.7380 H     1 <1>   0.1500 
@<TRIPOS>BOND
  1   1   2  2   
  2   1   3  2   
  3   1   4  1   
  4   1   5  1   
  5   4   6  ar  
  6   4   7  ar  
  7   5   8  1   
  8   5  27  1   
  9   5  28  1   
 10   6   9  ar  
 11   6  29  1   
 12   7  10  ar  
 13   7  30  1   
 14   8  11  1   
 15   8  31  1   
 16   8  32  1   
 17   9  12  ar  
 18   9  33  1   
 19  10  12  ar  
 20  10  34  1   
 21  11  13  1   
 22  11  14  1   
 23  11  35  1   
 24  12  36  1   
 25  13  15  1   
 26  13  16  1   
 27  13  37  1   
 28  14  17  1   
 29  14  38  1   
 30  14  39  1   
 31  15  18  1   
 32  15  40  1   
 33  15  41  1   
 34  16  19  1   
 35  16  42  1   
 36  16  43  1   
 37  17  18  1   
 38  17  44  1   
 39  17  45  1   
 40  18  46  1   
 41  18  47  1   
 42  19  20  1   
 43  19  48  1   
 44  19  49  1   
 45  20  21  ar  
 46  20  22  ar  
 47  21  23  ar  
 48  21  50  1   
 49  22  24  ar  
 50  22  51  1   
 51  23  25  1   
 52  23  26  ar  
 53  24  26  ar  
 54  24  52  1   
 55  25  53  1   
 56  26  54  1   
@<TRIPOS>SUBSTRUCTURE
  1 ****   8 GROUP 4 **** **** 0

# MOE 2024.06 (io_trps.svl 2023.06)
