@<TRIPOS>MOLECULE
NONAME
48 49 1 0 0 
SMALL
USER_CHARGES


@<TRIPOS>ATOM
  1 F        2.8970     0.7250    -2.4470 F     1 <1>  -0.1900 
  2 C        2.5910     1.1060    -1.2380 C.ar  1 <1>   0.1900 
  3 C        2.2810     0.1440    -0.2810 C.ar  1 <1>   0.0860 
  4 C        2.5800     2.4660    -0.9800 C.ar  1 <1>  -0.1500 
  5 C        1.9420     0.6440     0.9730 C.ar  1 <1>   0.1900 
  6 C        2.3070    -1.2660    -0.5660 C.2   1 <1>   0.5440 
  7 C        2.2420     2.9150     0.2870 C.ar  1 <1>  -0.1500 
  8 F        1.6150    -0.1900     1.9220 F     1 <1>  -0.1900 
  9 C        1.9190     1.9950     1.2720 C.ar  1 <1>  -0.1500 
 10 O        3.3770    -1.8440    -0.5770 O.2   1 <1>  -0.5700 
 11 N        1.1530    -1.9800    -0.8120 N.am  1 <1>  -0.6600 
 12 C       -0.2270    -1.4120    -0.7580 C.3   1 <1>   0.1400 
 13 C        1.1560    -3.4650    -0.9810 C.3   1 <1>   0.1400 
 14 C       -1.0830    -2.1720     0.2780 C.3   1 <1>   0.2000 
 15 C        0.2130    -4.1310     0.0440 C.3   1 <1>   0.2000 
 16 O       -1.0560    -3.5420    -0.0200 O.3   1 <1>  -0.5600 
 17 C       -2.5590    -1.7110     0.3090 C.3   1 <1>  -0.0800 
 18 C        0.0150    -5.6320    -0.2020 C.3   1 <1>  -0.1600 
 19 C       -2.6950    -0.2170     0.6520 C.3   1 <1>  -0.2400 
 20 C       -3.3800    -2.5230     1.3260 C.3   1 <1>  -0.2400 
 21 C        1.3050    -6.4470    -0.0180 C.3   1 <1>  -0.1600 
 22 C        1.0350    -7.9470    -0.1810 C.3   1 <1>  -0.1600 
 23 C        2.3190    -8.7610    -0.0010 C.3   1 <1>  -0.2400 
 24 H        2.8340     3.1610    -1.7610 H     1 <1>   0.1500 
 25 H        2.2310     3.9710     0.5040 H     1 <1>   0.1500 
 26 H        1.6520     2.3210     2.2630 H     1 <1>   0.1500 
 27 H       -0.1950    -0.3700    -0.5050 H     1 <1>   0.0800 
 28 H       -0.6840    -1.5030    -1.7280 H     1 <1>   0.0800 
 29 H        0.8310    -3.7080    -1.9770 H     1 <1>   0.0800 
 30 H        2.1500    -3.8560    -0.8560 H     1 <1>   0.0800 
 31 H       -0.6560    -2.0370     1.2570 H     1 <1>   0.0800 
 32 H        0.5990    -3.9810     1.0380 H     1 <1>   0.0800 
 33 H       -2.9800    -1.8700    -0.6690 H     1 <1>   0.0800 
 34 H       -0.7220    -5.9890     0.4960 H     1 <1>   0.0800 
 35 H       -0.3650    -5.7790    -1.1970 H     1 <1>   0.0800 
 36 H       -2.2170     0.0010     1.5910 H     1 <1>   0.0800 
 37 H       -3.7340     0.0520     0.7300 H     1 <1>   0.0800 
 38 H       -2.2600     0.3990    -0.1130 H     1 <1>   0.0800 
 39 H       -2.9750    -2.4100     2.3160 H     1 <1>   0.0800 
 40 H       -3.3660    -3.5680     1.0700 H     1 <1>   0.0800 
 41 H       -4.4050    -2.1970     1.3310 H     1 <1>   0.0800 
 42 H        2.0400    -6.1440    -0.7440 H     1 <1>   0.0800 
 43 H        1.7080    -6.2630     0.9640 H     1 <1>   0.0800 
 44 H        0.3090    -8.2660     0.5470 H     1 <1>   0.0800 
 45 H        0.6300    -8.1370    -1.1610 H     1 <1>   0.0800 
 46 H        2.7300    -8.6030     0.9800 H     1 <1>   0.0800 
 47 H        3.0520    -8.4750    -0.7350 H     1 <1>   0.0800 
 48 H        2.1100    -9.8100    -0.1190 H     1 <1>   0.0800 
@<TRIPOS>BOND
  1   1   2  1   
  2   2   3  ar  
  3   2   4  ar  
  4   3   5  ar  
  5   3   6  1   
  6   4   7  ar  
  7   4  24  1   
  8   5   8  1   
  9   5   9  ar  
 10   6  10  2   
 11   6  11  am  
 12   7   9  ar  
 13   7  25  1   
 14   9  26  1   
 15  11  12  1   
 16  11  13  1   
 17  12  14  1   
 18  12  27  1   
 19  12  28  1   
 20  13  15  1   
 21  13  29  1   
 22  13  30  1   
 23  14  16  1   
 24  14  17  1   
 25  14  31  1   
 26  15  16  1   
 27  15  18  1   
 28  15  32  1   
 29  17  19  1   
 30  17  20  1   
 31  17  33  1   
 32  18  21  1   
 33  18  34  1   
 34  18  35  1   
 35  19  36  1   
 36  19  37  1   
 37  19  38  1   
 38  20  39  1   
 39  20  40  1   
 40  20  41  1   
 41  21  22  1   
 42  21  42  1   
 43  21  43  1   
 44  22  23  1   
 45  22  44  1   
 46  22  45  1   
 47  23  46  1   
 48  23  47  1   
 49  23  48  1   
@<TRIPOS>SUBSTRUCTURE
  1 ****  11 GROUP 4 **** **** 0

# MOE 2024.06 (io_trps.svl 2023.06)
