@<TRIPOS>MOLECULE
NONAME
41 43 1 0 0 
SMALL
USER_CHARGES


@<TRIPOS>ATOM
  1 O       -0.0450     1.0110    -1.8040 O.2   1 <1>  -0.5700 
  2 C       -0.1300     1.8080    -0.8810 C.2   1 <1>   0.5440 
  3 N       -1.3440     1.8950    -0.2100 N.am  1 <1>  -0.6600 
  4 C        1.0430     2.6370    -0.5700 C.ar  1 <1>   0.3960 
  5 C       -2.5240     1.0770    -0.6150 C.3   1 <1>   0.1400 
  6 C       -1.5750     2.8820     0.8890 C.3   1 <1>   0.1400 
  7 N        1.3910     2.8960     0.7030 N.ar  1 <1>  -0.6200 
  8 C        1.7940     3.1370    -1.6370 C.ar  1 <1>  -0.1500 
  9 C       -3.7170     1.9780    -0.9610 C.3   1 <1>  -0.1600 
 10 C       -3.0550     3.0000     1.2670 C.3   1 <1>  -0.1600 
 11 C        2.4590     3.6400     0.8870 C.ar  1 <1>   0.3930 
 12 C        2.9130     3.9150    -1.4290 C.ar  1 <1>  -0.1500 
 13 C       -3.9340     3.1500     0.0190 C.3   1 <1>   0.4180 
 14 O        2.7750     3.8820     2.1550 O.3   1 <1>  -0.5320 
 15 C        3.2500     4.1700    -0.1210 C.ar  1 <1>  -0.1500 
 16 O       -3.5470     4.3150    -0.6710 O.3   1 <1>  -0.5600 
 17 C       -5.4090     3.2390     0.4130 C.2   1 <1>  -0.2880 
 18 C       -4.0290     5.5430    -0.2040 C.3   1 <1>   0.1200 
 19 C       -6.1660     4.3290     0.2590 C.2   1 <1>  -0.2760 
 20 C       -5.5590     5.5970    -0.3100 C.3   1 <1>  -0.0220 
 21 C       -7.6400     4.4110     0.6110 C.3   1 <1>  -0.1020 
 22 H       -2.7820     0.4280     0.2030 H     1 <1>   0.0800 
 23 H       -2.2950     0.4530    -1.4610 H     1 <1>   0.0800 
 24 H       -1.2210     3.8460     0.5650 H     1 <1>   0.0800 
 25 H       -1.0070     2.5890     1.7550 H     1 <1>   0.0800 
 26 H        1.4850     2.9020    -2.6410 H     1 <1>   0.1500 
 27 H       -4.5910     1.3550    -0.9840 H     1 <1>   0.0800 
 28 H       -3.5850     2.3620    -1.9560 H     1 <1>   0.0800 
 29 H       -3.1980     3.8310     1.9300 H     1 <1>   0.0800 
 30 H       -3.3500     2.1200     1.8080 H     1 <1>   0.0800 
 31 H        3.4920     4.3000    -2.2510 H     1 <1>   0.1500 
 32 H        3.5860     4.4000     2.2560 H     1 <1>   0.4500 
 33 H        4.1090     4.7690     0.1130 H     1 <1>   0.1500 
 34 H       -5.7850     2.3210     0.8260 H     1 <1>   0.1500 
 35 H       -3.5850     6.3190    -0.8020 H     1 <1>   0.0800 
 36 H       -3.7170     5.6710     0.8170 H     1 <1>   0.0800 
 37 H       -5.8470     5.7090    -1.3400 H     1 <1>   0.0800 
 38 H       -5.9090     6.4560     0.2330 H     1 <1>   0.0800 
 39 H       -8.2150     4.6600    -0.2630 H     1 <1>   0.0800 
 40 H       -7.8030     5.1630     1.3620 H     1 <1>   0.0800 
 41 H       -7.9900     3.4680     0.9910 H     1 <1>   0.0800 
@<TRIPOS>BOND
  1   1   2  2   
  2   2   3  am  
  3   2   4  1   
  4   3   5  1   
  5   3   6  1   
  6   4   7  ar  
  7   4   8  ar  
  8   5   9  1   
  9   5  22  1   
 10   5  23  1   
 11   6  10  1   
 12   6  24  1   
 13   6  25  1   
 14   7  11  ar  
 15   8  12  ar  
 16   8  26  1   
 17   9  13  1   
 18   9  27  1   
 19   9  28  1   
 20  10  13  1   
 21  10  29  1   
 22  10  30  1   
 23  11  14  1   
 24  11  15  ar  
 25  12  15  ar  
 26  12  31  1   
 27  13  16  1   
 28  13  17  1   
 29  14  32  1   
 30  15  33  1   
 31  16  18  1   
 32  17  19  2   
 33  17  34  1   
 34  18  20  1   
 35  18  35  1   
 36  18  36  1   
 37  19  20  1   
 38  19  21  1   
 39  20  37  1   
 40  20  38  1   
 41  21  39  1   
 42  21  40  1   
 43  21  41  1   
@<TRIPOS>SUBSTRUCTURE
  1 ****   6 GROUP 4 **** **** 0

# MOE 2024.06 (io_trps.svl 2023.06)
