@<TRIPOS>MOLECULE
NONAME
49 50 1 0 0 
SMALL
USER_CHARGES


@<TRIPOS>ATOM
  1 S        0.9850     0.5030     0.8340 S.o2  1 <1>   1.3330 
  2 O        1.2000    -0.9010     1.1080 O.2   1 <1>  -0.6500 
  3 O        1.0860     1.4640     1.9090 O.2   1 <1>  -0.6500 
  4 N       -0.5460     0.6630     0.1200 N.am  1 <1>  -0.8490 
  5 C        2.0960     1.0150    -0.4730 C.3   1 <1>  -0.0550 
  6 C       -0.9190    -0.4740    -0.7280 C.3   1 <1>   0.1160 
  7 C       -1.5970     0.9110     1.1130 C.3   1 <1>   0.1160 
  8 C        3.5660     1.0920    -0.0260 C.3   1 <1>  -0.0800 
  9 C        4.4890     1.5220    -1.1510 C.3   1 <1>   0.2200 
 10 C        4.1800    -0.2330     0.4040 C.3   1 <1>   0.1200 
 11 N        4.6220     2.9920    -1.1670 N.am  1 <1>  -0.7300 
 12 C        5.8020     0.8010    -0.8450 C.3   1 <1>   0.1200 
 13 O        5.5490    -0.0690     0.2180 O.3   1 <1>  -0.5600 
 14 C        3.9340     3.8280    -1.9870 C.2   1 <1>   0.5690 
 15 O        3.1630     3.4030    -2.8150 O.2   1 <1>  -0.5700 
 16 C        4.1210     5.3350    -1.8580 C.3   1 <1>   0.1810 
 17 O        4.9340     5.6550    -0.7360 O.3   1 <1>  -0.3630 
 18 C        5.2130     6.9430    -0.4140 C.ar  1 <1>   0.0820 
 19 C        5.9720     7.1490     0.7250 C.ar  1 <1>  -0.1500 
 20 C        4.7830     8.0380    -1.1600 C.ar  1 <1>  -0.1500 
 21 C        6.3090     8.4280     1.1310 C.ar  1 <1>   0.0820 
 22 C        5.1170     9.3200    -0.7580 C.ar  1 <1>  -0.1500 
 23 O        7.0570     8.5350     2.2590 O.3   1 <1>  -0.3620 
 24 C        5.8770     9.5200     0.3820 C.ar  1 <1>  -0.1500 
 25 C        7.4570     9.7920     2.7570 C.3   1 <1>   0.0400 
 26 H        2.0100     0.3400    -1.3010 H     1 <1>   0.0800 
 27 H        1.7960     1.9870    -0.8160 H     1 <1>   0.0800 
 28 H       -1.8570    -0.2770    -1.2190 H     1 <1>   0.0800 
 29 H       -1.0130    -1.3700    -0.1370 H     1 <1>   0.0800 
 30 H       -0.1690    -0.6350    -1.4840 H     1 <1>   0.0800 
 31 H       -2.5500     1.0260     0.6270 H     1 <1>   0.0800 
 32 H       -1.3850     1.8180     1.6550 H     1 <1>   0.0800 
 33 H       -1.6500     0.0940     1.8130 H     1 <1>   0.0800 
 34 H        3.6550     1.7740     0.8040 H     1 <1>   0.0800 
 35 H        4.1210     1.1760    -2.1030 H     1 <1>   0.0800 
 36 H        3.8540    -1.0470    -0.2220 H     1 <1>   0.0800 
 37 H        3.9870    -0.4650     1.4380 H     1 <1>   0.0800 
 38 H        5.1950     3.4130    -0.4290 H     1 <1>   0.3700 
 39 H        6.5790     1.4800    -0.5430 H     1 <1>   0.0800 
 40 H        6.1260     0.2150    -1.6870 H     1 <1>   0.0800 
 41 H        3.1620     5.8010    -1.7270 H     1 <1>   0.0800 
 42 H        4.5990     5.7100    -2.7440 H     1 <1>   0.0800 
 43 H        6.3050     6.3080     1.3040 H     1 <1>   0.1500 
 44 H        4.1940     7.9190    -2.0490 H     1 <1>   0.1500 
 45 H        4.7850    10.1660    -1.3340 H     1 <1>   0.1500 
 46 H        6.1210    10.5250     0.6700 H     1 <1>   0.1500 
 47 H        8.0350     9.6290     3.6490 H     1 <1>   0.0800 
 48 H        6.5800    10.3700     2.9910 H     1 <1>   0.0800 
 49 H        8.0600    10.2860     2.0160 H     1 <1>   0.0800 
@<TRIPOS>BOND
  1   1   2  2   
  2   1   3  2   
  3   1   4  am  
  4   1   5  1   
  5   4   6  1   
  6   4   7  1   
  7   5   8  1   
  8   5  26  1   
  9   5  27  1   
 10   6  28  1   
 11   6  29  1   
 12   6  30  1   
 13   7  31  1   
 14   7  32  1   
 15   7  33  1   
 16   8   9  1   
 17   8  10  1   
 18   8  34  1   
 19   9  11  1   
 20   9  12  1   
 21   9  35  1   
 22  10  13  1   
 23  10  36  1   
 24  10  37  1   
 25  11  14  am  
 26  11  38  1   
 27  12  13  1   
 28  12  39  1   
 29  12  40  1   
 30  14  15  2   
 31  14  16  1   
 32  16  17  1   
 33  16  41  1   
 34  16  42  1   
 35  17  18  1   
 36  18  19  ar  
 37  18  20  ar  
 38  19  21  ar  
 39  19  43  1   
 40  20  22  ar  
 41  20  44  1   
 42  21  23  1   
 43  21  24  ar  
 44  22  24  ar  
 45  22  45  1   
 46  23  25  1   
 47  24  46  1   
 48  25  47  1   
 49  25  48  1   
 50  25  49  1   
@<TRIPOS>SUBSTRUCTURE
  1 ****  11 GROUP 4 **** **** 0

# MOE 2024.06 (io_trps.svl 2023.06)
