@<TRIPOS>MOLECULE
NONAME
49 51 1 0 0 
SMALL
USER_CHARGES


@<TRIPOS>ATOM
  1 S        0.5150    -0.0120    -1.4980 S.o2  1 <1>   1.5760 
  2 O       -0.0050     0.5810    -2.7040 O.2   1 <1>  -0.6500 
  3 O        1.5580    -1.0120    -1.5610 O.2   1 <1>  -0.6500 
  4 N        1.1420     1.2160    -0.5240 N.am  1 <1>  -0.8490 
  5 N       -0.7580    -0.5680    -0.5540 N.am  1 <1>  -0.8490 
  6 C        1.5170     0.7990     0.8560 C.3   1 <1>   0.2760 
  7 C        2.0160     2.1320    -1.2770 C.3   1 <1>   0.1960 
  8 C       -1.2510    -1.8300    -1.1120 C.3   1 <1>   0.3390 
  9 C       -1.8540     0.4140    -0.4700 C.3   1 <1>   0.1160 
 10 C        1.6010     2.0010     1.8090 C.3   1 <1>   0.1200 
 11 C        2.8010    -0.0670     0.9710 C.3   1 <1>   0.3430 
 12 C        3.3270     2.5510    -0.5920 C.3   1 <1>  -0.0800 
 13 C       -2.3170    -2.4480    -0.2170 C.ar  1 <1>  -0.1440 
 14 O        2.8660     2.5910     1.7690 O.3   1 <1>  -0.5600 
 15 N        3.7470     0.0490    -0.1910 N.4   1 <1>  -0.9590 
 16 C        3.1030     3.4000     0.6670 C.3   1 <1>   0.1200 
 17 C        4.3410     1.4130    -0.3620 C.3   1 <1>   0.3430 
 18 C       -1.9990    -2.8520     1.0710 C.ar  1 <1>  -0.1500 
 19 C       -3.6150    -2.6110    -0.6790 C.ar  1 <1>  -0.1500 
 20 C        4.8060    -0.9960    -0.1120 C.3   1 <1>   0.2630 
 21 C       -2.9660    -3.4120     1.8890 C.ar  1 <1>  -0.1500 
 22 C       -4.5820    -3.1710     0.1380 C.ar  1 <1>  -0.1500 
 23 C       -4.2580    -3.5710     1.4220 C.ar  1 <1>  -0.1500 
 24 H        0.7120     0.2060     1.2520 H     1 <1>   0.0800 
 25 H        2.2720     1.6920    -2.2280 H     1 <1>   0.0800 
 26 H        1.4430     3.0160    -1.5020 H     1 <1>   0.0800 
 27 H       -1.6460    -1.6660    -2.1020 H     1 <1>   0.0800 
 28 H       -0.4390    -2.5340    -1.1950 H     1 <1>   0.0800 
 29 H       -2.6120     0.0770     0.2160 H     1 <1>   0.0800 
 30 H       -2.3030     0.5690    -1.4380 H     1 <1>   0.0800 
 31 H       -1.4820     1.3590    -0.1120 H     1 <1>   0.0800 
 32 H        1.4560     1.6610     2.8200 H     1 <1>   0.0800 
 33 H        0.8430     2.7340     1.5910 H     1 <1>   0.0800 
 34 H        2.4860    -1.0940     1.0540 H     1 <1>   0.0800 
 35 H        3.3110     0.1860     1.8850 H     1 <1>   0.0800 
 36 H        3.8020     3.2230    -1.2840 H     1 <1>   0.0800 
 37 H        3.1540    -0.1750    -1.0160 H     1 <1>   0.4500 
 38 H        2.2850     4.0920     0.5470 H     1 <1>   0.0800 
 39 H        3.9910     3.9680     0.8870 H     1 <1>   0.0800 
 40 H        4.9370     1.6540     0.5040 H     1 <1>   0.0800 
 41 H        5.0040     1.3870    -1.2110 H     1 <1>   0.0800 
 42 H       -0.9980    -2.7280     1.4410 H     1 <1>   0.1500 
 43 H       -3.8830    -2.3060    -1.6760 H     1 <1>   0.1500 
 44 H        5.4210    -0.8430     0.7600 H     1 <1>   0.0800 
 45 H        5.4320    -0.9610    -0.9890 H     1 <1>   0.0800 
 46 H        4.3580    -1.9750    -0.0540 H     1 <1>   0.0800 
 47 H       -2.7130    -3.7230     2.8870 H     1 <1>   0.1500 
 48 H       -5.5880    -3.2960    -0.2250 H     1 <1>   0.1500 
 49 H       -5.0110    -4.0060     2.0560 H     1 <1>   0.1500 
@<TRIPOS>BOND
  1   1   2  2   
  2   1   3  2   
  3   1   4  am  
  4   1   5  am  
  5   4   6  1   
  6   4   7  1   
  7   5   8  1   
  8   5   9  1   
  9   6  10  1   
 10   6  11  1   
 11   6  24  1   
 12   7  12  1   
 13   7  25  1   
 14   7  26  1   
 15   8  13  1   
 16   8  27  1   
 17   8  28  1   
 18   9  29  1   
 19   9  30  1   
 20   9  31  1   
 21  10  14  1   
 22  10  32  1   
 23  10  33  1   
 24  11  15  1   
 25  11  34  1   
 26  11  35  1   
 27  12  16  1   
 28  12  17  1   
 29  12  36  1   
 30  13  18  ar  
 31  13  19  ar  
 32  14  16  1   
 33  15  17  1   
 34  15  20  1   
 35  15  37  1   
 36  16  38  1   
 37  16  39  1   
 38  17  40  1   
 39  17  41  1   
 40  18  21  ar  
 41  18  42  1   
 42  19  22  ar  
 43  19  43  1   
 44  20  44  1   
 45  20  45  1   
 46  20  46  1   
 47  21  23  ar  
 48  21  47  1   
 49  22  23  ar  
 50  22  48  1   
 51  23  49  1   
@<TRIPOS>SUBSTRUCTURE
  1 ****   5 GROUP 4 **** **** 0

# MOE 2024.06 (io_trps.svl 2023.06)
