@<TRIPOS>MOLECULE
NONAME
43 44 1 0 0 
SMALL
USER_CHARGES


@<TRIPOS>ATOM
  1 S        0.6230    -1.0510     0.0020 S.o2  1 <1>   1.3330 
  2 O        1.7310    -1.0010     0.9210 O.2   1 <1>  -0.6500 
  3 O        0.7930    -1.6230    -1.3120 O.2   1 <1>  -0.6500 
  4 N       -0.5440    -1.9520     0.7960 N.am  1 <1>  -0.9140 
  5 C       -0.1230     0.5600    -0.1170 C.3   1 <1>  -0.1350 
  6 C       -1.4850    -2.6280    -0.0860 C.3   1 <1>   0.1960 
  7 C       -2.5300    -3.3500     0.7550 C.3   1 <1>  -0.0990 
  8 C       -3.5000    -4.0540    -0.1600 C.2   1 <1>   0.5690 
  9 O       -4.3000    -3.3980    -0.7790 O.2   1 <1>  -0.5700 
 10 N       -3.4350    -5.4010    -0.2740 N.am  1 <1>  -0.7300 
 11 C       -4.2910    -6.2150    -1.1620 C.3   1 <1>   0.2200 
 12 C       -5.2960    -6.9810    -0.3160 C.3   1 <1>  -0.0800 
 13 C       -3.4640    -7.3470    -1.7560 C.3   1 <1>   0.1200 
 14 C       -4.5150    -8.2440     0.0770 C.3   1 <1>   0.1200 
 15 C       -6.5710    -7.3060    -1.1160 C.3   1 <1>  -0.0170 
 16 O       -3.3900    -8.3110    -0.7520 O.3   1 <1>  -0.5600 
 17 C       -7.5880    -8.0480    -0.2620 C.ar  1 <1>  -0.1430 
 18 C       -8.3200    -7.4030     0.7150 C.ar  1 <1>  -0.1500 
 19 C       -7.8340    -9.3970    -0.4160 C.ar  1 <1>  -0.1500 
 20 C       -9.2320    -8.1190     1.4720 C.ar  1 <1>   0.1600 
 21 C       -8.7700   -10.0200     0.3950 C.ar  1 <1>   0.1600 
 22 N       -9.4730    -9.4130     1.3370 N.ar  1 <1>  -0.6200 
 23 H        0.0030    -2.6500     1.2970 H     1 <1>   0.4200 
 24 H       -0.3610     0.9270     0.8610 H     1 <1>   0.0800 
 25 H       -1.0220     0.5100    -0.6980 H     1 <1>   0.0800 
 26 H        0.5560     1.2440    -0.5870 H     1 <1>   0.0800 
 27 H       -1.9730    -1.9080    -0.7230 H     1 <1>   0.0800 
 28 H       -0.9640    -3.3370    -0.7110 H     1 <1>   0.0800 
 29 H       -3.0750    -2.6360     1.3460 H     1 <1>   0.0800 
 30 H       -2.0600    -4.0610     1.4070 H     1 <1>   0.0800 
 31 H       -2.7660    -5.9520     0.2690 H     1 <1>   0.3700 
 32 H       -4.7480    -5.5980    -1.9190 H     1 <1>   0.0800 
 33 H       -5.5740    -6.4160     0.5560 H     1 <1>   0.0800 
 34 H       -2.4730    -7.0370    -2.0390 H     1 <1>   0.0800 
 35 H       -3.9650    -7.7880    -2.6010 H     1 <1>   0.0800 
 36 H       -5.0880    -9.1450    -0.0480 H     1 <1>   0.0800 
 37 H       -4.1680    -8.1820     1.0940 H     1 <1>   0.0800 
 38 H       -6.3290    -7.8950    -1.9840 H     1 <1>   0.0800 
 39 H       -7.0180    -6.3890    -1.4610 H     1 <1>   0.0800 
 40 H       -8.1900    -6.3510     0.8940 H     1 <1>   0.1500 
 41 H       -7.3100    -9.9730    -1.1570 H     1 <1>   0.1500 
 42 H       -9.7940    -7.5990     2.2290 H     1 <1>   0.1500 
 43 H       -8.9480   -11.0730     0.2610 H     1 <1>   0.1500 
@<TRIPOS>BOND
  1   1   2  2   
  2   1   3  2   
  3   1   4  am  
  4   1   5  1   
  5   4   6  1   
  6   4  23  1   
  7   5  24  1   
  8   5  25  1   
  9   5  26  1   
 10   6   7  1   
 11   6  27  1   
 12   6  28  1   
 13   7   8  1   
 14   7  29  1   
 15   7  30  1   
 16   8   9  2   
 17   8  10  am  
 18  10  11  1   
 19  10  31  1   
 20  11  12  1   
 21  11  13  1   
 22  11  32  1   
 23  12  14  1   
 24  12  15  1   
 25  12  33  1   
 26  13  16  1   
 27  13  34  1   
 28  13  35  1   
 29  14  16  1   
 30  14  36  1   
 31  14  37  1   
 32  15  17  1   
 33  15  38  1   
 34  15  39  1   
 35  17  18  ar  
 36  17  19  ar  
 37  18  20  ar  
 38  18  40  1   
 39  19  21  ar  
 40  19  41  1   
 41  20  22  ar  
 42  20  42  1   
 43  21  22  ar  
 44  21  43  1   
@<TRIPOS>SUBSTRUCTURE
  1 ****  10 GROUP 4 **** **** 0

# MOE 2024.06 (io_trps.svl 2023.06)
