@<TRIPOS>MOLECULE
NONAME
46 48 1 0 0 
SMALL
USER_CHARGES


@<TRIPOS>ATOM
  1 S        0.2740     0.5320    -0.8330 S.o2  1 <1>   1.3330 
  2 O       -0.7530     1.4130    -1.3390 O.2   1 <1>  -0.6500 
  3 O        0.3750    -0.8170    -1.3430 O.2   1 <1>  -0.6500 
  4 N        0.0620     0.4340     0.8510 N.am  1 <1>  -0.8490 
  5 C        1.8760     1.3190    -1.0220 C.3   1 <1>  -0.0550 
  6 C       -0.3800     1.6970     1.4550 C.3   1 <1>   0.1160 
  7 C       -0.8590    -0.6420     1.2270 C.3   1 <1>   0.1160 
  8 C        3.0700     0.4460    -0.5780 C.3   1 <1>  -0.0800 
  9 C        4.4370     1.0400    -0.8790 C.3   1 <1>   0.2200 
 10 C        3.1490     0.1660     0.9270 C.3   1 <1>   0.1200 
 11 N        4.4640     2.4860    -0.5580 N.am  1 <1>  -0.7300 
 12 C        5.2980     0.2910     0.1280 C.3   1 <1>   0.1200 
 13 O        4.5050     0.1620     1.2690 O.3   1 <1>  -0.5600 
 14 C        4.3920     3.5230    -1.4480 C.2   1 <1>   0.5440 
 15 O        4.2670     3.2430    -2.6280 O.2   1 <1>  -0.5700 
 16 C        4.4400     4.9100    -0.9790 C.ar  1 <1>   0.3960 
 17 N        4.4500     5.1610     0.3170 N.ar  1 <1>  -0.6200 
 18 C        4.4700     5.9600    -1.9260 C.ar  1 <1>  -0.1500 
 19 C        4.4930     6.4490     0.7290 C.ar  1 <1>   0.3100 
 20 C        4.5110     7.2630    -1.5360 C.ar  1 <1>  -0.1500 
 21 C        4.5230     7.5430    -0.1620 C.ar  1 <1>   0.0000 
 22 C        4.5080     6.7160     2.1090 C.ar  1 <1>  -0.1500 
 23 C        4.5640     8.8520     0.3560 C.ar  1 <1>  -0.1500 
 24 C        4.5490     7.9960     2.5940 C.ar  1 <1>  -0.1500 
 25 C        4.5770     9.0760     1.7060 C.ar  1 <1>  -0.1500 
 26 H        2.0110     1.5580    -2.0600 H     1 <1>   0.0800 
 27 H        1.8800     2.2440    -0.4820 H     1 <1>   0.0800 
 28 H       -0.4170     1.6010     2.5260 H     1 <1>   0.0800 
 29 H       -1.3590     1.9660     1.0930 H     1 <1>   0.0800 
 30 H        0.3070     2.4880     1.2100 H     1 <1>   0.0800 
 31 H       -0.9630    -0.6890     2.2970 H     1 <1>   0.0800 
 32 H       -0.4770    -1.5900     0.8850 H     1 <1>   0.0800 
 33 H       -1.8270    -0.4790     0.7810 H     1 <1>   0.0800 
 34 H        3.0050    -0.5030    -1.0830 H     1 <1>   0.0800 
 35 H        4.7540     0.8700    -1.8950 H     1 <1>   0.0800 
 36 H        2.7180    -0.7880     1.1810 H     1 <1>   0.0800 
 37 H        2.6750     0.9430     1.5010 H     1 <1>   0.0800 
 38 H        4.5500     2.7140     0.4390 H     1 <1>   0.3700 
 39 H        6.2060     0.8140     0.3730 H     1 <1>   0.0800 
 40 H        5.5270    -0.6980    -0.2270 H     1 <1>   0.0800 
 41 H        4.4590     5.7030    -2.9700 H     1 <1>   0.1500 
 42 H        4.5350     8.0710    -2.2470 H     1 <1>   0.1500 
 43 H        4.4880     5.8750     2.7780 H     1 <1>   0.1500 
 44 H        4.5860     9.6790    -0.3320 H     1 <1>   0.1500 
 45 H        4.5610     8.1860     3.6540 H     1 <1>   0.1500 
 46 H        4.6080    10.0780     2.1000 H     1 <1>   0.1500 
@<TRIPOS>BOND
  1   1   2  2   
  2   1   3  2   
  3   1   4  am  
  4   1   5  1   
  5   4   6  1   
  6   4   7  1   
  7   5   8  1   
  8   5  26  1   
  9   5  27  1   
 10   6  28  1   
 11   6  29  1   
 12   6  30  1   
 13   7  31  1   
 14   7  32  1   
 15   7  33  1   
 16   8   9  1   
 17   8  10  1   
 18   8  34  1   
 19   9  11  1   
 20   9  12  1   
 21   9  35  1   
 22  10  13  1   
 23  10  36  1   
 24  10  37  1   
 25  11  14  am  
 26  11  38  1   
 27  12  13  1   
 28  12  39  1   
 29  12  40  1   
 30  14  15  2   
 31  14  16  1   
 32  16  17  ar  
 33  16  18  ar  
 34  17  19  ar  
 35  18  20  ar  
 36  18  41  1   
 37  19  21  ar  
 38  19  22  ar  
 39  20  21  ar  
 40  20  42  1   
 41  21  23  ar  
 42  22  24  ar  
 43  22  43  1   
 44  23  25  ar  
 45  23  44  1   
 46  24  25  ar  
 47  24  45  1   
 48  25  46  1   
@<TRIPOS>SUBSTRUCTURE
  1 ****  11 GROUP 4 **** **** 0

# MOE 2024.06 (io_trps.svl 2023.06)
