@<TRIPOS>MOLECULE
NONAME
42 43 1 0 0 
SMALL
USER_CHARGES


@<TRIPOS>ATOM
  1 O        1.6060    -0.4760     2.2180 O.co2 1 <1>  -0.9000 
  2 C        1.5010    -0.5270     0.9860 C.2   1 <1>   0.9060 
  3 O        0.8430    -1.4190     0.4300 O.co2 1 <1>  -0.9000 
  4 C        2.2750     0.4600     0.0910 C.3   1 <1>  -0.1060 
  5 C        3.3020    -0.4690    -0.6120 C.3   1 <1>   0.2000 
  6 C        3.0200     1.5510     0.9320 C.3   1 <1>  -0.1600 
  7 C        1.2600     1.1770    -0.8600 C.3   1 <1>  -0.1600 
  8 O        2.6890    -1.1740    -1.6360 O.3   1 <1>  -0.6800 
  9 C        4.5830     0.2170    -1.1150 C.3   1 <1>   0.2090 
 10 C        4.4740     1.1790     1.2160 C.3   1 <1>   0.2090 
 11 C        1.8550     1.9680    -2.0410 C.3   1 <1>  -0.1600 
 12 N        5.2060     1.1440    -0.0950 N.pl3 1 <1>  -0.8380 
 13 C        0.7680     2.7630    -2.7690 C.3   1 <1>  -0.2400 
 14 C        6.1880     2.0170    -0.4440 C.ar  1 <1>   0.1000 
 15 C        6.2670     3.3130     0.0870 C.ar  1 <1>  -0.1500 
 16 C        7.1720     1.6620    -1.3760 C.ar  1 <1>  -0.1500 
 17 C        7.2620     4.1790    -0.2860 C.ar  1 <1>   0.2180 
 18 C        8.1560     2.5440    -1.7340 C.ar  1 <1>   0.2110 
 19 N        8.1930     3.7850    -1.1890 N.ar  1 <1>  -0.1790 
 20 C        7.3550     5.5860     0.2810 C.3   1 <1>  -0.0970 
 21 H        3.6220    -1.2140     0.0990 H     1 <1>   0.0800 
 22 H        2.5100     1.7200     1.8630 H     1 <1>   0.0800 
 23 H        3.0250     2.4970     0.4270 H     1 <1>   0.0800 
 24 H        0.5870     0.4430    -1.2700 H     1 <1>   0.0800 
 25 H        0.6560     1.8350    -0.2590 H     1 <1>   0.0800 
 26 H        1.8500    -1.5300    -1.2340 H     1 <1>   0.4000 
 27 H        4.3570     0.7810    -2.0000 H     1 <1>   0.0800 
 28 H        5.2880    -0.5530    -1.3690 H     1 <1>   0.0800 
 29 H        4.5200     0.2140     1.6930 H     1 <1>   0.0800 
 30 H        4.9170     1.8890     1.8900 H     1 <1>   0.0800 
 31 H        2.6200     2.6450    -1.7090 H     1 <1>   0.0800 
 32 H        2.2970     1.2790    -2.7390 H     1 <1>   0.0800 
 33 H        0.3160     3.4770    -2.1030 H     1 <1>   0.0800 
 34 H        0.0040     2.0980    -3.1330 H     1 <1>   0.0800 
 35 H        1.1920     3.2900    -3.6050 H     1 <1>   0.0800 
 36 H        5.5150     3.6260     0.7870 H     1 <1>   0.1500 
 37 H        7.1500     0.6760    -1.8010 H     1 <1>   0.1500 
 38 H        8.9140     2.2670    -2.4490 H     1 <1>   0.1500 
 39 H        8.9330     4.4390    -1.4640 H     1 <1>   0.4570 
 40 H        6.5570     5.7640     0.9810 H     1 <1>   0.0800 
 41 H        7.2780     6.3140    -0.5060 H     1 <1>   0.0800 
 42 H        8.2890     5.7220     0.7980 H     1 <1>   0.0800 
@<TRIPOS>BOND
  1   1   2  ar  
  2   2   3  ar  
  3   2   4  1   
  4   4   5  1   
  5   4   6  1   
  6   4   7  1   
  7   5   8  1   
  8   5   9  1   
  9   5  21  1   
 10   6  10  1   
 11   6  22  1   
 12   6  23  1   
 13   7  11  1   
 14   7  24  1   
 15   7  25  1   
 16   8  26  1   
 17   9  12  1   
 18   9  27  1   
 19   9  28  1   
 20  10  12  1   
 21  10  29  1   
 22  10  30  1   
 23  11  13  1   
 24  11  31  1   
 25  11  32  1   
 26  12  14  1   
 27  13  33  1   
 28  13  34  1   
 29  13  35  1   
 30  14  15  ar  
 31  14  16  ar  
 32  15  17  ar  
 33  15  36  1   
 34  16  18  ar  
 35  16  37  1   
 36  17  19  ar  
 37  17  20  1   
 38  18  19  ar  
 39  18  38  1   
 40  19  39  1   
 41  20  40  1   
 42  20  41  1   
 43  20  42  1   
@<TRIPOS>SUBSTRUCTURE
  1 ****  12 GROUP 4 **** **** 0

# MOE 2024.06 (io_trps.svl 2023.06)
