@<TRIPOS>MOLECULE
NONAME
53 57 1 0 0 
SMALL
USER_CHARGES


@<TRIPOS>ATOM
  1 O       -2.9050     0.1050     2.1950 O.2   1 <1>  -0.5700 
  2 C       -2.9100     0.5590     1.0620 C.2   1 <1>   0.7670 
  3 N       -2.8380     1.9270     0.9470 N.2   1 <1>  -0.6610 
  4 C       -2.9890    -0.2730    -0.0960 C.2   1 <1>   0.0290 
  5 C       -2.8090     2.4390    -0.2240 C.2   1 <1>   0.5000 
  6 C       -3.1070    -1.6930     0.0390 C.2   1 <1>   0.6160 
  7 C       -2.9370     0.3360    -1.3150 C.2   1 <1>  -0.0500 
  8 N       -2.8470     1.6940    -1.3660 N.pl3 1 <1>  -0.5500 
  9 C       -2.7260     3.9440    -0.4120 C.3   1 <1>  -0.1000 
 10 O       -2.3300    -2.4040    -0.5740 O.2   1 <1>  -0.5700 
 11 N       -4.1190    -2.2940     0.7560 N.am  1 <1>  -0.6600 
 12 C       -3.5810     4.8740     0.3980 C.3   1 <1>  -0.2000 
 13 C       -3.8460     4.7010    -1.0660 C.3   1 <1>  -0.2000 
 14 C       -5.3330    -1.6110     1.2500 C.3   1 <1>   0.1400 
 15 C       -4.3220    -3.7520     0.8410 C.3   1 <1>   0.1400 
 16 C       -6.4760    -2.5920     0.9610 C.3   1 <1>  -0.0800 
 17 C       -5.8170    -3.9410     0.5700 C.3   1 <1>  -0.0800 
 18 C       -7.5120    -2.0400    -0.0480 C.3   1 <1>   0.4240 
 19 C       -6.0550    -4.3580    -0.8940 C.3   1 <1>  -0.1600 
 20 O       -6.8410    -1.5100    -1.1380 O.3   1 <1>  -0.6800 
 21 C       -8.3810    -0.9420     0.6030 C.ar  1 <1>  -0.1440 
 22 C       -8.3560    -3.2010    -0.6010 C.3   1 <1>  -0.1600 
 23 C       -7.5370    -4.3050    -1.3080 C.3   1 <1>  -0.1600 
 24 C       -9.2920    -1.2750     1.6020 C.ar  1 <1>  -0.1500 
 25 C       -8.2800     0.3990     0.2390 C.ar  1 <1>  -0.1500 
 26 C      -10.0770    -0.3100     2.2090 C.ar  1 <1>  -0.1500 
 27 C       -9.0620     1.3670     0.8450 C.ar  1 <1>  -0.1500 
 28 C       -9.9630     1.0140     1.8310 C.ar  1 <1>  -0.1500 
 29 H       -2.9690    -0.2260    -2.2360 H     1 <1>   0.1500 
 30 H       -2.8200     2.1980    -2.2560 H     1 <1>   0.4000 
 31 H       -1.7180     4.2650    -0.6050 H     1 <1>   0.1000 
 32 H       -4.2650     4.4440     1.1110 H     1 <1>   0.1000 
 33 H       -3.1460     5.7930     0.7490 H     1 <1>   0.1000 
 34 H       -3.6100     5.5150    -1.7290 H     1 <1>   0.1000 
 35 H       -4.7430     4.1790    -1.3540 H     1 <1>   0.1000 
 36 H       -5.2370    -1.4500     2.3110 H     1 <1>   0.0800 
 37 H       -5.4810    -0.6600     0.7690 H     1 <1>   0.0800 
 38 H       -3.7080    -4.2870     0.1350 H     1 <1>   0.0800 
 39 H       -4.0760    -4.0760     1.8370 H     1 <1>   0.0800 
 40 H       -6.9900    -2.7510     1.8910 H     1 <1>   0.0800 
 41 H       -6.1930    -4.7260     1.2030 H     1 <1>   0.0800 
 42 H       -5.4800    -3.7160    -1.5410 H     1 <1>   0.0800 
 43 H       -5.6810    -5.3560    -1.0490 H     1 <1>   0.0800 
 44 H       -6.3030    -2.2270    -1.5180 H     1 <1>   0.4000 
 45 H       -8.8780    -3.6590     0.2180 H     1 <1>   0.0800 
 46 H       -9.1050    -2.8110    -1.2680 H     1 <1>   0.0800 
 47 H       -7.9980    -5.2550    -1.0990 H     1 <1>   0.0800 
 48 H       -7.5900    -4.1580    -2.3740 H     1 <1>   0.0800 
 49 H       -9.4030    -2.2940     1.9250 H     1 <1>   0.1500 
 50 H       -7.5900     0.7090    -0.5260 H     1 <1>   0.1500 
 51 H      -10.7760    -0.5900     2.9780 H     1 <1>   0.1500 
 52 H       -8.9670     2.3960     0.5460 H     1 <1>   0.1500 
 53 H      -10.5710     1.7660     2.3020 H     1 <1>   0.1500 
@<TRIPOS>BOND
  1   1   2  2   
  2   2   3  1   
  3   2   4  1   
  4   3   5  2   
  5   4   6  1   
  6   4   7  2   
  7   5   8  1   
  8   5   9  1   
  9   6  10  2   
 10   6  11  am  
 11   7   8  1   
 12   7  29  1   
 13   8  30  1   
 14   9  12  1   
 15   9  13  1   
 16   9  31  1   
 17  11  14  1   
 18  11  15  1   
 19  12  13  1   
 20  12  32  1   
 21  12  33  1   
 22  13  34  1   
 23  13  35  1   
 24  14  16  1   
 25  14  36  1   
 26  14  37  1   
 27  15  17  1   
 28  15  38  1   
 29  15  39  1   
 30  16  17  1   
 31  16  18  1   
 32  16  40  1   
 33  17  19  1   
 34  17  41  1   
 35  18  20  1   
 36  18  21  1   
 37  18  22  1   
 38  19  23  1   
 39  19  42  1   
 40  19  43  1   
 41  20  44  1   
 42  21  24  ar  
 43  21  25  ar  
 44  22  23  1   
 45  22  45  1   
 46  22  46  1   
 47  23  47  1   
 48  23  48  1   
 49  24  26  ar  
 50  24  49  1   
 51  25  27  ar  
 52  25  50  1   
 53  26  28  ar  
 54  26  51  1   
 55  27  28  ar  
 56  27  52  1   
 57  28  53  1   
@<TRIPOS>SUBSTRUCTURE
  1 ****  14 GROUP 4 **** **** 0

# MOE 2024.06 (io_trps.svl 2023.06)
