@<TRIPOS>MOLECULE
NONAME
56 59 1 0 0 
SMALL
USER_CHARGES


@<TRIPOS>ATOM
  1 O       -1.7460    -2.2900    -0.6040 O.3   1 <1>  -0.3630 
  2 C       -2.0630    -1.0550    -0.1230 C.ar  1 <1>   0.0830 
  3 C       -0.4100    -2.6290    -0.9060 C.3   1 <1>   0.0400 
  4 C       -3.3680    -0.5540    -0.3740 C.ar  1 <1>   0.3100 
  5 C       -1.1550    -0.3100     0.5990 C.ar  1 <1>  -0.1500 
  6 N       -4.2520    -1.2790    -1.1150 N.ar  1 <1>  -0.6200 
  7 C       -3.7230     0.7010     0.1720 C.ar  1 <1>   0.0000 
  8 C       -1.5090     0.9410     1.1070 C.ar  1 <1>  -0.1500 
  9 C       -5.4640    -0.8260    -1.2700 C.ar  1 <1>   0.1660 
 10 C       -5.0340     1.1680    -0.0250 C.ar  1 <1>  -0.1500 
 11 C       -2.7670     1.4350     0.8990 C.ar  1 <1>  -0.1500 
 12 C       -5.8990     0.3960    -0.7380 C.ar  1 <1>  -0.1500 
 13 C       -6.4520    -1.6850    -2.0690 C.3   1 <1>   0.2530 
 14 N       -7.1160    -2.7570    -1.2700 N.3   1 <1>  -0.8100 
 15 C       -6.1130    -3.5140    -0.4960 C.3   1 <1>   0.1100 
 16 C       -7.8980    -3.6230    -2.1690 C.3   1 <1>   0.1100 
 17 C       -6.7200    -4.6900     0.2900 C.3   1 <1>   0.4230 
 18 C       -8.5560    -4.7660    -1.3840 C.3   1 <1>  -0.1600 
 19 N       -5.7120    -5.3870     1.1950 N.4   1 <1>  -0.9590 
 20 C       -7.5290    -5.6460    -0.6220 C.3   1 <1>   0.0000 
 21 C       -6.1110    -6.7730     1.5980 C.3   1 <1>   0.3430 
 22 C       -4.2940    -5.3700     0.6960 C.3   1 <1>   0.2630 
 23 C       -8.2900    -6.6730     0.2670 C.3   1 <1>  -0.1600 
 24 C       -6.5850    -6.3740    -1.6220 C.3   1 <1>   0.1200 
 25 C       -7.6330    -6.9120     1.6420 C.3   1 <1>  -0.1600 
 26 O       -7.2990    -7.0800    -2.5770 O.3   1 <1>  -0.6800 
 27 H       -0.4150    -3.5440    -1.4700 H     1 <1>   0.0800 
 28 H        0.1350    -2.7680     0.0100 H     1 <1>   0.0800 
 29 H        0.0250    -1.8410    -1.4970 H     1 <1>   0.0800 
 30 H       -0.1620    -0.6670     0.8000 H     1 <1>   0.1500 
 31 H       -0.7820     1.5070     1.6650 H     1 <1>   0.1500 
 32 H       -5.3310     2.1150     0.3900 H     1 <1>   0.1500 
 33 H       -3.0450     2.3960     1.2950 H     1 <1>   0.1500 
 34 H       -6.9150     0.7070    -0.9020 H     1 <1>   0.1500 
 35 H       -5.9090    -2.1300    -2.8850 H     1 <1>   0.0800 
 36 H       -7.2070    -1.0470    -2.4940 H     1 <1>   0.0800 
 37 H       -5.3430    -3.8540    -1.1660 H     1 <1>   0.0800 
 38 H       -5.6730    -2.8550     0.2310 H     1 <1>   0.0800 
 39 H       -8.6680    -3.0360    -2.6430 H     1 <1>   0.0800 
 40 H       -7.2670    -4.0260    -2.9450 H     1 <1>   0.0800 
 41 H       -7.4510    -4.2380     0.9410 H     1 <1>   0.0800 
 42 H       -9.2530    -4.3230    -0.6920 H     1 <1>   0.0800 
 43 H       -9.1330    -5.3650    -2.0660 H     1 <1>   0.0800 
 44 H       -5.7180    -4.8220     2.0550 H     1 <1>   0.4500 
 45 H       -5.7220    -7.4850     0.8880 H     1 <1>   0.0800 
 46 H       -5.6930    -7.0070     2.5640 H     1 <1>   0.0800 
 47 H       -4.2180    -5.8940    -0.2420 H     1 <1>   0.0800 
 48 H       -3.6400    -5.8440     1.4100 H     1 <1>   0.0800 
 49 H       -3.9540    -4.3560     0.5500 H     1 <1>   0.0800 
 50 H       -9.2980    -6.3380     0.4460 H     1 <1>   0.0800 
 51 H       -8.3770    -7.6140    -0.2490 H     1 <1>   0.0800 
 52 H       -5.9410    -7.0730    -1.1210 H     1 <1>   0.0800 
 53 H       -5.9680    -5.6750    -2.1590 H     1 <1>   0.0800 
 54 H       -7.8890    -7.8990     1.9870 H     1 <1>   0.0800 
 55 H       -8.0250    -6.2160     2.3630 H     1 <1>   0.0800 
 56 H       -7.8740    -7.7620    -2.1770 H     1 <1>   0.4000 
@<TRIPOS>BOND
  1   1   2  1   
  2   1   3  1   
  3   2   4  ar  
  4   2   5  ar  
  5   3  27  1   
  6   3  28  1   
  7   3  29  1   
  8   4   6  ar  
  9   4   7  ar  
 10   5   8  ar  
 11   5  30  1   
 12   6   9  ar  
 13   7  10  ar  
 14   7  11  ar  
 15   8  11  ar  
 16   8  31  1   
 17   9  12  ar  
 18   9  13  1   
 19  10  12  ar  
 20  10  32  1   
 21  11  33  1   
 22  12  34  1   
 23  13  14  1   
 24  13  35  1   
 25  13  36  1   
 26  14  15  1   
 27  14  16  1   
 28  15  17  1   
 29  15  37  1   
 30  15  38  1   
 31  16  18  1   
 32  16  39  1   
 33  16  40  1   
 34  17  19  1   
 35  17  20  1   
 36  17  41  1   
 37  18  20  1   
 38  18  42  1   
 39  18  43  1   
 40  19  21  1   
 41  19  22  1   
 42  19  44  1   
 43  20  23  1   
 44  20  24  1   
 45  21  25  1   
 46  21  45  1   
 47  21  46  1   
 48  22  47  1   
 49  22  48  1   
 50  22  49  1   
 51  23  25  1   
 52  23  50  1   
 53  23  51  1   
 54  24  26  1   
 55  24  52  1   
 56  24  53  1   
 57  25  54  1   
 58  25  55  1   
 59  26  56  1   
@<TRIPOS>SUBSTRUCTURE
  1 ****  15 GROUP 4 **** **** 0

# MOE 2024.06 (io_trps.svl 2023.06)
