@<TRIPOS>MOLECULE
NONAME
42 42 1 0 0 
SMALL
USER_CHARGES


@<TRIPOS>ATOM
  1 O       -1.2720    -0.4540     0.0000 O.2   1 <1>  -0.5700 
  2 C       -1.9380     0.3420    -0.6290 C.2   1 <1>   0.5690 
  3 N       -2.9690    -0.1110    -1.4310 N.am  1 <1>  -0.6600 
  4 C       -1.6090     1.8410    -0.4300 C.3   1 <1>   0.2810 
  5 C       -3.3890    -1.5380    -1.3180 C.3   1 <1>   0.3200 
  6 C       -3.8350     0.7310    -2.3260 C.3   1 <1>   0.1400 
  7 N       -2.8300     2.6150    -0.0420 N.am  1 <1>  -0.7300 
  8 C       -0.8590     2.4760    -1.6360 C.3   1 <1>  -0.0800 
  9 C       -4.1800    -1.7270    -0.0320 C.2   1 <1>   0.0060 
 10 C       -5.2860     0.8790    -1.8320 C.3   1 <1>   0.1200 
 11 C       -2.8860     3.5030     0.9740 C.2   1 <1>   0.5690 
 12 C        0.4510     1.7260    -1.9330 C.3   1 <1>  -0.2400 
 13 C       -0.5270     3.9620    -1.4100 C.3   1 <1>  -0.2400 
 14 N       -5.4660    -1.8710     0.0380 N.2   1 <1>  -0.5650 
 15 N       -3.5720    -1.7210     1.1730 N.pl3 1 <1>   0.0330 
 16 O       -5.3170     1.1280    -0.4680 O.3   1 <1>  -0.6800 
 17 O       -1.9060     3.8870     1.5610 O.2   1 <1>  -0.5700 
 18 C       -4.2410     4.0150     1.3820 C.3   1 <1>  -0.1790 
 19 C       -5.7070    -1.9780     1.3600 C.2   1 <1>   0.0770 
 20 C       -4.5610    -1.8830     2.0690 C.2   1 <1>  -0.3020 
 21 H       -0.9310     1.8850     0.4060 H     1 <1>   0.0800 
 22 H       -2.5240    -2.1780    -1.3110 H     1 <1>   0.0800 
 23 H       -3.9990    -1.8150    -2.1600 H     1 <1>   0.0800 
 24 H       -3.8450     0.2980    -3.3110 H     1 <1>   0.0800 
 25 H       -3.4290     1.7170    -2.4300 H     1 <1>   0.0800 
 26 H       -3.7190     2.1840    -0.3370 H     1 <1>   0.3700 
 27 H       -1.4690     2.4080    -2.5160 H     1 <1>   0.0800 
 28 H       -5.8520    -0.0170    -2.0220 H     1 <1>   0.0800 
 29 H       -5.7660     1.7010    -2.3340 H     1 <1>   0.0800 
 30 H        1.1010     1.7500    -1.0760 H     1 <1>   0.0800 
 31 H        0.9650     2.1810    -2.7620 H     1 <1>   0.0800 
 32 H        0.2600     0.6990    -2.1880 H     1 <1>   0.0800 
 33 H        0.0530     4.0860    -0.5120 H     1 <1>   0.0800 
 34 H       -1.4280     4.5420    -1.3120 H     1 <1>   0.0800 
 35 H        0.0320     4.3570    -2.2390 H     1 <1>   0.0800 
 36 H       -2.5650    -1.5670     1.3270 H     1 <1>   0.2700 
 37 H       -5.2880     0.2550     0.0000 H     1 <1>   0.4000 
 38 H       -4.6710     4.5790     0.5760 H     1 <1>   0.0800 
 39 H       -4.1470     4.6490     2.2440 H     1 <1>   0.0800 
 40 H       -4.8840     3.1890     1.6220 H     1 <1>   0.0800 
 41 H       -6.7070    -2.1170     1.7380 H     1 <1>   0.1500 
 42 H       -4.3980    -1.9200     3.1310 H     1 <1>   0.1500 
@<TRIPOS>BOND
  1   1   2  2   
  2   2   3  am  
  3   2   4  1   
  4   3   5  1   
  5   3   6  1   
  6   4   7  1   
  7   4   8  1   
  8   4  21  1   
  9   5   9  1   
 10   5  22  1   
 11   5  23  1   
 12   6  10  1   
 13   6  24  1   
 14   6  25  1   
 15   7  11  am  
 16   7  26  1   
 17   8  12  1   
 18   8  13  1   
 19   8  27  1   
 20   9  14  2   
 21   9  15  1   
 22  10  16  1   
 23  10  28  1   
 24  10  29  1   
 25  11  17  2   
 26  11  18  1   
 27  12  30  1   
 28  12  31  1   
 29  12  32  1   
 30  13  33  1   
 31  13  34  1   
 32  13  35  1   
 33  14  19  1   
 34  15  20  1   
 35  15  36  1   
 36  16  37  1   
 37  18  38  1   
 38  18  39  1   
 39  18  40  1   
 40  19  20  2   
 41  19  41  1   
 42  20  42  1   
@<TRIPOS>SUBSTRUCTURE
  1 ****   2 GROUP 4 **** **** 0

# MOE 2024.06 (io_trps.svl 2023.06)
