@<TRIPOS>MOLECULE
NONAME
51 54 1 0 0 
SMALL
USER_CHARGES


@<TRIPOS>ATOM
  1 F        2.5270    -0.3900     1.1950 F     1 <1>  -0.1900 
  2 C        2.6120    -1.6030     0.7190 C.ar  1 <1>   0.1900 
  3 C        1.9830    -2.6280     1.3990 C.ar  1 <1>  -0.1500 
  4 C        3.3250    -1.8150    -0.4440 C.ar  1 <1>  -0.1500 
  5 C        2.0660    -3.9190     0.8960 C.ar  1 <1>  -0.1440 
  6 C        3.4080    -3.1030    -0.9460 C.ar  1 <1>  -0.1500 
  7 C        2.7780    -4.1570    -0.2820 C.ar  1 <1>   0.0830 
  8 C        1.3810    -5.0530     1.6410 C.3   1 <1>   0.4870 
  9 O        2.8130    -5.4360    -0.7440 O.3   1 <1>  -0.3630 
 10 N        0.4390    -5.7390     0.7250 N.4   1 <1>  -0.9590 
 11 C        3.4390    -5.7700    -1.9670 C.3   1 <1>   0.0400 
 12 C       -0.5900    -4.8700     0.0720 C.3   1 <1>   0.3430 
 13 C       -0.2680    -6.9170     1.2680 C.3   1 <1>   0.3430 
 14 C       -1.8540    -5.7410    -0.0570 C.3   1 <1>   0.2000 
 15 C       -1.3780    -7.1650     0.2430 C.3   1 <1>  -0.0800 
 16 O       -2.7850    -5.3640     0.9030 O.3   1 <1>  -0.6800 
 17 C       -0.8700    -7.8360    -1.0590 C.3   1 <1>  -0.0170 
 18 C        0.1790    -8.9090    -0.8130 C.ar  1 <1>   0.1670 
 19 N        1.3940    -8.5020    -0.5960 N.ar  1 <1>  -0.6200 
 20 C       -0.2030   -10.2600    -0.8270 C.ar  1 <1>  -0.1500 
 21 C        2.3430    -9.4490    -0.3610 C.ar  1 <1>   0.3100 
 22 C        0.7290   -11.2260    -0.6030 C.ar  1 <1>  -0.1500 
 23 C        2.0540   -10.8310    -0.3580 C.ar  1 <1>   0.0000 
 24 C        3.6610    -9.0420    -0.0970 C.ar  1 <1>  -0.1500 
 25 C        3.0940   -11.7480    -0.1080 C.ar  1 <1>  -0.1500 
 26 C        4.6570    -9.9500     0.1470 C.ar  1 <1>  -0.1500 
 27 C        4.3690   -11.3180     0.1400 C.ar  1 <1>  -0.1500 
 28 H        1.4480    -2.3970     2.3040 H     1 <1>   0.1500 
 29 H        3.8030    -0.9890    -0.9400 H     1 <1>   0.1500 
 30 H        3.9680    -3.2600    -1.8490 H     1 <1>   0.1500 
 31 H        0.8520    -4.6660     2.4950 H     1 <1>   0.0800 
 32 H        2.1270    -5.7510     1.9840 H     1 <1>   0.0800 
 33 H        1.0580    -6.1060    -0.0270 H     1 <1>   0.4500 
 34 H        3.2850    -6.8190    -2.1520 H     1 <1>   0.0800 
 35 H        4.4930    -5.5660    -1.8890 H     1 <1>   0.0800 
 36 H        2.9950    -5.1960    -2.7610 H     1 <1>   0.0800 
 37 H       -0.8040    -3.9940     0.6620 H     1 <1>   0.0800 
 38 H       -0.2400    -4.5670    -0.9010 H     1 <1>   0.0800 
 39 H        0.3890    -7.7650     1.3840 H     1 <1>   0.0800 
 40 H       -0.7020    -6.6770     2.2240 H     1 <1>   0.0800 
 41 H       -2.3230    -5.6380    -1.0220 H     1 <1>   0.0800 
 42 H       -2.1580    -7.7740     0.6680 H     1 <1>   0.0800 
 43 H       -2.4960    -5.5410     1.8180 H     1 <1>   0.4000 
 44 H       -0.4250    -7.1060    -1.7130 H     1 <1>   0.0800 
 45 H       -1.7040    -8.2570    -1.5920 H     1 <1>   0.0800 
 46 H       -1.2280   -10.5230    -1.0180 H     1 <1>   0.1500 
 47 H        0.4780   -12.2730    -0.6090 H     1 <1>   0.1500 
 48 H        3.8710    -7.9900    -0.0910 H     1 <1>   0.1500 
 49 H        2.8680   -12.8000    -0.1140 H     1 <1>   0.1500 
 50 H        5.6660    -9.6280     0.3460 H     1 <1>   0.1500 
 51 H        5.1620   -12.0210     0.3310 H     1 <1>   0.1500 
@<TRIPOS>BOND
  1   1   2  1   
  2   2   3  ar  
  3   2   4  ar  
  4   3   5  ar  
  5   3  28  1   
  6   4   6  ar  
  7   4  29  1   
  8   5   7  ar  
  9   5   8  1   
 10   6   7  ar  
 11   6  30  1   
 12   7   9  1   
 13   8  10  1   
 14   8  31  1   
 15   8  32  1   
 16   9  11  1   
 17  10  12  1   
 18  10  13  1   
 19  10  33  1   
 20  11  34  1   
 21  11  35  1   
 22  11  36  1   
 23  12  14  1   
 24  12  37  1   
 25  12  38  1   
 26  13  15  1   
 27  13  39  1   
 28  13  40  1   
 29  14  15  1   
 30  14  16  1   
 31  14  41  1   
 32  15  17  1   
 33  15  42  1   
 34  16  43  1   
 35  17  18  1   
 36  17  44  1   
 37  17  45  1   
 38  18  19  ar  
 39  18  20  ar  
 40  19  21  ar  
 41  20  22  ar  
 42  20  46  1   
 43  21  23  ar  
 44  21  24  ar  
 45  22  23  ar  
 46  22  47  1   
 47  23  25  ar  
 48  24  26  ar  
 49  24  48  1   
 50  25  27  ar  
 51  25  49  1   
 52  26  27  ar  
 53  26  50  1   
 54  27  51  1   
@<TRIPOS>SUBSTRUCTURE
  1 ****  10 GROUP 4 **** **** 0

# MOE 2024.06 (io_trps.svl 2023.06)
