@<TRIPOS>MOLECULE
NONAME
60 63 1 0 0 
SMALL
USER_CHARGES


@<TRIPOS>ATOM
  1 O        1.7870     2.7340    -3.1670 O.3   1 <1>  -0.5600 
  2 C        1.3450     2.0400    -2.0370 C.3   1 <1>   0.1200 
  3 C        2.1510     4.0640    -2.9390 C.3   1 <1>   0.1200 
  4 C        2.4500     2.0120    -0.9630 C.3   1 <1>   0.3430 
  5 C        3.2910     4.1370    -1.9050 C.3   1 <1>   0.3430 
  6 N        2.9400     3.3970    -0.6380 N.4   1 <1>  -0.9590 
  7 C        4.0830     3.3530     0.3240 C.3   1 <1>   0.3430 
  8 C        4.4050     4.7450     0.8800 C.3   1 <1>  -0.0800 
  9 C        5.6680     4.6710     1.7490 C.3   1 <1>   0.2090 
 10 C        3.2430     5.3590     1.6880 C.3   1 <1>  -0.1600 
 11 N        6.0240     6.0330     2.1890 N.pl3 1 <1>  -0.8380 
 12 C        3.6400     6.7520     2.2020 C.3   1 <1>  -0.1600 
 13 C        6.8770     6.7550     1.3820 C.ar  1 <1>   0.4100 
 14 C        4.9750     6.7540     2.9610 C.3   1 <1>   0.2090 
 15 N        6.3540     7.5880     0.5270 N.ar  1 <1>  -0.6200 
 16 C        8.2590     6.5300     1.4960 C.ar  1 <1>  -0.1500 
 17 C        7.2090     8.2750    -0.2680 C.ar  1 <1>   0.3100 
 18 C        9.1430     7.1860     0.6970 C.ar  1 <1>  -0.1440 
 19 C        8.6140     8.1040    -0.2370 C.ar  1 <1>   0.0000 
 20 C        6.6560     9.1950    -1.1710 C.ar  1 <1>  -0.1500 
 21 C       10.6400     6.9400     0.8170 C.3   1 <1>  -0.0970 
 22 C        9.3980     8.8600    -1.1320 C.ar  1 <1>  -0.1500 
 23 C        7.4340     9.9300    -2.0360 C.ar  1 <1>   0.0820 
 24 C        8.8350     9.7540    -2.0020 C.ar  1 <1>   0.0820 
 25 O        6.9160    10.8140    -2.9310 O.3   1 <1>  -0.3620 
 26 O        9.6630    10.4390    -2.8280 O.3   1 <1>  -0.3620 
 27 C        5.5310    11.0670    -3.0120 C.3   1 <1>   0.0400 
 28 C        9.7790    11.8270    -2.6080 C.3   1 <1>   0.0400 
 29 H        1.1020     1.0380    -2.3450 H     1 <1>   0.0800 
 30 H        0.4500     2.5110    -1.6670 H     1 <1>   0.0800 
 31 H        1.2850     4.6090    -2.6040 H     1 <1>   0.0800 
 32 H        2.4750     4.4800    -3.8770 H     1 <1>   0.0800 
 33 H        3.2660     1.4150    -1.3360 H     1 <1>   0.0800 
 34 H        2.0690     1.5360    -0.0750 H     1 <1>   0.0800 
 35 H        3.5010     5.1710    -1.6870 H     1 <1>   0.0800 
 36 H        4.1750     3.7070    -2.3470 H     1 <1>   0.0800 
 37 H        2.1690     3.9060    -0.1880 H     1 <1>   0.4500 
 38 H        4.9540     2.9540    -0.1700 H     1 <1>   0.0800 
 39 H        3.8380     2.7010     1.1480 H     1 <1>   0.0800 
 40 H        4.6470     5.3950     0.0580 H     1 <1>   0.0800 
 41 H        6.4870     4.2560     1.1850 H     1 <1>   0.0800 
 42 H        5.5030     4.0530     2.6160 H     1 <1>   0.0800 
 43 H        3.0080     4.7300     2.5300 H     1 <1>   0.0800 
 44 H        2.3600     5.4610     1.0830 H     1 <1>   0.0800 
 45 H        2.8710     7.1390     2.8480 H     1 <1>   0.0800 
 46 H        3.7280     7.4300     1.3710 H     1 <1>   0.0800 
 47 H        5.2910     7.7690     3.1370 H     1 <1>   0.0800 
 48 H        4.8550     6.2730     3.9160 H     1 <1>   0.0800 
 49 H        8.5800     5.8260     2.2390 H     1 <1>   0.1500 
 50 H        5.5890     9.2910    -1.1490 H     1 <1>   0.1500 
 51 H       10.8480     6.2160     1.5840 H     1 <1>   0.0800 
 52 H       11.1440     7.8560     1.0710 H     1 <1>   0.0800 
 53 H       11.0290     6.5700    -0.1140 H     1 <1>   0.0800 
 54 H       10.4640     8.7410    -1.1380 H     1 <1>   0.1500 
 55 H        5.3710    11.8060    -3.7750 H     1 <1>   0.0800 
 56 H        5.1880    11.4410    -2.0630 H     1 <1>   0.0800 
 57 H        5.0240    10.1550    -3.2750 H     1 <1>   0.0800 
 58 H       10.5870    12.1960    -3.2140 H     1 <1>   0.0800 
 59 H        9.9890    11.9990    -1.5670 H     1 <1>   0.0800 
 60 H        8.8630    12.3110    -2.8910 H     1 <1>   0.0800 
@<TRIPOS>BOND
  1   1   2  1   
  2   1   3  1   
  3   2   4  1   
  4   2  29  1   
  5   2  30  1   
  6   3   5  1   
  7   3  31  1   
  8   3  32  1   
  9   4   6  1   
 10   4  33  1   
 11   4  34  1   
 12   5   6  1   
 13   5  35  1   
 14   5  36  1   
 15   6   7  1   
 16   6  37  1   
 17   7   8  1   
 18   7  38  1   
 19   7  39  1   
 20   8   9  1   
 21   8  10  1   
 22   8  40  1   
 23   9  11  1   
 24   9  41  1   
 25   9  42  1   
 26  10  12  1   
 27  10  43  1   
 28  10  44  1   
 29  11  13  1   
 30  11  14  1   
 31  12  14  1   
 32  12  45  1   
 33  12  46  1   
 34  13  15  ar  
 35  13  16  ar  
 36  14  47  1   
 37  14  48  1   
 38  15  17  ar  
 39  16  18  ar  
 40  16  49  1   
 41  17  19  ar  
 42  17  20  ar  
 43  18  19  ar  
 44  18  21  1   
 45  19  22  ar  
 46  20  23  ar  
 47  20  50  1   
 48  21  51  1   
 49  21  52  1   
 50  21  53  1   
 51  22  24  ar  
 52  22  54  1   
 53  23  24  ar  
 54  23  25  1   
 55  24  26  1   
 56  25  27  1   
 57  26  28  1   
 58  27  55  1   
 59  27  56  1   
 60  27  57  1   
 61  28  58  1   
 62  28  59  1   
 63  28  60  1   
@<TRIPOS>SUBSTRUCTURE
  1 ****  15 GROUP 4 **** **** 0

# MOE 2024.06 (io_trps.svl 2023.06)
