@<TRIPOS>MOLECULE
NONAME
37 39 1 0 0 
SMALL
USER_CHARGES


@<TRIPOS>ATOM
  1 CL       0.7260     0.6960     0.5950 Cl    1 <1>  -0.1770 
  2 C        1.4550    -0.8320     0.1230 C.ar  1 <1>   0.1770 
  3 C        0.8650    -2.0590     0.4180 C.ar  1 <1>   0.4100 
  4 C        2.6460    -0.8300    -0.5500 C.ar  1 <1>   0.1600 
  5 N        1.4620    -3.1830     0.0530 N.ar  1 <1>  -0.6200 
  6 N       -0.3460    -2.1810     1.0760 N.pl3 1 <1>  -0.8380 
  7 N        3.2410    -1.9490    -0.9250 N.ar  1 <1>  -0.6200 
  8 C        2.6050    -3.0620    -0.5960 C.ar  1 <1>   0.4770 
  9 C       -1.5900    -1.6680     0.4150 C.3   1 <1>   0.2090 
 10 C       -0.6120    -3.3690     1.9550 C.3   1 <1>   0.2090 
 11 C        3.2670    -4.3540    -1.0100 C.3   1 <1>  -0.0960 
 12 C       -2.3660    -2.7910    -0.3030 C.3   1 <1>   0.2090 
 13 C       -1.3960    -4.4710     1.2140 C.3   1 <1>   0.2090 
 14 N       -2.6600    -3.9350     0.6150 N.pl3 1 <1>  -0.8380 
 15 C       -3.5610    -4.8930     0.1340 C.ar  1 <1>   0.1000 
 16 C       -3.3340    -5.7360    -0.9620 C.ar  1 <1>   0.1900 
 17 C       -4.7810    -5.0300     0.7850 C.ar  1 <1>  -0.1500 
 18 F       -2.2020    -5.6590    -1.6220 F     1 <1>  -0.1900 
 19 C       -4.2590    -6.6660    -1.3960 C.ar  1 <1>  -0.1500 
 20 C       -5.7210    -5.9580     0.3650 C.ar  1 <1>  -0.1500 
 21 C       -5.4650    -6.7770    -0.7230 C.ar  1 <1>  -0.1500 
 22 H        3.1230     0.1040    -0.7870 H     1 <1>   0.1500 
 23 H       -1.3400    -0.9080    -0.3030 H     1 <1>   0.0800 
 24 H       -2.2260    -1.2230     1.1600 H     1 <1>   0.0800 
 25 H       -1.1830    -3.0510     2.8090 H     1 <1>   0.0800 
 26 H        0.3170    -3.7730     2.3140 H     1 <1>   0.0800 
 27 H        2.5210    -5.0680    -1.3050 H     1 <1>   0.0800 
 28 H        3.8240    -4.7480    -0.1810 H     1 <1>   0.0800 
 29 H        3.9330    -4.1850    -1.8350 H     1 <1>   0.0800 
 30 H       -1.7800    -3.1400    -1.1360 H     1 <1>   0.0800 
 31 H       -3.2910    -2.3980    -0.6860 H     1 <1>   0.0800 
 32 H       -1.6360    -5.2620     1.9020 H     1 <1>   0.0800 
 33 H       -0.7720    -4.8790     0.4380 H     1 <1>   0.0800 
 34 H       -4.9820    -4.3970     1.6300 H     1 <1>   0.1500 
 35 H       -4.0380    -7.2900    -2.2420 H     1 <1>   0.1500 
 36 H       -6.6580    -6.0410     0.8900 H     1 <1>   0.1500 
 37 H       -6.1990    -7.4950    -1.0450 H     1 <1>   0.1500 
@<TRIPOS>BOND
  1   1   2  1   
  2   2   3  ar  
  3   2   4  ar  
  4   3   5  ar  
  5   3   6  1   
  6   4   7  ar  
  7   4  22  1   
  8   5   8  ar  
  9   6   9  1   
 10   6  10  1   
 11   7   8  ar  
 12   8  11  1   
 13   9  12  1   
 14   9  23  1   
 15   9  24  1   
 16  10  13  1   
 17  10  25  1   
 18  10  26  1   
 19  11  27  1   
 20  11  28  1   
 21  11  29  1   
 22  12  14  1   
 23  12  30  1   
 24  12  31  1   
 25  13  14  1   
 26  13  32  1   
 27  13  33  1   
 28  14  15  1   
 29  15  16  ar  
 30  15  17  ar  
 31  16  18  1   
 32  16  19  ar  
 33  17  20  ar  
 34  17  34  1   
 35  19  21  ar  
 36  19  35  1   
 37  20  21  ar  
 38  20  36  1   
 39  21  37  1   
@<TRIPOS>SUBSTRUCTURE
  1 ****  12 GROUP 4 **** **** 0

# MOE 2024.06 (io_trps.svl 2023.06)
