@<TRIPOS>MOLECULE
NONAME
50 53 1 0 0 
SMALL
USER_CHARGES


@<TRIPOS>ATOM
  1 F        0.3520     0.8320     0.9650 F     1 <1>  -0.1900 
  2 C        1.5260     1.2630     0.5500 C.ar  1 <1>   0.1900 
  3 C        2.6490     0.4410     0.5560 C.ar  1 <1>   0.4100 
  4 C        1.6430     2.5500     0.1100 C.ar  1 <1>   0.1600 
  5 N        3.8070     0.9220     0.1430 N.ar  1 <1>  -0.6200 
  6 N        2.6230    -0.8870     0.9690 N.pl3 1 <1>  -0.8380 
  7 N        2.7950     3.0320    -0.3130 N.ar  1 <1>  -0.6200 
  8 C        3.8240     2.1840    -0.2790 C.ar  1 <1>   0.7200 
  9 C        1.7290    -1.8470     0.2530 C.3   1 <1>   0.2090 
 10 C        3.8650    -1.5510     1.4740 C.3   1 <1>   0.2090 
 11 N        5.0380     2.6630    -0.7220 N.pl3 1 <1>  -0.8380 
 12 C        2.5190    -2.6690    -0.7840 C.3   1 <1>   0.1200 
 13 C        4.5370    -2.3800     0.3640 C.3   1 <1>   0.1200 
 14 C        6.3000     2.3320     0.0100 C.3   1 <1>   0.2090 
 15 C        5.1600     3.9610    -1.4560 C.3   1 <1>   0.2090 
 16 O        3.6300    -3.2890    -0.1980 O.3   1 <1>  -0.5600 
 17 C        6.6910     3.4640     0.9850 C.3   1 <1>   0.2090 
 18 C        5.5050     5.1110    -0.4900 C.3   1 <1>   0.2090 
 19 N        6.7330     4.8180     0.3260 N.pl3 1 <1>  -0.8380 
 20 C        7.9420     5.3200    -0.1350 C.ar  1 <1>   0.4100 
 21 N        8.7230     4.4070    -0.7150 N.ar  1 <1>  -0.6200 
 22 C        8.2910     6.6870    -0.0240 C.ar  1 <1>   0.0860 
 23 C        9.8600     4.8280    -1.2280 C.ar  1 <1>   0.1600 
 24 C        7.4720     7.6710     0.6520 C.2   1 <1>   0.5440 
 25 C        9.4960     7.0850    -0.5910 C.ar  1 <1>  -0.1500 
 26 C       10.2880     6.1410    -1.2000 C.ar  1 <1>  -0.1500 
 27 O        7.5400     8.8520     0.3780 O.2   1 <1>  -0.5700 
 28 N        6.6030     7.3480     1.6340 N.am  1 <1>  -0.8000 
 29 H        0.7830     3.1960     0.1030 H     1 <1>   0.1500 
 30 H        0.9370    -1.3200    -0.2490 H     1 <1>   0.0800 
 31 H        1.2800    -2.5140     0.9680 H     1 <1>   0.0800 
 32 H        3.6100    -2.2000     2.2930 H     1 <1>   0.0800 
 33 H        4.5570    -0.8150     1.8450 H     1 <1>   0.0800 
 34 H        2.8640    -2.0310    -1.5800 H     1 <1>   0.0800 
 35 H        1.8950    -3.4380    -1.2010 H     1 <1>   0.0800 
 36 H        5.3600    -2.9410     0.7660 H     1 <1>   0.0800 
 37 H        4.9040    -1.7310    -0.4130 H     1 <1>   0.0800 
 38 H        7.0940     2.1950    -0.7030 H     1 <1>   0.0800 
 39 H        6.1980     1.4130     0.5590 H     1 <1>   0.0800 
 40 H        4.2490     4.1860    -1.9820 H     1 <1>   0.0800 
 41 H        5.9430     3.8760    -2.1890 H     1 <1>   0.0800 
 42 H        7.6520     3.2410     1.4140 H     1 <1>   0.0800 
 43 H        5.9740     3.4880     1.7870 H     1 <1>   0.0800 
 44 H        4.6700     5.2710     0.1690 H     1 <1>   0.0800 
 45 H        5.6530     6.0120    -1.0600 H     1 <1>   0.0800 
 46 H       10.4860     4.0910    -1.7010 H     1 <1>   0.1500 
 47 H        9.8020     8.1170    -0.5470 H     1 <1>   0.1500 
 48 H       11.2280     6.4150    -1.6460 H     1 <1>   0.1500 
 49 H        6.0090     8.0640     2.0490 H     1 <1>   0.3700 
 50 H        6.3470     6.3620     1.7660 H     1 <1>   0.3700 
@<TRIPOS>BOND
  1   1   2  1   
  2   2   3  ar  
  3   2   4  ar  
  4   3   5  ar  
  5   3   6  1   
  6   4   7  ar  
  7   4  29  1   
  8   5   8  ar  
  9   6   9  1   
 10   6  10  1   
 11   7   8  ar  
 12   8  11  1   
 13   9  12  1   
 14   9  30  1   
 15   9  31  1   
 16  10  13  1   
 17  10  32  1   
 18  10  33  1   
 19  11  14  1   
 20  11  15  1   
 21  12  16  1   
 22  12  34  1   
 23  12  35  1   
 24  13  16  1   
 25  13  36  1   
 26  13  37  1   
 27  14  17  1   
 28  14  38  1   
 29  14  39  1   
 30  15  18  1   
 31  15  40  1   
 32  15  41  1   
 33  17  19  1   
 34  17  42  1   
 35  17  43  1   
 36  18  19  1   
 37  18  44  1   
 38  18  45  1   
 39  19  20  1   
 40  20  21  ar  
 41  20  22  ar  
 42  21  23  ar  
 43  22  24  1   
 44  22  25  ar  
 45  23  26  ar  
 46  23  46  1   
 47  24  27  2   
 48  24  28  am  
 49  25  26  ar  
 50  25  47  1   
 51  26  48  1   
 52  28  49  1   
 53  28  50  1   
@<TRIPOS>SUBSTRUCTURE
  1 ****  11 GROUP 4 **** **** 0

# MOE 2024.06 (io_trps.svl 2023.06)
