@<TRIPOS>MOLECULE
NONAME
45 47 1 0 0 
SMALL
USER_CHARGES


@<TRIPOS>ATOM
  1 O        2.1650    -1.0510    -2.0970 O.3   1 <1>  -0.0190 
  2 N        1.8820    -2.2960    -2.2040 N.2   1 <1>  -0.4100 
  3 C        2.1780    -0.6920    -0.8420 C.2   1 <1>   0.4250 
  4 C        1.7200    -2.6700    -0.9930 C.2   1 <1>   0.3350 
  5 N        1.9030    -1.6990    -0.0860 N.2   1 <1>  -0.5650 
  6 C        2.4740     0.6710    -0.4540 C.ar  1 <1>   0.0530 
  7 C        1.3730    -4.1020    -0.5720 C.3   1 <1>   0.2910 
  8 C        2.5080     1.0430     0.8900 C.ar  1 <1>  -0.1500 
  9 C        2.7360     1.6670    -1.3970 C.ar  1 <1>  -0.1500 
 10 N       -0.0920    -4.3890    -0.4920 N.3   1 <1>  -0.8100 
 11 C        2.7900     2.3410     1.2750 C.ar  1 <1>  -0.1500 
 12 C        3.0180     2.9660    -1.0160 C.ar  1 <1>  -0.1500 
 13 C       -0.3520    -5.8230    -0.2810 C.3   1 <1>   0.1100 
 14 C       -0.7390    -3.5410     0.5270 C.3   1 <1>   0.0300 
 15 C        3.0490     3.3120     0.3230 C.ar  1 <1>  -0.1430 
 16 C       -1.7440    -6.2110    -0.8060 C.3   1 <1>   0.3540 
 17 C        3.3580     4.7380     0.7430 C.3   1 <1>  -0.0970 
 18 N       -1.9650    -7.6820    -0.6840 N.pl3 1 <1>  -0.7640 
 19 C       -2.6090    -8.3460     0.2690 C.cat 1 <1>   0.6560 
 20 C       -1.5330    -8.6080    -1.6060 C.2   1 <1>   0.2000 
 21 N       -2.6010    -9.6400     0.0010 N.pl3 1 <1>  -0.7000 
 22 C       -3.2620    -7.7330     1.4850 C.3   1 <1>  -0.0960 
 23 C       -1.9280    -9.8250    -1.1790 C.2   1 <1>   0.2000 
 24 H        1.8350    -4.3000     0.3790 H     1 <1>   0.0800 
 25 H        1.8180    -4.7580    -1.2990 H     1 <1>   0.0800 
 26 H        2.3110     0.3030     1.6460 H     1 <1>   0.1500 
 27 H        2.7190     1.4260    -2.4450 H     1 <1>   0.1500 
 28 H        2.8070     2.5930     2.3220 H     1 <1>   0.1500 
 29 H        3.2140     3.7090    -1.7690 H     1 <1>   0.1500 
 30 H       -0.2620    -6.0640     0.7640 H     1 <1>   0.0800 
 31 H        0.3750    -6.3980    -0.8290 H     1 <1>   0.0800 
 32 H       -0.6340    -2.5010     0.2630 H     1 <1>   0.0800 
 33 H       -0.2890    -3.6970     1.4930 H     1 <1>   0.0800 
 34 H       -1.7910    -3.7520     0.5900 H     1 <1>   0.0800 
 35 H       -1.8210    -5.9240    -1.8410 H     1 <1>   0.0800 
 36 H       -2.5010    -5.6830    -0.2550 H     1 <1>   0.0800 
 37 H        3.8490     4.7500     1.7000 H     1 <1>   0.0800 
 38 H        2.4450     5.3020     0.8140 H     1 <1>   0.0800 
 39 H        4.0040     5.2110     0.0260 H     1 <1>   0.0800 
 40 H       -0.9820    -8.3510    -2.4980 H     1 <1>   0.1500 
 41 H       -3.0270   -10.3790     0.5690 H     1 <1>   0.4500 
 42 H       -2.5430    -7.1510     2.0320 H     1 <1>   0.0800 
 43 H       -3.6490    -8.5000     2.1310 H     1 <1>   0.0800 
 44 H       -4.0730    -7.0970     1.1800 H     1 <1>   0.0800 
 45 H       -1.7760   -10.7920    -1.6350 H     1 <1>   0.1500 
@<TRIPOS>BOND
  1   1   2  1   
  2   1   3  1   
  3   2   4  2   
  4   3   5  2   
  5   3   6  1   
  6   4   5  1   
  7   4   7  1   
  8   6   8  ar  
  9   6   9  ar  
 10   7  10  1   
 11   7  24  1   
 12   7  25  1   
 13   8  11  ar  
 14   8  26  1   
 15   9  12  ar  
 16   9  27  1   
 17  10  13  1   
 18  10  14  1   
 19  11  15  ar  
 20  11  28  1   
 21  12  15  ar  
 22  12  29  1   
 23  13  16  1   
 24  13  30  1   
 25  13  31  1   
 26  14  32  1   
 27  14  33  1   
 28  14  34  1   
 29  15  17  1   
 30  16  18  1   
 31  16  35  1   
 32  16  36  1   
 33  17  37  1   
 34  17  38  1   
 35  17  39  1   
 36  18  19  ar  
 37  18  20  1   
 38  19  21  ar  
 39  19  22  1   
 40  20  23  2   
 41  20  40  1   
 42  21  23  1   
 43  21  41  1   
 44  22  42  1   
 45  22  43  1   
 46  22  44  1   
 47  23  45  1   
@<TRIPOS>SUBSTRUCTURE
  1 ****   4 GROUP 4 **** **** 0

# MOE 2024.06 (io_trps.svl 2023.06)
