@<TRIPOS>MOLECULE
NONAME
50 53 1 0 0 
SMALL
USER_CHARGES


@<TRIPOS>ATOM
  1 O       -1.2200     0.7280     1.7720 O.2   1 <1>  -0.5700 
  2 C       -1.3600     1.3960     0.7630 C.2   1 <1>   0.5440 
  3 N       -2.3340     1.0220    -0.1430 N.am  1 <1>  -0.6600 
  4 C       -0.5120     2.5550     0.5630 C.ar  1 <1>   0.0860 
  5 C       -2.9580    -0.3310    -0.0370 C.3   1 <1>   0.1400 
  6 C       -2.8980     1.9570    -1.1620 C.3   1 <1>   0.1400 
  7 C        0.1250     2.8000    -0.6450 C.ar  1 <1>  -0.1500 
  8 C       -0.3080     3.4710     1.6190 C.ar  1 <1>  -0.1500 
  9 C       -4.1190    -0.3290     0.9700 C.3   1 <1>   0.1400 
 10 C       -4.4320     1.9560    -1.2370 C.3   1 <1>  -0.1600 
 11 C        0.9180     3.9330    -0.8040 C.ar  1 <1>   0.2270 
 12 C        0.4790     4.5900     1.4730 C.ar  1 <1>  -0.1500 
 13 N       -5.3300     0.3600     0.4210 N.am  1 <1>  -0.6600 
 14 C       -5.1380     1.8060     0.1150 C.3   1 <1>   0.1400 
 15 N        1.6130     4.3800    -1.8790 N.2   1 <1>  -0.2270 
 16 C        1.0890     4.8080     0.2350 C.ar  1 <1>  -0.1520 
 17 C       -6.5390    -0.2440     0.1730 C.2   1 <1>   0.5690 
 18 N        2.1970     5.4730    -1.5570 N.2   1 <1>  -0.4180 
 19 N        1.8990     5.7550    -0.2790 N.pl3 1 <1>   0.3000 
 20 O       -7.4670     0.3680    -0.3020 O.2   1 <1>  -0.5700 
 21 C       -6.7450    -1.7230     0.4900 C.3   1 <1>  -0.0990 
 22 C       -8.1040    -2.2890     0.0330 C.3   1 <1>  -0.1600 
 23 C       -8.2570    -3.7650     0.4240 C.3   1 <1>   0.0960 
 24 N       -9.4930    -4.3450    -0.1360 N.pl3 1 <1>   0.3140 
 25 N       -9.4780    -5.3270    -1.0250 N.2   1 <1>  -0.7070 
 26 C      -10.7640    -4.0370     0.1380 C.2   1 <1>   0.0360 
 27 C      -10.7370    -5.5380    -1.2260 C.2   1 <1>   0.3660 
 28 N      -11.5820    -4.7680    -0.5290 N.2   1 <1>  -0.5650 
 29 H       -2.2120    -1.0280     0.3040 H     1 <1>   0.0800 
 30 H       -3.3000    -0.6660    -1.0000 H     1 <1>   0.0800 
 31 H       -2.4940     1.7090    -2.1290 H     1 <1>   0.0800 
 32 H       -2.5870     2.9600    -0.9270 H     1 <1>   0.0800 
 33 H        0.0230     2.1230    -1.4720 H     1 <1>   0.1500 
 34 H       -0.7890     3.2670     2.5610 H     1 <1>   0.1500 
 35 H       -3.8050     0.1640     1.8740 H     1 <1>   0.0800 
 36 H       -4.3430    -1.3450     1.2280 H     1 <1>   0.0800 
 37 H       -4.7710     1.1870    -1.9080 H     1 <1>   0.0800 
 38 H       -4.7320     2.8920    -1.6700 H     1 <1>   0.0800 
 39 H        0.6260     5.2800     2.2870 H     1 <1>   0.1500 
 40 H       -6.0960     2.2950     0.0690 H     1 <1>   0.0800 
 41 H       -4.5710     2.2790     0.8990 H     1 <1>   0.0800 
 42 H        2.2590     6.5820     0.2060 H     1 <1>   0.2700 
 43 H       -6.6490    -1.8470     1.5530 H     1 <1>   0.0800 
 44 H       -5.9660    -2.2820     0.0060 H     1 <1>   0.0800 
 45 H       -8.1780    -2.1920    -1.0380 H     1 <1>   0.0800 
 46 H       -8.8970    -1.7120     0.4800 H     1 <1>   0.0800 
 47 H       -8.2850    -3.8700     1.4930 H     1 <1>   0.0800 
 48 H       -7.4260    -4.3330     0.0460 H     1 <1>   0.0800 
 49 H      -11.0450    -3.2690     0.8350 H     1 <1>   0.1500 
 50 H      -11.1100    -6.2850    -1.9090 H     1 <1>   0.1500 
@<TRIPOS>BOND
  1   1   2  2   
  2   2   3  am  
  3   2   4  1   
  4   3   5  1   
  5   3   6  1   
  6   4   7  ar  
  7   4   8  ar  
  8   5   9  1   
  9   5  29  1   
 10   5  30  1   
 11   6  10  1   
 12   6  31  1   
 13   6  32  1   
 14   7  11  ar  
 15   7  33  1   
 16   8  12  ar  
 17   8  34  1   
 18   9  13  1   
 19   9  35  1   
 20   9  36  1   
 21  10  14  1   
 22  10  37  1   
 23  10  38  1   
 24  11  15  1   
 25  11  16  ar  
 26  12  16  ar  
 27  12  39  1   
 28  13  14  1   
 29  13  17  am  
 30  14  40  1   
 31  14  41  1   
 32  15  18  2   
 33  16  19  1   
 34  17  20  2   
 35  17  21  1   
 36  18  19  1   
 37  19  42  1   
 38  21  22  1   
 39  21  43  1   
 40  21  44  1   
 41  22  23  1   
 42  22  45  1   
 43  22  46  1   
 44  23  24  1   
 45  23  47  1   
 46  23  48  1   
 47  24  25  1   
 48  24  26  1   
 49  25  27  2   
 50  26  28  2   
 51  26  49  1   
 52  27  28  1   
 53  27  50  1   
@<TRIPOS>SUBSTRUCTURE
  1 ****   5 GROUP 4 **** **** 0

# MOE 2024.06 (io_trps.svl 2023.06)
