@<TRIPOS>MOLECULE
NONAME
53 56 1 0 0 
SMALL
USER_CHARGES


@<TRIPOS>ATOM
  1 O        0.4450     0.2960     0.1210 O.3   1 <1>  -0.6800 
  2 C        1.3070    -0.2880    -0.8000 C.3   1 <1>   0.2000 
  3 C        1.7620    -1.6340    -0.2340 C.3   1 <1>  -0.0800 
  4 C        2.5940     0.5340    -0.8170 C.3   1 <1>   0.3430 
  5 C        2.9500    -1.2910     0.6820 C.3   1 <1>   0.3430 
  6 C        2.1600    -2.6190    -1.3570 C.3   1 <1>  -0.0170 
  7 N        3.2670     0.1510     0.4560 N.4   1 <1>  -0.9590 
  8 C        2.9230    -3.8210    -0.8100 C.ar  1 <1>  -0.1440 
  9 C        4.7000     0.5160     0.6120 C.3   1 <1>   0.4230 
 10 C        2.3070    -4.8190    -0.0160 C.ar  1 <1>   0.0000 
 11 C        4.2570    -3.9560    -1.0670 C.ar  1 <1>  -0.1500 
 12 C        4.7870     2.0330     0.8270 C.3   1 <1>  -0.1600 
 13 C        5.5390    -0.0030    -0.5690 C.3   1 <1>  -0.1600 
 14 C        3.1360    -5.8340     0.5230 C.ar  1 <1>   0.3100 
 15 C        0.9230    -4.8790     0.2690 C.ar  1 <1>  -0.1500 
 16 C        4.9800    -5.0180    -0.5100 C.ar  1 <1>   0.1600 
 17 C        6.2080     2.5630     1.0780 C.3   1 <1>  -0.1600 
 18 C        7.0330    -0.0580    -0.2180 C.3   1 <1>  -0.1600 
 19 N        4.4660    -5.9130     0.2700 N.ar  1 <1>  -0.6200 
 20 C        2.5660    -6.8110     1.3540 C.ar  1 <1>  -0.1500 
 21 C        0.3960    -5.8500     1.0780 C.ar  1 <1>  -0.1500 
 22 C        7.0720     2.5630    -0.1900 C.3   1 <1>  -0.1600 
 23 C        7.8050     1.2440    -0.4790 C.3   1 <1>  -0.1600 
 24 C        1.2270    -6.8240     1.6350 C.ar  1 <1>  -0.1500 
 25 H       -0.4590    -0.0800     0.0570 H     1 <1>   0.4000 
 26 H        0.8200    -0.3390    -1.7600 H     1 <1>   0.0800 
 27 H        0.9820    -2.0810     0.3560 H     1 <1>   0.0800 
 28 H        2.3840     1.5900    -0.8640 H     1 <1>   0.0800 
 29 H        3.1980     0.2450    -1.6600 H     1 <1>   0.0800 
 30 H        3.8000    -1.9100     0.4470 H     1 <1>   0.0800 
 31 H        2.6850    -1.4550     1.7140 H     1 <1>   0.0800 
 32 H        2.7780    -2.1160    -2.0810 H     1 <1>   0.0800 
 33 H        1.2830    -2.9580    -1.8810 H     1 <1>   0.0800 
 34 H        2.7330     0.6580     1.1790 H     1 <1>   0.4500 
 35 H        5.0680     0.0430     1.5090 H     1 <1>   0.0800 
 36 H        4.7940    -3.2660    -1.6910 H     1 <1>   0.1500 
 37 H        4.3710     2.5540    -0.0170 H     1 <1>   0.0800 
 38 H        4.1960     2.2830     1.6910 H     1 <1>   0.0800 
 39 H        5.2390    -1.0070    -0.8000 H     1 <1>   0.0800 
 40 H        5.3920     0.5990    -1.4490 H     1 <1>   0.0800 
 41 H        0.2570    -4.1590    -0.1640 H     1 <1>   0.1500 
 42 H        6.0310    -5.0930    -0.7380 H     1 <1>   0.1500 
 43 H        6.1200     3.5840     1.4110 H     1 <1>   0.0800 
 44 H        6.6950     2.0170     1.8690 H     1 <1>   0.0800 
 45 H        7.1530    -0.3410     0.8140 H     1 <1>   0.0800 
 46 H        7.5010    -0.8330    -0.8030 H     1 <1>   0.0800 
 47 H        3.2220    -7.5580     1.7630 H     1 <1>   0.1500 
 48 H       -0.6590    -5.8830     1.2910 H     1 <1>   0.1500 
 49 H        6.4700     2.8370    -1.0410 H     1 <1>   0.0800 
 50 H        7.8200     3.3320    -0.0920 H     1 <1>   0.0800 
 51 H        8.7070     1.2170     0.1100 H     1 <1>   0.0800 
 52 H        8.1160     1.2620    -1.5110 H     1 <1>   0.0800 
 53 H        0.8020    -7.5800     2.2730 H     1 <1>   0.1500 
@<TRIPOS>BOND
  1   1   2  1   
  2   1  25  1   
  3   2   3  1   
  4   2   4  1   
  5   2  26  1   
  6   3   5  1   
  7   3   6  1   
  8   3  27  1   
  9   4   7  1   
 10   4  28  1   
 11   4  29  1   
 12   5   7  1   
 13   5  30  1   
 14   5  31  1   
 15   6   8  1   
 16   6  32  1   
 17   6  33  1   
 18   7   9  1   
 19   7  34  1   
 20   8  10  ar  
 21   8  11  ar  
 22   9  12  1   
 23   9  13  1   
 24   9  35  1   
 25  10  14  ar  
 26  10  15  ar  
 27  11  16  ar  
 28  11  36  1   
 29  12  17  1   
 30  12  37  1   
 31  12  38  1   
 32  13  18  1   
 33  13  39  1   
 34  13  40  1   
 35  14  19  ar  
 36  14  20  ar  
 37  15  21  ar  
 38  15  41  1   
 39  16  19  ar  
 40  16  42  1   
 41  17  22  1   
 42  17  43  1   
 43  17  44  1   
 44  18  23  1   
 45  18  45  1   
 46  18  46  1   
 47  20  24  ar  
 48  20  47  1   
 49  21  24  ar  
 50  21  48  1   
 51  22  23  1   
 52  22  49  1   
 53  22  50  1   
 54  23  51  1   
 55  23  52  1   
 56  24  53  1   
@<TRIPOS>SUBSTRUCTURE
  1 ****   5 GROUP 4 **** **** 0

# MOE 2024.06 (io_trps.svl 2023.06)
