@<TRIPOS>MOLECULE
NONAME
48 49 1 0 0 
SMALL
USER_CHARGES


@<TRIPOS>ATOM
  1 S        0.2750     0.9490    -1.2470 S.o2  1 <1>   1.3330 
  2 O        0.2280    -0.4450    -1.6250 O.2   1 <1>  -0.6500 
  3 O        0.0710     1.9550    -2.2650 O.2   1 <1>  -0.6500 
  4 N        1.7990     1.2140    -0.5490 N.am  1 <1>  -0.8490 
  5 C       -0.9250     1.2070     0.0730 C.3   1 <1>  -0.0550 
  6 C        2.2550     0.1050     0.2980 C.3   1 <1>   0.1160 
  7 C        2.8180     1.4920    -1.5650 C.3   1 <1>   0.1160 
  8 C       -1.0410     2.5950     0.7500 C.3   1 <1>  -0.0800 
  9 C       -1.2260     3.7730    -0.2200 C.3   1 <1>   0.2000 
 10 C        0.1580     2.9750     1.6330 C.3   1 <1>   0.1400 
 11 O       -2.1110     4.6600     0.3730 O.3   1 <1>  -0.6800 
 12 C        0.1390     4.4560    -0.2950 C.3   1 <1>   0.1400 
 13 N        0.7480     4.1890     1.0280 N.am  1 <1>  -0.6600 
 14 C        1.5900     5.0360     1.7100 C.2   1 <1>   0.5440 
 15 O        1.8850     4.7610     2.8570 O.2   1 <1>  -0.5700 
 16 C        2.1030     6.2410     1.0920 C.ar  1 <1>   0.0860 
 17 C        3.1810     6.2280     0.1960 C.ar  1 <1>  -0.1440 
 18 C        1.5090     7.4680     1.3820 C.ar  1 <1>  -0.1500 
 19 C        3.6220     7.4040    -0.3900 C.ar  1 <1>  -0.1500 
 20 C        3.8820     4.9170    -0.1330 C.3   1 <1>  -0.0970 
 21 C        1.9500     8.6380     0.7970 C.ar  1 <1>  -0.1500 
 22 C        3.0080     8.6180    -0.0950 C.ar  1 <1>   0.0820 
 23 O        3.3830     9.8040    -0.6280 O.3   1 <1>  -0.3620 
 24 C        4.4530     9.9030    -1.5410 C.3   1 <1>   0.0400 
 25 H       -1.8910     0.9810    -0.3370 H     1 <1>   0.0800 
 26 H       -0.7480     0.4790     0.8390 H     1 <1>   0.0800 
 27 H        3.1830     0.3650     0.7770 H     1 <1>   0.0800 
 28 H        2.4020    -0.7860    -0.2910 H     1 <1>   0.0800 
 29 H        1.5290    -0.1040     1.0640 H     1 <1>   0.0800 
 30 H        3.7690     1.6800    -1.0970 H     1 <1>   0.0800 
 31 H        2.5440     2.3640    -2.1340 H     1 <1>   0.0800 
 32 H        2.9120     0.6560    -2.2390 H     1 <1>   0.0800 
 33 H       -1.9060     2.5280     1.3880 H     1 <1>   0.0800 
 34 H       -1.6220     3.5010    -1.1840 H     1 <1>   0.0800 
 35 H        0.8990     2.1980     1.6830 H     1 <1>   0.0800 
 36 H       -0.1690     3.2020     2.6350 H     1 <1>   0.0800 
 37 H       -1.6910     5.0270     1.1770 H     1 <1>   0.4000 
 38 H        0.0460     5.5090    -0.4990 H     1 <1>   0.0800 
 39 H        0.7480     4.0020    -1.0560 H     1 <1>   0.0800 
 40 H        0.6900     7.4960     2.0790 H     1 <1>   0.1500 
 41 H        4.4480     7.3670    -1.0730 H     1 <1>   0.1500 
 42 H        4.7400     5.0800    -0.7600 H     1 <1>   0.0800 
 43 H        3.2050     4.2580    -0.6420 H     1 <1>   0.0800 
 44 H        4.2120     4.4400     0.7740 H     1 <1>   0.0800 
 45 H        1.4800     9.5770     1.0290 H     1 <1>   0.1500 
 46 H        4.5560    10.9350    -1.8230 H     1 <1>   0.0800 
 47 H        4.2270     9.3070    -2.4080 H     1 <1>   0.0800 
 48 H        5.3530     9.5620    -1.0610 H     1 <1>   0.0800 
@<TRIPOS>BOND
  1   1   2  2   
  2   1   3  2   
  3   1   4  am  
  4   1   5  1   
  5   4   6  1   
  6   4   7  1   
  7   5   8  1   
  8   5  25  1   
  9   5  26  1   
 10   6  27  1   
 11   6  28  1   
 12   6  29  1   
 13   7  30  1   
 14   7  31  1   
 15   7  32  1   
 16   8   9  1   
 17   8  10  1   
 18   8  33  1   
 19   9  11  1   
 20   9  12  1   
 21   9  34  1   
 22  10  13  1   
 23  10  35  1   
 24  10  36  1   
 25  11  37  1   
 26  12  13  1   
 27  12  38  1   
 28  12  39  1   
 29  13  14  am  
 30  14  15  2   
 31  14  16  1   
 32  16  17  ar  
 33  16  18  ar  
 34  17  19  ar  
 35  17  20  1   
 36  18  21  ar  
 37  18  40  1   
 38  19  22  ar  
 39  19  41  1   
 40  20  42  1   
 41  20  43  1   
 42  20  44  1   
 43  21  22  ar  
 44  21  45  1   
 45  22  23  1   
 46  23  24  1   
 47  24  46  1   
 48  24  47  1   
 49  24  48  1   
@<TRIPOS>SUBSTRUCTURE
  1 ****  13 GROUP 4 **** **** 0

# MOE 2024.06 (io_trps.svl 2023.06)
