@<TRIPOS>MOLECULE
NONAME
51 53 1 0 0 
SMALL
USER_CHARGES


@<TRIPOS>ATOM
  1 O        3.8750    -1.9170    -0.0530 O.2   1 <1>  -0.5700 
  2 C        2.9760    -1.7160    -0.8370 C.2   1 <1>   0.5690 
  3 N        3.1250    -0.7440    -1.7880 N.am  1 <1>  -0.6600 
  4 C        1.7000    -2.5370    -0.7400 C.3   1 <1>  -0.0990 
  5 C        4.4750    -0.4870    -2.3930 C.3   1 <1>   0.1400 
  6 C        2.1470     0.3620    -1.9480 C.3   1 <1>   0.1400 
  7 C        1.0900    -2.5750     0.6720 C.3   1 <1>  -0.0800 
  8 C        5.4490     0.2030    -1.4150 C.3   1 <1>   0.3430 
  9 C        2.3680     1.4310    -0.8630 C.3   1 <1>  -0.1600 
 10 C       -0.1790    -3.4210     0.7410 C.3   1 <1>  -0.1600 
 11 C        0.6410    -1.2160     1.2070 C.3   1 <1>  -0.1600 
 12 N        4.7220     0.8670    -0.2890 N.4   1 <1>  -0.9590 
 13 C        3.8010     1.9570    -0.7180 C.3   1 <1>   0.3430 
 14 C       -0.8850    -2.9620     2.0150 C.3   1 <1>  -0.1600 
 15 C       -0.4050    -1.5300     2.2790 C.3   1 <1>  -0.1600 
 16 C        5.6410     1.2560     0.8200 C.3   1 <1>   0.5230 
 17 C        6.6030     2.3770     0.4480 C.2   1 <1>  -0.0400 
 18 O        7.4430     2.7510     1.3920 O.3   1 <1>  -0.2800 
 19 C        6.8100     3.1130    -0.6700 C.2   1 <1>  -0.1500 
 20 C        8.1960     3.7180     0.9130 C.2   1 <1>  -0.0400 
 21 C        7.8550     3.9920    -0.3620 C.2   1 <1>  -0.1500 
 22 C        9.2530     4.3290     1.8080 C.3   1 <1>  -0.0600 
 23 H        1.9470    -3.5420    -1.0290 H     1 <1>   0.0800 
 24 H        0.9740    -2.1780    -1.4440 H     1 <1>   0.0800 
 25 H        4.3680     0.1160    -3.2770 H     1 <1>   0.0800 
 26 H        4.9060    -1.4250    -2.7020 H     1 <1>   0.0800 
 27 H        1.1420    -0.0180    -1.8760 H     1 <1>   0.0800 
 28 H        2.2550     0.7990    -2.9270 H     1 <1>   0.0800 
 29 H        1.8090    -2.9920     1.3600 H     1 <1>   0.0800 
 30 H        6.0670     0.9080    -1.9460 H     1 <1>   0.0800 
 31 H        6.0970    -0.5570    -1.0090 H     1 <1>   0.0800 
 32 H        2.0350     1.0560     0.0860 H     1 <1>   0.0800 
 33 H        1.7310     2.2660    -1.0970 H     1 <1>   0.0800 
 34 H        0.0400    -4.4750     0.7630 H     1 <1>   0.0800 
 35 H       -0.8100    -3.2100    -0.1050 H     1 <1>   0.0800 
 36 H        0.1720    -0.6500     0.4210 H     1 <1>   0.0800 
 37 H        1.4640    -0.6590     1.6170 H     1 <1>   0.0800 
 38 H        4.1330     0.0910     0.0700 H     1 <1>   0.4500 
 39 H        3.8050     2.7430     0.0210 H     1 <1>   0.0800 
 40 H        4.1360     2.3790    -1.6510 H     1 <1>   0.0800 
 41 H       -0.5930    -3.5930     2.8370 H     1 <1>   0.0800 
 42 H       -1.9550    -3.0090     1.9060 H     1 <1>   0.0800 
 43 H       -1.2230    -0.8320     2.2300 H     1 <1>   0.0800 
 44 H        0.0390    -1.4740     3.2580 H     1 <1>   0.0800 
 45 H        6.2170     0.3980     1.1250 H     1 <1>   0.0800 
 46 H        5.0620     1.5750     1.6700 H     1 <1>   0.0800 
 47 H        6.3200     3.0890    -1.6260 H     1 <1>   0.1500 
 48 H        8.2790     4.7250    -1.0260 H     1 <1>   0.1500 
 49 H        9.9510     3.5720     2.1160 H     1 <1>   0.0800 
 50 H        8.7910     4.7540     2.6800 H     1 <1>   0.0800 
 51 H        9.7850     5.1020     1.2830 H     1 <1>   0.0800 
@<TRIPOS>BOND
  1   1   2  2   
  2   2   3  am  
  3   2   4  1   
  4   3   5  1   
  5   3   6  1   
  6   4   7  1   
  7   4  23  1   
  8   4  24  1   
  9   5   8  1   
 10   5  25  1   
 11   5  26  1   
 12   6   9  1   
 13   6  27  1   
 14   6  28  1   
 15   7  10  1   
 16   7  11  1   
 17   7  29  1   
 18   8  12  1   
 19   8  30  1   
 20   8  31  1   
 21   9  13  1   
 22   9  32  1   
 23   9  33  1   
 24  10  14  1   
 25  10  34  1   
 26  10  35  1   
 27  11  15  1   
 28  11  36  1   
 29  11  37  1   
 30  12  13  1   
 31  12  16  1   
 32  12  38  1   
 33  13  39  1   
 34  13  40  1   
 35  14  15  1   
 36  14  41  1   
 37  14  42  1   
 38  15  43  1   
 39  15  44  1   
 40  16  17  1   
 41  16  45  1   
 42  16  46  1   
 43  17  18  1   
 44  17  19  2   
 45  18  20  1   
 46  19  21  1   
 47  19  47  1   
 48  20  21  2   
 49  20  22  1   
 50  21  48  1   
 51  22  49  1   
 52  22  50  1   
 53  22  51  1   
@<TRIPOS>SUBSTRUCTURE
  1 ****  12 GROUP 4 **** **** 0

# MOE 2024.06 (io_trps.svl 2023.06)
