@<TRIPOS>MOLECULE
NONAME
42 43 1 0 0 
SMALL
USER_CHARGES


@<TRIPOS>ATOM
  1 S       -0.2710    -0.0920    -1.2500 S.o2  1 <1>   1.3330 
  2 O        0.2310     0.5330    -2.4540 O.2   1 <1>  -0.6500 
  3 O       -1.1240    -1.2520    -1.3180 O.2   1 <1>  -0.6500 
  4 N        1.0720    -0.4600    -0.2810 N.am  1 <1>  -0.8490 
  5 C       -1.0890     1.2110    -0.3250 C.3   1 <1>  -0.0550 
  6 C        2.1130    -1.1550    -1.0510 C.3   1 <1>   0.1160 
  7 C        0.7230    -1.2880     0.8840 C.3   1 <1>   0.1160 
  8 C       -0.1620     2.4050    -0.0070 C.3   1 <1>  -0.0800 
  9 C       -0.8800     3.5380     0.7100 C.3   1 <1>   0.2000 
 10 C        0.4280     3.0900    -1.2390 C.3   1 <1>   0.3430 
 11 O       -0.9510     3.2660     2.0670 O.3   1 <1>  -0.6800 
 12 C       -0.0560     4.7950     0.4040 C.3   1 <1>   0.3430 
 13 N        0.7730     4.4740    -0.8090 N.4   1 <1>  -0.9590 
 14 C        2.2390     4.6390    -0.5430 C.3   1 <1>   0.5240 
 15 C        2.6120     6.1160    -0.4710 C.2   1 <1>   0.0460 
 16 N        2.0320     6.8950     0.5250 N.2   1 <1>  -0.5650 
 17 C        3.4670     6.7460    -1.2930 C.2   1 <1>  -0.1100 
 18 C        2.4410     8.1000     0.4710 C.2   1 <1>   0.1980 
 19 S        3.5780     8.4150    -0.8200 S.3   1 <1>  -0.0800 
 20 C        2.0710     9.2610     1.3650 C.3   1 <1>  -0.0600 
 21 H       -1.9360     1.5520    -0.8880 H     1 <1>   0.0800 
 22 H       -1.4620     0.8070     0.5970 H     1 <1>   0.0800 
 23 H        2.9620    -1.3710    -0.4250 H     1 <1>   0.0800 
 24 H        2.4460    -0.5390    -1.8690 H     1 <1>   0.0800 
 25 H        1.7280    -2.0790    -1.4530 H     1 <1>   0.0800 
 26 H        1.5950    -1.4550     1.4940 H     1 <1>   0.0800 
 27 H        0.3340    -2.2430     0.5670 H     1 <1>   0.0800 
 28 H       -0.0210    -0.7970     1.4860 H     1 <1>   0.0800 
 29 H        0.6620     2.0630     0.5950 H     1 <1>   0.0800 
 30 H       -1.8850     3.6670     0.3440 H     1 <1>   0.0800 
 31 H       -0.3180     3.1290    -2.0180 H     1 <1>   0.0800 
 32 H        1.2870     2.5550    -1.6160 H     1 <1>   0.0800 
 33 H       -0.0770     3.1020     2.4750 H     1 <1>   0.4000 
 34 H        0.5790     5.0310     1.2420 H     1 <1>   0.0800 
 35 H       -0.7050     5.6330     0.2100 H     1 <1>   0.0800 
 36 H        0.5410     5.1510    -1.5490 H     1 <1>   0.4500 
 37 H        2.5050     4.1600     0.3840 H     1 <1>   0.0800 
 38 H        2.8060     4.1820    -1.3370 H     1 <1>   0.0800 
 39 H        4.0610     6.4330    -2.1340 H     1 <1>   0.1500 
 40 H        1.3740     8.9390     2.1160 H     1 <1>   0.0800 
 41 H        1.6220    10.0430     0.7820 H     1 <1>   0.0800 
 42 H        2.9520     9.6430     1.8480 H     1 <1>   0.0800 
@<TRIPOS>BOND
  1   1   2  2   
  2   1   3  2   
  3   1   4  am  
  4   1   5  1   
  5   4   6  1   
  6   4   7  1   
  7   5   8  1   
  8   5  21  1   
  9   5  22  1   
 10   6  23  1   
 11   6  24  1   
 12   6  25  1   
 13   7  26  1   
 14   7  27  1   
 15   7  28  1   
 16   8   9  1   
 17   8  10  1   
 18   8  29  1   
 19   9  11  1   
 20   9  12  1   
 21   9  30  1   
 22  10  13  1   
 23  10  31  1   
 24  10  32  1   
 25  11  33  1   
 26  12  13  1   
 27  12  34  1   
 28  12  35  1   
 29  13  14  1   
 30  13  36  1   
 31  14  15  1   
 32  14  37  1   
 33  14  38  1   
 34  15  16  1   
 35  15  17  2   
 36  16  18  2   
 37  17  19  1   
 38  17  39  1   
 39  18  19  1   
 40  18  20  1   
 41  20  40  1   
 42  20  41  1   
 43  20  42  1   
@<TRIPOS>SUBSTRUCTURE
  1 ****  13 GROUP 4 **** **** 0

# MOE 2024.06 (io_trps.svl 2023.06)
