@<TRIPOS>MOLECULE
NONAME
59 62 1 0 0 
SMALL
USER_CHARGES


@<TRIPOS>ATOM
  1 O       -1.9760     2.1810     2.7720 O.2   1 <1>  -0.5700 
  2 C       -2.3600     2.0950     1.6180 C.2   1 <1>   0.5440 
  3 N       -3.1490     1.0130     1.2630 N.am  1 <1>  -0.6600 
  4 C       -1.9850     3.1340     0.6830 C.ar  1 <1>   0.0860 
  5 C       -4.0160     0.9960     0.0480 C.3   1 <1>   0.1400 
  6 C       -3.4530    -0.0790     2.2340 C.3   1 <1>   0.1400 
  7 C       -1.3110     2.8460    -0.5170 C.ar  1 <1>   0.1000 
  8 C       -2.2660     4.4690     0.9760 C.ar  1 <1>  -0.1500 
  9 C       -3.8990    -0.3580    -0.6590 C.3   1 <1>  -0.1600 
 10 C       -3.3460    -1.4420     1.5440 C.3   1 <1>  -0.1600 
 11 N       -0.9900     1.5420    -0.8630 N.pl3 1 <1>  -0.8690 
 12 C       -0.9660     3.8820    -1.3780 C.ar  1 <1>  -0.1500 
 13 C       -1.9140     5.4900     0.1150 C.ar  1 <1>  -0.1500 
 14 C       -4.2310    -1.5280     0.2870 C.3   1 <1>   0.4240 
 15 C        0.4130     1.1390    -0.9230 C.3   1 <1>   0.2890 
 16 C       -1.2620     5.1940    -1.0710 C.ar  1 <1>  -0.1500 
 17 O       -5.5350    -1.3030     0.7790 O.3   1 <1>  -0.5600 
 18 C       -4.1190    -2.9110    -0.4170 C.ar  1 <1>  -0.1430 
 19 C        0.5880     0.2720    -2.1610 C.3   1 <1>  -0.2400 
 20 C        0.7200     0.3730     0.3570 C.3   1 <1>  -0.2400 
 21 C       -6.6060    -1.6940    -0.0140 C.3   1 <1>   0.1200 
 22 C       -2.9050    -3.4070    -0.9130 C.ar  1 <1>   0.0830 
 23 C       -5.2610    -3.6980    -0.5770 C.ar  1 <1>  -0.1430 
 24 C       -6.6080    -3.2120    -0.0820 C.3   1 <1>  -0.0170 
 25 O       -1.7750    -2.6620    -0.7820 O.3   1 <1>  -0.3620 
 26 C       -2.8600    -4.6530    -1.5380 C.ar  1 <1>  -0.1500 
 27 C       -5.2000    -4.9360    -1.1930 C.ar  1 <1>  -0.1500 
 28 C       -0.4900    -3.2230    -0.9540 C.3   1 <1>   0.0400 
 29 C       -4.0010    -5.4150    -1.6750 C.ar  1 <1>  -0.1500 
 30 H       -3.7450     1.7820    -0.6340 H     1 <1>   0.0800 
 31 H       -5.0360     1.1620     0.3500 H     1 <1>   0.0800 
 32 H       -4.4480     0.0640     2.6200 H     1 <1>   0.0800 
 33 H       -2.7670    -0.0500     3.0630 H     1 <1>   0.0800 
 34 H       -2.7650     4.6970     1.9020 H     1 <1>   0.1500 
 35 H       -2.9000    -0.4610    -1.0310 H     1 <1>   0.0800 
 36 H       -4.5460    -0.3820    -1.5140 H     1 <1>   0.0800 
 37 H       -3.6360    -2.2180     2.2270 H     1 <1>   0.0800 
 38 H       -2.3150    -1.5990     1.3020 H     1 <1>   0.0800 
 39 H       -1.5150     0.8450    -0.3140 H     1 <1>   0.4000 
 40 H       -0.4640     3.6430    -2.2980 H     1 <1>   0.1500 
 41 H       -2.1430     6.5120     0.3630 H     1 <1>   0.1500 
 42 H        1.0490     2.0080    -0.9900 H     1 <1>   0.0800 
 43 H       -0.9880     5.9850    -1.7470 H     1 <1>   0.1500 
 44 H       -0.0810    -0.5680    -2.1300 H     1 <1>   0.0800 
 45 H        1.5990    -0.0860    -2.2230 H     1 <1>   0.0800 
 46 H        0.3780     0.8540    -3.0400 H     1 <1>   0.0800 
 47 H        0.0590    -0.4680     0.4660 H     1 <1>   0.0800 
 48 H        0.6020     1.0220     1.2070 H     1 <1>   0.0800 
 49 H        1.7340     0.0200     0.3410 H     1 <1>   0.0800 
 50 H       -6.5090    -1.2580    -0.9920 H     1 <1>   0.0800 
 51 H       -7.5080    -1.3350     0.4480 H     1 <1>   0.0800 
 52 H       -7.3900    -3.5340    -0.7450 H     1 <1>   0.0800 
 53 H       -6.8020    -3.6150     0.8960 H     1 <1>   0.0800 
 54 H       -1.9460    -5.0500    -1.9340 H     1 <1>   0.1500 
 55 H       -6.0890    -5.5340    -1.3020 H     1 <1>   0.1500 
 56 H        0.2390    -2.4990    -0.6400 H     1 <1>   0.0800 
 57 H       -0.3470    -3.4540    -1.9940 H     1 <1>   0.0800 
 58 H       -0.4100    -4.1060    -0.3450 H     1 <1>   0.0800 
 59 H       -3.9570    -6.3760    -2.1560 H     1 <1>   0.1500 
@<TRIPOS>BOND
  1   1   2  2   
  2   2   3  am  
  3   2   4  1   
  4   3   5  1   
  5   3   6  1   
  6   4   7  ar  
  7   4   8  ar  
  8   5   9  1   
  9   5  30  1   
 10   5  31  1   
 11   6  10  1   
 12   6  32  1   
 13   6  33  1   
 14   7  11  1   
 15   7  12  ar  
 16   8  13  ar  
 17   8  34  1   
 18   9  14  1   
 19   9  35  1   
 20   9  36  1   
 21  10  14  1   
 22  10  37  1   
 23  10  38  1   
 24  11  15  1   
 25  11  39  1   
 26  12  16  ar  
 27  12  40  1   
 28  13  16  ar  
 29  13  41  1   
 30  14  17  1   
 31  14  18  1   
 32  15  19  1   
 33  15  20  1   
 34  15  42  1   
 35  16  43  1   
 36  17  21  1   
 37  18  22  ar  
 38  18  23  ar  
 39  19  44  1   
 40  19  45  1   
 41  19  46  1   
 42  20  47  1   
 43  20  48  1   
 44  20  49  1   
 45  21  24  1   
 46  21  50  1   
 47  21  51  1   
 48  22  25  1   
 49  22  26  ar  
 50  23  24  1   
 51  23  27  ar  
 52  24  52  1   
 53  24  53  1   
 54  25  28  1   
 55  26  29  ar  
 56  26  54  1   
 57  27  29  ar  
 58  27  55  1   
 59  28  56  1   
 60  28  57  1   
 61  28  58  1   
 62  29  59  1   
@<TRIPOS>SUBSTRUCTURE
  1 ****   9 GROUP 4 **** **** 0

# MOE 2024.06 (io_trps.svl 2023.06)
