@<TRIPOS>MOLECULE
NONAME
53 55 1 0 0 
SMALL
USER_CHARGES


@<TRIPOS>ATOM
  1 O       -1.2090     1.1840     0.8290 O.2   1 <1>  -0.5700 
  2 C       -1.4670     2.1970     0.2560 C.2   1 <1>   0.4480 
  3 C       -2.3760     2.2180    -0.9540 C.3   1 <1>  -0.0990 
  4 C       -0.9320     3.5330     0.7300 C.3   1 <1>  -0.0990 
  5 C       -3.4800     3.2590    -0.7310 C.3   1 <1>   0.2250 
  6 C       -2.0730     4.5390     0.9020 C.3   1 <1>   0.1400 
  7 N       -2.8730     4.5810    -0.3560 N.am  1 <1>  -0.5850 
  8 C       -4.5710     2.7970     0.2770 C.3   1 <1>   0.2250 
  9 C       -4.6240     3.2570    -1.7900 C.3   1 <1>   0.2250 
 10 C       -2.7650     5.6310    -1.2320 C.2   1 <1>   0.7800 
 11 N       -5.3860     2.3350    -0.8890 N.am  1 <1>  -0.5100 
 12 O       -3.0330     5.5450    -2.4130 O.2   1 <1>  -0.5700 
 13 O       -2.3170     6.7840    -0.7500 O.3   1 <1>  -0.4300 
 14 C       -6.7420     2.2410    -0.8830 C.2   1 <1>   0.7800 
 15 C       -2.1800     7.9090    -1.5870 C.3   1 <1>   0.2640 
 16 O       -7.4030     2.4370    -1.8830 O.2   1 <1>  -0.5700 
 17 O       -7.3110     1.9310     0.2840 O.3   1 <1>  -0.4300 
 18 C       -1.6080     9.0450    -0.7570 C.ar  1 <1>  -0.1430 
 19 C       -8.6880     1.7750     0.5470 C.3   1 <1>   0.2800 
 20 C       -0.2970     9.4600    -0.9370 C.ar  1 <1>  -0.1500 
 21 C       -2.3970     9.6760     0.1930 C.ar  1 <1>  -0.1500 
 22 C       -9.2610     0.6220    -0.2840 C.3   1 <1>  -0.2400 
 23 C       -8.7730     1.4170     2.0310 C.3   1 <1>  -0.2400 
 24 C       -9.4270     3.0970     0.3030 C.3   1 <1>  -0.2400 
 25 C        0.2190    10.4960    -0.1760 C.ar  1 <1>  -0.1500 
 26 C       -1.8830    10.7110     0.9540 C.ar  1 <1>  -0.1500 
 27 C       -0.5740    11.1220     0.7690 C.ar  1 <1>  -0.1500 
 28 H       -2.8010     1.2410    -1.1030 H     1 <1>   0.0800 
 29 H       -1.8080     2.4730    -1.8290 H     1 <1>   0.0800 
 30 H       -0.2230     3.9070     0.0140 H     1 <1>   0.0800 
 31 H       -0.4210     3.4020     1.6670 H     1 <1>   0.0800 
 32 H       -1.6670     5.5070     1.1420 H     1 <1>   0.0800 
 33 H       -2.7060     4.2390     1.7200 H     1 <1>   0.0800 
 34 H       -5.0620     3.6020     0.7960 H     1 <1>   0.0000 
 35 H       -4.2800     1.9740     0.9060 H     1 <1>   0.0000 
 36 H       -4.3660     2.7790    -2.7180 H     1 <1>   0.0000 
 37 H       -5.1430     4.1930    -1.8960 H     1 <1>   0.0000 
 38 H       -3.1500     8.1690    -1.9740 H     1 <1>   0.0800 
 39 H       -1.5240     7.6530    -2.4010 H     1 <1>   0.0800 
 40 H        0.3300     8.9800    -1.6670 H     1 <1>   0.1500 
 41 H       -3.4140     9.3590     0.3450 H     1 <1>   0.1500 
 42 H       -8.6760    -0.2690    -0.1420 H     1 <1>   0.0800 
 43 H       -9.2810     0.8690    -1.3300 H     1 <1>   0.0800 
 44 H      -10.2720     0.4180     0.0190 H     1 <1>   0.0800 
 45 H       -8.2380     0.5050     2.2260 H     1 <1>   0.0800 
 46 H       -9.7980     1.2770     2.3250 H     1 <1>   0.0800 
 47 H       -8.3540     2.2050     2.6300 H     1 <1>   0.0800 
 48 H       -9.4470     3.3430    -0.7420 H     1 <1>   0.0800 
 49 H       -8.9560     3.8950     0.8470 H     1 <1>   0.0800 
 50 H      -10.4460     3.0130     0.6350 H     1 <1>   0.0800 
 51 H        1.2360    10.8140    -0.3200 H     1 <1>   0.1500 
 52 H       -2.5000    11.1970     1.6900 H     1 <1>   0.1500 
 53 H       -0.1740    11.9270     1.3610 H     1 <1>   0.1500 
@<TRIPOS>BOND
  1   1   2  2   
  2   2   3  1   
  3   2   4  1   
  4   3   5  1   
  5   3  28  1   
  6   3  29  1   
  7   4   6  1   
  8   4  30  1   
  9   4  31  1   
 10   5   7  1   
 11   5   8  1   
 12   5   9  1   
 13   6   7  1   
 14   6  32  1   
 15   6  33  1   
 16   7  10  am  
 17   8  11  1   
 18   8  34  1   
 19   8  35  1   
 20   9  11  1   
 21   9  36  1   
 22   9  37  1   
 23  10  12  2   
 24  10  13  1   
 25  11  14  am  
 26  13  15  1   
 27  14  16  2   
 28  14  17  1   
 29  15  18  1   
 30  15  38  1   
 31  15  39  1   
 32  17  19  1   
 33  18  20  ar  
 34  18  21  ar  
 35  19  22  1   
 36  19  23  1   
 37  19  24  1   
 38  20  25  ar  
 39  20  40  1   
 40  21  26  ar  
 41  21  41  1   
 42  22  42  1   
 43  22  43  1   
 44  22  44  1   
 45  23  45  1   
 46  23  46  1   
 47  23  47  1   
 48  24  48  1   
 49  24  49  1   
 50  24  50  1   
 51  25  27  ar  
 52  25  51  1   
 53  26  27  ar  
 54  26  52  1   
 55  27  53  1   
@<TRIPOS>SUBSTRUCTURE
  1 ****   7 GROUP 4 **** **** 0

# MOE 2024.06 (io_trps.svl 2023.06)
