@<TRIPOS>MOLECULE
NONAME
51 54 1 0 0 
SMALL
USER_CHARGES


@<TRIPOS>ATOM
  1 S        0.2930     1.4870    -2.6170 S.3   1 <1>  -0.0800 
  2 C       -0.8020     1.6270    -1.2500 C.2   1 <1>  -0.1400 
  3 C       -0.8220     0.4020    -3.4390 C.2   1 <1>  -0.1100 
  4 C       -1.9110     0.9040    -1.4550 C.2   1 <1>  -0.1810 
  5 C       -0.4870     2.4740    -0.0220 C.3   1 <1>   0.4600 
  6 C       -1.9280     0.1960    -2.6990 C.2   1 <1>  -0.1500 
  7 C       -3.0010     0.8940    -0.4070 C.3   1 <1>   0.0210 
  8 O       -1.4780     2.2200     0.9570 O.3   1 <1>  -0.5600 
  9 C        0.8500     2.0640     0.6030 C.3   1 <1>  -0.1600 
 10 C       -0.4770     3.9690    -0.3630 C.3   1 <1>  -0.1600 
 11 C       -2.8140     2.1040     0.5290 C.3   1 <1>   0.1200 
 12 C        1.1900     2.9320     1.8150 C.3   1 <1>   0.1400 
 13 C       -0.1130     4.8320     0.8460 C.3   1 <1>   0.1400 
 14 N        1.1840     4.3670     1.4190 N.am  1 <1>  -0.6600 
 15 C        2.2600     5.2100     1.6780 C.2   1 <1>   0.5440 
 16 O        3.3330     4.6800     1.9340 O.2   1 <1>  -0.5700 
 17 C        2.1930     6.6750     1.6120 C.ar  1 <1>   0.3960 
 18 N        1.1280     7.3380     2.0260 N.ar  1 <1>  -0.6200 
 19 C        3.2770     7.3670     1.0980 C.ar  1 <1>  -0.1500 
 20 C        1.1380     8.6680     1.8650 C.ar  1 <1>   0.4490 
 21 C        3.2100     8.7350     0.9930 C.ar  1 <1>   0.1670 
 22 O        0.1110     9.2770     2.1920 O.3   1 <1>  -0.8290 
 23 N        2.1550     9.3970     1.3660 N.ar  1 <1>  -0.6200 
 24 C        4.3810     9.5240     0.4290 C.3   1 <1>  -0.0170 
 25 C        4.5730     9.3140    -1.0870 C.3   1 <1>  -0.0800 
 26 C        5.8240    10.0550    -1.5740 C.3   1 <1>  -0.2400 
 27 C        3.3480     9.7910    -1.8800 C.3   1 <1>  -0.2400 
 28 H       -0.5250     0.0290    -4.4030 H     1 <1>   0.1500 
 29 H       -2.7600    -0.4270    -2.9750 H     1 <1>   0.1500 
 30 H       -2.9490    -0.0180     0.1610 H     1 <1>   0.0800 
 31 H       -3.9660     0.9510    -0.8750 H     1 <1>   0.0800 
 32 H        1.6390     2.1700    -0.1180 H     1 <1>   0.0800 
 33 H        0.8060     1.0310     0.8920 H     1 <1>   0.0800 
 34 H       -1.4280     4.2720    -0.7560 H     1 <1>   0.0800 
 35 H        0.2530     4.1480    -1.1310 H     1 <1>   0.0800 
 36 H       -3.4290     1.9950     1.4050 H     1 <1>   0.0800 
 37 H       -3.0930     3.0140     0.0280 H     1 <1>   0.0800 
 38 H        2.1500     2.6450     2.2080 H     1 <1>   0.0800 
 39 H        0.4580     2.7840     2.5910 H     1 <1>   0.0800 
 40 H       -0.8760     4.7660     1.6020 H     1 <1>   0.0800 
 41 H       -0.0560     5.8550     0.5200 H     1 <1>   0.0800 
 42 H        4.1510     6.8320     0.7850 H     1 <1>   0.1500 
 43 H        5.2700     9.2240     0.9520 H     1 <1>   0.0800 
 44 H        4.2240    10.5690     0.6320 H     1 <1>   0.0800 
 45 H        4.7080     8.2620    -1.2740 H     1 <1>   0.0800 
 46 H        5.7240    11.1130    -1.4090 H     1 <1>   0.0800 
 47 H        5.9730     9.8840    -2.6260 H     1 <1>   0.0800 
 48 H        6.6950     9.7050    -1.0480 H     1 <1>   0.0800 
 49 H        3.1600    10.8340    -1.6940 H     1 <1>   0.0800 
 50 H        2.4710     9.2390    -1.5860 H     1 <1>   0.0800 
 51 H        3.4990     9.6470    -2.9350 H     1 <1>   0.0800 
@<TRIPOS>BOND
  1   1   2  1   
  2   1   3  1   
  3   2   4  2   
  4   2   5  1   
  5   3   6  2   
  6   3  28  1   
  7   4   6  1   
  8   4   7  1   
  9   5   8  1   
 10   5   9  1   
 11   5  10  1   
 12   6  29  1   
 13   7  11  1   
 14   7  30  1   
 15   7  31  1   
 16   8  11  1   
 17   9  12  1   
 18   9  32  1   
 19   9  33  1   
 20  10  13  1   
 21  10  34  1   
 22  10  35  1   
 23  11  36  1   
 24  11  37  1   
 25  12  14  1   
 26  12  38  1   
 27  12  39  1   
 28  13  14  1   
 29  13  40  1   
 30  13  41  1   
 31  14  15  am  
 32  15  16  2   
 33  15  17  1   
 34  17  18  ar  
 35  17  19  ar  
 36  18  20  ar  
 37  19  21  ar  
 38  19  42  1   
 39  20  22  1   
 40  20  23  ar  
 41  21  23  ar  
 42  21  24  1   
 43  24  25  1   
 44  24  43  1   
 45  24  44  1   
 46  25  26  1   
 47  25  27  1   
 48  25  45  1   
 49  26  46  1   
 50  26  47  1   
 51  26  48  1   
 52  27  49  1   
 53  27  50  1   
 54  27  51  1   
@<TRIPOS>SUBSTRUCTURE
  1 ****  13 GROUP 4 **** **** 0

# MOE 2024.06 (io_trps.svl 2023.06)
