@<TRIPOS>MOLECULE
NONAME
45 47 1 0 0 
SMALL
USER_CHARGES


@<TRIPOS>ATOM
  1 S        0.2870    -0.0720     1.4520 S.3   1 <1>  -0.0800 
  2 C        1.6230    -0.4260     0.3750 C.2   1 <1>   0.1980 
  3 C       -0.7530    -1.0090     0.4210 C.2   1 <1>  -0.1100 
  4 N        1.3140    -1.1540    -0.6210 N.2   1 <1>  -0.5650 
  5 C        2.9810     0.1490     0.7250 C.3   1 <1>   0.0200 
  6 C       -0.0290    -1.4880    -0.6030 C.2   1 <1>   0.0460 
  7 C        3.0400     1.6580     0.4490 C.3   1 <1>  -0.1600 
  8 C       -0.5330    -2.3530    -1.7360 C.3   1 <1>  -0.0590 
  9 C        4.4120     2.2300     0.7960 C.3   1 <1>   0.2090 
 10 N        4.4180     3.6760     0.4970 N.pl3 1 <1>  -0.8690 
 11 C        5.4910     4.4760     0.8130 C.ar  1 <1>   0.4100 
 12 N        6.6120     3.8780     1.1940 N.ar  1 <1>  -0.6200 
 13 C        5.3560     5.8530     0.7220 C.ar  1 <1>  -0.1500 
 14 C        7.6160     4.6780     1.5010 C.ar  1 <1>   0.1600 
 15 C        6.4080     6.6950     1.0260 C.ar  1 <1>   0.0860 
 16 C        7.5700     6.0560     1.4380 C.ar  1 <1>  -0.1500 
 17 C        6.2930     8.1360     0.9250 C.2   1 <1>   0.5440 
 18 O        5.3320     8.6960     1.4190 O.2   1 <1>  -0.5700 
 19 N        7.2400     8.8920     0.2730 N.am  1 <1>  -0.6600 
 20 C        8.2120     8.3670    -0.7110 C.3   1 <1>   0.1400 
 21 C        7.1330    10.3650     0.1730 C.3   1 <1>   0.1400 
 22 C        8.4910     9.5390    -1.6440 C.3   1 <1>  -0.1600 
 23 C        8.2440    10.7770    -0.7860 C.3   1 <1>  -0.1600 
 24 H       -1.7880    -1.1000     0.6920 H     1 <1>   0.1500 
 25 H        3.7240    -0.3550     0.1330 H     1 <1>   0.0800 
 26 H        3.1860    -0.0500     1.7610 H     1 <1>   0.0800 
 27 H        2.2880     2.1570     1.0350 H     1 <1>   0.0800 
 28 H        2.8380     1.8290    -0.5940 H     1 <1>   0.0800 
 29 H       -1.5830    -2.5510    -1.6210 H     1 <1>   0.0800 
 30 H        0.0020    -3.2850    -1.7420 H     1 <1>   0.0800 
 31 H       -0.3690    -1.8520    -2.6720 H     1 <1>   0.0800 
 32 H        5.1790     1.7470     0.2140 H     1 <1>   0.0800 
 33 H        4.6290     2.0810     1.8410 H     1 <1>   0.0800 
 34 H        3.5010     4.1210     0.5590 H     1 <1>   0.4000 
 35 H        4.4200     6.2730     0.4080 H     1 <1>   0.1500 
 36 H        8.5290     4.2050     1.8210 H     1 <1>   0.1500 
 37 H        8.4290     6.6390     1.7140 H     1 <1>   0.1500 
 38 H        7.8110     7.5240    -1.2490 H     1 <1>   0.0800 
 39 H        9.1130     8.0790    -0.1980 H     1 <1>   0.0800 
 40 H        7.2480    10.8210     1.1410 H     1 <1>   0.0800 
 41 H        6.1670    10.6210    -0.2320 H     1 <1>   0.0800 
 42 H        7.7880     9.5130    -2.4580 H     1 <1>   0.0800 
 43 H        9.4900     9.5070    -2.0420 H     1 <1>   0.0800 
 44 H        9.1260    11.0120    -0.2170 H     1 <1>   0.0800 
 45 H        7.9660    11.6350    -1.3720 H     1 <1>   0.0800 
@<TRIPOS>BOND
  1   1   2  1   
  2   1   3  1   
  3   2   4  2   
  4   2   5  1   
  5   3   6  2   
  6   3  24  1   
  7   4   6  1   
  8   5   7  1   
  9   5  25  1   
 10   5  26  1   
 11   6   8  1   
 12   7   9  1   
 13   7  27  1   
 14   7  28  1   
 15   8  29  1   
 16   8  30  1   
 17   8  31  1   
 18   9  10  1   
 19   9  32  1   
 20   9  33  1   
 21  10  11  1   
 22  10  34  1   
 23  11  12  ar  
 24  11  13  ar  
 25  12  14  ar  
 26  13  15  ar  
 27  13  35  1   
 28  14  16  ar  
 29  14  36  1   
 30  15  16  ar  
 31  15  17  1   
 32  16  37  1   
 33  17  18  2   
 34  17  19  am  
 35  19  20  1   
 36  19  21  1   
 37  20  22  1   
 38  20  38  1   
 39  20  39  1   
 40  21  23  1   
 41  21  40  1   
 42  21  41  1   
 43  22  23  1   
 44  22  42  1   
 45  22  43  1   
 46  23  44  1   
 47  23  45  1   
@<TRIPOS>SUBSTRUCTURE
  1 ****  10 GROUP 4 **** **** 0

# MOE 2024.06 (io_trps.svl 2023.06)
