@<TRIPOS>MOLECULE
NONAME
44 46 1 0 0 
SMALL
USER_CHARGES


@<TRIPOS>ATOM
  1 S       -0.5330    -0.1240    -0.0620 S.o2  1 <1>   1.0900 
  2 O       -0.8890    -0.7340    -1.3230 O.2   1 <1>  -0.6500 
  3 O       -0.3630     1.3080    -0.0070 O.2   1 <1>  -0.6500 
  4 C       -1.7690    -0.5430     1.1400 C.3   1 <1>   0.0060 
  5 C        0.9870    -0.8640     0.5110 C.3   1 <1>  -0.1350 
  6 C       -1.8650    -2.0340     1.2530 C.2   1 <1>   0.5690 
  7 O       -1.1040    -2.5740     2.0180 O.2   1 <1>  -0.5700 
  8 N       -2.7760    -2.7510     0.5290 N.am  1 <1>  -0.6600 
  9 C       -3.6420    -2.2440    -0.5720 C.3   1 <1>   0.1400 
 10 C       -2.8640    -4.2330     0.6010 C.3   1 <1>   0.1400 
 11 C       -4.6010    -3.3960    -0.8600 C.3   1 <1>   0.2000 
 12 C       -3.7590    -4.6470    -0.5770 C.3   1 <1>  -0.0800 
 13 O       -5.6480    -3.3190     0.0490 O.3   1 <1>  -0.6800 
 14 C       -4.5850    -5.9270    -0.3270 C.3   1 <1>  -0.0170 
 15 C       -3.8060    -7.2420    -0.1940 C.ar  1 <1>  -0.1440 
 16 C       -4.4810    -8.4140     0.2310 C.ar  1 <1>   0.0000 
 17 C       -2.4740    -7.3660    -0.4790 C.ar  1 <1>  -0.1500 
 18 C       -3.7290    -9.6090     0.3540 C.ar  1 <1>   0.3100 
 19 C       -5.8630    -8.4750     0.5350 C.ar  1 <1>  -0.1500 
 20 C       -1.8270    -8.5990    -0.3290 C.ar  1 <1>   0.1600 
 21 N       -2.4060    -9.6840     0.0710 N.ar  1 <1>  -0.6200 
 22 C       -4.3730   -10.7810     0.7830 C.ar  1 <1>  -0.1500 
 23 C       -6.4610    -9.6340     0.9490 C.ar  1 <1>  -0.1500 
 24 C       -5.7090   -10.8040     1.0770 C.ar  1 <1>  -0.1500 
 25 H       -1.5000    -0.1440     2.0980 H     1 <1>   0.0800 
 26 H       -2.7160    -0.1290     0.8630 H     1 <1>   0.0800 
 27 H        0.9140    -1.9350     0.5120 H     1 <1>   0.0800 
 28 H        1.2170    -0.5340     1.5050 H     1 <1>   0.0800 
 29 H        1.7960    -0.5840    -0.1350 H     1 <1>   0.0800 
 30 H       -4.1740    -1.3490    -0.3010 H     1 <1>   0.0800 
 31 H       -3.0360    -2.0570    -1.4420 H     1 <1>   0.0800 
 32 H       -1.8840    -4.6740     0.5330 H     1 <1>   0.0800 
 33 H       -3.3110    -4.5130     1.5400 H     1 <1>   0.0800 
 34 H       -5.0080    -3.3680    -1.8560 H     1 <1>   0.0800 
 35 H       -3.1330    -4.7980    -1.4380 H     1 <1>   0.0800 
 36 H       -5.2790    -3.2190     0.9490 H     1 <1>   0.4000 
 37 H       -5.2890    -6.0390    -1.1340 H     1 <1>   0.0800 
 38 H       -5.1520    -5.7840     0.5760 H     1 <1>   0.0800 
 39 H       -1.8740    -6.5480    -0.8250 H     1 <1>   0.1500 
 40 H       -6.4670    -7.5930     0.4390 H     1 <1>   0.1500 
 41 H       -0.7770    -8.6460    -0.5630 H     1 <1>   0.1500 
 42 H       -3.7740   -11.6680     0.8720 H     1 <1>   0.1500 
 43 H       -7.5120    -9.6610     1.1780 H     1 <1>   0.1500 
 44 H       -6.1890   -11.7090     1.4050 H     1 <1>   0.1500 
@<TRIPOS>BOND
  1   1   2  2   
  2   1   3  2   
  3   1   4  1   
  4   1   5  1   
  5   4   6  1   
  6   4  25  1   
  7   4  26  1   
  8   5  27  1   
  9   5  28  1   
 10   5  29  1   
 11   6   7  2   
 12   6   8  am  
 13   8   9  1   
 14   8  10  1   
 15   9  11  1   
 16   9  30  1   
 17   9  31  1   
 18  10  12  1   
 19  10  32  1   
 20  10  33  1   
 21  11  12  1   
 22  11  13  1   
 23  11  34  1   
 24  12  14  1   
 25  12  35  1   
 26  13  36  1   
 27  14  15  1   
 28  14  37  1   
 29  14  38  1   
 30  15  16  ar  
 31  15  17  ar  
 32  16  18  ar  
 33  16  19  ar  
 34  17  20  ar  
 35  17  39  1   
 36  18  21  ar  
 37  18  22  ar  
 38  19  23  ar  
 39  19  40  1   
 40  20  21  ar  
 41  20  41  1   
 42  22  24  ar  
 43  22  42  1   
 44  23  24  ar  
 45  23  43  1   
 46  24  44  1   
@<TRIPOS>SUBSTRUCTURE
  1 ****  10 GROUP 4 **** **** 0

# MOE 2024.06 (io_trps.svl 2023.06)
