@<TRIPOS>MOLECULE
NONAME
45 47 1 0 0 
SMALL
USER_CHARGES


@<TRIPOS>ATOM
  1 F        0.5100    -0.8960    -0.6790 F     1 <1>  -0.1900 
  2 C        0.1180    -2.1020    -0.3600 C.ar  1 <1>   0.1900 
  3 C       -0.4900    -2.8810    -1.3260 C.ar  1 <1>  -0.1500 
  4 C        0.3270    -2.5510     0.9290 C.ar  1 <1>  -0.1500 
  5 C       -0.9060    -4.1590    -0.9880 C.ar  1 <1>  -0.1500 
  6 C       -0.0920    -3.8290     1.2590 C.ar  1 <1>  -0.1500 
  7 C       -0.7080    -4.6350     0.3090 C.ar  1 <1>   0.0830 
  8 O       -1.0880    -5.8700     0.7230 O.3   1 <1>  -0.3630 
  9 C       -1.7920    -6.7450    -0.1230 C.3   1 <1>   0.1200 
 10 C       -2.1160    -8.0020     0.6900 C.3   1 <1>   0.3430 
 11 N       -2.7800    -9.0750    -0.1250 N.4   1 <1>  -0.9590 
 12 C       -4.1780    -8.6820    -0.5180 C.3   1 <1>   0.3430 
 13 C       -2.9100   -10.3140     0.7130 C.3   1 <1>   0.3430 
 14 C       -5.1120    -9.3900     0.4670 C.3   1 <1>   0.2000 
 15 C       -4.3930   -10.7060     0.7380 C.3   1 <1>  -0.0800 
 16 O       -5.1350    -8.6560     1.6460 O.3   1 <1>  -0.6800 
 17 C       -4.7250   -11.7770    -0.3210 C.3   1 <1>  -0.0170 
 18 C       -3.8050   -12.9790    -0.1840 C.ar  1 <1>  -0.1430 
 19 C       -2.8880   -13.3140    -1.1620 C.ar  1 <1>  -0.1500 
 20 C       -3.8330   -13.7960     0.9290 C.ar  1 <1>  -0.1500 
 21 C       -2.0530   -14.4030    -0.9740 C.ar  1 <1>   0.1600 
 22 C       -2.9530   -14.8620     1.0190 C.ar  1 <1>   0.1600 
 23 N       -2.0580   -15.1750     0.0980 N.ar  1 <1>  -0.6200 
 24 H       -0.6320    -2.4900    -2.3180 H     1 <1>   0.1500 
 25 H        0.8040    -1.9150     1.6530 H     1 <1>   0.1500 
 26 H       -1.3750    -4.7560    -1.7460 H     1 <1>   0.1500 
 27 H        0.0580    -4.2050     2.2550 H     1 <1>   0.1500 
 28 H       -2.6890    -6.2470    -0.4440 H     1 <1>   0.0800 
 29 H       -1.1560    -6.9800    -0.9590 H     1 <1>   0.0800 
 30 H       -2.7570    -7.7280     1.5130 H     1 <1>   0.0800 
 31 H       -1.1930    -8.3850     1.0950 H     1 <1>   0.0800 
 32 H       -2.2120    -9.2820    -0.9570 H     1 <1>   0.4500 
 33 H       -4.3310    -7.6160    -0.4870 H     1 <1>   0.0800 
 34 H       -4.3840    -9.0390    -1.5130 H     1 <1>   0.0800 
 35 H       -2.2970   -11.1140     0.3300 H     1 <1>   0.0800 
 36 H       -2.5960   -10.1020     1.7230 H     1 <1>   0.0800 
 37 H       -6.1190    -9.4930     0.0960 H     1 <1>   0.0800 
 38 H       -4.6530   -11.0980     1.7060 H     1 <1>   0.0800 
 39 H       -5.8530    -8.9570     2.2440 H     1 <1>   0.4000 
 40 H       -4.6350   -11.3750    -1.3150 H     1 <1>   0.0800 
 41 H       -5.7450   -12.1040    -0.1990 H     1 <1>   0.0800 
 42 H       -2.8100   -12.7500    -2.0740 H     1 <1>   0.1500 
 43 H       -4.5290   -13.6240     1.7300 H     1 <1>   0.1500 
 44 H       -1.3450   -14.6550    -1.7460 H     1 <1>   0.1500 
 45 H       -2.9870   -15.4910     1.8940 H     1 <1>   0.1500 
@<TRIPOS>BOND
  1   1   2  1   
  2   2   3  ar  
  3   2   4  ar  
  4   3   5  ar  
  5   3  24  1   
  6   4   6  ar  
  7   4  25  1   
  8   5   7  ar  
  9   5  26  1   
 10   6   7  ar  
 11   6  27  1   
 12   7   8  1   
 13   8   9  1   
 14   9  10  1   
 15   9  28  1   
 16   9  29  1   
 17  10  11  1   
 18  10  30  1   
 19  10  31  1   
 20  11  12  1   
 21  11  13  1   
 22  11  32  1   
 23  12  14  1   
 24  12  33  1   
 25  12  34  1   
 26  13  15  1   
 27  13  35  1   
 28  13  36  1   
 29  14  15  1   
 30  14  16  1   
 31  14  37  1   
 32  15  17  1   
 33  15  38  1   
 34  16  39  1   
 35  17  18  1   
 36  17  40  1   
 37  17  41  1   
 38  18  19  ar  
 39  18  20  ar  
 40  19  21  ar  
 41  19  42  1   
 42  20  22  ar  
 43  20  43  1   
 44  21  23  ar  
 45  21  44  1   
 46  22  23  ar  
 47  22  45  1   
@<TRIPOS>SUBSTRUCTURE
  1 ****  10 GROUP 4 **** **** 0

# MOE 2024.06 (io_trps.svl 2023.06)
