@<TRIPOS>MOLECULE
NONAME
33 34 1 0 0 
SMALL
USER_CHARGES


@<TRIPOS>ATOM
  1 O        1.1660    -0.8650    -2.0970 O.2   1 <1>  -0.5700 
  2 C        0.7470    -1.5620    -1.2080 C.2   1 <1>   0.4230 
  3 C        1.5670    -2.4030    -0.3820 C.ar  1 <1>   0.0860 
  4 C       -0.7360    -1.5300    -0.9190 C.3   1 <1>  -0.0990 
  5 C        0.9630    -3.2410     0.5600 C.ar  1 <1>   0.0830 
  6 C        2.9610    -2.4130    -0.4630 C.ar  1 <1>  -0.1500 
  7 C       -1.2430    -2.8810    -0.3800 C.3   1 <1>   0.2800 
  8 O       -0.3820    -3.3040     0.6740 O.3   1 <1>  -0.3630 
  9 C        1.7240    -4.0350     1.4010 C.ar  1 <1>  -0.1500 
 10 C        3.7210    -3.2120     0.3700 C.ar  1 <1>  -0.1500 
 11 C       -2.6770    -2.7190     0.2140 C.3   1 <1>   0.4800 
 12 C       -1.1960    -3.9670    -1.4760 C.3   1 <1>  -0.2400 
 13 C        3.1030    -4.0230     1.3080 C.ar  1 <1>  -0.1500 
 14 O       -3.1990    -3.9470     0.6360 O.3   1 <1>  -0.5600 
 15 O       -3.5600    -2.2170    -0.7510 O.3   1 <1>  -0.5600 
 16 C       -4.3710    -3.8870     1.3820 C.3   1 <1>   0.0400 
 17 C       -4.2170    -1.0400    -0.3990 C.3   1 <1>   0.0400 
 18 H       -1.2660    -1.2790    -1.8200 H     1 <1>   0.0800 
 19 H       -0.9230    -0.7550    -0.2010 H     1 <1>   0.0800 
 20 H        3.4430    -1.7810    -1.1890 H     1 <1>   0.1500 
 21 H        1.2300    -4.6640     2.1200 H     1 <1>   0.1500 
 22 H        4.7950    -3.2030     0.2930 H     1 <1>   0.1500 
 23 H       -2.6400    -2.0500     1.0580 H     1 <1>   0.0800 
 24 H       -0.2140    -4.0680    -1.8990 H     1 <1>   0.0800 
 25 H       -1.8800    -3.7150    -2.2680 H     1 <1>   0.0800 
 26 H       -1.4980    -4.9150    -1.0690 H     1 <1>   0.0800 
 27 H        3.6950    -4.6430     1.9600 H     1 <1>   0.1500 
 28 H       -4.6000    -4.8820     1.7210 H     1 <1>   0.0800 
 29 H       -5.1710    -3.5310     0.7560 H     1 <1>   0.0800 
 30 H       -4.2260    -3.2390     2.2280 H     1 <1>   0.0800 
 31 H       -4.8780    -0.7740    -1.2050 H     1 <1>   0.0800 
 32 H       -3.4940    -0.2570    -0.2520 H     1 <1>   0.0800 
 33 H       -4.7890    -1.2020     0.4980 H     1 <1>   0.0800 
@<TRIPOS>BOND
  1   1   2  2   
  2   2   3  1   
  3   2   4  1   
  4   3   5  ar  
  5   3   6  ar  
  6   4   7  1   
  7   4  18  1   
  8   4  19  1   
  9   5   8  1   
 10   5   9  ar  
 11   6  10  ar  
 12   6  20  1   
 13   7   8  1   
 14   7  11  1   
 15   7  12  1   
 16   9  13  ar  
 17   9  21  1   
 18  10  13  ar  
 19  10  22  1   
 20  11  14  1   
 21  11  15  1   
 22  11  23  1   
 23  12  24  1   
 24  12  25  1   
 25  12  26  1   
 26  13  27  1   
 27  14  16  1   
 28  15  17  1   
 29  16  28  1   
 30  16  29  1   
 31  16  30  1   
 32  17  31  1   
 33  17  32  1   
 34  17  33  1   
@<TRIPOS>SUBSTRUCTURE
  1 ****   8 GROUP 4 **** **** 0

# MOE 2024.06 (io_trps.svl 2023.06)
