@<TRIPOS>MOLECULE
NONAME
46 48 1 0 0 
SMALL
USER_CHARGES


@<TRIPOS>ATOM
  1 O        0.2090     0.2890     0.5130 O.co2 1 <1>  -0.9000 
  2 C        1.3830     0.0400     0.7810 C.2   1 <1>   0.9060 
  3 O        1.7070    -0.4900     1.8560 O.co2 1 <1>  -0.9000 
  4 C        2.4610     0.3310    -0.2790 C.3   1 <1>  -0.1060 
  5 C        3.8600     0.0160     0.2820 C.3   1 <1>   0.4230 
  6 C        2.3660     1.8410    -0.6730 C.3   1 <1>  -0.1600 
  7 C        2.2590    -0.5920    -1.5030 C.3   1 <1>  -0.1600 
  8 N        3.9280    -1.3970     0.7840 N.4   1 <1>  -0.9590 
  9 C        4.2740     1.1530     1.2340 C.3   1 <1>   0.2090 
 10 C        3.7080     2.5820    -0.7960 C.3   1 <1>   0.2090 
 11 C        2.4080    -2.0700    -1.0880 C.3   1 <1>  -0.1600 
 12 C        3.7080    -2.3640    -0.3260 C.3   1 <1>   0.3430 
 13 C        5.1400    -1.7070     1.5840 C.3   1 <1>   0.2630 
 14 N        4.6070     2.3430     0.3800 N.pl3 1 <1>  -0.8380 
 15 C        5.9300     2.6610     0.2000 C.ar  1 <1>   0.4100 
 16 N        6.7840     1.6530     0.0320 N.ar  1 <1>  -0.6200 
 17 C        6.3240     3.9940     0.1710 C.ar  1 <1>  -0.1500 
 18 C        8.0450     1.9940    -0.1680 C.ar  1 <1>   0.1600 
 19 C        7.6400     4.3220    -0.0380 C.ar  1 <1>  -0.1500 
 20 C        8.5620     3.2930    -0.2200 C.ar  1 <1>   0.0860 
 21 C        9.9580     3.5850    -0.4460 C.2   1 <1>   0.4230 
 22 O       10.3940     4.7070    -0.4860 O.2   1 <1>  -0.5700 
 23 C       10.9630     2.4670    -0.6500 C.3   1 <1>  -0.1790 
 24 H        4.5580     0.0820    -0.5350 H     1 <1>   0.0800 
 25 H        1.8000     2.3640     0.0800 H     1 <1>   0.0800 
 26 H        1.8060     1.9510    -1.5850 H     1 <1>   0.0800 
 27 H        1.2720    -0.4380    -1.9100 H     1 <1>   0.0800 
 28 H        2.9760    -0.3520    -2.2680 H     1 <1>   0.0800 
 29 H        3.0800    -1.4250     1.4130 H     1 <1>   0.4500 
 30 H        5.1340     0.8840     1.8180 H     1 <1>   0.0800 
 31 H        3.4730     1.4030     1.9080 H     1 <1>   0.0800 
 32 H        3.5220     3.6390    -0.8880 H     1 <1>   0.0800 
 33 H        4.2110     2.2560    -1.6910 H     1 <1>   0.0800 
 34 H        2.3660    -2.6910    -1.9640 H     1 <1>   0.0800 
 35 H        1.5750    -2.3520    -0.4660 H     1 <1>   0.0800 
 36 H        4.5360    -2.3040    -1.0130 H     1 <1>   0.0800 
 37 H        3.6670    -3.3660     0.0680 H     1 <1>   0.0800 
 38 H        6.0270    -1.5310     0.9980 H     1 <1>   0.0800 
 39 H        5.1220    -2.7370     1.9000 H     1 <1>   0.0800 
 40 H        5.1720    -1.0840     2.4630 H     1 <1>   0.0800 
 41 H        5.5800     4.7540     0.3200 H     1 <1>   0.1500 
 42 H        8.7260     1.1730    -0.3030 H     1 <1>   0.1500 
 43 H        7.9620     5.3500    -0.0610 H     1 <1>   0.1500 
 44 H       10.6990     1.8830    -1.5120 H     1 <1>   0.0800 
 45 H       11.0020     1.8390     0.2210 H     1 <1>   0.0800 
 46 H       11.9420     2.8830    -0.8100 H     1 <1>   0.0800 
@<TRIPOS>BOND
  1   1   2  ar  
  2   2   3  ar  
  3   2   4  1   
  4   4   5  1   
  5   4   6  1   
  6   4   7  1   
  7   5   8  1   
  8   5   9  1   
  9   5  24  1   
 10   6  10  1   
 11   6  25  1   
 12   6  26  1   
 13   7  11  1   
 14   7  27  1   
 15   7  28  1   
 16   8  12  1   
 17   8  13  1   
 18   8  29  1   
 19   9  14  1   
 20   9  30  1   
 21   9  31  1   
 22  10  14  1   
 23  10  32  1   
 24  10  33  1   
 25  11  12  1   
 26  11  34  1   
 27  11  35  1   
 28  12  36  1   
 29  12  37  1   
 30  13  38  1   
 31  13  39  1   
 32  13  40  1   
 33  14  15  1   
 34  15  16  ar  
 35  15  17  ar  
 36  16  18  ar  
 37  17  19  ar  
 38  17  41  1   
 39  18  20  ar  
 40  18  42  1   
 41  19  20  ar  
 42  19  43  1   
 43  20  21  1   
 44  21  22  2   
 45  21  23  1   
 46  23  44  1   
 47  23  45  1   
 48  23  46  1   
@<TRIPOS>SUBSTRUCTURE
  1 ****  14 GROUP 4 **** **** 0

# MOE 2024.06 (io_trps.svl 2023.06)
