@<TRIPOS>MOLECULE
NONAME
51 54 1 0 0 
SMALL
USER_CHARGES


@<TRIPOS>ATOM
  1 CL      -0.9290     0.7600    -3.0800 Cl    1 <1>  -0.1770 
  2 C       -2.0450     1.4190    -1.9150 C.ar  1 <1>   0.1770 
  3 C       -1.8650     2.6890    -1.4440 C.ar  1 <1>  -0.1500 
  4 C       -3.1070     0.6290    -1.4860 C.ar  1 <1>  -0.1500 
  5 C       -2.7550     3.2390    -0.5020 C.ar  1 <1>   0.0000 
  6 C       -4.0010     1.1250    -0.5670 C.ar  1 <1>  -0.1440 
  7 C       -3.8330     2.4350    -0.0650 C.ar  1 <1>   0.3610 
  8 C       -2.6110     4.5620     0.0230 C.ar  1 <1>   0.1000 
  9 C       -5.1560     0.2310    -0.1170 C.3   1 <1>  -0.0960 
 10 N       -4.7140     2.9560     0.8590 N.ar  1 <1>  -0.1790 
 11 N       -1.5990     5.3610    -0.3750 N.pl3 1 <1>  -0.8690 
 12 C       -3.5520     5.0000     0.9560 C.ar  1 <1>  -0.1500 
 13 C       -4.5840     4.1970     1.3600 C.ar  1 <1>   0.2110 
 14 C       -1.2940     6.7560     0.1020 C.3   1 <1>   0.2090 
 15 C        0.0750     7.3220    -0.3500 C.3   1 <1>   0.3330 
 16 N        1.2180     6.7970     0.4690 N.3   1 <1>  -0.8100 
 17 C       -0.0290     8.8600    -0.3250 C.ar  1 <1>   0.1670 
 18 C        2.4690     7.5660     0.2570 C.3   1 <1>   0.1100 
 19 C        1.4810     5.3530     0.2720 C.3   1 <1>   0.1100 
 20 N       -0.5690     9.4380     0.7460 N.ar  1 <1>  -0.6200 
 21 C        0.4340     9.5760    -1.4230 C.ar  1 <1>  -0.1500 
 22 C        3.6430     6.9950     1.0700 C.3   1 <1>   0.1200 
 23 C        2.6970     4.8720     1.0840 C.3   1 <1>   0.1200 
 24 C       -0.6360    10.7590     0.7240 C.ar  1 <1>   0.1600 
 25 C        0.3530    10.9520    -1.4340 C.ar  1 <1>  -0.1500 
 26 O        3.8220     5.6400     0.7790 O.3   1 <1>  -0.5600 
 27 C       -0.1980    11.5500    -0.3230 C.ar  1 <1>  -0.1500 
 28 H       -1.0310     3.2600    -1.8070 H     1 <1>   0.1500 
 29 H       -3.1950    -0.3640    -1.8960 H     1 <1>   0.1500 
 30 H       -5.1100    -0.7250    -0.6110 H     1 <1>   0.0800 
 31 H       -6.1040     0.6770    -0.3650 H     1 <1>   0.0800 
 32 H       -5.1080     0.0480     0.9420 H     1 <1>   0.0800 
 33 H       -5.4840     2.3530     1.1560 H     1 <1>   0.4570 
 34 H       -0.9210     5.0350    -1.0730 H     1 <1>   0.4000 
 35 H       -3.4680     5.9900     1.3670 H     1 <1>   0.1500 
 36 H       -5.3040     4.5510     2.0820 H     1 <1>   0.1500 
 37 H       -1.3330     6.7990     1.1770 H     1 <1>   0.0800 
 38 H       -2.0660     7.4040    -0.2780 H     1 <1>   0.0800 
 39 H        0.2280     7.0330    -1.3740 H     1 <1>   0.0800 
 40 H        2.3250     8.5870     0.5660 H     1 <1>   0.0800 
 41 H        2.7340     7.5600    -0.7860 H     1 <1>   0.0800 
 42 H        1.6580     5.1480    -0.7700 H     1 <1>   0.0800 
 43 H        0.6320     4.7810     0.5980 H     1 <1>   0.0800 
 44 H        0.8600     9.0640    -2.2670 H     1 <1>   0.1500 
 45 H        3.4600     7.1030     2.1240 H     1 <1>   0.0800 
 46 H        4.5540     7.5080     0.8200 H     1 <1>   0.0800 
 47 H        2.9250     3.8490     0.8470 H     1 <1>   0.0800 
 48 H        2.5010     4.9500     2.1390 H     1 <1>   0.0800 
 49 H       -1.0640    11.2370     1.5880 H     1 <1>   0.1500 
 50 H        0.7040    11.5320    -2.2700 H     1 <1>   0.1500 
 51 H       -0.2890    12.6200    -0.2650 H     1 <1>   0.1500 
@<TRIPOS>BOND
  1   1   2  1   
  2   2   3  ar  
  3   2   4  ar  
  4   3   5  ar  
  5   3  28  1   
  6   4   6  ar  
  7   4  29  1   
  8   5   7  ar  
  9   5   8  ar  
 10   6   7  ar  
 11   6   9  1   
 12   7  10  ar  
 13   8  11  1   
 14   8  12  ar  
 15   9  30  1   
 16   9  31  1   
 17   9  32  1   
 18  10  13  ar  
 19  10  33  1   
 20  11  14  1   
 21  11  34  1   
 22  12  13  ar  
 23  12  35  1   
 24  13  36  1   
 25  14  15  1   
 26  14  37  1   
 27  14  38  1   
 28  15  16  1   
 29  15  17  1   
 30  15  39  1   
 31  16  18  1   
 32  16  19  1   
 33  17  20  ar  
 34  17  21  ar  
 35  18  22  1   
 36  18  40  1   
 37  18  41  1   
 38  19  23  1   
 39  19  42  1   
 40  19  43  1   
 41  20  24  ar  
 42  21  25  ar  
 43  21  44  1   
 44  22  26  1   
 45  22  45  1   
 46  22  46  1   
 47  23  26  1   
 48  23  47  1   
 49  23  48  1   
 50  24  27  ar  
 51  24  49  1   
 52  25  27  ar  
 53  25  50  1   
 54  27  51  1   
@<TRIPOS>SUBSTRUCTURE
  1 ****  11 GROUP 4 **** **** 0

# MOE 2024.06 (io_trps.svl 2023.06)
