@<TRIPOS>MOLECULE
NONAME
57 59 1 0 0 
SMALL
USER_CHARGES


@<TRIPOS>ATOM
  1 O        3.8500     4.4300     0.3580 O.co2 1 <1>  -0.9000 
  2 C        3.6920     3.3330     0.9140 C.2   1 <1>   0.9060 
  3 O        3.8890     3.2250     2.1300 O.co2 1 <1>  -0.9000 
  4 C        3.3990     2.0620     0.0960 C.3   1 <1>  -0.1060 
  5 C        4.7140     1.2580     0.1270 C.3   1 <1>   0.2000 
  6 C        3.0420     2.3570    -1.3910 C.3   1 <1>  -0.1600 
  7 C        2.2590     1.2510     0.7710 C.3   1 <1>  -0.0160 
  8 O        4.5800     0.0830    -0.6000 O.3   1 <1>  -0.6800 
  9 C        5.8350     2.0500    -0.5620 C.3   1 <1>   0.1100 
 10 C        4.1800     3.0060    -2.1900 C.3   1 <1>   0.1100 
 11 C        0.8790     1.8940     0.6560 C.ar  1 <1>  -0.1430 
 12 N        5.4950     2.3540    -1.9820 N.3   1 <1>  -0.8100 
 13 C       -0.0470     1.4110    -0.2560 C.ar  1 <1>  -0.1500 
 14 C        0.5350     2.9670     1.4640 C.ar  1 <1>  -0.1500 
 15 C        6.5780     3.1600    -2.6230 C.3   1 <1>   0.1710 
 16 C       -1.2990     1.9930    -0.3610 C.ar  1 <1>  -0.1500 
 17 C       -0.7150     3.5510     1.3600 C.ar  1 <1>  -0.1500 
 18 C        6.9270     4.5700    -2.0910 C.2   1 <1>   0.5690 
 19 C       -1.6340     3.0640     0.4480 C.ar  1 <1>  -0.1500 
 20 O        7.8320     5.1460    -2.6510 O.2   1 <1>  -0.5700 
 21 N        6.2710     5.1520    -1.0490 N.am  1 <1>  -0.7300 
 22 C        6.6330     6.4150    -0.3800 C.3   1 <1>   0.2840 
 23 C        7.3880     6.1220     0.9120 C.ar  1 <1>  -0.1430 
 24 C        8.7030     6.5370     1.1010 C.ar  1 <1>   0.0830 
 25 C        6.7550     5.4310     1.9350 C.ar  1 <1>  -0.1500 
 26 O        9.3530     7.2220     0.1380 O.3   1 <1>  -0.3620 
 27 C        9.3660     6.2650     2.2890 C.ar  1 <1>  -0.1500 
 28 C        7.4180     5.1500     3.1170 C.ar  1 <1>  -0.1500 
 29 C       10.2000     6.4520    -0.6840 C.3   1 <1>   0.0400 
 30 C        8.7250     5.5680     3.2970 C.ar  1 <1>  -0.1500 
 31 H        4.9860     1.0070     1.1390 H     1 <1>   0.0800 
 32 H        2.1970     3.0220    -1.4250 H     1 <1>   0.0800 
 33 H        2.7500     1.4490    -1.8850 H     1 <1>   0.0800 
 34 H        2.2120     0.2690     0.3360 H     1 <1>   0.0800 
 35 H        2.4900     1.1110     1.8130 H     1 <1>   0.0800 
 36 H        4.6690     0.3700    -1.5360 H     1 <1>   0.4000 
 37 H        6.7360     1.4640    -0.5280 H     1 <1>   0.0800 
 38 H        6.0250     2.9440    -0.0010 H     1 <1>   0.0800 
 39 H        4.2260     4.0470    -1.9340 H     1 <1>   0.0800 
 40 H        3.9330     2.9610    -3.2360 H     1 <1>   0.0800 
 41 H        0.2080     0.5800    -0.8890 H     1 <1>   0.1500 
 42 H        1.2490     3.3530     2.1740 H     1 <1>   0.1500 
 43 H        7.4840     2.5830    -2.5810 H     1 <1>   0.0800 
 44 H        6.3370     3.2710    -3.6640 H     1 <1>   0.0800 
 45 H       -2.0100     1.6120    -1.0730 H     1 <1>   0.1500 
 46 H       -0.9630     4.3860     1.9910 H     1 <1>   0.1500 
 47 H       -2.6050     3.5200     0.3670 H     1 <1>   0.1500 
 48 H        5.4450     4.6940    -0.6080 H     1 <1>   0.3700 
 49 H        7.2230     7.0210    -1.0440 H     1 <1>   0.0800 
 50 H        5.7300     6.9510    -0.1480 H     1 <1>   0.0800 
 51 H        5.7340     5.1020     1.8190 H     1 <1>   0.1500 
 52 H       10.3770     6.6030     2.4180 H     1 <1>   0.1500 
 53 H        6.9000     4.6050     3.8880 H     1 <1>   0.1500 
 54 H       10.4790     7.0480    -1.5340 H     1 <1>   0.0800 
 55 H        9.6690     5.5750    -1.0090 H     1 <1>   0.0800 
 56 H       11.0700     6.1720    -0.1200 H     1 <1>   0.0800 
 57 H        9.2360     5.3510     4.2180 H     1 <1>   0.1500 
@<TRIPOS>BOND
  1   1   2  ar  
  2   2   3  ar  
  3   2   4  1   
  4   4   5  1   
  5   4   6  1   
  6   4   7  1   
  7   5   8  1   
  8   5   9  1   
  9   5  31  1   
 10   6  10  1   
 11   6  32  1   
 12   6  33  1   
 13   7  11  1   
 14   7  34  1   
 15   7  35  1   
 16   8  36  1   
 17   9  12  1   
 18   9  37  1   
 19   9  38  1   
 20  10  12  1   
 21  10  39  1   
 22  10  40  1   
 23  11  13  ar  
 24  11  14  ar  
 25  12  15  1   
 26  13  16  ar  
 27  13  41  1   
 28  14  17  ar  
 29  14  42  1   
 30  15  18  1   
 31  15  43  1   
 32  15  44  1   
 33  16  19  ar  
 34  16  45  1   
 35  17  19  ar  
 36  17  46  1   
 37  18  20  2   
 38  18  21  am  
 39  19  47  1   
 40  21  22  1   
 41  21  48  1   
 42  22  23  1   
 43  22  49  1   
 44  22  50  1   
 45  23  24  ar  
 46  23  25  ar  
 47  24  26  1   
 48  24  27  ar  
 49  25  28  ar  
 50  25  51  1   
 51  26  29  1   
 52  27  30  ar  
 53  27  52  1   
 54  28  30  ar  
 55  28  53  1   
 56  29  54  1   
 57  29  55  1   
 58  29  56  1   
 59  30  57  1   
@<TRIPOS>SUBSTRUCTURE
  1 ****   1 GROUP 4 **** **** 0

# MOE 2024.06 (io_trps.svl 2023.06)
