@<TRIPOS>MOLECULE
NONAME
42 45 1 0 0 
SMALL
USER_CHARGES


@<TRIPOS>ATOM
  1 O       -0.2970     0.3990     0.2900 O.2   1 <1>  -0.5700 
  2 C       -1.3500     0.9910     0.4320 C.2   1 <1>   0.5440 
  3 N       -2.5180     0.2620     0.4230 N.am  1 <1>  -0.6600 
  4 C       -1.3520     2.4330     0.5860 C.ar  1 <1>   0.0860 
  5 C       -3.8520     0.8140     0.0770 C.3   1 <1>   0.1400 
  6 C       -2.5160    -1.2170     0.2970 C.3   1 <1>   0.1400 
  7 C       -0.5970     3.2380    -0.2720 C.ar  1 <1>  -0.1500 
  8 C       -2.1000     3.0600     1.5970 C.ar  1 <1>  -0.1500 
  9 C       -4.6180    -0.3660    -0.5200 C.3   1 <1>   0.2000 
 10 C       -3.9800    -1.6100     0.0920 C.3   1 <1>  -0.0800 
 11 C       -0.6280     4.6070    -0.1110 C.ar  1 <1>   0.0830 
 12 C       -2.1210     4.4390     1.7480 C.ar  1 <1>  -0.1500 
 13 O       -5.9660    -0.3150    -0.2070 O.3   1 <1>  -0.6800 
 14 C       -4.1630    -2.8670    -0.7710 C.3   1 <1>   0.0200 
 15 O        0.0110     5.5410    -0.8230 O.3   1 <1>  -0.3630 
 16 C       -1.3710     5.1940     0.8710 C.ar  1 <1>   0.0830 
 17 C       -3.4530    -4.0560    -0.1550 C.2   1 <1>  -0.0400 
 18 C       -0.3400     6.8010    -0.2540 C.3   1 <1>   0.4000 
 19 O       -1.2340     6.5200     0.8200 O.3   1 <1>  -0.3630 
 20 O       -3.8290    -4.5090     1.0120 O.3   1 <1>  -0.0190 
 21 C       -2.4280    -4.8090    -0.5790 C.2   1 <1>  -0.1500 
 22 N       -3.1070    -5.5220     1.3930 N.2   1 <1>  -0.4100 
 23 C       -2.2540    -5.7260     0.4540 C.2   1 <1>   0.1080 
 24 C       -1.2070    -6.8170     0.4780 C.3   1 <1>  -0.0590 
 25 H       -4.3320     1.1640     0.9740 H     1 <1>   0.0800 
 26 H       -3.7630     1.6140    -0.6370 H     1 <1>   0.0800 
 27 H       -1.9180    -1.4950    -0.5540 H     1 <1>   0.0800 
 28 H       -2.1040    -1.6730     1.1820 H     1 <1>   0.0800 
 29 H        0.0030     2.7950    -1.0470 H     1 <1>   0.1500 
 30 H       -2.6660     2.4470     2.2770 H     1 <1>   0.1500 
 31 H       -4.5160    -0.3580    -1.5920 H     1 <1>   0.0800 
 32 H       -4.4000    -1.7850     1.0680 H     1 <1>   0.0800 
 33 H       -2.6950     4.9190     2.5210 H     1 <1>   0.1500 
 34 H       -6.0970    -0.3970     0.7570 H     1 <1>   0.4000 
 35 H       -3.7720    -2.6950    -1.7590 H     1 <1>   0.0800 
 36 H       -5.2120    -3.0930    -0.8630 H     1 <1>   0.0800 
 37 H        0.5430     7.2830     0.1280 H     1 <1>   0.0800 
 38 H       -0.8380     7.4060    -0.9910 H     1 <1>   0.0800 
 39 H       -1.8530    -4.7490    -1.4840 H     1 <1>   0.1500 
 40 H       -1.3430    -7.4720    -0.3610 H     1 <1>   0.0800 
 41 H       -1.2940    -7.3880     1.3850 H     1 <1>   0.0800 
 42 H       -0.2260    -6.3810     0.4340 H     1 <1>   0.0800 
@<TRIPOS>BOND
  1   1   2  2   
  2   2   3  am  
  3   2   4  1   
  4   3   5  1   
  5   3   6  1   
  6   4   7  ar  
  7   4   8  ar  
  8   5   9  1   
  9   5  25  1   
 10   5  26  1   
 11   6  10  1   
 12   6  27  1   
 13   6  28  1   
 14   7  11  ar  
 15   7  29  1   
 16   8  12  ar  
 17   8  30  1   
 18   9  10  1   
 19   9  13  1   
 20   9  31  1   
 21  10  14  1   
 22  10  32  1   
 23  11  15  1   
 24  11  16  ar  
 25  12  16  ar  
 26  12  33  1   
 27  13  34  1   
 28  14  17  1   
 29  14  35  1   
 30  14  36  1   
 31  15  18  1   
 32  16  19  1   
 33  17  20  1   
 34  17  21  2   
 35  18  19  1   
 36  18  37  1   
 37  18  38  1   
 38  20  22  1   
 39  21  23  1   
 40  21  39  1   
 41  22  23  2   
 42  23  24  1   
 43  24  40  1   
 44  24  41  1   
 45  24  42  1   
@<TRIPOS>SUBSTRUCTURE
  1 ****   3 GROUP 4 **** **** 0

# MOE 2024.06 (io_trps.svl 2023.06)
