@<TRIPOS>MOLECULE
NONAME
43 44 1 0 0 
SMALL
USER_CHARGES


@<TRIPOS>ATOM
  1 S        0.2480     0.2500    -0.6690 S.o2  1 <1>   1.3330 
  2 O        0.8300    -1.0280    -0.9920 O.2   1 <1>  -0.6500 
  3 O       -0.4460     1.0110    -1.6790 O.2   1 <1>  -0.6500 
  4 N        1.5400     1.1780    -0.1430 N.am  1 <1>  -0.9140 
  5 C       -0.7590     0.0930     0.7900 C.3   1 <1>  -0.1350 
  6 C        1.3630     2.6160    -0.3090 C.3   1 <1>   0.1960 
  7 C        2.5710     3.3400     0.2810 C.3   1 <1>  -0.0990 
  8 C        2.4290     4.8390     0.1260 C.2   1 <1>   0.5690 
  9 O        1.3730     5.3460     0.4100 O.2   1 <1>  -0.5700 
 10 N        3.5180     5.5430    -0.3110 N.am  1 <1>  -0.4940 
 11 C        3.7410     6.9210    -0.5360 C.2   1 <1>  -0.0880 
 12 N        2.8480     7.9010    -0.8530 N.pl3 1 <1>   0.3140 
 13 C        4.9690     7.5120    -0.5030 C.2   1 <1>  -0.0540 
 14 N        3.4640     9.0920    -1.0220 N.2   1 <1>  -0.7070 
 15 C        1.4020     7.8070    -1.0930 C.3   1 <1>   0.0160 
 16 C        6.2400     6.8980    -0.2200 C.ar  1 <1>   0.0540 
 17 C        4.7150     8.8520    -0.8070 C.2   1 <1>   0.1080 
 18 C        6.4910     6.3210     1.0220 C.ar  1 <1>  -0.1500 
 19 C        7.2490     6.8590    -1.1770 C.ar  1 <1>  -0.1500 
 20 C        5.7610     9.9420    -0.8830 C.3   1 <1>  -0.0590 
 21 C        7.7060     5.7200     1.2980 C.ar  1 <1>  -0.1500 
 22 C        8.4670     6.2620    -0.9070 C.ar  1 <1>  -0.1500 
 23 C        8.6970     5.6900     0.3330 C.ar  1 <1>  -0.1500 
 24 H        2.3040     0.8670    -0.7430 H     1 <1>   0.4200 
 25 H       -1.6130    -0.5200     0.5810 H     1 <1>   0.0800 
 26 H       -1.0970     1.0570     1.1130 H     1 <1>   0.0800 
 27 H       -0.1940    -0.3600     1.5800 H     1 <1>   0.0800 
 28 H        0.4660     2.9330     0.2000 H     1 <1>   0.0800 
 29 H        1.2620     2.8600    -1.3560 H     1 <1>   0.0800 
 30 H        3.4660     3.0060    -0.2100 H     1 <1>   0.0800 
 31 H        2.6420     3.1170     1.3300 H     1 <1>   0.0800 
 32 H        4.3750     4.9920    -0.3940 H     1 <1>   0.3700 
 33 H        1.1880     6.9110    -1.6440 H     1 <1>   0.0800 
 34 H        1.0810     8.6620    -1.6590 H     1 <1>   0.0800 
 35 H        0.8910     7.7900    -0.1490 H     1 <1>   0.0800 
 36 H        5.7230     6.3530     1.7750 H     1 <1>   0.1500 
 37 H        7.0700     7.2990    -2.1420 H     1 <1>   0.1500 
 38 H        6.5570     9.7450    -0.1890 H     1 <1>   0.0800 
 39 H        5.3150    10.8890    -0.6400 H     1 <1>   0.0800 
 40 H        6.1600     9.9900    -1.8790 H     1 <1>   0.0800 
 41 H        7.8830     5.2800     2.2640 H     1 <1>   0.1500 
 42 H        9.2370     6.2410    -1.6590 H     1 <1>   0.1500 
 43 H        9.6450     5.2260     0.5460 H     1 <1>   0.1500 
@<TRIPOS>BOND
  1   1   2  2   
  2   1   3  2   
  3   1   4  am  
  4   1   5  1   
  5   4   6  1   
  6   4  24  1   
  7   5  25  1   
  8   5  26  1   
  9   5  27  1   
 10   6   7  1   
 11   6  28  1   
 12   6  29  1   
 13   7   8  1   
 14   7  30  1   
 15   7  31  1   
 16   8   9  2   
 17   8  10  am  
 18  10  11  1   
 19  10  32  1   
 20  11  12  1   
 21  11  13  2   
 22  12  14  1   
 23  12  15  1   
 24  13  16  1   
 25  13  17  1   
 26  14  17  2   
 27  15  33  1   
 28  15  34  1   
 29  15  35  1   
 30  16  18  ar  
 31  16  19  ar  
 32  17  20  1   
 33  18  21  ar  
 34  18  36  1   
 35  19  22  ar  
 36  19  37  1   
 37  20  38  1   
 38  20  39  1   
 39  20  40  1   
 40  21  23  ar  
 41  21  41  1   
 42  22  23  ar  
 43  22  42  1   
 44  23  43  1   
@<TRIPOS>SUBSTRUCTURE
  1 ****  10 GROUP 4 **** **** 0

# MOE 2024.06 (io_trps.svl 2023.06)
