@<TRIPOS>MOLECULE
NONAME
58 61 1 0 0 
SMALL
USER_CHARGES


@<TRIPOS>ATOM
  1 O        1.5870    -0.0200     0.6950 O.3   1 <1>  -0.5600 
  2 C        2.5750    -0.9970     0.4370 C.3   1 <1>   0.4240 
  3 C        0.4910     0.0320    -0.1740 C.3   1 <1>   0.1200 
  4 C        1.9730    -2.3150    -0.0840 C.ar  1 <1>  -0.1440 
  5 C        3.2740    -1.2290     1.7830 C.3   1 <1>  -0.1600 
  6 C        3.5870    -0.3880    -0.5520 C.3   1 <1>  -0.1600 
  7 C       -0.3030    -1.2650    -0.0590 C.3   1 <1>  -0.0160 
  8 C        0.6120    -2.4460    -0.3130 C.ar  1 <1>  -0.1440 
  9 C        2.7880    -3.4120    -0.3340 C.ar  1 <1>  -0.1500 
 10 C        3.8580     0.0520     2.3880 C.3   1 <1>   0.3430 
 11 C        4.5300     0.6430     0.0790 C.3   1 <1>   0.3430 
 12 C        0.0860    -3.6430    -0.7720 C.ar  1 <1>  -0.1500 
 13 C        2.2860    -4.6160    -0.7970 C.ar  1 <1>   0.0830 
 14 N        3.9690     1.1350     1.3690 N.4   1 <1>  -0.9590 
 15 C        0.9030    -4.7430    -1.0210 C.ar  1 <1>   0.0830 
 16 O        3.2460    -5.5690    -0.9840 O.3   1 <1>  -0.3630 
 17 C        4.6570     2.3610     1.8910 C.3   1 <1>   0.4860 
 18 O        0.3780    -5.9210    -1.4710 O.3   1 <1>  -0.3630 
 19 C        2.9770    -6.8610    -1.4800 C.3   1 <1>   0.0400 
 20 C        4.4810     3.5590     0.9600 C.ar  1 <1>   0.1670 
 21 C       -1.0080    -6.1180    -1.6480 C.3   1 <1>   0.0400 
 22 N        5.2720     3.6420    -0.0910 N.ar  1 <1>  -0.6200 
 23 C        3.5240     4.5160     1.2160 C.ar  1 <1>  -0.1500 
 24 C        5.0940     4.6990    -0.8720 C.ar  1 <1>   0.4770 
 25 C        3.4220     5.5640     0.3340 C.ar  1 <1>   0.1600 
 26 N        4.2020     5.6620    -0.7170 N.ar  1 <1>  -0.6200 
 27 C        6.0130     4.8190    -2.0780 C.3   1 <1>  -0.0170 
 28 C        7.3360     5.5170    -1.7300 C.3   1 <1>  -0.2400 
 29 H        0.8400     0.1760    -1.1820 H     1 <1>   0.0800 
 30 H       -0.1210     0.8710     0.1090 H     1 <1>   0.0800 
 31 H        4.0730    -1.9360     1.6560 H     1 <1>   0.0800 
 32 H        2.5790    -1.6720     2.4750 H     1 <1>   0.0800 
 33 H        3.0700     0.0540    -1.3830 H     1 <1>   0.0800 
 34 H        4.2020    -1.1650    -0.9670 H     1 <1>   0.0800 
 35 H       -1.1040    -1.2540    -0.7760 H     1 <1>   0.0800 
 36 H       -0.7320    -1.3410     0.9250 H     1 <1>   0.0800 
 37 H        3.8480    -3.3590    -0.1730 H     1 <1>   0.1500 
 38 H        4.8260    -0.1650     2.8120 H     1 <1>   0.0800 
 39 H        3.2100     0.3830     3.1840 H     1 <1>   0.0800 
 40 H        4.6640     1.4570    -0.6140 H     1 <1>   0.0800 
 41 H        5.4940     0.1940     0.2560 H     1 <1>   0.0800 
 42 H       -0.9730    -3.6980    -0.9310 H     1 <1>   0.1500 
 43 H        2.9880     1.3800     1.1410 H     1 <1>   0.4500 
 44 H        5.7100     2.1680     2.0070 H     1 <1>   0.0800 
 45 H        4.2540     2.6170     2.8560 H     1 <1>   0.0800 
 46 H        3.9070    -7.3950    -1.5470 H     1 <1>   0.0800 
 47 H        2.5330    -6.7750    -2.4550 H     1 <1>   0.0800 
 48 H        2.3150    -7.3640    -0.7980 H     1 <1>   0.0800 
 49 H       -1.1610    -7.1290    -1.9780 H     1 <1>   0.0800 
 50 H       -1.3660    -5.4330    -2.3960 H     1 <1>   0.0800 
 51 H       -1.5070    -5.9620    -0.7080 H     1 <1>   0.0800 
 52 H        2.8730     4.4650     2.0690 H     1 <1>   0.1500 
 53 H        2.6890     6.3390     0.4900 H     1 <1>   0.1500 
 54 H        5.5090     5.3760    -2.8480 H     1 <1>   0.0800 
 55 H        6.2160     3.8380    -2.4650 H     1 <1>   0.0800 
 56 H        7.1420     6.5080    -1.3580 H     1 <1>   0.0800 
 57 H        7.9570     5.5920    -2.6050 H     1 <1>   0.0800 
 58 H        7.8630     4.9620    -0.9750 H     1 <1>   0.0800 
@<TRIPOS>BOND
  1   1   2  1   
  2   1   3  1   
  3   2   4  1   
  4   2   5  1   
  5   2   6  1   
  6   3   7  1   
  7   3  29  1   
  8   3  30  1   
  9   4   8  ar  
 10   4   9  ar  
 11   5  10  1   
 12   5  31  1   
 13   5  32  1   
 14   6  11  1   
 15   6  33  1   
 16   6  34  1   
 17   7   8  1   
 18   7  35  1   
 19   7  36  1   
 20   8  12  ar  
 21   9  13  ar  
 22   9  37  1   
 23  10  14  1   
 24  10  38  1   
 25  10  39  1   
 26  11  14  1   
 27  11  40  1   
 28  11  41  1   
 29  12  15  ar  
 30  12  42  1   
 31  13  15  ar  
 32  13  16  1   
 33  14  17  1   
 34  14  43  1   
 35  15  18  1   
 36  16  19  1   
 37  17  20  1   
 38  17  44  1   
 39  17  45  1   
 40  18  21  1   
 41  19  46  1   
 42  19  47  1   
 43  19  48  1   
 44  20  22  ar  
 45  20  23  ar  
 46  21  49  1   
 47  21  50  1   
 48  21  51  1   
 49  22  24  ar  
 50  23  25  ar  
 51  23  52  1   
 52  24  26  ar  
 53  24  27  1   
 54  25  26  ar  
 55  25  53  1   
 56  27  28  1   
 57  27  54  1   
 58  27  55  1   
 59  28  56  1   
 60  28  57  1   
 61  28  58  1   
@<TRIPOS>SUBSTRUCTURE
  1 ****   6 GROUP 4 **** **** 0

# MOE 2024.06 (io_trps.svl 2023.06)
