@<TRIPOS>MOLECULE
NONAME
48 50 1 0 0 
SMALL
USER_CHARGES


@<TRIPOS>ATOM
  1 O       -0.0720     1.3550     0.7510 O.2   1 <1>  -0.5700 
  2 C       -0.8590     2.0990     0.2190 C.2   1 <1>   0.5690 
  3 N       -0.5500     3.2110    -0.4850 N.am  1 <1>  -0.6600 
  4 C       -2.3470     1.8960     0.2690 C.3   1 <1>  -0.0990 
  5 C       -1.7360     3.9080    -1.0090 C.3   1 <1>   0.1400 
  6 C        0.8200     3.7050    -0.7440 C.3   1 <1>   0.1400 
  7 C       -2.8920     2.9400    -0.7220 C.3   1 <1>  -0.1600 
  8 C        1.1190     4.8980     0.1630 C.3   1 <1>  -0.1600 
  9 C        2.5480     5.3890    -0.0470 C.3   1 <1>   0.2090 
 10 N        2.7810     6.5650     0.8170 N.pl3 1 <1>  -0.8690 
 11 C        3.8080     7.4520     0.6270 C.ar  1 <1>   0.4100 
 12 N        4.5450     7.3220    -0.4690 N.ar  1 <1>  -0.6200 
 13 C        4.0460     8.4400     1.5790 C.ar  1 <1>  -0.1500 
 14 C        5.5310     8.1900    -0.6170 C.ar  1 <1>   0.1600 
 15 C        5.0720     9.3370     1.4040 C.ar  1 <1>  -0.1500 
 16 C        5.8500     9.2270     0.2560 C.ar  1 <1>   0.0860 
 17 C        6.9460    10.1200    -0.0390 C.2   1 <1>   0.5440 
 18 O        7.9780     9.6630    -0.4920 O.2   1 <1>  -0.5700 
 19 N        6.8610    11.4830     0.1640 N.am  1 <1>  -0.6600 
 20 C        8.0700    12.3620     0.1460 C.3   1 <1>   0.1400 
 21 C        5.5800    12.2510     0.1050 C.3   1 <1>   0.1400 
 22 C        7.9710    13.3940    -0.9880 C.3   1 <1>   0.1200 
 23 C        5.6290    13.3030    -1.0180 C.3   1 <1>   0.1200 
 24 O        6.7680    14.1060    -0.9000 O.3   1 <1>  -0.5600 
 25 H       -2.6910     2.0890     1.2680 H     1 <1>   0.0800 
 26 H       -2.6010     0.8930    -0.0220 H     1 <1>   0.0800 
 27 H       -1.6330     4.0960    -2.0640 H     1 <1>   0.0800 
 28 H       -1.8710     4.8360    -0.4800 H     1 <1>   0.0800 
 29 H        0.9100     3.9840    -1.7800 H     1 <1>   0.0800 
 30 H        1.5230     2.9120    -0.5440 H     1 <1>   0.0800 
 31 H       -3.7490     3.4580    -0.3290 H     1 <1>   0.0800 
 32 H       -3.1750     2.4540    -1.6400 H     1 <1>   0.0800 
 33 H        0.9940     4.5960     1.1880 H     1 <1>   0.0800 
 34 H        0.4390     5.7000    -0.0630 H     1 <1>   0.0800 
 35 H        2.6930     5.6630    -1.0790 H     1 <1>   0.0800 
 36 H        3.2540     4.6160     0.2060 H     1 <1>   0.0800 
 37 H        2.4060     6.4760     1.7620 H     1 <1>   0.4000 
 38 H        3.4170     8.4880     2.4470 H     1 <1>   0.1500 
 39 H        6.1410     8.0810    -1.4980 H     1 <1>   0.1500 
 40 H        5.2790    10.1030     2.1310 H     1 <1>   0.1500 
 41 H        8.9660    11.7790     0.0190 H     1 <1>   0.0800 
 42 H        8.1460    12.8780     1.0860 H     1 <1>   0.0800 
 43 H        5.4210    12.7480     1.0460 H     1 <1>   0.0800 
 44 H        4.7480    11.5940    -0.0740 H     1 <1>   0.0800 
 45 H        8.0190    12.9070    -1.9460 H     1 <1>   0.0800 
 46 H        8.7780    14.1010    -0.9180 H     1 <1>   0.0800 
 47 H        4.7680    13.9450    -0.9640 H     1 <1>   0.0800 
 48 H        5.6430    12.8250    -1.9830 H     1 <1>   0.0800 
@<TRIPOS>BOND
  1   1   2  2   
  2   2   3  am  
  3   2   4  1   
  4   3   5  1   
  5   3   6  1   
  6   4   7  1   
  7   4  25  1   
  8   4  26  1   
  9   5   7  1   
 10   5  27  1   
 11   5  28  1   
 12   6   8  1   
 13   6  29  1   
 14   6  30  1   
 15   7  31  1   
 16   7  32  1   
 17   8   9  1   
 18   8  33  1   
 19   8  34  1   
 20   9  10  1   
 21   9  35  1   
 22   9  36  1   
 23  10  11  1   
 24  10  37  1   
 25  11  12  ar  
 26  11  13  ar  
 27  12  14  ar  
 28  13  15  ar  
 29  13  38  1   
 30  14  16  ar  
 31  14  39  1   
 32  15  16  ar  
 33  15  40  1   
 34  16  17  1   
 35  17  18  2   
 36  17  19  am  
 37  19  20  1   
 38  19  21  1   
 39  20  22  1   
 40  20  41  1   
 41  20  42  1   
 42  21  23  1   
 43  21  43  1   
 44  21  44  1   
 45  22  24  1   
 46  22  45  1   
 47  22  46  1   
 48  23  24  1   
 49  23  47  1   
 50  23  48  1   
@<TRIPOS>SUBSTRUCTURE
  1 ****  11 GROUP 4 **** **** 0

# MOE 2024.06 (io_trps.svl 2023.06)
