@<TRIPOS>MOLECULE
NONAME
47 51 1 0 0 
SMALL
USER_CHARGES


@<TRIPOS>ATOM
  1 O       -0.2120     0.2770    -0.5550 O.2   1 <1>  -0.5700 
  2 C       -1.1940     0.8420    -0.1130 C.2   1 <1>   0.7150 
  3 N       -2.1520     0.0590     0.5110 N.am  1 <1>  -0.6600 
  4 C       -1.3220     2.2760    -0.2810 C.2   1 <1>   0.0550 
  5 C       -3.1670     0.5590     1.4870 C.3   1 <1>   0.1400 
  6 C       -2.2230    -1.4150     0.2790 C.3   1 <1>   0.1400 
  7 O       -2.5290     2.8670    -0.3210 O.3   1 <1>  -0.2800 
  8 C       -0.3600     3.2170    -0.4560 C.2   1 <1>  -0.1500 
  9 C       -4.5990     0.1720     1.0520 C.3   1 <1>   0.4230 
 10 C       -3.6430    -1.8180    -0.1600 C.3   1 <1>   0.3430 
 11 C       -2.3460     4.1720    -0.5120 C.ar  1 <1>   0.1400 
 12 C       -0.9980     4.4590    -0.6010 C.ar  1 <1>   0.0000 
 13 N       -4.7180    -1.3210     0.7840 N.4   1 <1>  -0.9590 
 14 C       -5.0490     0.9960    -0.1760 C.3   1 <1>   0.1200 
 15 C       -3.3170     5.1600    -0.6160 C.ar  1 <1>  -0.1500 
 16 C       -0.5890     5.7790    -0.8000 C.ar  1 <1>  -0.1500 
 17 C       -6.1070    -1.6300     0.2980 C.3   1 <1>   0.5180 
 18 O       -6.3440     0.6280    -0.5590 O.3   1 <1>  -0.5600 
 19 C       -2.9060     6.4630    -0.8110 C.ar  1 <1>  -0.1500 
 20 C       -1.5440     6.7690    -0.9020 C.ar  1 <1>  -0.1500 
 21 C       -6.2260    -3.1430     0.0200 C.3   1 <1>  -0.1950 
 22 C       -6.5000    -0.7230    -0.8950 C.3   1 <1>   0.1200 
 23 C       -5.8930    -3.8040    -1.2870 C.3   1 <1>  -0.2000 
 24 C       -7.3190    -3.7310    -0.8210 C.3   1 <1>  -0.2000 
 25 H       -2.9640     0.1200     2.4480 H     1 <1>   0.0800 
 26 H       -3.0960     1.6240     1.6180 H     1 <1>   0.0800 
 27 H       -1.5270    -1.7120    -0.4890 H     1 <1>   0.0800 
 28 H       -1.9510    -1.9340     1.1810 H     1 <1>   0.0800 
 29 H        0.7050     3.0700    -0.4900 H     1 <1>   0.1500 
 30 H       -5.2620     0.4350     1.8600 H     1 <1>   0.0800 
 31 H       -3.6880    -2.8920    -0.2330 H     1 <1>   0.0800 
 32 H       -3.8150    -1.4180    -1.1450 H     1 <1>   0.0800 
 33 H       -4.5970    -1.8120     1.6760 H     1 <1>   0.4500 
 34 H       -4.3850     0.8590    -1.0120 H     1 <1>   0.0800 
 35 H       -5.0710     2.0440     0.0690 H     1 <1>   0.0800 
 36 H       -4.3580     4.9040    -0.5460 H     1 <1>   0.1500 
 37 H        0.4610     6.0050    -0.8700 H     1 <1>   0.1500 
 38 H       -6.8020    -1.4030     1.0900 H     1 <1>   0.0800 
 39 H       -3.6320     7.2530    -0.8960 H     1 <1>   0.1500 
 40 H       -1.2460     7.7920    -1.0550 H     1 <1>   0.1500 
 41 H       -6.0200    -3.7040     0.9160 H     1 <1>   0.1000 
 42 H       -7.5350    -0.8700    -1.1460 H     1 <1>   0.0800 
 43 H       -5.9060    -0.9320    -1.7670 H     1 <1>   0.0800 
 44 H       -5.6390    -3.2360    -2.1660 H     1 <1>   0.1000 
 45 H       -5.4170    -4.7720    -1.2840 H     1 <1>   0.1000 
 46 H       -7.7940    -4.6430    -0.4950 H     1 <1>   0.1000 
 47 H       -7.9970    -3.1120    -1.3840 H     1 <1>   0.1000 
@<TRIPOS>BOND
  1   1   2  2   
  2   2   3  am  
  3   2   4  1   
  4   3   5  1   
  5   3   6  1   
  6   4   7  1   
  7   4   8  2   
  8   5   9  1   
  9   5  25  1   
 10   5  26  1   
 11   6  10  1   
 12   6  27  1   
 13   6  28  1   
 14   7  11  1   
 15   8  12  1   
 16   8  29  1   
 17   9  13  1   
 18   9  14  1   
 19   9  30  1   
 20  10  13  1   
 21  10  31  1   
 22  10  32  1   
 23  11  12  ar  
 24  11  15  ar  
 25  12  16  ar  
 26  13  17  1   
 27  13  33  1   
 28  14  18  1   
 29  14  34  1   
 30  14  35  1   
 31  15  19  ar  
 32  15  36  1   
 33  16  20  ar  
 34  16  37  1   
 35  17  21  1   
 36  17  22  1   
 37  17  38  1   
 38  18  22  1   
 39  19  20  ar  
 40  19  39  1   
 41  20  40  1   
 42  21  23  1   
 43  21  24  1   
 44  21  41  1   
 45  22  42  1   
 46  22  43  1   
 47  23  24  1   
 48  23  44  1   
 49  23  45  1   
 50  24  46  1   
 51  24  47  1   
@<TRIPOS>SUBSTRUCTURE
  1 ****  14 GROUP 4 **** **** 0

# MOE 2024.06 (io_trps.svl 2023.06)
