@<TRIPOS>MOLECULE
NONAME
31 32 1 0 0 
SMALL
USER_CHARGES


@<TRIPOS>ATOM
  1 CL       0.5790    -0.1560     2.1610 Cl    1 <1>  -0.1230 
  2 C        1.8920    -0.2830     1.0020 C.2   1 <1>   0.1230 
  3 C        2.7570     0.7330     0.5840 C.2   1 <1>   0.2030 
  4 C        2.2450    -1.4020     0.3500 C.2   1 <1>  -0.3020 
  5 N        3.6140     0.2350    -0.3020 N.2   1 <1>  -0.7070 
  6 C        2.7550     2.1140     1.0190 C.2   1 <1>   0.7160 
  7 N        3.2880    -1.0630    -0.4310 N.pl3 1 <1>   0.3140 
  8 O        1.9630     2.5530     1.8300 O.2   1 <1>  -0.5700 
  9 N        3.7060     2.9290     0.4650 N.am  1 <1>  -0.4940 
 10 C        4.0150    -1.9650    -1.3330 C.3   1 <1>   0.0160 
 11 C        3.9770     4.2630     0.6540 C.2   1 <1>   0.4420 
 12 S        5.2910     4.9240    -0.2620 S.3   1 <1>  -0.0800 
 13 N        3.4220     5.1420     1.4080 N.2   1 <1>  -0.3380 
 14 C        4.9620     6.4460     0.4980 C.2   1 <1>   0.1980 
 15 N        3.9880     6.3840     1.3130 N.2   1 <1>  -0.3380 
 16 C        5.8170     7.6590     0.1340 C.3   1 <1>   0.3800 
 17 O        5.7990     7.8920    -1.2450 O.3   1 <1>  -0.5600 
 18 C        7.2800     7.4800     0.5360 C.3   1 <1>  -0.2400 
 19 C        4.5820     8.3540    -1.7480 C.3   1 <1>   0.0400 
 20 H        1.8250    -2.3880     0.3990 H     1 <1>   0.1500 
 21 H        4.2950     2.4250    -0.1970 H     1 <1>   0.3700 
 22 H        4.4450    -2.7660    -0.7610 H     1 <1>   0.0800 
 23 H        4.7950    -1.4180    -1.8300 H     1 <1>   0.0800 
 24 H        3.3330    -2.3610    -2.0620 H     1 <1>   0.0800 
 25 H        5.4230     8.5310     0.6280 H     1 <1>   0.0800 
 26 H        7.7170     6.6530     0.0070 H     1 <1>   0.0800 
 27 H        7.3460     7.2900     1.5920 H     1 <1>   0.0800 
 28 H        7.8310     8.3750     0.3130 H     1 <1>   0.0800 
 29 H        4.7000     8.5210    -2.8040 H     1 <1>   0.0800 
 30 H        4.3220     9.2790    -1.2630 H     1 <1>   0.0800 
 31 H        3.8170     7.6140    -1.5850 H     1 <1>   0.0800 
@<TRIPOS>BOND
  1   1   2  1   
  2   2   3  1   
  3   2   4  2   
  4   3   5  2   
  5   3   6  1   
  6   4   7  1   
  7   4  20  1   
  8   5   7  1   
  9   6   8  2   
 10   6   9  am  
 11   7  10  1   
 12   9  11  1   
 13   9  21  1   
 14  10  22  1   
 15  10  23  1   
 16  10  24  1   
 17  11  12  1   
 18  11  13  2   
 19  12  14  1   
 20  13  15  1   
 21  14  15  2   
 22  14  16  1   
 23  16  17  1   
 24  16  18  1   
 25  16  25  1   
 26  17  19  1   
 27  18  26  1   
 28  18  27  1   
 29  18  28  1   
 30  19  29  1   
 31  19  30  1   
 32  19  31  1   
@<TRIPOS>SUBSTRUCTURE
  1 ****   9 GROUP 4 **** **** 0

# MOE 2024.06 (io_trps.svl 2023.06)
