@<TRIPOS>MOLECULE
NONAME
56 58 1 0 0 
SMALL
USER_CHARGES


@<TRIPOS>ATOM
  1 O       -0.6420     2.3820    -2.6970 O.co2 1 <1>  -0.9000 
  2 C       -0.8420     1.6410    -1.7220 C.2   1 <1>   0.9790 
  3 O        0.1600     1.2330    -1.1050 O.co2 1 <1>  -0.9000 
  4 C       -2.1590     1.4320    -1.2160 C.ar  1 <1>  -0.1790 
  5 C       -2.6420     2.1110    -0.1030 C.ar  1 <1>   0.1000 
  6 C       -2.9860     0.5130    -1.8770 C.ar  1 <1>   0.1600 
  7 N       -1.8940     3.0510     0.5940 N.pl3 1 <1>  -0.8380 
  8 C       -3.9540     1.7900     0.2820 C.ar  1 <1>   0.0000 
  9 N       -4.2100     0.1980    -1.5340 N.ar  1 <1>  -0.5670 
 10 C       -1.5160     4.3110    -0.1360 C.3   1 <1>   0.2090 
 11 C       -0.8970     2.5220     1.5790 C.3   1 <1>   0.2090 
 12 C       -4.6580     0.8570    -0.4450 C.ar  1 <1>   0.1050 
 13 C       -4.8580     2.1820     1.2900 C.2   1 <1>   0.1080 
 14 C       -0.0280     4.4290    -0.6040 C.3   1 <1>   0.4230 
 15 C        0.4580     3.2610     1.5570 C.3   1 <1>   0.3430 
 16 N       -5.8760     0.7500     0.1510 N.pl3 1 <1>   0.3140 
 17 N       -5.9930     1.5710     1.2220 N.2   1 <1>  -0.7070 
 18 C       -4.5610     3.2140     2.3530 C.3   1 <1>  -0.0590 
 19 N        0.9150     3.5250     0.1620 N.4   1 <1>  -0.9590 
 20 C        0.3830     5.9180    -0.6140 C.3   1 <1>  -0.1600 
 21 C       -6.9680    -0.1280    -0.2830 C.3   1 <1>   0.0160 
 22 C        2.3680     3.8030    -0.0100 C.3   1 <1>   0.3430 
 23 C        1.4350     6.2570    -1.6800 C.3   1 <1>   0.1200 
 24 C        3.3080     2.7730     0.6490 C.3   1 <1>  -0.0800 
 25 O        2.6440     6.5140    -1.0590 O.3   1 <1>  -0.6800 
 26 C        4.7590     3.1280     0.2970 C.3   1 <1>  -0.2400 
 27 C        3.0250     1.3270     0.2150 C.3   1 <1>  -0.2400 
 28 H       -2.5730     0.0250    -2.7440 H     1 <1>   0.1500 
 29 H       -1.7490     5.1370     0.5130 H     1 <1>   0.0800 
 30 H       -2.1460     4.4150    -1.0040 H     1 <1>   0.0800 
 31 H       -0.7170     1.4800     1.3670 H     1 <1>   0.0800 
 32 H       -1.3160     2.5780     2.5680 H     1 <1>   0.0800 
 33 H       -0.0070     4.1130    -1.6320 H     1 <1>   0.0800 
 34 H        1.1780     2.6520     2.0740 H     1 <1>   0.0800 
 35 H        0.3640     4.1930     2.0870 H     1 <1>   0.0800 
 36 H       -4.2220     4.1210     1.8900 H     1 <1>   0.0800 
 37 H       -3.7980     2.8420     3.0100 H     1 <1>   0.0800 
 38 H       -5.4480     3.4190     2.9230 H     1 <1>   0.0800 
 39 H        0.7630     2.6010    -0.3310 H     1 <1>   0.4500 
 40 H        0.6740     6.2460     0.3680 H     1 <1>   0.0800 
 41 H       -0.4890     6.4840    -0.8890 H     1 <1>   0.0800 
 42 H       -6.6040    -1.1370    -0.3360 H     1 <1>   0.0800 
 43 H       -7.3030     0.1880    -1.2530 H     1 <1>   0.0800 
 44 H       -7.7750    -0.0650     0.4220 H     1 <1>   0.0800 
 45 H        2.5920     4.7710     0.4030 H     1 <1>   0.0800 
 46 H        2.5880     3.8380    -1.0640 H     1 <1>   0.0800 
 47 H        1.1570     7.1350    -2.2380 H     1 <1>   0.0800 
 48 H        1.5740     5.4400    -2.3700 H     1 <1>   0.0800 
 49 H        3.2160     2.8440     1.7180 H     1 <1>   0.0800 
 50 H        2.7160     7.4600    -0.8180 H     1 <1>   0.4000 
 51 H        4.9200     3.0550    -0.7650 H     1 <1>   0.0800 
 52 H        5.4410     2.4570     0.7900 H     1 <1>   0.0800 
 53 H        4.9900     4.1320     0.6090 H     1 <1>   0.0800 
 54 H        3.0140     1.2460    -0.8590 H     1 <1>   0.0800 
 55 H        2.0730     0.9910     0.5830 H     1 <1>   0.0800 
 56 H        3.7770     0.6600     0.5980 H     1 <1>   0.0800 
@<TRIPOS>BOND
  1   1   2  ar  
  2   2   3  ar  
  3   2   4  1   
  4   4   5  ar  
  5   4   6  ar  
  6   5   7  1   
  7   5   8  ar  
  8   6   9  ar  
  9   6  28  1   
 10   7  10  1   
 11   7  11  1   
 12   8  12  ar  
 13   8  13  1   
 14   9  12  ar  
 15  10  14  1   
 16  10  29  1   
 17  10  30  1   
 18  11  15  1   
 19  11  31  1   
 20  11  32  1   
 21  12  16  1   
 22  13  17  2   
 23  13  18  1   
 24  14  19  1   
 25  14  20  1   
 26  14  33  1   
 27  15  19  1   
 28  15  34  1   
 29  15  35  1   
 30  16  17  1   
 31  16  21  1   
 32  18  36  1   
 33  18  37  1   
 34  18  38  1   
 35  19  22  1   
 36  19  39  1   
 37  20  23  1   
 38  20  40  1   
 39  20  41  1   
 40  21  42  1   
 41  21  43  1   
 42  21  44  1   
 43  22  24  1   
 44  22  45  1   
 45  22  46  1   
 46  23  25  1   
 47  23  47  1   
 48  23  48  1   
 49  24  26  1   
 50  24  27  1   
 51  24  49  1   
 52  25  50  1   
 53  26  51  1   
 54  26  52  1   
 55  26  53  1   
 56  27  54  1   
 57  27  55  1   
 58  27  56  1   
@<TRIPOS>SUBSTRUCTURE
  1 ****   7 GROUP 4 **** **** 0

# MOE 2024.06 (io_trps.svl 2023.06)
