@<TRIPOS>MOLECULE
NONAME
52 54 1 0 0 
SMALL
USER_CHARGES


@<TRIPOS>ATOM
  1 S       -0.1320     0.3570    -0.0450 S.o2  1 <1>   1.0900 
  2 O        1.2390     0.7520    -0.2680 O.2   1 <1>  -0.6500 
  3 O       -1.0110     1.2240     0.7050 O.2   1 <1>  -0.6500 
  4 C       -0.1140    -1.2670     0.7230 C.3   1 <1>   0.0890 
  5 C       -0.8770     0.0780    -1.6430 C.3   1 <1>  -0.1350 
  6 C       -1.4520    -1.9920     0.6520 C.ar  1 <1>  -0.1440 
  7 C       -1.6110    -3.1190    -0.1390 C.ar  1 <1>   0.1600 
  8 C       -2.5380    -1.5310     1.3700 C.ar  1 <1>  -0.1500 
  9 N       -2.7360    -3.7950    -0.2790 N.ar  1 <1>  -0.6200 
 10 C       -3.7130    -2.2320     1.2400 C.ar  1 <1>  -0.1500 
 11 C       -3.7800    -3.3480     0.4100 C.ar  1 <1>   0.4100 
 12 N       -4.9730    -4.0340     0.2790 N.pl3 1 <1>  -0.8380 
 13 C       -6.1340    -3.3130    -0.3230 C.3   1 <1>   0.2090 
 14 C       -4.9390    -5.4690    -0.1460 C.3   1 <1>   0.2090 
 15 C       -7.4490    -4.0960    -0.1220 C.3   1 <1>   0.2950 
 16 C       -6.3160    -6.1500     0.0360 C.3   1 <1>   0.2000 
 17 O       -7.3220    -5.4060    -0.5970 O.3   1 <1>  -0.5600 
 18 C       -8.6160    -3.4450    -0.8720 C.3   1 <1>  -0.1950 
 19 C       -6.3750    -7.5630    -0.5590 C.3   1 <1>  -0.1600 
 20 C       -9.4100    -2.3340    -0.2580 C.3   1 <1>  -0.2000 
 21 C      -10.0340    -3.6870    -0.4590 C.3   1 <1>  -0.2000 
 22 C       -5.4240    -8.5510     0.1370 C.3   1 <1>  -0.1600 
 23 C       -5.5870    -9.9640    -0.4330 C.3   1 <1>  -0.1600 
 24 C       -4.6370   -10.9480     0.2550 C.3   1 <1>  -0.2400 
 25 H        0.6360    -1.8700     0.2490 H     1 <1>   0.0800 
 26 H        0.1690    -1.1650     1.7530 H     1 <1>   0.0800 
 27 H       -0.3090    -0.6350    -2.2070 H     1 <1>   0.0800 
 28 H       -0.9100     0.9970    -2.1940 H     1 <1>   0.0800 
 29 H       -1.8820    -0.2850    -1.5340 H     1 <1>   0.0800 
 30 H       -0.7690    -3.4930    -0.6950 H     1 <1>   0.1500 
 31 H       -2.4770    -0.6610     2.0050 H     1 <1>   0.1500 
 32 H       -4.5910    -1.9330     1.7800 H     1 <1>   0.1500 
 33 H       -6.2340    -2.3390     0.1210 H     1 <1>   0.0800 
 34 H       -5.9600    -3.1810    -1.3770 H     1 <1>   0.0800 
 35 H       -4.6450    -5.5280    -1.1790 H     1 <1>   0.0800 
 36 H       -4.2000    -5.9860     0.4400 H     1 <1>   0.0800 
 37 H       -7.6780    -4.1430     0.9290 H     1 <1>   0.0800 
 38 H       -6.5520    -6.1980     1.0850 H     1 <1>   0.0800 
 39 H       -8.4230    -3.3800    -1.9290 H     1 <1>   0.1000 
 40 H       -7.3830    -7.9250    -0.4610 H     1 <1>   0.0800 
 41 H       -6.1360    -7.5130    -1.6070 H     1 <1>   0.0800 
 42 H       -9.1940    -2.0190     0.7490 H     1 <1>   0.1000 
 43 H       -9.7330    -1.5200    -0.8840 H     1 <1>   0.1000 
 44 H      -10.7740    -3.8140    -1.2300 H     1 <1>   0.1000 
 45 H      -10.2200    -4.3140     0.3960 H     1 <1>   0.1000 
 46 H       -4.4030    -8.2370     0.0010 H     1 <1>   0.0800 
 47 H       -5.6340    -8.5670     1.1930 H     1 <1>   0.0800 
 48 H       -6.6030   -10.2970    -0.2940 H     1 <1>   0.0800 
 49 H       -5.3820    -9.9540    -1.4900 H     1 <1>   0.0800 
 50 H       -4.8400   -10.9920     1.3100 H     1 <1>   0.0800 
 51 H       -3.6140   -10.6470     0.1100 H     1 <1>   0.0800 
 52 H       -4.7650   -11.9330    -0.1590 H     1 <1>   0.0800 
@<TRIPOS>BOND
  1   1   2  2   
  2   1   3  2   
  3   1   4  1   
  4   1   5  1   
  5   4   6  1   
  6   4  25  1   
  7   4  26  1   
  8   5  27  1   
  9   5  28  1   
 10   5  29  1   
 11   6   7  ar  
 12   6   8  ar  
 13   7   9  ar  
 14   7  30  1   
 15   8  10  ar  
 16   8  31  1   
 17   9  11  ar  
 18  10  11  ar  
 19  10  32  1   
 20  11  12  1   
 21  12  13  1   
 22  12  14  1   
 23  13  15  1   
 24  13  33  1   
 25  13  34  1   
 26  14  16  1   
 27  14  35  1   
 28  14  36  1   
 29  15  17  1   
 30  15  18  1   
 31  15  37  1   
 32  16  17  1   
 33  16  19  1   
 34  16  38  1   
 35  18  20  1   
 36  18  21  1   
 37  18  39  1   
 38  19  22  1   
 39  19  40  1   
 40  19  41  1   
 41  20  21  1   
 42  20  42  1   
 43  20  43  1   
 44  21  44  1   
 45  21  45  1   
 46  22  23  1   
 47  22  46  1   
 48  22  47  1   
 49  23  24  1   
 50  23  48  1   
 51  23  49  1   
 52  24  50  1   
 53  24  51  1   
 54  24  52  1   
@<TRIPOS>SUBSTRUCTURE
  1 ****  12 GROUP 4 **** **** 0

# MOE 2024.06 (io_trps.svl 2023.06)
