@<TRIPOS>MOLECULE
NONAME
50 53 1 0 0 
SMALL
USER_CHARGES


@<TRIPOS>ATOM
  1 CL      -0.2450     0.3570    -0.2200 Cl    1 <1>  -0.1770 
  2 C       -0.1340     2.0980    -0.2560 C.ar  1 <1>   0.1770 
  3 C       -0.2170     2.8070     0.9270 C.ar  1 <1>  -0.1500 
  4 C        0.0350     2.7420    -1.4680 C.ar  1 <1>  -0.1500 
  5 C       -0.1290     4.1890     0.8940 C.ar  1 <1>  -0.1500 
  6 C        0.1220     4.1240    -1.4920 C.ar  1 <1>  -0.1500 
  7 C        0.0380     4.8520    -0.3130 C.ar  1 <1>  -0.0320 
  8 C        0.1410     6.3690    -0.3460 C.3   1 <1>  -0.0630 
  9 C       -0.9800     7.1510     0.2770 C.3   1 <1>  -0.2000 
 10 C       -0.8310     7.1110    -1.2170 C.3   1 <1>  -0.2000 
 11 C        1.6100     6.8210    -0.2110 C.3   1 <1>   0.3040 
 12 N        1.7450     8.2970    -0.2830 N.pl3 1 <1>  -0.8690 
 13 C        2.8530     8.9440     0.2080 C.ar  1 <1>   0.4100 
 14 N        3.9370     8.2130     0.4270 N.ar  1 <1>  -0.6200 
 15 C        2.7920    10.3090     0.4450 C.ar  1 <1>  -0.1500 
 16 C        4.9820     8.8630     0.9080 C.ar  1 <1>   0.1600 
 17 C        3.8870    10.9970     0.9330 C.ar  1 <1>   0.0860 
 18 C        5.0100    10.2160     1.1750 C.ar  1 <1>  -0.1500 
 19 C        3.8500    12.4250     1.1820 C.2   1 <1>   0.5440 
 20 O        2.9210    12.8880     1.8150 O.2   1 <1>  -0.5700 
 21 N        4.8330    13.2740     0.7180 N.am  1 <1>  -0.6600 
 22 C        4.8690    14.6930     1.1860 C.3   1 <1>   0.1400 
 23 C        5.7600    12.9010    -0.3940 C.3   1 <1>   0.1400 
 24 C        6.2590    15.3010     0.9720 C.3   1 <1>  -0.1600 
 25 C        6.0470    14.1120    -1.2870 C.3   1 <1>  -0.1600 
 26 C        6.6860    15.2750    -0.5070 C.3   1 <1>  -0.1600 
 27 H       -0.3470     2.2830     1.8570 H     1 <1>   0.1500 
 28 H        0.0970     2.1680    -2.3750 H     1 <1>   0.1500 
 29 H       -0.1900     4.7510     1.8100 H     1 <1>   0.1500 
 30 H        0.2550     4.6350    -2.4290 H     1 <1>   0.1500 
 31 H       -0.7640     8.0650     0.8010 H     1 <1>   0.1000 
 32 H       -1.8050     6.6180     0.7160 H     1 <1>   0.1000 
 33 H       -1.5530     6.5510    -1.7850 H     1 <1>   0.1000 
 34 H       -0.5030     7.9940    -1.7380 H     1 <1>   0.1000 
 35 H        2.1960     6.3830    -1.0000 H     1 <1>   0.0800 
 36 H        2.0010     6.4700     0.7290 H     1 <1>   0.0800 
 37 H        0.8520     8.7750    -0.1650 H     1 <1>   0.4000 
 38 H        1.8820    10.8410     0.2450 H     1 <1>   0.1500 
 39 H        5.8660     8.2790     1.1010 H     1 <1>   0.1500 
 40 H        5.8970    10.6710     1.5750 H     1 <1>   0.1500 
 41 H        4.6140    14.7320     2.2320 H     1 <1>   0.0800 
 42 H        4.1320    15.2580     0.6410 H     1 <1>   0.0800 
 43 H        5.3230    12.1190    -0.9910 H     1 <1>   0.0800 
 44 H        6.6830    12.5370     0.0240 H     1 <1>   0.0800 
 45 H        6.9630    14.7400     1.5620 H     1 <1>   0.0800 
 46 H        6.2690    16.3130     1.3330 H     1 <1>   0.0800 
 47 H        5.1150    14.4380    -1.7180 H     1 <1>   0.0800 
 48 H        6.6920    13.8220    -2.0960 H     1 <1>   0.0800 
 49 H        7.7590    15.1980    -0.5530 H     1 <1>   0.0800 
 50 H        6.4070    16.2000    -0.9800 H     1 <1>   0.0800 
@<TRIPOS>BOND
  1   1   2  1   
  2   2   3  ar  
  3   2   4  ar  
  4   3   5  ar  
  5   3  27  1   
  6   4   6  ar  
  7   4  28  1   
  8   5   7  ar  
  9   5  29  1   
 10   6   7  ar  
 11   6  30  1   
 12   7   8  1   
 13   8   9  1   
 14   8  10  1   
 15   8  11  1   
 16   9  10  1   
 17   9  31  1   
 18   9  32  1   
 19  10  33  1   
 20  10  34  1   
 21  11  12  1   
 22  11  35  1   
 23  11  36  1   
 24  12  13  1   
 25  12  37  1   
 26  13  14  ar  
 27  13  15  ar  
 28  14  16  ar  
 29  15  17  ar  
 30  15  38  1   
 31  16  18  ar  
 32  16  39  1   
 33  17  18  ar  
 34  17  19  1   
 35  18  40  1   
 36  19  20  2   
 37  19  21  am  
 38  21  22  1   
 39  21  23  1   
 40  22  24  1   
 41  22  41  1   
 42  22  42  1   
 43  23  25  1   
 44  23  43  1   
 45  23  44  1   
 46  24  26  1   
 47  24  45  1   
 48  24  46  1   
 49  25  26  1   
 50  25  47  1   
 51  25  48  1   
 52  26  49  1   
 53  26  50  1   
@<TRIPOS>SUBSTRUCTURE
  1 ****  13 GROUP 4 **** **** 0

# MOE 2024.06 (io_trps.svl 2023.06)
