@<TRIPOS>MOLECULE
NONAME
54 56 1 0 0 
SMALL
USER_CHARGES


@<TRIPOS>ATOM
  1 S       -0.1050    -0.1510     0.3510 S.o2  1 <1>   1.5760 
  2 O        0.2290     0.4670     1.6160 O.2   1 <1>  -0.6500 
  3 O        0.1310    -1.5660     0.1520 O.2   1 <1>  -0.6500 
  4 N       -1.7180     0.2130    -0.0100 N.am  1 <1>  -0.8490 
  5 N        0.6640     0.7160    -0.8820 N.am  1 <1>  -0.8490 
  6 C       -2.2300    -0.2740    -1.2940 C.3   1 <1>   0.1960 
  7 C       -2.6550    -0.0250     1.0860 C.3   1 <1>   0.1960 
  8 C        1.9960     0.2220    -1.2320 C.3   1 <1>   0.1960 
  9 C        0.6020     2.1690    -0.6980 C.3   1 <1>   0.1160 
 10 C       -2.6130    -1.7570    -1.2610 C.3   1 <1>  -0.1600 
 11 C       -2.9720    -1.5140     1.2290 C.3   1 <1>  -0.1600 
 12 C        3.0360     0.4430    -0.1280 C.3   1 <1>  -0.2400 
 13 C       -3.5280    -2.1010    -0.0740 C.3   1 <1>   0.4240 
 14 O       -4.7580    -1.4430    -0.2750 O.3   1 <1>  -0.5600 
 15 C       -3.7020    -3.6270     0.0690 C.ar  1 <1>  -0.1430 
 16 C       -5.7140    -2.0840    -1.0640 C.3   1 <1>   0.1200 
 17 C       -4.9470    -4.2250    -0.0640 C.ar  1 <1>  -0.1430 
 18 C       -2.6000    -4.4340     0.3290 C.ar  1 <1>  -0.1500 
 19 C       -6.1570    -3.3660    -0.3650 C.3   1 <1>  -0.0170 
 20 C       -5.0800    -5.5960     0.0770 C.ar  1 <1>  -0.1500 
 21 C       -2.7150    -5.8150     0.4640 C.ar  1 <1>   0.0820 
 22 C       -3.9870    -6.4000     0.3470 C.ar  1 <1>   0.0820 
 23 O       -1.6170    -6.5980     0.6870 O.3   1 <1>  -0.3620 
 24 O       -4.2720    -7.7280     0.4720 O.3   1 <1>  -0.3620 
 25 C       -0.3070    -6.0720     0.6850 C.3   1 <1>   0.0400 
 26 C       -3.5090    -8.5700     1.3060 C.3   1 <1>   0.0400 
 27 H       -1.5030    -0.1020    -2.0700 H     1 <1>   0.0800 
 28 H       -3.1080     0.2990    -1.5440 H     1 <1>   0.0800 
 29 H       -3.5660     0.5150     0.8880 H     1 <1>   0.0800 
 30 H       -2.2490     0.3570     2.0090 H     1 <1>   0.0800 
 31 H        2.3250     0.7180    -2.1300 H     1 <1>   0.0800 
 32 H        1.9340    -0.8310    -1.4550 H     1 <1>   0.0800 
 33 H       -0.4260     2.4830    -0.6320 H     1 <1>   0.0800 
 34 H        1.0580     2.6690    -1.5340 H     1 <1>   0.0800 
 35 H        1.1040     2.4600     0.2090 H     1 <1>   0.0800 
 36 H       -1.7200    -2.3460    -1.2180 H     1 <1>   0.0800 
 37 H       -3.0940    -2.0240    -2.1820 H     1 <1>   0.0800 
 38 H       -3.6970    -1.6550     2.0090 H     1 <1>   0.0800 
 39 H       -2.0820    -2.0310     1.5310 H     1 <1>   0.0800 
 40 H        3.1690     1.4880     0.0790 H     1 <1>   0.0800 
 41 H        3.9810     0.0470    -0.4520 H     1 <1>   0.0800 
 42 H        2.7570    -0.0700     0.7740 H     1 <1>   0.0800 
 43 H       -5.2930    -2.2970    -2.0300 H     1 <1>   0.0800 
 44 H       -6.5470    -1.4130    -1.1820 H     1 <1>   0.0800 
 45 H       -1.6400    -3.9620     0.4220 H     1 <1>   0.1500 
 46 H       -6.8410    -3.8990    -1.0010 H     1 <1>   0.0800 
 47 H       -6.6650    -3.1200     0.5500 H     1 <1>   0.0800 
 48 H       -6.0440    -6.0600    -0.0200 H     1 <1>   0.1500 
 49 H        0.3810    -6.8860     0.8260 H     1 <1>   0.0800 
 50 H       -0.2090    -5.3680     1.4920 H     1 <1>   0.0800 
 51 H       -0.1210    -5.5980    -0.2630 H     1 <1>   0.0800 
 52 H       -4.0920    -9.4470     1.5190 H     1 <1>   0.0800 
 53 H       -3.2790    -8.0480     2.2180 H     1 <1>   0.0800 
 54 H       -2.6100    -8.8490     0.7870 H     1 <1>   0.0800 
@<TRIPOS>BOND
  1   1   2  2   
  2   1   3  2   
  3   1   4  am  
  4   1   5  am  
  5   4   6  1   
  6   4   7  1   
  7   5   8  1   
  8   5   9  1   
  9   6  10  1   
 10   6  27  1   
 11   6  28  1   
 12   7  11  1   
 13   7  29  1   
 14   7  30  1   
 15   8  12  1   
 16   8  31  1   
 17   8  32  1   
 18   9  33  1   
 19   9  34  1   
 20   9  35  1   
 21  10  13  1   
 22  10  36  1   
 23  10  37  1   
 24  11  13  1   
 25  11  38  1   
 26  11  39  1   
 27  12  40  1   
 28  12  41  1   
 29  12  42  1   
 30  13  14  1   
 31  13  15  1   
 32  14  16  1   
 33  15  17  ar  
 34  15  18  ar  
 35  16  19  1   
 36  16  43  1   
 37  16  44  1   
 38  17  19  1   
 39  17  20  ar  
 40  18  21  ar  
 41  18  45  1   
 42  19  46  1   
 43  19  47  1   
 44  20  22  ar  
 45  20  48  1   
 46  21  22  ar  
 47  21  23  1   
 48  22  24  1   
 49  23  25  1   
 50  24  26  1   
 51  25  49  1   
 52  25  50  1   
 53  25  51  1   
 54  26  52  1   
 55  26  53  1   
 56  26  54  1   
@<TRIPOS>SUBSTRUCTURE
  1 ****  13 GROUP 4 **** **** 0

# MOE 2024.06 (io_trps.svl 2023.06)
