@<TRIPOS>MOLECULE
NONAME
43 45 1 0 0 
SMALL
USER_CHARGES


@<TRIPOS>ATOM
  1 O       -1.7900     0.2300     2.5790 O.2   1 <1>  -0.5700 
  2 C       -2.3830     0.9430     1.7980 C.2   1 <1>   0.6300 
  3 N       -3.4490     0.4570     1.0820 N.am  1 <1>  -0.6600 
  4 C       -1.8840     2.3840     1.6240 C.3   1 <1>   0.0320 
  5 C       -3.9550    -0.9220     1.3470 C.3   1 <1>   0.3200 
  6 C       -4.0730     1.1530    -0.0830 C.3   1 <1>   0.1400 
  7 C       -0.8650     2.5140     0.4990 C.ar  1 <1>  -0.0320 
  8 C       -2.7630     3.5500     1.9980 C.3   1 <1>  -0.2000 
  9 C       -1.6020     3.1900     2.8630 C.3   1 <1>  -0.2000 
 10 C       -3.1320    -1.9450     0.5830 C.2   1 <1>   0.0060 
 11 C       -3.4520     0.6890    -1.4070 C.3   1 <1>   0.1200 
 12 C        0.3970     1.9660     0.6580 C.ar  1 <1>  -0.1500 
 13 C       -1.1750     3.1600    -0.6880 C.ar  1 <1>  -0.1500 
 14 N       -3.5950    -2.7490    -0.3220 N.2   1 <1>  -0.5650 
 15 N       -1.8080    -2.0800     0.8020 N.pl3 1 <1>   0.0330 
 16 O       -4.0040     1.4300    -2.4440 O.3   1 <1>  -0.6800 
 17 C        1.3370     2.0580    -0.3540 C.ar  1 <1>  -0.1500 
 18 C       -0.2370     3.2500    -1.7020 C.ar  1 <1>  -0.1500 
 19 C       -2.5090    -3.4470    -0.7120 C.2   1 <1>   0.0770 
 20 C       -1.4080    -3.0510    -0.0370 C.2   1 <1>  -0.3020 
 21 C        1.0230     2.6980    -1.5410 C.ar  1 <1>  -0.1430 
 22 C        2.0490     2.7990    -2.6550 C.3   1 <1>  -0.0970 
 23 H       -4.9860    -1.0010     1.0530 H     1 <1>   0.0800 
 24 H       -3.8960    -1.1370     2.4000 H     1 <1>   0.0800 
 25 H       -3.9410     2.2150     0.0070 H     1 <1>   0.0800 
 26 H       -5.1290     0.9510    -0.0930 H     1 <1>   0.0800 
 27 H       -3.7550     3.3550     2.3670 H     1 <1>   0.1000 
 28 H       -2.7050     4.4590     1.4260 H     1 <1>   0.1000 
 29 H       -0.7400     3.8350     2.8700 H     1 <1>   0.1000 
 30 H       -1.7830     2.7350     3.8220 H     1 <1>   0.1000 
 31 H       -3.6470    -0.3520    -1.5950 H     1 <1>   0.0800 
 32 H       -2.3900     0.8600    -1.4080 H     1 <1>   0.0800 
 33 H        0.6490     1.4640     1.5760 H     1 <1>   0.1500 
 34 H       -2.1480     3.5910    -0.8370 H     1 <1>   0.1500 
 35 H       -1.2630    -1.5160     1.4700 H     1 <1>   0.2700 
 36 H       -4.8510     1.0370    -2.7320 H     1 <1>   0.4000 
 37 H        2.3130     1.6280    -0.2130 H     1 <1>   0.1500 
 38 H       -0.4960     3.7500    -2.6190 H     1 <1>   0.1500 
 39 H       -2.5780    -4.2090    -1.4700 H     1 <1>   0.1500 
 40 H       -0.3920    -3.3940    -0.1050 H     1 <1>   0.1500 
 41 H        2.7350     1.9720    -2.6120 H     1 <1>   0.0800 
 42 H        2.6020     3.7160    -2.5580 H     1 <1>   0.0800 
 43 H        1.5630     2.7860    -3.6140 H     1 <1>   0.0800 
@<TRIPOS>BOND
  1   1   2  2   
  2   2   3  am  
  3   2   4  1   
  4   3   5  1   
  5   3   6  1   
  6   4   7  1   
  7   4   8  1   
  8   4   9  1   
  9   5  10  1   
 10   5  23  1   
 11   5  24  1   
 12   6  11  1   
 13   6  25  1   
 14   6  26  1   
 15   7  12  ar  
 16   7  13  ar  
 17   8   9  1   
 18   8  27  1   
 19   8  28  1   
 20   9  29  1   
 21   9  30  1   
 22  10  14  2   
 23  10  15  1   
 24  11  16  1   
 25  11  31  1   
 26  11  32  1   
 27  12  17  ar  
 28  12  33  1   
 29  13  18  ar  
 30  13  34  1   
 31  14  19  1   
 32  15  20  1   
 33  15  35  1   
 34  16  36  1   
 35  17  21  ar  
 36  17  37  1   
 37  18  21  ar  
 38  18  38  1   
 39  19  20  2   
 40  19  39  1   
 41  20  40  1   
 42  21  22  1   
 43  22  41  1   
 44  22  42  1   
 45  22  43  1   
@<TRIPOS>SUBSTRUCTURE
  1 ****   2 GROUP 4 **** **** 0

# MOE 2024.06 (io_trps.svl 2023.06)
