@<TRIPOS>MOLECULE
NONAME
26 28 1 0 0 
SMALL
USER_CHARGES


@<TRIPOS>ATOM
  1 F       -0.1110     0.4470     0.8170 F     1 <1>  -0.2220 
  2 C       -0.8060     1.5280     0.6160 C.2   1 <1>   0.6580 
  3 N       -2.0720     1.5660     0.7720 N.2   1 <1>  -0.6210 
  4 C       -0.1600     2.7440     0.2100 C.2   1 <1>   0.0140 
  5 C       -2.3810     2.8700     0.4540 C.2   1 <1>   0.0330 
  6 C       -1.3010     3.5930     0.1200 C.2   1 <1>  -0.1380 
  7 C        1.1530     3.0130    -0.0130 C.2   1 <1>  -0.1360 
  8 C       -3.8010     3.3930     0.4970 C.3   1 <1>  -0.0220 
  9 C       -1.3360     5.0560    -0.2840 C.3   1 <1>   0.0580 
 10 C        1.7650     4.2500    -0.3810 C.2   1 <1>   0.6160 
 11 C       -3.8800     4.7790    -0.1750 C.3   1 <1>  -0.1600 
 12 C       -0.1410     5.8200     0.3010 C.3   1 <1>   0.1400 
 13 C       -2.6730     5.6720     0.1840 C.3   1 <1>  -0.1600 
 14 O        2.9300     4.2700    -0.7130 O.2   1 <1>  -0.5700 
 15 N        1.1270     5.4480    -0.3740 N.am  1 <1>  -0.7300 
 16 H        1.8670     2.2170     0.0830 H     1 <1>   0.1500 
 17 H       -4.1070     3.4620     1.5250 H     1 <1>   0.0800 
 18 H       -4.4570     2.7040    -0.0050 H     1 <1>   0.0800 
 19 H       -1.2910     5.1170    -1.3580 H     1 <1>   0.0800 
 20 H       -4.7960     5.2630     0.1160 H     1 <1>   0.0800 
 21 H       -3.9060     4.6450    -1.2430 H     1 <1>   0.0800 
 22 H       -0.0580     5.6210     1.3570 H     1 <1>   0.0800 
 23 H       -0.2970     6.8770     0.1700 H     1 <1>   0.0800 
 24 H       -2.7990     6.6410    -0.2680 H     1 <1>   0.0800 
 25 H       -2.6530     5.8070     1.2520 H     1 <1>   0.0800 
 26 H        1.7250     6.2280    -0.6570 H     1 <1>   0.3700 
@<TRIPOS>BOND
  1   1   2  1   
  2   2   3  2   
  3   2   4  1   
  4   3   5  1   
  5   4   6  1   
  6   4   7  2   
  7   5   6  2   
  8   5   8  1   
  9   6   9  1   
 10   7  10  1   
 11   7  16  1   
 12   8  11  1   
 13   8  17  1   
 14   8  18  1   
 15   9  12  1   
 16   9  13  1   
 17   9  19  1   
 18  10  14  2   
 19  10  15  am  
 20  11  13  1   
 21  11  20  1   
 22  11  21  1   
 23  12  15  1   
 24  12  22  1   
 25  12  23  1   
 26  13  24  1   
 27  13  25  1   
 28  15  26  1   
@<TRIPOS>SUBSTRUCTURE
  1 ****   6 GROUP 4 **** **** 0

# MOE 2024.06 (io_trps.svl 2023.06)
