@<TRIPOS>MOLECULE
NONAME
55 58 1 0 0 
SMALL
USER_CHARGES


@<TRIPOS>ATOM
  1 O        4.1030    -2.3720    -1.6610 O.2   1 <1>  -0.5700 
  2 C        3.7170    -2.3180    -0.5090 C.2   1 <1>   0.7030 
  3 N        4.5720    -1.7420     0.4110 N.am  1 <1>  -0.6600 
  4 C        2.3990    -2.8420    -0.1750 C.2   1 <1>   0.2770 
  5 C        6.0520    -1.9250     0.2490 C.3   1 <1>   0.1400 
  6 C        4.1230    -0.7440     1.4200 C.3   1 <1>   0.1400 
  7 N        1.4210    -3.1690    -1.1030 N.pl3 1 <1>  -0.7000 
  8 C        1.8660    -3.1400     1.0360 C.2   1 <1>   0.2000 
  9 C        6.6420    -0.9970    -0.8340 C.3   1 <1>   0.3430 
 10 C        4.9080     0.5720     1.3230 C.3   1 <1>  -0.1600 
 11 C        0.3420    -3.6420    -0.4660 C.cat 1 <1>   0.7910 
 12 N        0.5890    -3.6250     0.8650 N.pl3 1 <1>  -0.6290 
 13 N        6.6160     0.4700    -0.4910 N.4   1 <1>  -0.9590 
 14 C        5.2680     0.9970    -0.1040 C.3   1 <1>   0.3430 
 15 C       -0.8860    -4.1080    -0.9630 C.2   1 <1>  -0.1410 
 16 C       -0.3670    -4.0700     1.7550 C.2   1 <1>   0.2290 
 17 C        7.1850     1.2500    -1.6330 C.3   1 <1>   0.4860 
 18 C       -1.8430    -4.5500    -0.0910 C.2   1 <1>  -0.1500 
 19 C       -1.5680    -4.5250     1.2920 C.2   1 <1>  -0.1500 
 20 C        7.4210     2.6830    -1.2030 C.ar  1 <1>  -0.1440 
 21 C        8.5030     3.0040    -0.3960 C.ar  1 <1>   0.1600 
 22 C        6.5670     3.6950    -1.6060 C.ar  1 <1>  -0.1500 
 23 N        8.7760     4.2110     0.0570 N.ar  1 <1>  -0.6200 
 24 C        6.8470     4.9630    -1.1490 C.ar  1 <1>  -0.1500 
 25 C        7.9440     5.1740    -0.3280 C.ar  1 <1>   0.3930 
 26 O        8.1590     6.4370     0.0910 O.3   1 <1>  -0.3620 
 27 C        9.2710     6.7560     0.9000 C.3   1 <1>   0.1200 
 28 C        9.2330     8.2540     1.1900 C.3   1 <1>  -0.2400 
 29 H        6.2360    -2.9440    -0.0520 H     1 <1>   0.0800 
 30 H        6.5560    -1.7760     1.1880 H     1 <1>   0.0800 
 31 H        4.2330    -1.1550     2.4110 H     1 <1>   0.0800 
 32 H        3.0790    -0.5280     1.2670 H     1 <1>   0.0800 
 33 H        1.5420    -3.1010    -2.1190 H     1 <1>   0.4500 
 34 H        2.3200    -3.0460     2.0090 H     1 <1>   0.1500 
 35 H        6.1010    -1.1640    -1.7520 H     1 <1>   0.0800 
 36 H        7.6630    -1.2960    -1.0070 H     1 <1>   0.0800 
 37 H        5.7890     0.5290     1.9380 H     1 <1>   0.0800 
 38 H        4.2860     1.3410     1.7490 H     1 <1>   0.0800 
 39 H        7.2370     0.6360     0.3100 H     1 <1>   0.4500 
 40 H        5.2890     2.0750    -0.1270 H     1 <1>   0.0800 
 41 H        4.5150     0.6640    -0.8010 H     1 <1>   0.0800 
 42 H       -1.0480    -4.1090    -2.0250 H     1 <1>   0.1500 
 43 H       -0.1370    -4.0460     2.8100 H     1 <1>   0.1500 
 44 H        6.5090     1.2260    -2.4730 H     1 <1>   0.0800 
 45 H        8.1230     0.8190    -1.9450 H     1 <1>   0.0800 
 46 H       -2.8000    -4.9150    -0.4330 H     1 <1>   0.1500 
 47 H       -2.3250    -4.8750     1.9750 H     1 <1>   0.1500 
 48 H        9.1900     2.2300    -0.0970 H     1 <1>   0.1500 
 49 H        5.7190     3.5240    -2.2490 H     1 <1>   0.1500 
 50 H        6.2320     5.8030    -1.4180 H     1 <1>   0.1500 
 51 H       10.1680     6.4900     0.3670 H     1 <1>   0.0800 
 52 H        9.2050     6.1860     1.8110 H     1 <1>   0.0800 
 53 H        9.2890     8.8100     0.2710 H     1 <1>   0.0800 
 54 H       10.0710     8.5250     1.8060 H     1 <1>   0.0800 
 55 H        8.3280     8.5070     1.7110 H     1 <1>   0.0800 
@<TRIPOS>BOND
  1   1   2  2   
  2   2   3  am  
  3   2   4  1   
  4   3   5  1   
  5   3   6  1   
  6   4   7  1   
  7   4   8  2   
  8   5   9  1   
  9   5  29  1   
 10   5  30  1   
 11   6  10  1   
 12   6  31  1   
 13   6  32  1   
 14   7  11  ar  
 15   7  33  1   
 16   8  12  1   
 17   8  34  1   
 18   9  13  1   
 19   9  35  1   
 20   9  36  1   
 21  10  14  1   
 22  10  37  1   
 23  10  38  1   
 24  11  12  ar  
 25  11  15  1   
 26  12  16  1   
 27  13  14  1   
 28  13  17  1   
 29  13  39  1   
 30  14  40  1   
 31  14  41  1   
 32  15  18  2   
 33  15  42  1   
 34  16  19  2   
 35  16  43  1   
 36  17  20  1   
 37  17  44  1   
 38  17  45  1   
 39  18  19  1   
 40  18  46  1   
 41  19  47  1   
 42  20  21  ar  
 43  20  22  ar  
 44  21  23  ar  
 45  21  48  1   
 46  22  24  ar  
 47  22  49  1   
 48  23  25  ar  
 49  24  25  ar  
 50  24  50  1   
 51  25  26  1   
 52  26  27  1   
 53  27  28  1   
 54  27  51  1   
 55  27  52  1   
 56  28  53  1   
 57  28  54  1   
 58  28  55  1   
@<TRIPOS>SUBSTRUCTURE
  1 ****  14 GROUP 4 **** **** 0

# MOE 2024.06 (io_trps.svl 2023.06)
