@<TRIPOS>MOLECULE
NONAME
58 61 1 0 0 
SMALL
USER_CHARGES


@<TRIPOS>ATOM
  1 S       -0.4630    -0.3920     0.2090 S.o2  1 <1>   1.5760 
  2 O        0.0110    -1.6540     0.7220 O.2   1 <1>  -0.6500 
  3 O       -1.4560     0.3800     0.9140 O.2   1 <1>  -0.6500 
  4 N        0.8500     0.5960    -0.1480 N.am  1 <1>  -0.8490 
  5 N       -1.0820    -0.5520    -1.3310 N.am  1 <1>  -0.9140 
  6 C        1.3700     1.2710     1.0390 C.3   1 <1>   0.1960 
  7 C        1.9100    -0.1130    -0.8780 C.3   1 <1>   0.1960 
  8 C       -1.5570    -1.8410    -1.8490 C.3   1 <1>   0.2760 
  9 C        2.3280     2.4030     0.6350 C.3   1 <1>  -0.1600 
 10 C        3.2120     0.7010    -0.9850 C.3   1 <1>  -0.1600 
 11 C       -2.6430    -2.6060    -1.0790 C.3   1 <1>  -0.0800 
 12 C       -0.4380    -2.8760    -2.0390 C.3   1 <1>   0.1200 
 13 C        2.9860     2.2000    -0.7450 C.3   1 <1>  -0.0800 
 14 C       -1.9200    -3.8750    -0.6370 C.3   1 <1>   0.1200 
 15 C       -3.4140    -1.9180     0.0640 C.3   1 <1>  -0.0170 
 16 O       -0.9580    -4.0970    -1.6140 O.3   1 <1>  -0.5600 
 17 C        4.2920     2.9930    -0.8920 C.3   1 <1>   0.1200 
 18 C       -4.6220    -2.7490     0.4810 C.ar  1 <1>  -0.1430 
 19 O        4.0380     4.3380    -0.6420 O.3   1 <1>  -0.5600 
 20 C       -5.8280    -2.7640    -0.2600 C.ar  1 <1>   0.0000 
 21 C       -4.5630    -3.5200     1.6050 C.ar  1 <1>  -0.1500 
 22 C        5.1540     5.1570    -0.7650 C.3   1 <1>   0.0400 
 23 C       -6.8780    -3.5880     0.2110 C.ar  1 <1>   0.3100 
 24 C       -6.0530    -2.0100    -1.4360 C.ar  1 <1>  -0.1500 
 25 C       -5.6640    -4.2960     1.9860 C.ar  1 <1>   0.1600 
 26 N       -6.7810    -4.3470     1.3320 N.ar  1 <1>  -0.6200 
 27 C       -8.0830    -3.6300    -0.5090 C.ar  1 <1>  -0.1500 
 28 C       -7.2400    -2.0730    -2.1130 C.ar  1 <1>  -0.1500 
 29 C       -8.2690    -2.8940    -1.6470 C.ar  1 <1>  -0.1500 
 30 H       -1.8340     0.1310    -1.3340 H     1 <1>   0.4200 
 31 H        0.5630     1.6930     1.6160 H     1 <1>   0.0800 
 32 H        1.8840     0.5540     1.6590 H     1 <1>   0.0800 
 33 H        2.1310    -1.0540    -0.4010 H     1 <1>   0.0800 
 34 H        1.5490    -0.3240    -1.8710 H     1 <1>   0.0800 
 35 H       -1.9510    -1.6390    -2.8300 H     1 <1>   0.0800 
 36 H        1.7860     3.3320     0.6220 H     1 <1>   0.0800 
 37 H        3.0810     2.4920     1.3970 H     1 <1>   0.0800 
 38 H        3.9090     0.3270    -0.2560 H     1 <1>   0.0800 
 39 H        3.6460     0.5390    -1.9560 H     1 <1>   0.0800 
 40 H       -3.3630    -2.9240    -1.8110 H     1 <1>   0.0800 
 41 H        0.4300    -2.6640    -1.4450 H     1 <1>   0.0800 
 42 H       -0.1590    -2.9710    -3.0730 H     1 <1>   0.0800 
 43 H        2.3020     2.5500    -1.5010 H     1 <1>   0.0800 
 44 H       -2.5770    -4.7270    -0.5850 H     1 <1>   0.0800 
 45 H       -1.4140    -3.7410     0.3040 H     1 <1>   0.0800 
 46 H       -3.7340    -0.9330    -0.2250 H     1 <1>   0.0800 
 47 H       -2.7750    -1.8080     0.9210 H     1 <1>   0.0800 
 48 H        4.6780     2.8960    -1.8920 H     1 <1>   0.0800 
 49 H        5.0250     2.6460    -0.1830 H     1 <1>   0.0800 
 50 H       -3.6820    -3.5550     2.2200 H     1 <1>   0.1500 
 51 H        4.8520     6.1670    -0.5520 H     1 <1>   0.0800 
 52 H        5.5310     5.0960    -1.7720 H     1 <1>   0.0800 
 53 H        5.9040     4.8450    -0.0590 H     1 <1>   0.0800 
 54 H       -5.2770    -1.3700    -1.8100 H     1 <1>   0.1500 
 55 H       -5.5740    -4.8900     2.8800 H     1 <1>   0.1500 
 56 H       -8.8610    -4.2670    -0.1300 H     1 <1>   0.1500 
 57 H       -7.3980    -1.4950    -3.0080 H     1 <1>   0.1500 
 58 H       -9.1980    -2.9360    -2.1880 H     1 <1>   0.1500 
@<TRIPOS>BOND
  1   1   2  2   
  2   1   3  2   
  3   1   4  am  
  4   1   5  am  
  5   4   6  1   
  6   4   7  1   
  7   5   8  1   
  8   5  30  1   
  9   6   9  1   
 10   6  31  1   
 11   6  32  1   
 12   7  10  1   
 13   7  33  1   
 14   7  34  1   
 15   8  11  1   
 16   8  12  1   
 17   8  35  1   
 18   9  13  1   
 19   9  36  1   
 20   9  37  1   
 21  10  13  1   
 22  10  38  1   
 23  10  39  1   
 24  11  14  1   
 25  11  15  1   
 26  11  40  1   
 27  12  16  1   
 28  12  41  1   
 29  12  42  1   
 30  13  17  1   
 31  13  43  1   
 32  14  16  1   
 33  14  44  1   
 34  14  45  1   
 35  15  18  1   
 36  15  46  1   
 37  15  47  1   
 38  17  19  1   
 39  17  48  1   
 40  17  49  1   
 41  18  20  ar  
 42  18  21  ar  
 43  19  22  1   
 44  20  23  ar  
 45  20  24  ar  
 46  21  25  ar  
 47  21  50  1   
 48  22  51  1   
 49  22  52  1   
 50  22  53  1   
 51  23  26  ar  
 52  23  27  ar  
 53  24  28  ar  
 54  24  54  1   
 55  25  26  ar  
 56  25  55  1   
 57  27  29  ar  
 58  27  56  1   
 59  28  29  ar  
 60  28  57  1   
 61  29  58  1   
@<TRIPOS>SUBSTRUCTURE
  1 ****   5 GROUP 4 **** **** 0

# MOE 2024.06 (io_trps.svl 2023.06)
