@<TRIPOS>MOLECULE
NONAME
45 46 1 0 0 
SMALL
USER_CHARGES


@<TRIPOS>ATOM
  1 O       -1.3380    -0.4270     0.5560 O.2   1 <1>  -0.5700 
  2 C       -2.1540     0.4410     0.3450 C.2   1 <1>   0.5690 
  3 N       -3.4870     0.2310     0.5810 N.am  1 <1>  -0.6600 
  4 C       -1.6310     1.7670    -0.1760 C.3   1 <1>  -0.0990 
  5 C       -3.9290    -1.0280     1.2510 C.3   1 <1>   0.3200 
  6 C       -4.6050     1.0490     0.0240 C.3   1 <1>   0.1400 
  7 C       -1.0880     2.6270     0.9690 C.3   1 <1>  -0.0170 
  8 C       -4.0630    -2.1450     0.2310 C.2   1 <1>   0.0060 
  9 C       -4.9630     2.1950     0.9760 C.3   1 <1>   0.1200 
 10 C       -0.7680     4.0220     0.4640 C.ar  1 <1>  -0.1440 
 11 N       -5.1660    -2.7500    -0.0770 N.2   1 <1>  -0.5650 
 12 N       -2.9890    -2.5960    -0.4500 N.pl3 1 <1>   0.0330 
 13 O       -5.9680     2.9690     0.4150 O.3   1 <1>  -0.6800 
 14 C        0.4280     4.2670    -0.1920 C.ar  1 <1>  -0.1500 
 15 C       -1.6710     5.0580     0.6440 C.ar  1 <1>  -0.1500 
 16 C       -4.7890    -3.6470    -1.0090 C.2   1 <1>   0.0770 
 17 C       -3.4620    -3.5670    -1.2510 C.2   1 <1>  -0.3020 
 18 C        0.7220     5.5320    -0.6700 C.ar  1 <1>  -0.1430 
 19 C       -1.3860     6.3290     0.1730 C.ar  1 <1>  -0.1430 
 20 C       -0.1890     6.5590    -0.4840 C.ar  1 <1>  -0.1500 
 21 C        2.0340     5.7920    -1.3870 C.3   1 <1>  -0.0970 
 22 C       -2.3750     7.4620     0.3720 C.3   1 <1>  -0.0970 
 23 H       -2.3890     2.3110    -0.7020 H     1 <1>   0.0800 
 24 H       -0.8390     1.5710    -0.8750 H     1 <1>   0.0800 
 25 H       -4.8750    -0.8730     1.7400 H     1 <1>   0.0800 
 26 H       -3.2130    -1.3150     2.0010 H     1 <1>   0.0800 
 27 H       -5.4710     0.4220    -0.1170 H     1 <1>   0.0800 
 28 H       -4.3270     1.4360    -0.9400 H     1 <1>   0.0800 
 29 H       -0.2010     2.1710     1.3760 H     1 <1>   0.0800 
 30 H       -1.8120     2.6870     1.7620 H     1 <1>   0.0800 
 31 H       -4.1150     2.8310     1.1570 H     1 <1>   0.0800 
 32 H       -5.3310     1.8050     1.9090 H     1 <1>   0.0800 
 33 H       -2.0340    -2.2230    -0.3530 H     1 <1>   0.2700 
 34 H       -5.6540     3.4390    -0.3820 H     1 <1>   0.4000 
 35 H        1.1340     3.4670    -0.3310 H     1 <1>   0.1500 
 36 H       -2.6000     4.8790     1.1540 H     1 <1>   0.1500 
 37 H       -5.5030    -4.3120    -1.4650 H     1 <1>   0.1500 
 38 H       -2.8460    -4.1300    -1.9290 H     1 <1>   0.1500 
 39 H        0.0350     7.5440    -0.8520 H     1 <1>   0.1500 
 40 H        2.7950     6.0440    -0.6700 H     1 <1>   0.0800 
 41 H        1.9300     6.6040    -2.0830 H     1 <1>   0.0800 
 42 H        2.3440     4.9180    -1.9300 H     1 <1>   0.0800 
 43 H       -3.0040     7.2720     1.2240 H     1 <1>   0.0800 
 44 H       -2.9930     7.5630    -0.5010 H     1 <1>   0.0800 
 45 H       -1.8530     8.3870     0.5380 H     1 <1>   0.0800 
@<TRIPOS>BOND
  1   1   2  2   
  2   2   3  am  
  3   2   4  1   
  4   3   5  1   
  5   3   6  1   
  6   4   7  1   
  7   4  23  1   
  8   4  24  1   
  9   5   8  1   
 10   5  25  1   
 11   5  26  1   
 12   6   9  1   
 13   6  27  1   
 14   6  28  1   
 15   7  10  1   
 16   7  29  1   
 17   7  30  1   
 18   8  11  2   
 19   8  12  1   
 20   9  13  1   
 21   9  31  1   
 22   9  32  1   
 23  10  14  ar  
 24  10  15  ar  
 25  11  16  1   
 26  12  17  1   
 27  12  33  1   
 28  13  34  1   
 29  14  18  ar  
 30  14  35  1   
 31  15  19  ar  
 32  15  36  1   
 33  16  17  2   
 34  16  37  1   
 35  17  38  1   
 36  18  20  ar  
 37  18  21  1   
 38  19  20  ar  
 39  19  22  1   
 40  20  39  1   
 41  21  40  1   
 42  21  41  1   
 43  21  42  1   
 44  22  43  1   
 45  22  44  1   
 46  22  45  1   
@<TRIPOS>SUBSTRUCTURE
  1 ****   4 GROUP 4 **** **** 0

# MOE 2024.06 (io_trps.svl 2023.06)
