@<TRIPOS>MOLECULE
NONAME
51 54 1 0 0 
SMALL
USER_CHARGES


@<TRIPOS>ATOM
  1 O       -2.4860    -0.4120     1.7640 O.2   1 <1>  -0.5700 
  2 C       -2.7600     0.4790     0.9780 C.2   1 <1>   0.6160 
  3 N       -2.6460     1.7740     1.3760 N.am  1 <1>  -0.5470 
  4 C       -3.2510     0.2140    -0.3380 C.2   1 <1>  -0.1240 
  5 C       -3.0220     2.8470     0.5760 C.ar  1 <1>   0.1170 
  6 C       -3.6260     1.2330    -1.1530 C.2   1 <1>  -0.1780 
  7 C       -3.3120    -1.2420    -0.7520 C.3   1 <1>   0.4810 
  8 C       -3.5290     2.5930    -0.7110 C.ar  1 <1>   0.0280 
  9 C       -2.9090     4.1590     1.0290 C.ar  1 <1>  -0.1500 
 10 N       -4.1700    -2.0000     0.1930 N.4   1 <1>  -0.9590 
 11 C       -3.9110     3.6740    -1.5060 C.ar  1 <1>  -0.1500 
 12 C       -3.2920     5.2120     0.2270 C.ar  1 <1>  -0.1500 
 13 C       -5.5890    -1.5720     0.1900 C.3   1 <1>   0.3430 
 14 C       -4.1570    -3.4700    -0.0120 C.3   1 <1>   0.3430 
 15 C       -3.7950     4.9680    -1.0450 C.ar  1 <1>  -0.1500 
 16 C       -6.3370    -2.7270     0.8420 C.3   1 <1>  -0.0800 
 17 C       -5.5340    -3.9790     0.4280 C.3   1 <1>  -0.0800 
 18 C       -7.8510    -2.7600     0.5070 C.3   1 <1>   0.2800 
 19 C       -6.2060    -4.7700    -0.7070 C.3   1 <1>  -0.1600 
 20 O       -8.0270    -2.3180    -0.7900 O.3   1 <1>  -0.6800 
 21 C       -8.3700    -4.2070     0.5800 C.3   1 <1>  -0.1600 
 22 C       -8.7010    -1.8500     1.4220 C.3   1 <1>  -0.1600 
 23 C       -7.6390    -5.1970    -0.3490 C.3   1 <1>  -0.1600 
 24 C       -8.3530    -0.3510     1.4120 C.3   1 <1>  -0.2400 
 25 H       -2.2740     1.9300     2.3140 H     1 <1>   0.3700 
 26 H       -4.0010     1.0730    -2.1500 H     1 <1>   0.1500 
 27 H       -2.3130    -1.6480    -0.7380 H     1 <1>   0.0800 
 28 H       -3.7020    -1.3240    -1.7530 H     1 <1>   0.0800 
 29 H       -2.5190     4.3510     2.0130 H     1 <1>   0.1500 
 30 H       -3.7810    -1.8000     1.1350 H     1 <1>   0.4500 
 31 H       -4.3010     3.4960    -2.4930 H     1 <1>   0.1500 
 32 H       -3.2030     6.2260     0.5790 H     1 <1>   0.1500 
 33 H       -5.7280    -0.6470     0.7250 H     1 <1>   0.0800 
 34 H       -5.9290    -1.4490    -0.8260 H     1 <1>   0.0800 
 35 H       -4.0100    -3.6970    -1.0550 H     1 <1>   0.0800 
 36 H       -3.3710    -3.9310     0.5640 H     1 <1>   0.0800 
 37 H       -4.0930     5.7960    -1.6660 H     1 <1>   0.1500 
 38 H       -6.2350    -2.6230     1.9080 H     1 <1>   0.0800 
 39 H       -5.4190    -4.6330     1.2760 H     1 <1>   0.0800 
 40 H       -6.2480    -4.1530    -1.5900 H     1 <1>   0.0800 
 41 H       -5.6270    -5.6440    -0.9520 H     1 <1>   0.0800 
 42 H       -8.9670    -2.4190    -1.0380 H     1 <1>   0.4000 
 43 H       -8.2420    -4.5480     1.5930 H     1 <1>   0.0800 
 44 H       -9.4270    -4.2390     0.3790 H     1 <1>   0.0800 
 45 H       -9.7360    -1.9570     1.1460 H     1 <1>   0.0800 
 46 H       -8.6200    -2.2060     2.4350 H     1 <1>   0.0800 
 47 H       -7.6200    -6.1640     0.1260 H     1 <1>   0.0800 
 48 H       -8.1980    -5.3060    -1.2640 H     1 <1>   0.0800 
 49 H       -8.3480     0.0380     0.4090 H     1 <1>   0.0800 
 50 H       -7.3990    -0.1700     1.8720 H     1 <1>   0.0800 
 51 H       -9.0930     0.1920     1.9750 H     1 <1>   0.0800 
@<TRIPOS>BOND
  1   1   2  2   
  2   2   3  am  
  3   2   4  1   
  4   3   5  1   
  5   3  25  1   
  6   4   6  2   
  7   4   7  1   
  8   5   8  ar  
  9   5   9  ar  
 10   6   8  1   
 11   6  26  1   
 12   7  10  1   
 13   7  27  1   
 14   7  28  1   
 15   8  11  ar  
 16   9  12  ar  
 17   9  29  1   
 18  10  13  1   
 19  10  14  1   
 20  10  30  1   
 21  11  15  ar  
 22  11  31  1   
 23  12  15  ar  
 24  12  32  1   
 25  13  16  1   
 26  13  33  1   
 27  13  34  1   
 28  14  17  1   
 29  14  35  1   
 30  14  36  1   
 31  15  37  1   
 32  16  17  1   
 33  16  18  1   
 34  16  38  1   
 35  17  19  1   
 36  17  39  1   
 37  18  20  1   
 38  18  21  1   
 39  18  22  1   
 40  19  23  1   
 41  19  40  1   
 42  19  41  1   
 43  20  42  1   
 44  21  23  1   
 45  21  43  1   
 46  21  44  1   
 47  22  24  1   
 48  22  45  1   
 49  22  46  1   
 50  23  47  1   
 51  23  48  1   
 52  24  49  1   
 53  24  50  1   
 54  24  51  1   
@<TRIPOS>SUBSTRUCTURE
  1 ****  13 GROUP 4 **** **** 0

# MOE 2024.06 (io_trps.svl 2023.06)
