@<TRIPOS>MOLECULE
NONAME
50 53 1 0 0 
SMALL
USER_CHARGES


@<TRIPOS>ATOM
  1 S       -1.6720     0.6520     2.2750 S.3   1 <1>  -0.3320 
  2 C       -2.4380    -0.6240     1.2570 C.ar  1 <1>   0.1020 
  3 C        0.1060     0.7290     1.7810 C.3   1 <1>  -0.0100 
  4 C       -3.7790    -0.8730     1.4740 C.ar  1 <1>  -0.1500 
  5 C       -1.7270    -1.3270     0.2980 C.ar  1 <1>  -0.1500 
  6 C       -4.4460    -1.8380     0.7290 C.ar  1 <1>   0.1170 
  7 C       -2.3830    -2.2910    -0.4500 C.ar  1 <1>  -0.1500 
  8 N       -5.8110    -2.0430     0.9680 N.am  1 <1>  -0.5470 
  9 C       -3.7280    -2.5400    -0.2360 C.ar  1 <1>  -0.1500 
 10 C       -6.6490    -3.0760     0.6560 C.2   1 <1>   0.6900 
 11 O       -6.2100    -4.1460     0.2790 O.2   1 <1>  -0.5700 
 12 N       -8.0020    -2.8920     0.7970 N.am  1 <1>  -0.6600 
 13 C       -8.6630    -1.5500     0.8340 C.3   1 <1>   0.1400 
 14 C       -8.9350    -4.0560     0.6650 C.3   1 <1>   0.1400 
 15 C       -9.4940    -1.3090    -0.4460 C.3   1 <1>   0.1440 
 16 C      -10.3530    -3.6240     0.2530 C.3   1 <1>  -0.1600 
 17 C      -10.3780    -0.1020    -0.1790 C.ar  1 <1>   0.1670 
 18 C      -10.3030    -2.5680    -0.8630 C.3   1 <1>  -0.1600 
 19 C       -8.5990    -0.8030    -1.6100 C.3   1 <1>  -0.1600 
 20 N      -11.4530    -0.0950     0.5780 N.ar  1 <1>  -0.6200 
 21 C       -9.9090     1.0140    -0.8070 C.ar  1 <1>  -0.1430 
 22 C       -8.6490     0.7340    -1.5860 C.3   1 <1>  -0.0170 
 23 C      -12.0550     1.0830     0.6650 C.ar  1 <1>   0.4770 
 24 C      -10.6100     2.1830    -0.6440 C.ar  1 <1>   0.1600 
 25 N      -11.6970     2.2270     0.0990 N.ar  1 <1>  -0.6200 
 26 C      -13.3020     1.1360     1.5150 C.3   1 <1>  -0.0970 
 27 H        0.5790     1.4800     2.3890 H     1 <1>   0.0800 
 28 H        0.1510     0.9950     0.7410 H     1 <1>   0.0800 
 29 H        0.5430    -0.2370     1.9610 H     1 <1>   0.0800 
 30 H       -4.2980    -0.3120     2.2270 H     1 <1>   0.1500 
 31 H       -0.6860    -1.1430     0.1230 H     1 <1>   0.1500 
 32 H       -1.8490    -2.8490    -1.1990 H     1 <1>   0.1500 
 33 H       -6.2510    -1.3660     1.5790 H     1 <1>   0.3700 
 34 H       -4.2200    -3.2890    -0.8300 H     1 <1>   0.1500 
 35 H       -7.9490    -0.7550     0.9480 H     1 <1>   0.0800 
 36 H       -9.3150    -1.5180     1.6910 H     1 <1>   0.0800 
 37 H       -8.9710    -4.5890     1.6000 H     1 <1>   0.0800 
 38 H       -8.5510    -4.7300    -0.0830 H     1 <1>   0.0800 
 39 H      -10.8750    -3.2280     1.1070 H     1 <1>   0.0800 
 40 H      -10.9000    -4.4870    -0.0840 H     1 <1>   0.0800 
 41 H       -9.8410    -3.0310    -1.7180 H     1 <1>   0.0800 
 42 H      -11.3020    -2.2890    -1.1480 H     1 <1>   0.0800 
 43 H       -9.0130    -1.1240    -2.5490 H     1 <1>   0.0800 
 44 H       -7.5910    -1.1750    -1.5420 H     1 <1>   0.0800 
 45 H       -8.6940     1.1440    -2.5800 H     1 <1>   0.0800 
 46 H       -7.8000     1.1360    -1.0620 H     1 <1>   0.0800 
 47 H      -10.2820     3.0900    -1.1220 H     1 <1>   0.1500 
 48 H      -13.5150     0.1710     1.9360 H     1 <1>   0.0800 
 49 H      -14.1320     1.4460     0.9090 H     1 <1>   0.0800 
 50 H      -13.1620     1.8440     2.3100 H     1 <1>   0.0800 
@<TRIPOS>BOND
  1   1   2  1   
  2   1   3  1   
  3   2   4  ar  
  4   2   5  ar  
  5   3  27  1   
  6   3  28  1   
  7   3  29  1   
  8   4   6  ar  
  9   4  30  1   
 10   5   7  ar  
 11   5  31  1   
 12   6   8  1   
 13   6   9  ar  
 14   7   9  ar  
 15   7  32  1   
 16   8  10  am  
 17   8  33  1   
 18   9  34  1   
 19  10  11  2   
 20  10  12  am  
 21  12  13  1   
 22  12  14  1   
 23  13  15  1   
 24  13  35  1   
 25  13  36  1   
 26  14  16  1   
 27  14  37  1   
 28  14  38  1   
 29  15  17  1   
 30  15  18  1   
 31  15  19  1   
 32  16  18  1   
 33  16  39  1   
 34  16  40  1   
 35  17  20  ar  
 36  17  21  ar  
 37  18  41  1   
 38  18  42  1   
 39  19  22  1   
 40  19  43  1   
 41  19  44  1   
 42  20  23  ar  
 43  21  22  1   
 44  21  24  ar  
 45  22  45  1   
 46  22  46  1   
 47  23  25  ar  
 48  23  26  1   
 49  24  25  ar  
 50  24  47  1   
 51  26  48  1   
 52  26  49  1   
 53  26  50  1   
@<TRIPOS>SUBSTRUCTURE
  1 ****  13 GROUP 4 **** **** 0

# MOE 2024.06 (io_trps.svl 2023.06)
