@<TRIPOS>MOLECULE
NONAME
43 45 1 0 0 
SMALL
USER_CHARGES


@<TRIPOS>ATOM
  1 CL       0.0760     1.6540    -1.8420 Cl    1 <1>  -0.1770 
  2 C        1.4150     1.8150    -0.7310 C.ar  1 <1>   0.1770 
  3 C        1.9380     0.6960    -0.1000 C.ar  1 <1>  -0.1440 
  4 C        1.9210     3.0820    -0.5140 C.ar  1 <1>  -0.1500 
  5 C        2.9950     0.9090     0.7760 C.ar  1 <1>   0.1770 
  6 C        1.3500    -0.6870    -0.3730 C.3   1 <1>  -0.0960 
  7 C        2.9910     3.2910     0.3540 C.ar  1 <1>   0.0860 
  8 CL       3.7310    -0.4190     1.6420 Cl    1 <1>  -0.1770 
  9 C        3.5090     2.1710     1.0030 C.ar  1 <1>  -0.1500 
 10 C        3.5290     4.6230     0.5750 C.2   1 <1>   0.5440 
 11 O        2.7960     5.5930     0.5360 O.2   1 <1>  -0.5700 
 12 N        4.8690     4.8540     0.7910 N.am  1 <1>  -0.6600 
 13 C        5.3090     5.9830     1.6790 C.3   1 <1>   0.1400 
 14 C        5.9360     4.1440     0.0280 C.3   1 <1>   0.1400 
 15 C        6.0760     7.1510     0.9950 C.3   1 <1>   0.4230 
 16 C        6.6070     5.0790    -1.0020 C.3   1 <1>  -0.0800 
 17 N        5.7210     7.4400    -0.4510 N.4   1 <1>  -0.9590 
 18 C        7.6050     7.0140     1.1720 C.3   1 <1>   0.1200 
 19 C        8.0340     5.4890    -0.6040 C.3   1 <1>   0.1200 
 20 C        5.7060     6.2650    -1.3900 C.3   1 <1>   0.3430 
 21 C        4.3970     8.1350    -0.5250 C.3   1 <1>   0.2630 
 22 O        8.1010     5.7810     0.7540 O.3   1 <1>  -0.5600 
 23 H        1.4730     3.9190    -1.0220 H     1 <1>   0.1500 
 24 H        1.2960    -0.8640    -1.4330 H     1 <1>   0.0800 
 25 H        0.3560    -0.7470     0.0340 H     1 <1>   0.0800 
 26 H        1.9380    -1.4750     0.0590 H     1 <1>   0.0800 
 27 H        4.3200     2.2820     1.7000 H     1 <1>   0.1500 
 28 H        4.4430     6.4000     2.1630 H     1 <1>   0.0800 
 29 H        5.9190     5.5760     2.4670 H     1 <1>   0.0800 
 30 H        6.6620     3.7370     0.7140 H     1 <1>   0.0800 
 31 H        5.5010     3.3130    -0.5010 H     1 <1>   0.0800 
 32 H        5.8210     8.0320     1.5590 H     1 <1>   0.0800 
 33 H        6.7180     4.4960    -1.8980 H     1 <1>   0.0800 
 34 H        6.4360     8.0900    -0.8000 H     1 <1>   0.4500 
 35 H        7.8420     7.0940     2.2190 H     1 <1>   0.0800 
 36 H        8.1330     7.7970     0.6570 H     1 <1>   0.0800 
 37 H        8.3990     6.3270    -1.1740 H     1 <1>   0.0800 
 38 H        8.7010     4.6590    -0.7670 H     1 <1>   0.0800 
 39 H        4.6970     5.8940    -1.4690 H     1 <1>   0.0800 
 40 H        5.9920     6.6070    -2.3720 H     1 <1>   0.0800 
 41 H        3.6150     7.4990    -0.1480 H     1 <1>   0.0800 
 42 H        4.1630     8.3910    -1.5460 H     1 <1>   0.0800 
 43 H        4.4120     9.0390     0.0610 H     1 <1>   0.0800 
@<TRIPOS>BOND
  1   1   2  1   
  2   2   3  ar  
  3   2   4  ar  
  4   3   5  ar  
  5   3   6  1   
  6   4   7  ar  
  7   4  23  1   
  8   5   8  1   
  9   5   9  ar  
 10   6  24  1   
 11   6  25  1   
 12   6  26  1   
 13   7   9  ar  
 14   7  10  1   
 15   9  27  1   
 16  10  11  2   
 17  10  12  am  
 18  12  13  1   
 19  12  14  1   
 20  13  15  1   
 21  13  28  1   
 22  13  29  1   
 23  14  16  1   
 24  14  30  1   
 25  14  31  1   
 26  15  17  1   
 27  15  18  1   
 28  15  32  1   
 29  16  19  1   
 30  16  20  1   
 31  16  33  1   
 32  17  20  1   
 33  17  21  1   
 34  17  34  1   
 35  18  22  1   
 36  18  35  1   
 37  18  36  1   
 38  19  22  1   
 39  19  37  1   
 40  19  38  1   
 41  20  39  1   
 42  20  40  1   
 43  21  41  1   
 44  21  42  1   
 45  21  43  1   
@<TRIPOS>SUBSTRUCTURE
  1 ****  10 GROUP 4 **** **** 0

# MOE 2024.06 (io_trps.svl 2023.06)
