@<TRIPOS>MOLECULE
NONAME
47 50 1 0 0 
SMALL
USER_CHARGES


@<TRIPOS>ATOM
  1 F       -0.3490    -0.7060     1.5150 F     1 <1>  -0.1900 
  2 C       -0.9250    -1.8030     1.0920 C.ar  1 <1>   0.1900 
  3 C       -0.1880    -2.8980     0.6270 C.ar  1 <1>   0.0830 
  4 C       -2.3060    -1.8240     1.1250 C.ar  1 <1>  -0.1500 
  5 O        1.1710    -2.9970     0.5460 O.3   1 <1>  -0.3630 
  6 C       -0.8920    -4.0110     0.1980 C.ar  1 <1>  -0.1500 
  7 C       -2.9760    -2.9510     0.6880 C.ar  1 <1>  -0.1500 
  8 C        2.0440    -1.9860     0.9970 C.3   1 <1>   0.0400 
  9 C       -2.2880    -4.0720     0.2170 C.ar  1 <1>   0.0530 
 10 C       -2.9820    -5.2540    -0.2400 C.2   1 <1>   0.0870 
 11 O       -2.3990    -6.0830    -1.0750 O.3   1 <1>  -0.0190 
 12 C       -4.2130    -5.7640     0.0150 C.2   1 <1>  -0.2330 
 13 N       -3.1570    -7.0990    -1.3970 N.2   1 <1>  -0.4100 
 14 C       -4.2590    -6.9270    -0.7550 C.2   1 <1>   0.3720 
 15 C       -5.2520    -5.2820     0.8620 C.2   1 <1>   1.0330 
 16 N       -5.3260    -7.8250    -0.8550 N.pl3 1 <1>  -0.8210 
 17 O       -6.0600    -4.4350     0.4420 O.co2 1 <1>  -0.9000 
 18 O       -5.3690    -5.6930     2.0280 O.co2 1 <1>  -0.9000 
 19 C       -5.5450    -8.5900     0.4010 C.3   1 <1>   0.2090 
 20 C       -6.5680    -7.2020    -1.3860 C.3   1 <1>   0.2090 
 21 C       -6.6150    -9.6640     0.1890 C.3   1 <1>  -0.1600 
 22 C       -7.6130    -8.2840    -1.6520 C.3   1 <1>  -0.1600 
 23 C       -7.9110    -9.0620    -0.3670 C.3   1 <1>   0.2800 
 24 O       -8.7500   -10.1310    -0.6920 O.3   1 <1>  -0.5600 
 25 C       -8.6790    -8.2340     0.6750 C.3   1 <1>  -0.1600 
 26 C       -9.9220   -10.1360     0.0600 C.3   1 <1>   0.1200 
 27 C       -9.6660    -9.2270     1.2490 C.3   1 <1>  -0.1600 
 28 H       -2.8520    -0.9720     1.4870 H     1 <1>   0.1500 
 29 H       -0.3370    -4.8590    -0.1590 H     1 <1>   0.1500 
 30 H       -4.0530    -2.9560     0.7110 H     1 <1>   0.1500 
 31 H        3.0530    -2.3250     0.8510 H     1 <1>   0.0800 
 32 H        1.8650    -1.8110     2.0430 H     1 <1>   0.0800 
 33 H        1.8730    -1.0940     0.4210 H     1 <1>   0.0800 
 34 H       -5.8430    -7.9250     1.1910 H     1 <1>   0.0800 
 35 H       -4.6190    -9.0540     0.6950 H     1 <1>   0.0800 
 36 H       -6.3400    -6.6800    -2.3000 H     1 <1>   0.0800 
 37 H       -6.9600    -6.4890    -0.6820 H     1 <1>   0.0800 
 38 H       -6.8070   -10.1590     1.1210 H     1 <1>   0.0800 
 39 H       -6.2300   -10.3850    -0.5080 H     1 <1>   0.0800 
 40 H       -7.2270    -8.9540    -2.3990 H     1 <1>   0.0800 
 41 H       -8.5100    -7.8310    -2.0280 H     1 <1>   0.0800 
 42 H       -9.2110    -7.4350     0.1910 H     1 <1>   0.0800 
 43 H       -8.0460    -7.8010     1.4300 H     1 <1>   0.0800 
 44 H      -10.1500   -11.1460     0.3530 H     1 <1>   0.0800 
 45 H      -10.7080    -9.7430    -0.5610 H     1 <1>   0.0800 
 46 H      -10.5660    -8.7600     1.6080 H     1 <1>   0.0800 
 47 H       -9.2130    -9.7930     2.0440 H     1 <1>   0.0800 
@<TRIPOS>BOND
  1   1   2  1   
  2   2   3  ar  
  3   2   4  ar  
  4   3   5  1   
  5   3   6  ar  
  6   4   7  ar  
  7   4  28  1   
  8   5   8  1   
  9   6   9  ar  
 10   6  29  1   
 11   7   9  ar  
 12   7  30  1   
 13   8  31  1   
 14   8  32  1   
 15   8  33  1   
 16   9  10  1   
 17  10  11  1   
 18  10  12  2   
 19  11  13  1   
 20  12  14  1   
 21  12  15  1   
 22  13  14  2   
 23  14  16  1   
 24  15  17  ar  
 25  15  18  ar  
 26  16  19  1   
 27  16  20  1   
 28  19  21  1   
 29  19  34  1   
 30  19  35  1   
 31  20  22  1   
 32  20  36  1   
 33  20  37  1   
 34  21  23  1   
 35  21  38  1   
 36  21  39  1   
 37  22  23  1   
 38  22  40  1   
 39  22  41  1   
 40  23  24  1   
 41  23  25  1   
 42  24  26  1   
 43  25  27  1   
 44  25  42  1   
 45  25  43  1   
 46  26  27  1   
 47  26  44  1   
 48  26  45  1   
 49  27  46  1   
 50  27  47  1   
@<TRIPOS>SUBSTRUCTURE
  1 ****  12 GROUP 4 **** **** 0

# MOE 2024.06 (io_trps.svl 2023.06)
