@<TRIPOS>MOLECULE
NONAME
38 39 1 0 0 
SMALL
USER_CHARGES


@<TRIPOS>ATOM
  1 S        0.0090    -0.1680    -1.0450 S.o2  1 <1>   1.3330 
  2 O        0.6280     0.0700    -2.3300 O.2   1 <1>  -0.6500 
  3 O       -0.8220    -1.3350    -0.8530 O.2   1 <1>  -0.6500 
  4 N        1.2320    -0.2110     0.1330 N.am  1 <1>  -0.8490 
  5 C       -0.9320     1.2980    -0.6120 C.3   1 <1>  -0.0550 
  6 C        2.4750    -0.8080    -0.3680 C.3   1 <1>   0.1160 
  7 C        0.8240    -0.8750     1.3760 C.3   1 <1>   0.1160 
  8 C       -0.1830     2.6280    -0.8550 C.3   1 <1>  -0.0800 
  9 C       -1.0410     3.8770    -0.6490 C.3   1 <1>   0.2000 
 10 C        1.0340     2.8570     0.0500 C.3   1 <1>   0.1400 
 11 O       -1.7620     3.7430     0.5280 O.3   1 <1>  -0.6800 
 12 C       -0.0180     4.9930    -0.4540 C.3   1 <1>   0.1400 
 13 N        1.1250     4.3310     0.2290 N.am  1 <1>  -0.6600 
 14 C        2.3010     4.9530     0.5830 C.2   1 <1>   0.7160 
 15 O        3.2820     4.2660     0.7900 O.2   1 <1>  -0.5700 
 16 C        2.4010     6.3950     0.6970 C.2   1 <1>  -0.0860 
 17 C        1.5020     7.2430     1.2560 C.2   1 <1>  -0.1100 
 18 C        3.5570     7.1040     0.2080 C.2   1 <1>  -0.1500 
 19 S        2.0270     8.9090     1.1700 S.3   1 <1>  -0.0800 
 20 C        3.5150     8.4370     0.3780 C.2   1 <1>  -0.1100 
 21 H       -1.8250     1.3080    -1.2060 H     1 <1>   0.0800 
 22 H       -1.2350     1.2330     0.4140 H     1 <1>   0.0800 
 23 H        3.2290    -0.8010     0.4010 H     1 <1>   0.0800 
 24 H        2.8460    -0.2410    -1.2050 H     1 <1>   0.0800 
 25 H        2.3010    -1.8230    -0.6870 H     1 <1>   0.0800 
 26 H        1.6000    -0.7830     2.1160 H     1 <1>   0.0800 
 27 H        0.6300    -1.9200     1.1980 H     1 <1>   0.0800 
 28 H       -0.0710    -0.4200     1.7640 H     1 <1>   0.0800 
 29 H        0.1670     2.6400    -1.8730 H     1 <1>   0.0800 
 30 H       -1.7300     4.0660    -1.4560 H     1 <1>   0.0800 
 31 H        1.9320     2.4650    -0.4010 H     1 <1>   0.0800 
 32 H        0.8950     2.3980     1.0130 H     1 <1>   0.0800 
 33 H       -1.1380     3.7620     1.2820 H     1 <1>   0.4000 
 34 H       -0.4320     5.8000     0.1230 H     1 <1>   0.0800 
 35 H        0.3110     5.3630    -1.4100 H     1 <1>   0.0800 
 36 H        0.5570     7.0540     1.7320 H     1 <1>   0.1500 
 37 H        4.3680     6.5610    -0.2470 H     1 <1>   0.1500 
 38 H        4.2110     9.2170     0.1240 H     1 <1>   0.1500 
@<TRIPOS>BOND
  1   1   2  2   
  2   1   3  2   
  3   1   4  am  
  4   1   5  1   
  5   4   6  1   
  6   4   7  1   
  7   5   8  1   
  8   5  21  1   
  9   5  22  1   
 10   6  23  1   
 11   6  24  1   
 12   6  25  1   
 13   7  26  1   
 14   7  27  1   
 15   7  28  1   
 16   8   9  1   
 17   8  10  1   
 18   8  29  1   
 19   9  11  1   
 20   9  12  1   
 21   9  30  1   
 22  10  13  1   
 23  10  31  1   
 24  10  32  1   
 25  11  33  1   
 26  12  13  1   
 27  12  34  1   
 28  12  35  1   
 29  13  14  am  
 30  14  15  2   
 31  14  16  1   
 32  16  17  2   
 33  16  18  1   
 34  17  19  1   
 35  17  36  1   
 36  18  20  2   
 37  18  37  1   
 38  19  20  1   
 39  20  38  1   
@<TRIPOS>SUBSTRUCTURE
  1 ****  10 GROUP 4 **** **** 0

# MOE 2024.06 (io_trps.svl 2023.06)
