@<TRIPOS>MOLECULE
NONAME
52 54 1 0 0 
SMALL
USER_CHARGES


@<TRIPOS>ATOM
  1 CL       1.4690     0.1530    -2.4820 Cl    1 <1>  -0.1230 
  2 C        2.6990    -0.2400    -1.2940 C.2   1 <1>   0.1230 
  3 C        3.6310     0.6400    -0.7390 C.2   1 <1>   0.2030 
  4 C        2.9010    -1.4450    -0.7400 C.2   1 <1>  -0.3020 
  5 N        4.3780    -0.0220     0.1410 N.2   1 <1>  -0.7070 
  6 C        3.7320     2.0430    -1.1150 C.2   1 <1>   0.7160 
  7 N        3.9220    -1.2890     0.1210 N.pl3 1 <1>   0.3140 
  8 O        3.7000     2.3540    -2.2930 O.2   1 <1>  -0.5700 
  9 N        3.9300     3.0670    -0.1920 N.am  1 <1>  -0.6600 
 10 C        4.5010    -2.3520     0.9550 C.3   1 <1>   0.0160 
 11 C        4.3670     2.8120     1.2090 C.3   1 <1>   0.1400 
 12 C        3.9240     4.5000    -0.5990 C.3   1 <1>   0.1400 
 13 C        5.8660     2.4550     1.2510 C.3   1 <1>   0.3430 
 14 C        5.3220     5.1220    -0.4890 C.3   1 <1>  -0.1600 
 15 N        6.7790     3.5430     0.7600 N.4   1 <1>  -0.9590 
 16 C        6.4710     4.1140    -0.5870 C.3   1 <1>   0.3430 
 17 C        8.2040     3.1010     0.8100 C.3   1 <1>   0.4860 
 18 C        9.0970     4.3280     0.9690 C.ar  1 <1>   0.1670 
 19 N        8.6480     5.2660     1.8020 N.ar  1 <1>  -0.6200 
 20 C       10.2830     4.3890     0.2450 C.ar  1 <1>   0.0830 
 21 C        9.4350     6.3210     1.9350 C.ar  1 <1>   0.1600 
 22 O       10.5400     3.3100    -0.5590 O.3   1 <1>  -0.3630 
 23 C       11.0890     5.5240     0.3960 C.ar  1 <1>   0.0830 
 24 C       10.6330     6.4960     1.2720 C.ar  1 <1>  -0.1500 
 25 C       11.7740     3.1040    -1.2170 C.3   1 <1>   0.0400 
 26 O       12.2540     5.6670    -0.2890 O.3   1 <1>  -0.3630 
 27 C       13.0960     6.7920    -0.1410 C.3   1 <1>   0.0400 
 28 H        2.3880    -2.3740    -0.9070 H     1 <1>   0.1500 
 29 H        3.7300    -2.7810     1.5680 H     1 <1>   0.0800 
 30 H        5.2690    -1.9360     1.5810 H     1 <1>   0.0800 
 31 H        4.9240    -3.1080     0.3210 H     1 <1>   0.0800 
 32 H        3.7940     2.0000     1.6220 H     1 <1>   0.0800 
 33 H        4.1790     3.6760     1.8220 H     1 <1>   0.0800 
 34 H        3.2290     5.0440     0.0190 H     1 <1>   0.0800 
 35 H        3.5760     4.5950    -1.6140 H     1 <1>   0.0800 
 36 H        6.0200     1.5700     0.6560 H     1 <1>   0.0800 
 37 H        6.1250     2.2070     2.2660 H     1 <1>   0.0800 
 38 H        5.4050     5.6950     0.4170 H     1 <1>   0.0800 
 39 H        5.4210     5.8210    -1.3000 H     1 <1>   0.0800 
 40 H        6.7780     4.3360     1.4250 H     1 <1>   0.4500 
 41 H        7.3400     4.6360    -0.9560 H     1 <1>   0.0800 
 42 H        6.2270     3.3320    -1.2900 H     1 <1>   0.0800 
 43 H        8.4590     2.5510    -0.0800 H     1 <1>   0.0800 
 44 H        8.3610     2.4640     1.6640 H     1 <1>   0.0800 
 45 H        9.1070     7.0950     2.6110 H     1 <1>   0.1500 
 46 H       11.1870     7.3960     1.4560 H     1 <1>   0.1500 
 47 H       11.7520     2.1350    -1.6830 H     1 <1>   0.0800 
 48 H       12.5690     3.1430    -0.4930 H     1 <1>   0.0800 
 49 H       11.9020     3.8640    -1.9680 H     1 <1>   0.0800 
 50 H       13.9500     6.6560    -0.7800 H     1 <1>   0.0800 
 51 H       13.4160     6.8580     0.8840 H     1 <1>   0.0800 
 52 H       12.5580     7.6750    -0.4370 H     1 <1>   0.0800 
@<TRIPOS>BOND
  1   1   2  1   
  2   2   3  1   
  3   2   4  2   
  4   3   5  2   
  5   3   6  1   
  6   4   7  1   
  7   4  28  1   
  8   5   7  1   
  9   6   8  2   
 10   6   9  am  
 11   7  10  1   
 12   9  11  1   
 13   9  12  1   
 14  10  29  1   
 15  10  30  1   
 16  10  31  1   
 17  11  13  1   
 18  11  32  1   
 19  11  33  1   
 20  12  14  1   
 21  12  34  1   
 22  12  35  1   
 23  13  15  1   
 24  13  36  1   
 25  13  37  1   
 26  14  16  1   
 27  14  38  1   
 28  14  39  1   
 29  15  16  1   
 30  15  17  1   
 31  15  40  1   
 32  16  41  1   
 33  16  42  1   
 34  17  18  1   
 35  17  43  1   
 36  17  44  1   
 37  18  19  ar  
 38  18  20  ar  
 39  19  21  ar  
 40  20  22  1   
 41  20  23  ar  
 42  21  24  ar  
 43  21  45  1   
 44  22  25  1   
 45  23  24  ar  
 46  23  26  1   
 47  24  46  1   
 48  25  47  1   
 49  25  48  1   
 50  25  49  1   
 51  26  27  1   
 52  27  50  1   
 53  27  51  1   
 54  27  52  1   
@<TRIPOS>SUBSTRUCTURE
  1 ****  15 GROUP 4 **** **** 0

# MOE 2024.06 (io_trps.svl 2023.06)
