@<TRIPOS>MOLECULE
NONAME
57 61 1 0 0 
SMALL
USER_CHARGES


@<TRIPOS>ATOM
  1 O        0.0180     0.3120    -2.4510 O.2   1 <1>  -0.5700 
  2 C       -0.4260     1.3730    -2.0520 C.2   1 <1>   0.7160 
  3 N       -1.7800     1.4710    -1.8000 N.am  1 <1>  -0.6600 
  4 C        0.4770     2.4740    -1.8210 C.2   1 <1>  -0.0860 
  5 C       -2.5010     2.7350    -1.4520 C.3   1 <1>   0.1400 
  6 C       -2.6190     0.2370    -1.6930 C.3   1 <1>   0.1400 
  7 C        1.5230     2.6280    -0.9520 C.2   1 <1>  -0.3320 
  8 C        0.4600     3.6840    -2.5200 C.2   1 <1>   0.1390 
  9 C       -2.9670     2.7330     0.0210 C.3   1 <1>   0.1440 
 10 C       -3.7480     0.3980    -0.6580 C.3   1 <1>  -0.1600 
 11 N        2.0290     3.8560    -1.1590 N.pl3 1 <1>   0.3000 
 12 C        2.1250     1.6670     0.0680 C.3   1 <1>   0.1000 
 13 N        1.3630     4.5190    -2.1190 N.2   1 <1>  -0.7070 
 14 C       -4.1410     3.6930     0.1320 C.ar  1 <1>   0.1670 
 15 C       -3.3200     1.3040     0.5100 C.3   1 <1>  -0.1600 
 16 C       -1.9150     3.4020     0.9430 C.3   1 <1>  -0.1600 
 17 C        3.0010     0.6280    -0.6470 C.3   1 <1>  -0.1600 
 18 C        1.0580     0.9800     0.9370 C.3   1 <1>  -0.1600 
 19 N       -5.3650     3.4600    -0.2910 N.ar  1 <1>  -0.6200 
 20 C       -3.7770     4.8670     0.7220 C.ar  1 <1>  -0.1430 
 21 C       -2.3170     4.8780     1.0950 C.3   1 <1>  -0.0170 
 22 C        3.6310    -0.3610     0.3440 C.3   1 <1>  -0.1600 
 23 C        1.6920    -0.0010     1.9330 C.3   1 <1>  -0.1600 
 24 C       -6.2160     4.4550    -0.0860 C.ar  1 <1>   0.4770 
 25 C       -4.7400     5.8310     0.8820 C.ar  1 <1>   0.1600 
 26 C        2.5590    -1.0380     1.2070 C.3   1 <1>  -0.1600 
 27 N       -5.9780     5.6320     0.4780 N.ar  1 <1>  -0.6200 
 28 C       -7.6340     4.2190    -0.5460 C.3   1 <1>  -0.0970 
 29 H       -3.3650     2.8030    -2.0920 H     1 <1>   0.0800 
 30 H       -1.9050     3.6060    -1.6440 H     1 <1>   0.0800 
 31 H       -1.9940    -0.5870    -1.3930 H     1 <1>   0.0800 
 32 H       -3.0340     0.0010    -2.6590 H     1 <1>   0.0800 
 33 H       -0.2350     3.9030    -3.3130 H     1 <1>   0.1500 
 34 H       -4.0290    -0.5730    -0.2890 H     1 <1>   0.0800 
 35 H       -4.6140     0.8190    -1.1390 H     1 <1>   0.0800 
 36 H        2.8350     4.2690    -0.6740 H     1 <1>   0.2700 
 37 H        2.7610     2.2310     0.7310 H     1 <1>   0.0800 
 38 H       -4.1020     1.3510     1.2490 H     1 <1>   0.0800 
 39 H       -2.4570     0.8570     0.9720 H     1 <1>   0.0800 
 40 H       -0.9170     3.3080     0.5560 H     1 <1>   0.0800 
 41 H       -1.9490     2.9460     1.9180 H     1 <1>   0.0800 
 42 H        3.7760     1.1270    -1.2010 H     1 <1>   0.0800 
 43 H        2.3980     0.0820    -1.3520 H     1 <1>   0.0800 
 44 H        0.3730     0.4370     0.3140 H     1 <1>   0.0800 
 45 H        0.5030     1.7220     1.4790 H     1 <1>   0.0800 
 46 H       -1.7700     5.4950     0.4030 H     1 <1>   0.0800 
 47 H       -2.1640     5.2300     2.1010 H     1 <1>   0.0800 
 48 H        4.3260     0.1610     0.9800 H     1 <1>   0.0800 
 49 H        4.1810    -1.1110    -0.1990 H     1 <1>   0.0800 
 50 H        0.9160    -0.5060     2.4840 H     1 <1>   0.0800 
 51 H        2.2980     0.5410     2.6380 H     1 <1>   0.0800 
 52 H       -4.4990     6.7740     1.3430 H     1 <1>   0.1500 
 53 H        3.0300    -1.6850     1.9270 H     1 <1>   0.0800 
 54 H        1.9310    -1.6470     0.5770 H     1 <1>   0.0800 
 55 H       -7.6470     3.5250    -1.3660 H     1 <1>   0.0800 
 56 H       -8.0770     5.1440    -0.8650 H     1 <1>   0.0800 
 57 H       -8.2070     3.8160     0.2670 H     1 <1>   0.0800 
@<TRIPOS>BOND
  1   1   2  2   
  2   2   3  am  
  3   2   4  1   
  4   3   5  1   
  5   3   6  1   
  6   4   7  2   
  7   4   8  1   
  8   5   9  1   
  9   5  29  1   
 10   5  30  1   
 11   6  10  1   
 12   6  31  1   
 13   6  32  1   
 14   7  11  1   
 15   7  12  1   
 16   8  13  2   
 17   8  33  1   
 18   9  14  1   
 19   9  15  1   
 20   9  16  1   
 21  10  15  1   
 22  10  34  1   
 23  10  35  1   
 24  11  13  1   
 25  11  36  1   
 26  12  17  1   
 27  12  18  1   
 28  12  37  1   
 29  14  19  ar  
 30  14  20  ar  
 31  15  38  1   
 32  15  39  1   
 33  16  21  1   
 34  16  40  1   
 35  16  41  1   
 36  17  22  1   
 37  17  42  1   
 38  17  43  1   
 39  18  23  1   
 40  18  44  1   
 41  18  45  1   
 42  19  24  ar  
 43  20  21  1   
 44  20  25  ar  
 45  21  46  1   
 46  21  47  1   
 47  22  26  1   
 48  22  48  1   
 49  22  49  1   
 50  23  26  1   
 51  23  50  1   
 52  23  51  1   
 53  24  27  ar  
 54  24  28  1   
 55  25  27  ar  
 56  25  52  1   
 57  26  53  1   
 58  26  54  1   
 59  28  55  1   
 60  28  56  1   
 61  28  57  1   
@<TRIPOS>SUBSTRUCTURE
  1 ****   5 GROUP 4 **** **** 0

# MOE 2024.06 (io_trps.svl 2023.06)
