@<TRIPOS>MOLECULE
NONAME
52 55 1 0 0 
SMALL
USER_CHARGES


@<TRIPOS>ATOM
  1 O       -0.3940    -0.2220     0.2320 O.2   1 <1>  -0.5700 
  2 C       -1.4030     0.4540     0.1710 C.2   1 <1>   0.7160 
  3 N       -2.5940    -0.1680     0.3690 N.am  1 <1>  -0.7300 
  4 C       -1.3610     1.8610    -0.1070 C.2   1 <1>  -0.0860 
  5 C       -2.8310    -1.6200     0.4380 C.3   1 <1>   0.2350 
  6 C       -2.4710     2.6970    -0.3020 C.2   1 <1>   0.3720 
  7 C       -0.3060     2.7080    -0.2780 C.2   1 <1>   0.0870 
  8 C       -4.1290    -2.0170    -0.2970 C.3   1 <1>  -0.1900 
  9 N       -2.1090     3.9010    -0.5740 N.2   1 <1>  -0.4100 
 10 N       -3.8180     2.3120    -0.2130 N.pl3 1 <1>  -0.8210 
 11 O       -0.8050     3.8860    -0.5580 O.3   1 <1>  -0.0190 
 12 C        1.1250     2.5580    -0.2130 C.ar  1 <1>   0.0530 
 13 C       -4.5210    -1.3060    -1.5590 C.3   1 <1>  -0.2000 
 14 C       -5.3320    -1.1210    -0.3020 C.3   1 <1>  -0.2000 
 15 C       -4.3580    -3.5340    -0.2530 C.3   1 <1>   0.2150 
 16 C       -4.5170     2.8700     0.9780 C.3   1 <1>   0.2090 
 17 C       -4.6290     2.6260    -1.4250 C.3   1 <1>   0.2090 
 18 C        1.7510     1.8120     0.7860 C.ar  1 <1>  -0.1500 
 19 C        1.9460     3.1830    -1.1530 C.ar  1 <1>  -0.1500 
 20 O       -4.7750    -3.8910     1.0160 O.3   1 <1>  -0.6800 
 21 C       -5.9220     3.2130     0.5100 C.3   1 <1>  -0.1600 
 22 C       -5.7430     3.5530    -0.9610 C.3   1 <1>  -0.1600 
 23 C        3.1270     1.6850     0.8430 C.ar  1 <1>  -0.1500 
 24 C        3.3210     3.0640    -1.1020 C.ar  1 <1>  -0.1500 
 25 C        3.9260     2.3140    -0.1070 C.ar  1 <1>   0.0830 
 26 O        5.2780     2.2420    -0.1250 O.3   1 <1>  -0.3620 
 27 C        5.9870     1.4680     0.8160 C.3   1 <1>   0.0400 
 28 H       -3.4240     0.4160     0.1970 H     1 <1>   0.3700 
 29 H       -2.8960    -1.9030     1.4740 H     1 <1>   0.0800 
 30 H       -1.9940    -2.1400     0.0000 H     1 <1>   0.0800 
 31 H       -4.9610    -1.8630    -2.3680 H     1 <1>   0.1000 
 32 H       -3.9210    -0.4860    -1.9160 H     1 <1>   0.1000 
 33 H       -5.3010    -0.1710     0.2020 H     1 <1>   0.1000 
 34 H       -6.3060    -1.5760    -0.2400 H     1 <1>   0.1000 
 35 H       -3.4560    -4.0750    -0.4860 H     1 <1>   0.0800 
 36 H       -5.1320    -3.8310    -0.9410 H     1 <1>   0.0800 
 37 H       -4.0160     3.7640     1.3160 H     1 <1>   0.0800 
 38 H       -4.5360     2.1510     1.7780 H     1 <1>   0.0800 
 39 H       -5.0490     1.7120    -1.8070 H     1 <1>   0.0800 
 40 H       -4.0370     3.0880    -2.1990 H     1 <1>   0.0800 
 41 H        1.1490     1.3240     1.5310 H     1 <1>   0.1500 
 42 H        1.4950     3.7700    -1.9340 H     1 <1>   0.1500 
 43 H       -4.1940    -3.4990     1.6920 H     1 <1>   0.4000 
 44 H       -6.3430     4.0280     1.0720 H     1 <1>   0.0800 
 45 H       -6.5510     2.3460     0.6150 H     1 <1>   0.0800 
 46 H       -6.6440     3.4150    -1.5310 H     1 <1>   0.0800 
 47 H       -5.4110     4.5720    -1.0650 H     1 <1>   0.0800 
 48 H        3.5570     1.0960     1.6300 H     1 <1>   0.1500 
 49 H        3.9390     3.5520    -1.8340 H     1 <1>   0.1500 
 50 H        7.0350     1.5510     0.5950 H     1 <1>   0.0800 
 51 H        5.6740     0.4420     0.7300 H     1 <1>   0.0800 
 52 H        5.7890     1.8500     1.8020 H     1 <1>   0.0800 
@<TRIPOS>BOND
  1   1   2  2   
  2   2   3  am  
  3   2   4  1   
  4   3   5  1   
  5   3  28  1   
  6   4   6  1   
  7   4   7  2   
  8   5   8  1   
  9   5  29  1   
 10   5  30  1   
 11   6   9  2   
 12   6  10  1   
 13   7  11  1   
 14   7  12  1   
 15   8  13  1   
 16   8  14  1   
 17   8  15  1   
 18   9  11  1   
 19  10  16  1   
 20  10  17  1   
 21  12  18  ar  
 22  12  19  ar  
 23  13  14  1   
 24  13  31  1   
 25  13  32  1   
 26  14  33  1   
 27  14  34  1   
 28  15  20  1   
 29  15  35  1   
 30  15  36  1   
 31  16  21  1   
 32  16  37  1   
 33  16  38  1   
 34  17  22  1   
 35  17  39  1   
 36  17  40  1   
 37  18  23  ar  
 38  18  41  1   
 39  19  24  ar  
 40  19  42  1   
 41  20  43  1   
 42  21  22  1   
 43  21  44  1   
 44  21  45  1   
 45  22  46  1   
 46  22  47  1   
 47  23  25  ar  
 48  23  48  1   
 49  24  25  ar  
 50  24  49  1   
 51  25  26  1   
 52  26  27  1   
 53  27  50  1   
 54  27  51  1   
 55  27  52  1   
@<TRIPOS>SUBSTRUCTURE
  1 ****   4 GROUP 4 **** **** 0

# MOE 2024.06 (io_trps.svl 2023.06)
