@<TRIPOS>MOLECULE
NONAME
51 54 1 0 0 
SMALL
USER_CHARGES


@<TRIPOS>ATOM
  1 O       -1.1960     0.3070     2.5700 O.2   1 <1>  -0.5700 
  2 C       -1.6010     0.9150     1.6050 C.2   1 <1>   0.5690 
  3 N       -2.2920     0.2600     0.6150 N.am  1 <1>  -0.6600 
  4 C       -1.3640     2.4360     1.5460 C.3   1 <1>   0.1710 
  5 C       -3.0530     0.8570    -0.5130 C.3   1 <1>   0.1400 
  6 C       -2.4860    -1.2120     0.6370 C.3   1 <1>   0.1400 
  7 N       -0.1060     2.8940     0.8900 N.3   1 <1>  -0.8100 
  8 C       -4.1080    -0.1950    -0.8480 C.3   1 <1>   0.2000 
  9 C       -3.3970    -1.5220    -0.5570 C.3   1 <1>  -0.0800 
 10 C        0.0300     4.3610     0.9970 C.3   1 <1>   0.2530 
 11 C        0.0410     2.4380    -0.4980 C.3   1 <1>   0.1100 
 12 O       -5.1680    -0.0330     0.0310 O.3   1 <1>  -0.6800 
 13 C       -4.3210    -2.7340    -0.3370 C.3   1 <1>  -0.0170 
 14 C        1.1900     4.9300     0.1830 C.ar  1 <1>  -0.1440 
 15 C        1.4660     2.7170    -0.9830 C.3   1 <1>  -0.0170 
 16 C       -3.5080    -4.0050    -0.1500 C.ar  1 <1>  -0.1440 
 17 C        1.8600     4.1670    -0.7650 C.ar  1 <1>  -0.1440 
 18 C        1.5710     6.2490     0.3840 C.ar  1 <1>  -0.1500 
 19 C       -3.0480    -4.7380    -1.2260 C.ar  1 <1>  -0.1500 
 20 C       -3.1830    -4.4910     1.1010 C.ar  1 <1>  -0.1500 
 21 C        2.8960     4.7240    -1.4980 C.ar  1 <1>  -0.1500 
 22 C        2.6040     6.8040    -0.3490 C.ar  1 <1>  -0.1500 
 23 C       -2.3040    -5.8850    -1.0060 C.ar  1 <1>   0.1600 
 24 C       -2.4310    -5.6490     1.2120 C.ar  1 <1>   0.1600 
 25 C        3.2680     6.0410    -1.2930 C.ar  1 <1>  -0.1500 
 26 N       -1.9820    -6.3570     0.1880 N.ar  1 <1>  -0.6200 
 27 H       -1.3500     2.7790     2.5650 H     1 <1>   0.0800 
 28 H       -2.2040     2.9030     1.0690 H     1 <1>   0.0800 
 29 H       -3.5070     1.7970    -0.2560 H     1 <1>   0.0800 
 30 H       -2.3930     0.9880    -1.3520 H     1 <1>   0.0800 
 31 H       -1.5400    -1.7210     0.5550 H     1 <1>   0.0800 
 32 H       -2.9550    -1.4890     1.5650 H     1 <1>   0.0800 
 33 H       -4.4820    -0.1180    -1.8550 H     1 <1>   0.0800 
 34 H       -2.7580    -1.7360    -1.3960 H     1 <1>   0.0800 
 35 H       -0.8770     4.8300     0.6560 H     1 <1>   0.0800 
 36 H        0.1730     4.6180     2.0320 H     1 <1>   0.0800 
 37 H       -0.1310     1.3780    -0.5600 H     1 <1>   0.0800 
 38 H       -0.6670     2.9480    -1.1290 H     1 <1>   0.0800 
 39 H       -4.8160    -0.0070     0.9450 H     1 <1>   0.4000 
 40 H       -4.9710    -2.8480    -1.1880 H     1 <1>   0.0800 
 41 H       -4.9470    -2.5800     0.5250 H     1 <1>   0.0800 
 42 H        2.1460     2.0850    -0.4400 H     1 <1>   0.0800 
 43 H        1.5380     2.4690    -2.0250 H     1 <1>   0.0800 
 44 H        1.0620     6.8520     1.1160 H     1 <1>   0.1500 
 45 H       -3.2610    -4.4290    -2.2330 H     1 <1>   0.1500 
 46 H       -3.5050    -3.9830     1.9910 H     1 <1>   0.1500 
 47 H        3.4200     4.1340    -2.2280 H     1 <1>   0.1500 
 48 H        2.8930     7.8280    -0.1860 H     1 <1>   0.1500 
 49 H       -1.9540    -6.4440    -1.8560 H     1 <1>   0.1500 
 50 H       -2.1860    -6.0120     2.1950 H     1 <1>   0.1500 
 51 H        4.0720     6.4700    -1.8640 H     1 <1>   0.1500 
@<TRIPOS>BOND
  1   1   2  2   
  2   2   3  am  
  3   2   4  1   
  4   3   5  1   
  5   3   6  1   
  6   4   7  1   
  7   4  27  1   
  8   4  28  1   
  9   5   8  1   
 10   5  29  1   
 11   5  30  1   
 12   6   9  1   
 13   6  31  1   
 14   6  32  1   
 15   7  10  1   
 16   7  11  1   
 17   8   9  1   
 18   8  12  1   
 19   8  33  1   
 20   9  13  1   
 21   9  34  1   
 22  10  14  1   
 23  10  35  1   
 24  10  36  1   
 25  11  15  1   
 26  11  37  1   
 27  11  38  1   
 28  12  39  1   
 29  13  16  1   
 30  13  40  1   
 31  13  41  1   
 32  14  17  ar  
 33  14  18  ar  
 34  15  17  1   
 35  15  42  1   
 36  15  43  1   
 37  16  19  ar  
 38  16  20  ar  
 39  17  21  ar  
 40  18  22  ar  
 41  18  44  1   
 42  19  23  ar  
 43  19  45  1   
 44  20  24  ar  
 45  20  46  1   
 46  21  25  ar  
 47  21  47  1   
 48  22  25  ar  
 49  22  48  1   
 50  23  26  ar  
 51  23  49  1   
 52  24  26  ar  
 53  24  50  1   
 54  25  51  1   
@<TRIPOS>SUBSTRUCTURE
  1 ****   3 GROUP 4 **** **** 0

# MOE 2024.06 (io_trps.svl 2023.06)
