@<TRIPOS>MOLECULE
NONAME
42 44 1 0 0 
SMALL
USER_CHARGES


@<TRIPOS>ATOM
  1 O        0.6320    -2.0120     1.9920 O.3   1 <1>  -0.5600 
  2 C        0.5700    -1.4630     0.7040 C.3   1 <1>   0.2000 
  3 C       -0.4480    -1.6930     2.8180 C.3   1 <1>   0.0400 
  4 C        1.9900    -1.4590     0.1060 C.3   1 <1>   0.0000 
  5 C       -0.2370    -2.4050    -0.2000 C.3   1 <1>  -0.1600 
  6 C        3.0460    -1.0460     1.1520 C.3   1 <1>   0.2090 
  7 C        2.0760    -0.4720    -1.0880 C.3   1 <1>  -0.1600 
  8 C        2.1540    -2.9180    -0.3660 C.3   1 <1>  -0.1600 
  9 C        0.7710    -3.3600    -0.8530 C.3   1 <1>  -0.1600 
 10 N        4.4120    -1.0770     0.5380 N.pl3 1 <1>  -0.8380 
 11 C        3.5120    -0.3170    -1.6310 C.3   1 <1>  -0.1600 
 12 C        5.3970    -1.9710     0.8110 C.ar  1 <1>   0.7710 
 13 C        4.5410    -0.0350    -0.5290 C.3   1 <1>   0.2090 
 14 N        6.5970    -1.8230     0.2610 N.ar  1 <1>  -0.6200 
 15 N        5.1210    -3.0010     1.6350 N.ar  1 <1>  -0.1790 
 16 C        7.5180    -2.7090     0.5520 C.ar  1 <1>   0.4100 
 17 C        6.0520    -3.9330     1.9530 C.ar  1 <1>   0.2110 
 18 N        8.7100    -2.5220    -0.0170 N.pl3 1 <1>  -0.9000 
 19 C        7.2840    -3.7960     1.4080 C.ar  1 <1>  -0.1500 
 20 H        0.1500    -0.4720     0.7580 H     1 <1>   0.0800 
 21 H       -0.3030    -2.1800     3.7660 H     1 <1>   0.0800 
 22 H       -1.3630    -2.0420     2.3730 H     1 <1>   0.0800 
 23 H       -0.4840    -0.6270     2.9620 H     1 <1>   0.0800 
 24 H       -0.9960    -2.9420     0.3410 H     1 <1>   0.0800 
 25 H       -0.7160    -1.8260    -0.9700 H     1 <1>   0.0800 
 26 H        2.9920    -1.6780     2.0190 H     1 <1>   0.0800 
 27 H        2.8340    -0.0440     1.4870 H     1 <1>   0.0800 
 28 H        1.4280    -0.7830    -1.8880 H     1 <1>   0.0800 
 29 H        1.7370     0.4970    -0.7620 H     1 <1>   0.0800 
 30 H        2.9010    -3.0400    -1.1290 H     1 <1>   0.0800 
 31 H        2.4150    -3.5380     0.4730 H     1 <1>   0.0800 
 32 H        0.5760    -4.3810    -0.5720 H     1 <1>   0.0800 
 33 H        0.7090    -3.2780    -1.9250 H     1 <1>   0.0800 
 34 H        3.5360     0.4880    -2.3440 H     1 <1>   0.0800 
 35 H        3.8070    -1.2080    -2.1560 H     1 <1>   0.0800 
 36 H        4.3580     0.9360    -0.1010 H     1 <1>   0.0800 
 37 H        5.5280    -0.0170    -0.9610 H     1 <1>   0.0800 
 38 H        4.1640    -3.0360     1.9720 H     1 <1>   0.4570 
 39 H        5.7870    -4.7410     2.6170 H     1 <1>   0.1500 
 40 H        8.8570    -1.7190    -0.6350 H     1 <1>   0.4000 
 41 H        9.5310    -3.1190     0.1080 H     1 <1>   0.4000 
 42 H        8.0830    -4.4870     1.6050 H     1 <1>   0.1500 
@<TRIPOS>BOND
  1   1   2  1   
  2   1   3  1   
  3   2   4  1   
  4   2   5  1   
  5   2  20  1   
  6   3  21  1   
  7   3  22  1   
  8   3  23  1   
  9   4   6  1   
 10   4   7  1   
 11   4   8  1   
 12   5   9  1   
 13   5  24  1   
 14   5  25  1   
 15   6  10  1   
 16   6  26  1   
 17   6  27  1   
 18   7  11  1   
 19   7  28  1   
 20   7  29  1   
 21   8   9  1   
 22   8  30  1   
 23   8  31  1   
 24   9  32  1   
 25   9  33  1   
 26  10  12  1   
 27  10  13  1   
 28  11  13  1   
 29  11  34  1   
 30  11  35  1   
 31  12  14  ar  
 32  12  15  ar  
 33  13  36  1   
 34  13  37  1   
 35  14  16  ar  
 36  15  17  ar  
 37  15  38  1   
 38  16  18  1   
 39  16  19  ar  
 40  17  19  ar  
 41  17  39  1   
 42  18  40  1   
 43  18  41  1   
 44  19  42  1   
@<TRIPOS>SUBSTRUCTURE
  1 ****  10 GROUP 4 **** **** 0

# MOE 2024.06 (io_trps.svl 2023.06)
