@<TRIPOS>MOLECULE
NONAME
51 54 1 0 0 
SMALL
USER_CHARGES


@<TRIPOS>ATOM
  1 O        0.5420    -0.9490     0.6680 O.2   1 <1>  -0.5700 
  2 C        0.1700    -1.9580     0.0850 C.2   1 <1>   0.6160 
  3 N        0.9900    -3.0740     0.0020 N.am  1 <1>  -0.4690 
  4 C       -1.1100    -2.0340    -0.5280 C.2   1 <1>  -0.1360 
  5 C        0.5570    -4.2110    -0.6380 C.2   1 <1>  -0.0410 
  6 C        2.3500    -3.0190     0.5990 C.3   1 <1>   0.0600 
  7 C       -1.5290    -3.1630    -1.1580 C.2   1 <1>  -0.1500 
  8 C       -0.6860    -4.3150    -1.2140 C.2   1 <1>   0.0140 
  9 C       -1.1210    -5.5270    -1.8680 C.2   1 <1>   0.6160 
 10 O       -0.3240    -6.1620    -2.5360 O.2   1 <1>  -0.5700 
 11 N       -2.4110    -6.0060    -1.7480 N.am  1 <1>  -0.6600 
 12 C       -3.2460    -5.8150    -0.5310 C.3   1 <1>   0.1400 
 13 C       -2.9700    -6.9900    -2.7170 C.3   1 <1>   0.1400 
 14 C       -3.4170    -7.1600     0.1770 C.3   1 <1>  -0.1600 
 15 C       -3.1460    -8.3440    -2.0260 C.3   1 <1>  -0.1600 
 16 C       -4.0050    -8.2320    -0.7570 C.3   1 <1>   0.4240 
 17 O       -5.2640    -7.7800    -1.1980 O.3   1 <1>  -0.5600 
 18 C       -4.1000    -9.6010    -0.0490 C.ar  1 <1>  -0.1430 
 19 C       -6.3610    -8.0170    -0.3710 C.3   1 <1>   0.1200 
 20 C       -5.3300   -10.2130     0.1730 C.ar  1 <1>  -0.1430 
 21 C       -2.9500   -10.2500     0.3880 C.ar  1 <1>  -0.1500 
 22 C       -6.5980    -9.5210    -0.2840 C.3   1 <1>  -0.0170 
 23 C       -5.4050   -11.4430     0.8070 C.ar  1 <1>  -0.1500 
 24 C       -3.0240   -11.4760     1.0230 C.ar  1 <1>  -0.1500 
 25 C       -4.2480   -12.0830     1.2370 C.ar  1 <1>   0.0830 
 26 O       -4.2340   -13.2860     1.8650 O.3   1 <1>  -0.3620 
 27 C       -5.4260   -13.9970     2.1120 C.3   1 <1>   0.0400 
 28 H       -1.7150    -1.1490    -0.4660 H     1 <1>   0.1500 
 29 H        1.2340    -5.0490    -0.6840 H     1 <1>   0.1500 
 30 H        2.9140    -2.2310     0.1320 H     1 <1>   0.0800 
 31 H        2.8650    -3.9530     0.4580 H     1 <1>   0.0800 
 32 H        2.2710    -2.8140     1.6520 H     1 <1>   0.0800 
 33 H       -2.4940    -3.2170    -1.6330 H     1 <1>   0.1500 
 34 H       -4.2070    -5.4240    -0.8200 H     1 <1>   0.0800 
 35 H       -2.7850    -5.1180     0.1460 H     1 <1>   0.0800 
 36 H       -2.3180    -7.0970    -3.5670 H     1 <1>   0.0800 
 37 H       -3.9220    -6.6330    -3.0720 H     1 <1>   0.0800 
 38 H       -4.0410    -7.0450     1.0430 H     1 <1>   0.0800 
 39 H       -2.4530    -7.4800     0.5260 H     1 <1>   0.0800 
 40 H       -2.1710    -8.7210    -1.7850 H     1 <1>   0.0800 
 41 H       -3.6050    -9.0420    -2.7010 H     1 <1>   0.0800 
 42 H       -7.2140    -7.5260    -0.8050 H     1 <1>   0.0800 
 43 H       -6.1700    -7.5980     0.6010 H     1 <1>   0.0800 
 44 H       -1.9810    -9.8080     0.2380 H     1 <1>   0.1500 
 45 H       -6.8860    -9.8940    -1.2510 H     1 <1>   0.0800 
 46 H       -7.3980    -9.7130     0.4060 H     1 <1>   0.0800 
 47 H       -6.3680   -11.8910     0.9590 H     1 <1>   0.1500 
 48 H       -2.1300   -11.9720     1.3560 H     1 <1>   0.1500 
 49 H       -5.1680   -14.9160     2.6070 H     1 <1>   0.0800 
 50 H       -5.9070   -14.2090     1.1740 H     1 <1>   0.0800 
 51 H       -6.0600   -13.4050     2.7480 H     1 <1>   0.0800 
@<TRIPOS>BOND
  1   1   2  2   
  2   2   3  am  
  3   2   4  1   
  4   3   5  1   
  5   3   6  1   
  6   4   7  2   
  7   4  28  1   
  8   5   8  2   
  9   5  29  1   
 10   6  30  1   
 11   6  31  1   
 12   6  32  1   
 13   7   8  1   
 14   7  33  1   
 15   8   9  1   
 16   9  10  2   
 17   9  11  am  
 18  11  12  1   
 19  11  13  1   
 20  12  14  1   
 21  12  34  1   
 22  12  35  1   
 23  13  15  1   
 24  13  36  1   
 25  13  37  1   
 26  14  16  1   
 27  14  38  1   
 28  14  39  1   
 29  15  16  1   
 30  15  40  1   
 31  15  41  1   
 32  16  17  1   
 33  16  18  1   
 34  17  19  1   
 35  18  20  ar  
 36  18  21  ar  
 37  19  22  1   
 38  19  42  1   
 39  19  43  1   
 40  20  22  1   
 41  20  23  ar  
 42  21  24  ar  
 43  21  44  1   
 44  22  45  1   
 45  22  46  1   
 46  23  25  ar  
 47  23  47  1   
 48  24  25  ar  
 49  24  48  1   
 50  25  26  1   
 51  26  27  1   
 52  27  49  1   
 53  27  50  1   
 54  27  51  1   
@<TRIPOS>SUBSTRUCTURE
  1 ****  14 GROUP 4 **** **** 0

# MOE 2024.06 (io_trps.svl 2023.06)
