@<TRIPOS>MOLECULE
NONAME
58 61 1 0 0 
SMALL
USER_CHARGES


@<TRIPOS>ATOM
  1 O       -0.3810    -0.1130     0.7530 O.2   1 <1>  -0.5700 
  2 C       -1.3900     0.5050     0.4770 C.2   1 <1>   0.7160 
  3 N       -2.5870    -0.1200     0.6310 N.am  1 <1>  -0.7300 
  4 C       -1.3510     1.8570    -0.0020 C.2   1 <1>  -0.0860 
  5 C       -2.8420    -1.5190     1.0290 C.3   1 <1>   0.1400 
  6 C       -2.4570     2.7060    -0.1660 C.2   1 <1>   0.3720 
  7 C       -0.3050     2.6390    -0.3910 C.2   1 <1>   0.0870 
  8 C       -3.6750    -2.2320    -0.0480 C.3   1 <1>  -0.0800 
  9 N       -2.0980     3.8630    -0.5960 N.2   1 <1>  -0.4100 
 10 N       -3.7930     2.3800     0.1130 N.pl3 1 <1>  -0.8210 
 11 O       -0.8020     3.8040    -0.7220 O.3   1 <1>  -0.0190 
 12 C        1.1180     2.4320    -0.5030 C.ar  1 <1>   0.0530 
 13 C       -5.0150    -1.5150    -0.3210 C.3   1 <1>  -0.1600 
 14 C       -3.9310    -3.6930     0.3670 C.3   1 <1>  -0.1600 
 15 C       -4.7850     2.9350    -0.8630 C.3   1 <1>   0.2090 
 16 C       -4.1960     2.7590     1.5030 C.3   1 <1>   0.2090 
 17 C        2.0100     3.4360    -0.1240 C.ar  1 <1>  -0.1500 
 18 C        1.6600     1.2490    -1.0060 C.ar  1 <1>  -0.1500 
 19 C       -5.8790    -2.2860    -1.3220 C.3   1 <1>   0.1400 
 20 C       -4.8100    -4.4300    -0.6480 C.3   1 <1>   0.1400 
 21 C       -6.2190     2.5170    -0.4880 C.3   1 <1>   0.1200 
 22 C       -5.6510     2.3430     1.7850 C.3   1 <1>   0.1200 
 23 C        3.3780     3.2660    -0.2350 C.ar  1 <1>  -0.1500 
 24 C        3.0260     1.0720    -1.1170 C.ar  1 <1>  -0.1500 
 25 N       -6.0790    -3.6770    -0.8350 N.am  1 <1>  -0.6600 
 26 O       -6.5190     2.8860     0.8300 O.3   1 <1>  -0.5600 
 27 C        3.8900     2.0810    -0.7320 C.ar  1 <1>  -0.1500 
 28 C       -7.3360    -4.1580    -0.5690 C.2   1 <1>   0.5690 
 29 O       -8.3280    -3.4870    -0.7240 O.2   1 <1>  -0.5700 
 30 C       -7.5300    -5.5670    -0.0600 C.3   1 <1>  -0.1790 
 31 H       -3.4070     0.4640     0.4140 H     1 <1>   0.3700 
 32 H       -3.3690    -1.5250     1.9680 H     1 <1>   0.0800 
 33 H       -1.9050    -2.0340     1.1650 H     1 <1>   0.0800 
 34 H       -3.0990    -2.2420    -0.9580 H     1 <1>   0.0800 
 35 H       -4.8360    -0.5340    -0.7190 H     1 <1>   0.0800 
 36 H       -5.5690    -1.4050     0.5950 H     1 <1>   0.0800 
 37 H       -4.4190    -3.7220     1.3260 H     1 <1>   0.0800 
 38 H       -2.9940    -4.2120     0.4590 H     1 <1>   0.0800 
 39 H       -4.5520     2.5770    -1.8510 H     1 <1>   0.0800 
 40 H       -4.7270     4.0110    -0.8770 H     1 <1>   0.0800 
 41 H       -4.1000     3.8250     1.6310 H     1 <1>   0.0800 
 42 H       -3.5430     2.2790     2.2110 H     1 <1>   0.0800 
 43 H        1.6230     4.3610     0.2630 H     1 <1>   0.1500 
 44 H        1.0020     0.4560    -1.3130 H     1 <1>   0.1500 
 45 H       -5.3930    -2.3170    -2.2820 H     1 <1>   0.0800 
 46 H       -6.8230    -1.7840    -1.4450 H     1 <1>   0.0800 
 47 H       -4.9940    -5.4320    -0.3040 H     1 <1>   0.0800 
 48 H       -4.3000    -4.4930    -1.5940 H     1 <1>   0.0800 
 49 H       -6.3420     1.4530    -0.5840 H     1 <1>   0.0800 
 50 H       -6.9280     3.0060    -1.1330 H     1 <1>   0.0800 
 51 H       -5.9590     2.7050     2.7500 H     1 <1>   0.0800 
 52 H       -5.7480     1.2720     1.7690 H     1 <1>   0.0800 
 53 H        4.0450     4.0550     0.0660 H     1 <1>   0.1500 
 54 H        3.4180     0.1470    -1.5030 H     1 <1>   0.1500 
 55 H        4.9540     1.9440    -0.8170 H     1 <1>   0.1500 
 56 H       -7.0220    -5.6890     0.8770 H     1 <1>   0.0800 
 57 H       -7.1540    -6.2700    -0.7790 H     1 <1>   0.0800 
 58 H       -8.5780    -5.7560     0.0900 H     1 <1>   0.0800 
@<TRIPOS>BOND
  1   1   2  2   
  2   2   3  am  
  3   2   4  1   
  4   3   5  1   
  5   3  31  1   
  6   4   6  1   
  7   4   7  2   
  8   5   8  1   
  9   5  32  1   
 10   5  33  1   
 11   6   9  2   
 12   6  10  1   
 13   7  11  1   
 14   7  12  1   
 15   8  13  1   
 16   8  14  1   
 17   8  34  1   
 18   9  11  1   
 19  10  15  1   
 20  10  16  1   
 21  12  17  ar  
 22  12  18  ar  
 23  13  19  1   
 24  13  35  1   
 25  13  36  1   
 26  14  20  1   
 27  14  37  1   
 28  14  38  1   
 29  15  21  1   
 30  15  39  1   
 31  15  40  1   
 32  16  22  1   
 33  16  41  1   
 34  16  42  1   
 35  17  23  ar  
 36  17  43  1   
 37  18  24  ar  
 38  18  44  1   
 39  19  25  1   
 40  19  45  1   
 41  19  46  1   
 42  20  25  1   
 43  20  47  1   
 44  20  48  1   
 45  21  26  1   
 46  21  49  1   
 47  21  50  1   
 48  22  26  1   
 49  22  51  1   
 50  22  52  1   
 51  23  27  ar  
 52  23  53  1   
 53  24  27  ar  
 54  24  54  1   
 55  25  28  am  
 56  27  55  1   
 57  28  29  2   
 58  28  30  1   
 59  30  56  1   
 60  30  57  1   
 61  30  58  1   
@<TRIPOS>SUBSTRUCTURE
  1 ****   3 GROUP 4 **** **** 0

# MOE 2024.06 (io_trps.svl 2023.06)
