@<TRIPOS>MOLECULE
NONAME
48 50 1 0 0 
SMALL
USER_CHARGES


@<TRIPOS>ATOM
  1 S        0.8160     0.0530    -1.6320 S.o2  1 <1>   1.3330 
  2 O        1.2650    -1.3020    -1.8620 O.2   1 <1>  -0.6500 
  3 O        0.0750     0.7460    -2.6620 O.2   1 <1>  -0.6500 
  4 N       -0.1570     0.0450    -0.2380 N.am  1 <1>  -0.8490 
  5 C        2.2390     1.0380    -1.1570 C.3   1 <1>  -0.0550 
  6 C       -1.0170    -1.1410    -0.1740 C.3   1 <1>   0.1160 
  7 C       -0.9740     1.2550    -0.0940 C.3   1 <1>   0.1160 
  8 C        3.1400     0.3750    -0.0930 C.3   1 <1>  -0.0800 
  9 C        4.4530     1.0950     0.1750 C.3   1 <1>   0.2200 
 10 C        2.5250     0.2580     1.3080 C.3   1 <1>   0.1200 
 11 N        4.2460     2.5600     0.2730 N.am  1 <1>  -0.7300 
 12 C        4.7780     0.5610     1.5620 C.3   1 <1>   0.1200 
 13 O        3.5510     0.5260     2.2220 O.3   1 <1>  -0.5600 
 14 C        4.5550     3.4720    -0.6940 C.2   1 <1>   0.5440 
 15 O        4.8870     3.0500    -1.7840 O.2   1 <1>  -0.5700 
 16 C        4.4660     4.9000    -0.4370 C.ar  1 <1>   0.0860 
 17 C        4.5240     5.4300     0.8550 C.ar  1 <1>  -0.1500 
 18 C        4.3210     5.8100    -1.4850 C.ar  1 <1>  -0.1500 
 19 C        4.4330     6.7900     1.0860 C.ar  1 <1>  -0.1500 
 20 C        4.2290     7.1710    -1.2610 C.ar  1 <1>  -0.1500 
 21 C        4.2830     7.6830     0.0310 C.ar  1 <1>  -0.0230 
 22 N        4.1910     9.0770     0.2660 N.pl3 1 <1>   0.3260 
 23 C        4.7920    10.0930    -0.4110 C.2   1 <1>   0.0360 
 24 C        3.4810     9.7180     1.2230 C.2   1 <1>  -0.3020 
 25 N        4.5210    11.2770     0.0320 N.2   1 <1>  -0.5650 
 26 C        3.6910    11.0420     1.0660 C.2   1 <1>   0.0770 
 27 H        2.8350     1.2060    -2.0340 H     1 <1>   0.0800 
 28 H        1.9100     1.9970    -0.8100 H     1 <1>   0.0800 
 29 H       -1.6130    -1.1230     0.7230 H     1 <1>   0.0800 
 30 H       -0.4150    -2.0340    -0.1580 H     1 <1>   0.0800 
 31 H       -1.6680    -1.1790    -1.0320 H     1 <1>   0.0800 
 32 H       -1.4990     1.2370     0.8460 H     1 <1>   0.0800 
 33 H       -1.6920     1.3240    -0.8950 H     1 <1>   0.0800 
 34 H       -0.3490     2.1310    -0.1160 H     1 <1>   0.0800 
 35 H        3.3780    -0.6210    -0.4260 H     1 <1>   0.0800 
 36 H        5.2170     0.8610    -0.5490 H     1 <1>   0.0800 
 37 H        2.1380    -0.7300     1.4930 H     1 <1>   0.0800 
 38 H        1.7500     0.9870     1.4690 H     1 <1>   0.0800 
 39 H        3.8470     2.8550     1.1660 H     1 <1>   0.3700 
 40 H        5.4670     1.1870     2.1020 H     1 <1>   0.0800 
 41 H        5.1570    -0.4450     1.5080 H     1 <1>   0.0800 
 42 H        4.6530     4.7700     1.6950 H     1 <1>   0.1500 
 43 H        4.2790     5.4350    -2.4940 H     1 <1>   0.1500 
 44 H        4.4870     7.1620     2.0960 H     1 <1>   0.1500 
 45 H        4.1120     7.8370    -2.0990 H     1 <1>   0.1500 
 46 H        5.4420     9.8940    -1.2440 H     1 <1>   0.1500 
 47 H        2.8770     9.2000     1.9420 H     1 <1>   0.1500 
 48 H        3.2850    11.8540     1.6480 H     1 <1>   0.1500 
@<TRIPOS>BOND
  1   1   2  2   
  2   1   3  2   
  3   1   4  am  
  4   1   5  1   
  5   4   6  1   
  6   4   7  1   
  7   5   8  1   
  8   5  27  1   
  9   5  28  1   
 10   6  29  1   
 11   6  30  1   
 12   6  31  1   
 13   7  32  1   
 14   7  33  1   
 15   7  34  1   
 16   8   9  1   
 17   8  10  1   
 18   8  35  1   
 19   9  11  1   
 20   9  12  1   
 21   9  36  1   
 22  10  13  1   
 23  10  37  1   
 24  10  38  1   
 25  11  14  am  
 26  11  39  1   
 27  12  13  1   
 28  12  40  1   
 29  12  41  1   
 30  14  15  2   
 31  14  16  1   
 32  16  17  ar  
 33  16  18  ar  
 34  17  19  ar  
 35  17  42  1   
 36  18  20  ar  
 37  18  43  1   
 38  19  21  ar  
 39  19  44  1   
 40  20  21  ar  
 41  20  45  1   
 42  21  22  1   
 43  22  23  1   
 44  22  24  1   
 45  23  25  2   
 46  23  46  1   
 47  24  26  2   
 48  24  47  1   
 49  25  26  1   
 50  26  48  1   
@<TRIPOS>SUBSTRUCTURE
  1 ****  14 GROUP 4 **** **** 0

# MOE 2024.06 (io_trps.svl 2023.06)
