@<TRIPOS>MOLECULE
NONAME
50 52 1 0 0 
SMALL
USER_CHARGES


@<TRIPOS>ATOM
  1 O        0.0680    -0.3360    -0.4690 O.2   1 <1>  -0.5700 
  2 C        0.9380    -0.9730     0.0940 C.2   1 <1>   0.5440 
  3 N        2.1540    -0.3740     0.3550 N.am  1 <1>  -0.6600 
  4 C        0.6630    -2.3470     0.4640 C.ar  1 <1>   0.0860 
  5 C        3.4000    -1.1310     0.6660 C.3   1 <1>   0.1400 
  6 C        2.3650     1.0880     0.1520 C.3   1 <1>   0.1400 
  7 C        0.2320    -3.2840    -0.4540 C.ar  1 <1>  -0.1500 
  8 C        0.8040    -2.8170     1.7630 C.ar  1 <1>  -0.1500 
  9 C        4.4270    -0.9190    -0.4520 C.3   1 <1>  -0.1600 
 10 C        3.3790     1.3140    -0.9730 C.3   1 <1>  -0.1600 
 11 C       -0.0070    -4.5980    -0.0770 C.ar  1 <1>   0.4100 
 12 C        0.5390    -4.1400     2.0500 C.ar  1 <1>   0.1600 
 13 C        4.6950     0.5710    -0.7060 C.3   1 <1>  -0.1600 
 14 N        0.1470    -5.0380     1.1640 N.ar  1 <1>  -0.6200 
 15 N       -0.4340    -5.4970    -1.0280 N.pl3 1 <1>  -0.8690 
 16 C       -0.7380    -6.9270    -0.7630 C.3   1 <1>   0.2090 
 17 C       -2.2520    -7.1920    -0.7800 C.3   1 <1>  -0.0800 
 18 C       -2.9700    -6.3600     0.3030 C.3   1 <1>   0.1200 
 19 C       -2.4790    -8.7110    -0.6050 C.3   1 <1>   0.0200 
 20 O       -4.3370    -6.3720     0.0770 O.3   1 <1>  -0.6800 
 21 C       -3.9390    -9.1170    -0.6700 C.2   1 <1>  -0.0400 
 22 O       -4.6290    -8.8410    -1.7570 O.3   1 <1>  -0.2800 
 23 C       -4.7200    -9.7350     0.2420 C.2   1 <1>  -0.1500 
 24 C       -5.8600    -9.2710    -1.5680 C.2   1 <1>  -0.0100 
 25 C       -5.9850    -9.8360    -0.3490 C.2   1 <1>  -0.1500 
 26 H        3.2020    -2.1830     0.7620 H     1 <1>   0.0800 
 27 H        3.8010    -0.7760     1.6000 H     1 <1>   0.0800 
 28 H        2.7330     1.5170     1.0680 H     1 <1>   0.0800 
 29 H        1.4370     1.5780    -0.0920 H     1 <1>   0.0800 
 30 H        0.0830    -2.9910    -1.4750 H     1 <1>   0.1500 
 31 H        1.1160    -2.1430     2.5400 H     1 <1>   0.1500 
 32 H        4.0560    -1.3770    -1.3530 H     1 <1>   0.0800 
 33 H        5.3460    -1.4120    -0.1900 H     1 <1>   0.0800 
 34 H        3.5700     2.3670    -1.0730 H     1 <1>   0.0800 
 35 H        2.9470     0.9710    -1.8980 H     1 <1>   0.0800 
 36 H        0.6560    -4.4830     3.0640 H     1 <1>   0.1500 
 37 H        5.3550     0.6840    -1.5490 H     1 <1>   0.0800 
 38 H        5.1780     0.9990     0.1560 H     1 <1>   0.0800 
 39 H       -0.8890    -5.1050    -1.8560 H     1 <1>   0.4000 
 40 H       -0.3230    -7.2320     0.1830 H     1 <1>   0.0800 
 41 H       -0.2620    -7.5160    -1.5270 H     1 <1>   0.0800 
 42 H       -2.6220    -6.8940    -1.7450 H     1 <1>   0.0800 
 43 H       -2.6580    -5.3300     0.2830 H     1 <1>   0.0800 
 44 H       -2.7810    -6.7570     1.2850 H     1 <1>   0.0800 
 45 H       -2.0740    -9.0300     0.3390 H     1 <1>   0.0800 
 46 H       -1.9570    -9.2410    -1.3820 H     1 <1>   0.0800 
 47 H       -4.6180    -7.2620    -0.2360 H     1 <1>   0.4000 
 48 H       -4.4630   -10.0850     1.2270 H     1 <1>   0.1500 
 49 H       -6.5840    -9.1350    -2.3530 H     1 <1>   0.1500 
 50 H       -6.8550   -10.2790     0.1040 H     1 <1>   0.1500 
@<TRIPOS>BOND
  1   1   2  2   
  2   2   3  am  
  3   2   4  1   
  4   3   5  1   
  5   3   6  1   
  6   4   7  ar  
  7   4   8  ar  
  8   5   9  1   
  9   5  26  1   
 10   5  27  1   
 11   6  10  1   
 12   6  28  1   
 13   6  29  1   
 14   7  11  ar  
 15   7  30  1   
 16   8  12  ar  
 17   8  31  1   
 18   9  13  1   
 19   9  32  1   
 20   9  33  1   
 21  10  13  1   
 22  10  34  1   
 23  10  35  1   
 24  11  14  ar  
 25  11  15  1   
 26  12  14  ar  
 27  12  36  1   
 28  13  37  1   
 29  13  38  1   
 30  15  16  1   
 31  15  39  1   
 32  16  17  1   
 33  16  40  1   
 34  16  41  1   
 35  17  18  1   
 36  17  19  1   
 37  17  42  1   
 38  18  20  1   
 39  18  43  1   
 40  18  44  1   
 41  19  21  1   
 42  19  45  1   
 43  19  46  1   
 44  20  47  1   
 45  21  22  1   
 46  21  23  2   
 47  22  24  1   
 48  23  25  1   
 49  23  48  1   
 50  24  25  2   
 51  24  49  1   
 52  25  50  1   
@<TRIPOS>SUBSTRUCTURE
  1 ****  11 GROUP 4 **** **** 0

# MOE 2024.06 (io_trps.svl 2023.06)
