@<TRIPOS>MOLECULE
NONAME
33 34 1 0 0 
SMALL
USER_CHARGES


@<TRIPOS>ATOM
  1 F       -0.5710    -0.0170    -0.1180 F     1 <1>  -0.1900 
  2 C       -1.6340    -0.7810     0.0080 C.ar  1 <1>   0.1900 
  3 C       -2.9390    -0.3030    -0.0820 C.ar  1 <1>   0.3920 
  4 C       -1.4430    -2.1180     0.2380 C.ar  1 <1>   0.1600 
  5 O       -3.2980     0.9820    -0.3100 O.3   1 <1>  -0.3630 
  6 N       -3.9590    -1.1240     0.0550 N.ar  1 <1>  -0.6200 
  7 N       -2.4570    -2.9470     0.3740 N.ar  1 <1>  -0.6200 
  8 C       -2.3950     2.0520    -0.4810 C.3   1 <1>   0.0400 
  9 C       -3.6620    -2.3920     0.2800 C.ar  1 <1>   0.7200 
 10 N       -4.7390    -3.1910     0.4230 N.pl3 1 <1>  -0.8690 
 11 C       -4.7120    -4.6080     0.0450 C.3   1 <1>   0.3890 
 12 C       -6.0190    -5.2140     0.4920 C.2   1 <1>  -0.3320 
 13 N       -6.4880    -5.0680     1.7450 N.pl3 1 <1>   0.3000 
 14 C       -6.9220    -5.9640    -0.1750 C.2   1 <1>  -0.1500 
 15 N       -7.6650    -5.7050     1.9140 N.2   1 <1>  -0.7070 
 16 C       -7.9200    -6.2410     0.7560 C.2   1 <1>   0.1080 
 17 C       -9.1750    -7.0660     0.4960 C.3   1 <1>   0.3010 
 18 O       -9.1820    -7.5870    -0.8060 O.3   1 <1>  -0.5600 
 19 C      -10.3010    -8.3590    -1.0980 C.3   1 <1>   0.0400 
 20 H       -0.4440    -2.5120     0.3100 H     1 <1>   0.1500 
 21 H       -2.9670     2.9480    -0.6390 H     1 <1>   0.0800 
 22 H       -1.7790     1.8580    -1.3420 H     1 <1>   0.0800 
 23 H       -1.7970     2.1540     0.4070 H     1 <1>   0.0800 
 24 H       -5.5960    -2.7150     0.1440 H     1 <1>   0.4000 
 25 H       -3.8910    -5.1080     0.5330 H     1 <1>   0.0800 
 26 H       -4.5960    -4.7030    -1.0210 H     1 <1>   0.0800 
 27 H       -6.0310    -4.5240     2.4880 H     1 <1>   0.2700 
 28 H       -6.9160    -6.3020    -1.1970 H     1 <1>   0.1500 
 29 H      -10.0420    -6.4420     0.6230 H     1 <1>   0.0800 
 30 H       -9.2110    -7.8830     1.1950 H     1 <1>   0.0800 
 31 H      -10.2110    -8.7080    -2.1120 H     1 <1>   0.0800 
 32 H      -11.1870    -7.7560    -1.0000 H     1 <1>   0.0800 
 33 H      -10.3370    -9.2010    -0.4280 H     1 <1>   0.0800 
@<TRIPOS>BOND
  1   1   2  1   
  2   2   3  ar  
  3   2   4  ar  
  4   3   5  1   
  5   3   6  ar  
  6   4   7  ar  
  7   4  20  1   
  8   5   8  1   
  9   6   9  ar  
 10   7   9  ar  
 11   8  21  1   
 12   8  22  1   
 13   8  23  1   
 14   9  10  1   
 15  10  11  1   
 16  10  24  1   
 17  11  12  1   
 18  11  25  1   
 19  11  26  1   
 20  12  13  1   
 21  12  14  2   
 22  13  15  1   
 23  13  27  1   
 24  14  16  1   
 25  14  28  1   
 26  15  16  2   
 27  16  17  1   
 28  17  18  1   
 29  17  29  1   
 30  17  30  1   
 31  18  19  1   
 32  19  31  1   
 33  19  32  1   
 34  19  33  1   
@<TRIPOS>SUBSTRUCTURE
  1 ****  10 GROUP 4 **** **** 0

# MOE 2024.06 (io_trps.svl 2023.06)
