@<TRIPOS>MOLECULE
NONAME
44 46 1 0 0 
SMALL
USER_CHARGES


@<TRIPOS>ATOM
  1 CL      -2.7740     1.4200    -0.0190 Cl    1 <1>  -0.1770 
  2 C       -1.5230     2.6100    -0.2670 C.ar  1 <1>   0.1770 
  3 C       -1.8750     3.8970    -0.6200 C.ar  1 <1>  -0.1500 
  4 C       -0.1970     2.2440    -0.1070 C.ar  1 <1>  -0.1500 
  5 C       -0.8570     4.8110    -0.8110 C.ar  1 <1>   0.1900 
  6 C        0.8070     3.1810    -0.3030 C.ar  1 <1>  -0.1500 
  7 F       -1.1850     6.0310    -1.1470 F     1 <1>  -0.1900 
  8 C        0.4850     4.4840    -0.6630 C.ar  1 <1>  -0.1440 
  9 C        1.5850     5.5200    -0.8700 C.3   1 <1>   0.0890 
 10 S        2.3100     6.1010     0.6720 S.o2  1 <1>   1.3330 
 11 O        3.1510     5.0800     1.2510 O.2   1 <1>  -0.6500 
 12 O        1.2920     6.7330     1.4780 O.2   1 <1>  -0.6500 
 13 N        3.3770     7.3480     0.2180 N.am  1 <1>  -0.8490 
 14 C        3.5890     8.2520     1.3790 C.3   1 <1>   0.1960 
 15 C        4.6410     6.8330    -0.3290 C.3   1 <1>   0.1960 
 16 C        4.6340     9.3910     1.2320 C.3   1 <1>   0.4230 
 17 C        5.4310     7.9100    -1.1080 C.3   1 <1>  -0.0800 
 18 N        4.6160    10.1090    -0.1000 N.4   1 <1>  -0.9590 
 19 C        6.0740     8.9140     1.5500 C.3   1 <1>   0.1200 
 20 C        6.8590     8.1200    -0.5550 C.3   1 <1>   0.1200 
 21 C        4.6370     9.2170    -1.3070 C.3   1 <1>   0.3430 
 22 C        3.5270    11.1230    -0.1940 C.3   1 <1>   0.2630 
 23 O        6.9180     9.0950     0.4450 O.3   1 <1>  -0.5600 
 24 H       -2.9040     4.1780    -0.7410 H     1 <1>   0.1500 
 25 H        0.0430     1.2330     0.1740 H     1 <1>   0.1500 
 26 H        1.8350     2.8850    -0.1660 H     1 <1>   0.1500 
 27 H        1.1900     6.3610    -1.4070 H     1 <1>   0.0800 
 28 H        2.3490     5.0830    -1.4810 H     1 <1>   0.0800 
 29 H        2.6500     8.7280     1.6070 H     1 <1>   0.0800 
 30 H        3.8450     7.6630     2.2450 H     1 <1>   0.0800 
 31 H        5.2370     6.4020     0.4600 H     1 <1>   0.0800 
 32 H        4.4230     6.0300    -1.0140 H     1 <1>   0.0800 
 33 H        4.3960    10.1060     2.0010 H     1 <1>   0.0800 
 34 H        5.5670     7.4920    -2.0890 H     1 <1>   0.0800 
 35 H        5.5430    10.5720    -0.1120 H     1 <1>   0.4500 
 36 H        6.1120     7.8870     1.8710 H     1 <1>   0.0800 
 37 H        6.4700     9.5160     2.3500 H     1 <1>   0.0800 
 38 H        7.5060     8.4580    -1.3470 H     1 <1>   0.0800 
 39 H        7.2720     7.2040    -0.1650 H     1 <1>   0.0800 
 40 H        3.6250     8.9610    -1.5770 H     1 <1>   0.0800 
 41 H        5.0650     9.7620    -2.1320 H     1 <1>   0.0800 
 42 H        2.5640    10.6370    -0.1720 H     1 <1>   0.0800 
 43 H        3.6120    11.6800    -1.1130 H     1 <1>   0.0800 
 44 H        3.5850    11.8150     0.6310 H     1 <1>   0.0800 
@<TRIPOS>BOND
  1   1   2  1   
  2   2   3  ar  
  3   2   4  ar  
  4   3   5  ar  
  5   3  24  1   
  6   4   6  ar  
  7   4  25  1   
  8   5   7  1   
  9   5   8  ar  
 10   6   8  ar  
 11   6  26  1   
 12   8   9  1   
 13   9  10  1   
 14   9  27  1   
 15   9  28  1   
 16  10  11  2   
 17  10  12  2   
 18  10  13  am  
 19  13  14  1   
 20  13  15  1   
 21  14  16  1   
 22  14  29  1   
 23  14  30  1   
 24  15  17  1   
 25  15  31  1   
 26  15  32  1   
 27  16  18  1   
 28  16  19  1   
 29  16  33  1   
 30  17  20  1   
 31  17  21  1   
 32  17  34  1   
 33  18  21  1   
 34  18  22  1   
 35  18  35  1   
 36  19  23  1   
 37  19  36  1   
 38  19  37  1   
 39  20  23  1   
 40  20  38  1   
 41  20  39  1   
 42  21  40  1   
 43  21  41  1   
 44  22  42  1   
 45  22  43  1   
 46  22  44  1   
@<TRIPOS>SUBSTRUCTURE
  1 ****  10 GROUP 4 **** **** 0

# MOE 2024.06 (io_trps.svl 2023.06)
