@<TRIPOS>MOLECULE
NONAME
51 53 1 0 0 
SMALL
USER_CHARGES


@<TRIPOS>ATOM
  1 O       -0.8880     0.5360    -0.5070 O.2   1 <1>  -0.5700 
  2 C       -0.6300     1.6550    -0.1440 C.2   1 <1>   0.5690 
  3 N       -1.6130     2.5100     0.2070 N.am  1 <1>  -0.7300 
  4 C        0.8230     2.1370    -0.1200 C.3   1 <1>   0.1810 
  5 C       -1.3790     3.8980     0.6650 C.3   1 <1>   0.3640 
  6 O        1.0200     3.3040     0.6530 O.3   1 <1>  -0.5600 
  7 C       -2.3380     4.8240    -0.0820 C.ar  1 <1>  -0.1440 
  8 C        0.0870     4.3510     0.4240 C.3   1 <1>   0.2610 
  9 C       -2.5200     4.7190    -1.4560 C.ar  1 <1>  -0.1500 
 10 C       -3.0340     5.8030     0.6140 C.ar  1 <1>  -0.1500 
 11 C        0.4570     5.5870     1.2690 C.2   1 <1>   0.5690 
 12 C       -3.3750     5.5800    -2.1200 C.ar  1 <1>  -0.1500 
 13 C       -3.8900     6.6640    -0.0500 C.ar  1 <1>  -0.1500 
 14 O       -0.2890     5.9380     2.1540 O.2   1 <1>  -0.5700 
 15 N        1.6150     6.3030     1.0340 N.am  1 <1>  -0.6600 
 16 C       -4.0600     6.5550    -1.4180 C.ar  1 <1>  -0.1500 
 17 C        2.6640     5.9350     0.0320 C.3   1 <1>   0.1400 
 18 C        1.9780     7.4690     1.9010 C.3   1 <1>   0.1400 
 19 C        3.0990     7.1650    -0.7910 C.3   1 <1>   0.3430 
 20 C        2.4010     8.6790     1.0510 C.3   1 <1>   0.3430 
 21 N        3.4990     8.3310     0.0760 N.4   1 <1>  -0.9590 
 22 C        3.9050     9.4960    -0.7620 C.3   1 <1>   0.3430 
 23 C        4.6290    10.5380     0.0880 C.3   1 <1>  -0.1600 
 24 C        5.2220    11.6300    -0.8000 C.3   1 <1>   0.1200 
 25 O        5.9940    12.4430     0.0000 O.3   1 <1>  -0.6800 
 26 H       -2.5820     2.1890     0.1770 H     1 <1>   0.3700 
 27 H        1.1450     2.3360    -1.1260 H     1 <1>   0.0800 
 28 H        1.4430     1.3620     0.2940 H     1 <1>   0.0800 
 29 H       -1.5950     3.9320     1.7200 H     1 <1>   0.0800 
 30 H        0.1730     4.6280    -0.6100 H     1 <1>   0.0800 
 31 H       -2.0020     3.9620    -2.0210 H     1 <1>   0.1500 
 32 H       -2.9120     5.9050     1.6800 H     1 <1>   0.1500 
 33 H       -3.5120     5.4900    -3.1840 H     1 <1>   0.1500 
 34 H       -4.4250     7.4190     0.5000 H     1 <1>   0.1500 
 35 H       -4.7260     7.2240    -1.9330 H     1 <1>   0.1500 
 36 H        3.5140     5.5260     0.5510 H     1 <1>   0.0800 
 37 H        2.3060     5.1780    -0.6410 H     1 <1>   0.0800 
 38 H        1.1460     7.7620     2.5180 H     1 <1>   0.0800 
 39 H        2.7800     7.1850     2.5590 H     1 <1>   0.0800 
 40 H        2.2770     7.4550    -1.4250 H     1 <1>   0.0800 
 41 H        3.9220     6.8850    -1.4290 H     1 <1>   0.0800 
 42 H        2.7270     9.4670     1.7100 H     1 <1>   0.0800 
 43 H        1.5370     9.0360     0.5140 H     1 <1>   0.0800 
 44 H        4.3180     8.0390     0.6270 H     1 <1>   0.4500 
 45 H        4.5760     9.1610    -1.5380 H     1 <1>   0.0800 
 46 H        3.0410     9.9370    -1.2330 H     1 <1>   0.0800 
 47 H        5.4350    10.0650     0.6220 H     1 <1>   0.0800 
 48 H        3.9490    10.9930     0.7850 H     1 <1>   0.0800 
 49 H        4.4660    12.2330    -1.2760 H     1 <1>   0.0800 
 50 H        5.8730    11.2100    -1.5500 H     1 <1>   0.0800 
 51 H        5.4560    13.0970     0.4900 H     1 <1>   0.4000 
@<TRIPOS>BOND
  1   1   2  2   
  2   2   3  am  
  3   2   4  1   
  4   3   5  1   
  5   3  26  1   
  6   4   6  1   
  7   4  27  1   
  8   4  28  1   
  9   5   7  1   
 10   5   8  1   
 11   5  29  1   
 12   6   8  1   
 13   7   9  ar  
 14   7  10  ar  
 15   8  11  1   
 16   8  30  1   
 17   9  12  ar  
 18   9  31  1   
 19  10  13  ar  
 20  10  32  1   
 21  11  14  2   
 22  11  15  am  
 23  12  16  ar  
 24  12  33  1   
 25  13  16  ar  
 26  13  34  1   
 27  15  17  1   
 28  15  18  1   
 29  16  35  1   
 30  17  19  1   
 31  17  36  1   
 32  17  37  1   
 33  18  20  1   
 34  18  38  1   
 35  18  39  1   
 36  19  21  1   
 37  19  40  1   
 38  19  41  1   
 39  20  21  1   
 40  20  42  1   
 41  20  43  1   
 42  21  22  1   
 43  21  44  1   
 44  22  23  1   
 45  22  45  1   
 46  22  46  1   
 47  23  24  1   
 48  23  47  1   
 49  23  48  1   
 50  24  25  1   
 51  24  49  1   
 52  24  50  1   
 53  25  51  1   
@<TRIPOS>SUBSTRUCTURE
  1 ****  11 GROUP 4 **** **** 0

# MOE 2024.06 (io_trps.svl 2023.06)
