@<TRIPOS>MOLECULE
NONAME
45 47 1 0 0 
SMALL
USER_CHARGES


@<TRIPOS>ATOM
  1 O       -1.1810     0.1360     0.3820 O.2   1 <1>  -0.5700 
  2 C       -1.9770     1.0530     0.4650 C.2   1 <1>   0.5440 
  3 N       -3.2760     0.7480     0.8010 N.am  1 <1>  -0.6600 
  4 C       -1.5490     2.4130     0.1840 C.ar  1 <1>   0.0860 
  5 C       -3.6020    -0.5760     1.4050 C.3   1 <1>   0.1400 
  6 C       -4.4420     1.3780     0.1150 C.3   1 <1>   0.1400 
  7 C       -0.5930     2.6730    -0.7960 C.ar  1 <1>  -0.1500 
  8 C       -2.0620     3.5050     0.8850 C.ar  1 <1>  -0.1500 
  9 C       -4.0140    -1.5320     0.2640 C.3   1 <1>   0.4230 
 10 C       -4.9540     0.4270    -0.9820 C.3   1 <1>  -0.1600 
 11 C       -0.1620     3.9590    -1.0920 C.ar  1 <1>   0.0730 
 12 C       -1.6490     4.7940     0.6080 C.ar  1 <1>  -0.1500 
 13 N       -4.2240    -2.9620     0.6700 N.4   1 <1>  -0.9590 
 14 C       -5.2810    -0.9980    -0.4440 C.3   1 <1>  -0.1060 
 15 C        0.8200     4.1890    -2.1140 C.1   1 <1>   0.4840 
 16 C       -0.7050     5.0200    -0.3760 C.ar  1 <1>  -0.1500 
 17 C       -4.5220    -3.8770    -0.4720 C.3   1 <1>   0.3430 
 18 C       -3.2120    -3.5200     1.6040 C.3   1 <1>   0.2630 
 19 C       -6.4150    -0.9530     0.5980 C.2   1 <1>   0.9060 
 20 C       -5.6970    -1.9240    -1.6240 C.3   1 <1>  -0.1600 
 21 N        1.5940     4.3730    -2.9310 N.1   1 <1>  -0.5570 
 22 C       -4.7570    -3.1290    -1.7930 C.3   1 <1>  -0.1600 
 23 O       -6.5300    -1.9100     1.3810 O.co2 1 <1>  -0.9000 
 24 O       -7.1650     0.0200     0.6550 O.co2 1 <1>  -0.9000 
 25 H       -2.7340    -0.9480     1.9170 H     1 <1>   0.0800 
 26 H       -4.3960    -0.4580     2.1230 H     1 <1>   0.0800 
 27 H       -5.2190     1.5720     0.8370 H     1 <1>   0.0800 
 28 H       -4.1650     2.3170    -0.3300 H     1 <1>   0.0800 
 29 H       -0.1760     1.8400    -1.3380 H     1 <1>   0.1500 
 30 H       -2.7920     3.3360     1.6590 H     1 <1>   0.1500 
 31 H       -3.2020    -1.5120    -0.4440 H     1 <1>   0.0800 
 32 H       -5.8410     0.8580    -1.4160 H     1 <1>   0.0800 
 33 H       -4.2110     0.3680    -1.7580 H     1 <1>   0.0800 
 34 H       -2.0610     5.6220     1.1610 H     1 <1>   0.1500 
 35 H       -5.1430    -2.8690     1.1830 H     1 <1>   0.4500 
 36 H       -0.3860     6.0270    -0.5880 H     1 <1>   0.1500 
 37 H       -3.7110    -4.5720    -0.6070 H     1 <1>   0.0800 
 38 H       -5.4090    -4.4420    -0.2320 H     1 <1>   0.0800 
 39 H       -2.2380    -3.5160     1.1430 H     1 <1>   0.0800 
 40 H       -3.4710    -4.5320     1.8700 H     1 <1>   0.0800 
 41 H       -3.1740    -2.9330     2.5070 H     1 <1>   0.0800 
 42 H       -6.6950    -2.2930    -1.4460 H     1 <1>   0.0800 
 43 H       -5.7380    -1.3740    -2.5490 H     1 <1>   0.0800 
 44 H       -3.8110    -2.7990    -2.1850 H     1 <1>   0.0800 
 45 H       -5.1760    -3.8110    -2.5110 H     1 <1>   0.0800 
@<TRIPOS>BOND
  1   1   2  2   
  2   2   3  am  
  3   2   4  1   
  4   3   5  1   
  5   3   6  1   
  6   4   7  ar  
  7   4   8  ar  
  8   5   9  1   
  9   5  25  1   
 10   5  26  1   
 11   6  10  1   
 12   6  27  1   
 13   6  28  1   
 14   7  11  ar  
 15   7  29  1   
 16   8  12  ar  
 17   8  30  1   
 18   9  13  1   
 19   9  14  1   
 20   9  31  1   
 21  10  14  1   
 22  10  32  1   
 23  10  33  1   
 24  11  15  1   
 25  11  16  ar  
 26  12  16  ar  
 27  12  34  1   
 28  13  17  1   
 29  13  18  1   
 30  13  35  1   
 31  14  19  1   
 32  14  20  1   
 33  15  21  3   
 34  16  36  1   
 35  17  22  1   
 36  17  37  1   
 37  17  38  1   
 38  18  39  1   
 39  18  40  1   
 40  18  41  1   
 41  19  23  ar  
 42  19  24  ar  
 43  20  22  1   
 44  20  42  1   
 45  20  43  1   
 46  22  44  1   
 47  22  45  1   
@<TRIPOS>SUBSTRUCTURE
  1 ****   3 GROUP 4 **** **** 0

# MOE 2024.06 (io_trps.svl 2023.06)
