@<TRIPOS>MOLECULE
NONAME
49 51 1 0 0 
SMALL
USER_CHARGES


@<TRIPOS>ATOM
  1 O        3.9220    -1.6670     2.0110 O.2   1 <1>  -0.5700 
  2 C        3.1650    -1.4680     1.0780 C.2   1 <1>   0.7160 
  3 N        3.1020    -0.1800     0.6000 N.am  1 <1>  -0.6600 
  4 C        2.4810    -2.5570     0.4280 C.2   1 <1>  -0.0860 
  5 C        3.2940     0.9670     1.5630 C.3   1 <1>   0.2200 
  6 C        3.3090     0.0510    -0.8590 C.3   1 <1>   0.1400 
  7 C        1.2000    -2.5690    -0.1410 C.2   1 <1>   0.1080 
  8 C        2.9230    -3.8270     0.2100 C.2   1 <1>  -0.3020 
  9 C        2.6500     2.2750     1.0750 C.3   1 <1>   0.1200 
 10 C        4.7920     1.1920     1.8890 C.3   1 <1>   0.3430 
 11 C        4.2910     1.1950    -1.1790 C.3   1 <1>  -0.0800 
 12 N        0.9030    -3.7070    -0.6760 N.2   1 <1>  -0.7070 
 13 C        0.1970    -1.4350    -0.1500 C.3   1 <1>  -0.0590 
 14 N        1.9670    -4.4940    -0.4490 N.pl3 1 <1>   0.3140 
 15 O        3.5390     2.9860     0.2650 O.3   1 <1>  -0.5600 
 16 N        5.7010     0.5270     0.8930 N.4   1 <1>  -0.9590 
 17 C        3.6220     2.5740    -1.0570 C.3   1 <1>   0.1200 
 18 C        5.6700     1.1430    -0.4770 C.3   1 <1>   0.3430 
 19 C        2.0000    -5.9040    -0.8850 C.3   1 <1>   0.0960 
 20 C        7.0890     0.4250     1.4250 C.3   1 <1>   0.2630 
 21 C        1.5520    -6.8380     0.2480 C.3   1 <1>  -0.1600 
 22 C        1.5800    -8.3050    -0.1930 C.3   1 <1>  -0.2400 
 23 H        2.7950     0.7060     2.4810 H     1 <1>   0.0800 
 24 H        3.6810    -0.8560    -1.3090 H     1 <1>   0.0800 
 25 H        2.3560     0.2590    -1.3160 H     1 <1>   0.0800 
 26 H        3.8580    -4.2710     0.4990 H     1 <1>   0.1500 
 27 H        2.4450     2.9040     1.9240 H     1 <1>   0.0800 
 28 H        1.7240     2.1010     0.5540 H     1 <1>   0.0800 
 29 H        4.9770     0.7710     2.8630 H     1 <1>   0.0800 
 30 H        5.0010     2.2470     1.9440 H     1 <1>   0.0800 
 31 H        4.5000     1.1010    -2.2300 H     1 <1>   0.0800 
 32 H        0.3720    -0.7600     0.6660 H     1 <1>   0.0800 
 33 H       -0.7950    -1.8380    -0.0510 H     1 <1>   0.0800 
 34 H        0.2560    -0.9040    -1.0810 H     1 <1>   0.0800 
 35 H        5.3060    -0.4290     0.8260 H     1 <1>   0.4500 
 36 H        2.6340     2.5800    -1.4880 H     1 <1>   0.0800 
 37 H        4.2120     3.3120    -1.5750 H     1 <1>   0.0800 
 38 H        6.0620     2.1460    -0.4230 H     1 <1>   0.0800 
 39 H        6.3350     0.5760    -1.1090 H     1 <1>   0.0800 
 40 H        1.3440    -6.0090    -1.7300 H     1 <1>   0.0800 
 41 H        3.0010    -6.1430    -1.1930 H     1 <1>   0.0800 
 42 H        7.5120     1.4080     1.5590 H     1 <1>   0.0800 
 43 H        7.7110    -0.1310     0.7430 H     1 <1>   0.0800 
 44 H        7.0850    -0.0830     2.3760 H     1 <1>   0.0800 
 45 H        2.2000    -6.7110     1.0980 H     1 <1>   0.0800 
 46 H        0.5490    -6.5760     0.5430 H     1 <1>   0.0800 
 47 H        2.5770    -8.5970    -0.4760 H     1 <1>   0.0800 
 48 H        0.9210    -8.4600    -1.0290 H     1 <1>   0.0800 
 49 H        1.2570    -8.9370     0.6160 H     1 <1>   0.0800 
@<TRIPOS>BOND
  1   1   2  2   
  2   2   3  am  
  3   2   4  1   
  4   3   5  1   
  5   3   6  1   
  6   4   7  1   
  7   4   8  2   
  8   5   9  1   
  9   5  10  1   
 10   5  23  1   
 11   6  11  1   
 12   6  24  1   
 13   6  25  1   
 14   7  12  2   
 15   7  13  1   
 16   8  14  1   
 17   8  26  1   
 18   9  15  1   
 19   9  27  1   
 20   9  28  1   
 21  10  16  1   
 22  10  29  1   
 23  10  30  1   
 24  11  17  1   
 25  11  18  1   
 26  11  31  1   
 27  12  14  1   
 28  13  32  1   
 29  13  33  1   
 30  13  34  1   
 31  14  19  1   
 32  15  17  1   
 33  16  18  1   
 34  16  20  1   
 35  16  35  1   
 36  17  36  1   
 37  17  37  1   
 38  18  38  1   
 39  18  39  1   
 40  19  21  1   
 41  19  40  1   
 42  19  41  1   
 43  20  42  1   
 44  20  43  1   
 45  20  44  1   
 46  21  22  1   
 47  21  45  1   
 48  21  46  1   
 49  22  47  1   
 50  22  48  1   
 51  22  49  1   
@<TRIPOS>SUBSTRUCTURE
  1 ****   2 GROUP 4 **** **** 0

# MOE 2024.06 (io_trps.svl 2023.06)
