@<TRIPOS>MOLECULE
NONAME
38 40 1 0 0 
SMALL
USER_CHARGES


@<TRIPOS>ATOM
  1 O       -1.4160     0.9500    -1.6490 O.3   1 <1>  -0.0190 
  2 N       -2.2210     0.4220    -2.5180 N.2   1 <1>  -0.4100 
  3 C       -1.9650     0.6750    -0.4920 C.2   1 <1>   0.2980 
  4 C       -3.1720    -0.1200    -1.8750 C.2   1 <1>   0.3350 
  5 N       -3.0580     0.0110    -0.5520 N.2   1 <1>  -0.5650 
  6 C       -1.2470     1.1700     0.7660 C.3   1 <1>   0.1000 
  7 C       -4.3510    -0.8490    -2.5280 C.3   1 <1>   0.3900 
  8 C        0.0710     0.4100     0.9720 C.3   1 <1>  -0.2400 
  9 C       -2.1140     1.0520     2.0300 C.3   1 <1>  -0.2400 
 10 N       -4.4150    -2.3130    -2.2000 N.pl3 1 <1>  -0.8690 
 11 C       -4.7170    -2.9370    -1.0400 C.ar  1 <1>   0.7710 
 12 N       -4.5120    -2.3010     0.1510 N.ar  1 <1>  -0.1790 
 13 N       -5.1920    -4.1450    -1.1260 N.ar  1 <1>  -0.5670 
 14 C       -4.8080    -2.8470     1.3360 C.ar  1 <1>   0.4610 
 15 C       -5.5030    -4.7390     0.0560 C.ar  1 <1>   0.1050 
 16 N       -4.5910    -2.1670     2.4740 N.pl3 1 <1>  -0.9000 
 17 C       -5.3380    -4.1420     1.2830 C.ar  1 <1>   0.0000 
 18 N       -6.0170    -5.9720     0.2900 N.pl3 1 <1>   0.3140 
 19 C       -5.7880    -5.1070     2.1960 C.2   1 <1>   0.1390 
 20 N       -6.1900    -6.1870     1.6180 N.2   1 <1>  -0.7070 
 21 C       -6.3710    -7.0040    -0.6960 C.3   1 <1>   0.0160 
 22 H       -1.0180     2.2120     0.6170 H     1 <1>   0.0800 
 23 H       -4.2660    -0.7360    -3.5960 H     1 <1>   0.0800 
 24 H       -5.2670    -0.3710    -2.2250 H     1 <1>   0.0800 
 25 H       -0.1140    -0.6410     1.1090 H     1 <1>   0.0800 
 26 H        0.5910     0.7860     1.8350 H     1 <1>   0.0800 
 27 H        0.7100     0.5350     0.1150 H     1 <1>   0.0800 
 28 H       -2.3240     0.0210     2.2490 H     1 <1>   0.0800 
 29 H       -3.0400     1.5820     1.8950 H     1 <1>   0.0800 
 30 H       -1.6000     1.4820     2.8720 H     1 <1>   0.0800 
 31 H       -4.4980    -2.9140    -3.0280 H     1 <1>   0.4000 
 32 H       -4.0460    -1.3970     0.0960 H     1 <1>   0.4570 
 33 H       -4.8040    -2.5630     3.3990 H     1 <1>   0.4000 
 34 H       -4.2200    -1.2130     2.5480 H     1 <1>   0.4000 
 35 H       -5.8010    -4.9710     3.2650 H     1 <1>   0.1500 
 36 H       -6.1650    -6.6480    -1.6890 H     1 <1>   0.0800 
 37 H       -7.4170    -7.2330    -0.6030 H     1 <1>   0.0800 
 38 H       -5.7940    -7.8880    -0.5000 H     1 <1>   0.0800 
@<TRIPOS>BOND
  1   1   2  1   
  2   1   3  1   
  3   2   4  2   
  4   3   5  2   
  5   3   6  1   
  6   4   5  1   
  7   4   7  1   
  8   6   8  1   
  9   6   9  1   
 10   6  22  1   
 11   7  10  1   
 12   7  23  1   
 13   7  24  1   
 14   8  25  1   
 15   8  26  1   
 16   8  27  1   
 17   9  28  1   
 18   9  29  1   
 19   9  30  1   
 20  10  11  1   
 21  10  31  1   
 22  11  12  ar  
 23  11  13  ar  
 24  12  14  ar  
 25  12  32  1   
 26  13  15  ar  
 27  14  16  1   
 28  14  17  ar  
 29  15  17  ar  
 30  15  18  1   
 31  16  33  1   
 32  16  34  1   
 33  17  19  1   
 34  18  20  1   
 35  18  21  1   
 36  19  20  2   
 37  19  35  1   
 38  21  36  1   
 39  21  37  1   
 40  21  38  1   
@<TRIPOS>SUBSTRUCTURE
  1 ****  12 GROUP 4 **** **** 0

# MOE 2024.06 (io_trps.svl 2023.06)
