@<TRIPOS>MOLECULE
NONAME
47 49 1 0 0 
SMALL
USER_CHARGES


@<TRIPOS>ATOM
  1 O       -0.5610    -0.4920    -0.8980 O.3   1 <1>  -0.3630 
  2 C       -0.4340    -1.7980    -0.5860 C.ar  1 <1>   0.3920 
  3 C        0.5360     0.3870    -1.0020 C.3   1 <1>   0.0400 
  4 N       -1.5550    -2.4710    -0.5750 N.ar  1 <1>  -0.6200 
  5 C        0.7770    -2.3850    -0.2990 C.ar  1 <1>  -0.1500 
  6 C       -1.4580    -3.7580    -0.2710 C.ar  1 <1>   0.7200 
  7 C        0.7590    -3.7270     0.0060 C.ar  1 <1>   0.3920 
  8 N       -0.3490    -4.4220     0.0240 N.ar  1 <1>  -0.6200 
  9 N       -2.6290    -4.4820    -0.2620 N.pl3 1 <1>  -0.8380 
 10 O        1.8720    -4.4270     0.3090 O.3   1 <1>  -0.3630 
 11 C       -3.9780    -3.8790    -0.3670 C.3   1 <1>   0.2090 
 12 C       -2.7120    -5.8750     0.2260 C.3   1 <1>   0.2090 
 13 C        3.1620    -3.8570     0.3230 C.3   1 <1>   0.0400 
 14 C       -4.8800    -4.7830     0.4830 C.3   1 <1>  -0.0800 
 15 C       -4.2040    -6.1660     0.4190 C.3   1 <1>  -0.0800 
 16 C       -6.3990    -4.7720     0.1320 C.3   1 <1>   0.2800 
 17 C       -4.7960    -7.0130    -0.7190 C.3   1 <1>  -0.1600 
 18 O       -6.5870    -4.4520    -1.2000 O.3   1 <1>  -0.6800 
 19 C       -6.9980    -6.1780     0.3290 C.3   1 <1>  -0.1600 
 20 C       -7.1970    -3.7400     0.9600 C.3   1 <1>  -0.1600 
 21 C       -6.3000    -7.2700    -0.5110 C.3   1 <1>  -0.1600 
 22 C       -6.7630    -2.2730     0.7920 C.3   1 <1>  -0.2400 
 23 H        0.1590     1.3560    -1.2770 H     1 <1>   0.0800 
 24 H        1.2030     0.0260    -1.7650 H     1 <1>   0.0800 
 25 H        1.0290     0.4460    -0.0480 H     1 <1>   0.0800 
 26 H        1.6860    -1.8270    -0.3110 H     1 <1>   0.1500 
 27 H       -3.9880    -2.8660    -0.0060 H     1 <1>   0.0800 
 28 H       -4.2630    -3.8870    -1.4040 H     1 <1>   0.0800 
 29 H       -2.2580    -6.5450    -0.4850 H     1 <1>   0.0800 
 30 H       -2.1930    -5.9520     1.1660 H     1 <1>   0.0800 
 31 H        3.8620    -4.6290     0.5860 H     1 <1>   0.0800 
 32 H        3.1910    -3.0730     1.0590 H     1 <1>   0.0800 
 33 H        3.3880    -3.4790    -0.6590 H     1 <1>   0.0800 
 34 H       -4.7730    -4.4510     1.5000 H     1 <1>   0.0800 
 35 H       -4.3400    -6.6960     1.3450 H     1 <1>   0.0800 
 36 H       -4.6560    -6.4840    -1.6470 H     1 <1>   0.0800 
 37 H       -4.2750    -7.9520    -0.7990 H     1 <1>   0.0800 
 38 H       -7.5360    -4.4870    -1.4090 H     1 <1>   0.4000 
 39 H       -6.8950    -6.4370     1.3680 H     1 <1>   0.0800 
 40 H       -8.0520    -6.1740     0.1140 H     1 <1>   0.0800 
 41 H       -8.2390    -3.8190     0.7040 H     1 <1>   0.0800 
 42 H       -7.1140    -3.9970     2.0010 H     1 <1>   0.0800 
 43 H       -6.4400    -8.2200    -0.0250 H     1 <1>   0.0800 
 44 H       -6.7690    -7.3310    -1.4790 H     1 <1>   0.0800 
 45 H       -6.7720    -1.9870    -0.2450 H     1 <1>   0.0800 
 46 H       -5.7750    -2.1180     1.1850 H     1 <1>   0.0800 
 47 H       -7.4380    -1.6280     1.3270 H     1 <1>   0.0800 
@<TRIPOS>BOND
  1   1   2  1   
  2   1   3  1   
  3   2   4  ar  
  4   2   5  ar  
  5   3  23  1   
  6   3  24  1   
  7   3  25  1   
  8   4   6  ar  
  9   5   7  ar  
 10   5  26  1   
 11   6   8  ar  
 12   6   9  1   
 13   7   8  ar  
 14   7  10  1   
 15   9  11  1   
 16   9  12  1   
 17  10  13  1   
 18  11  14  1   
 19  11  27  1   
 20  11  28  1   
 21  12  15  1   
 22  12  29  1   
 23  12  30  1   
 24  13  31  1   
 25  13  32  1   
 26  13  33  1   
 27  14  15  1   
 28  14  16  1   
 29  14  34  1   
 30  15  17  1   
 31  15  35  1   
 32  16  18  1   
 33  16  19  1   
 34  16  20  1   
 35  17  21  1   
 36  17  36  1   
 37  17  37  1   
 38  18  38  1   
 39  19  21  1   
 40  19  39  1   
 41  19  40  1   
 42  20  22  1   
 43  20  41  1   
 44  20  42  1   
 45  21  43  1   
 46  21  44  1   
 47  22  45  1   
 48  22  46  1   
 49  22  47  1   
@<TRIPOS>SUBSTRUCTURE
  1 ****   9 GROUP 4 **** **** 0

# MOE 2024.06 (io_trps.svl 2023.06)
