@<TRIPOS>MOLECULE
NONAME
44 45 1 0 0 
SMALL
USER_CHARGES


@<TRIPOS>ATOM
  1 CL      -1.8970    -1.8140    -0.5540 Cl    1 <1>  -0.1770 
  2 C       -2.3140    -0.1220    -0.4400 C.ar  1 <1>   0.1770 
  3 C       -3.4230     0.3160     0.3000 C.ar  1 <1>   0.0860 
  4 C       -1.4790     0.7540    -1.1090 C.ar  1 <1>  -0.1500 
  5 C       -4.3390    -0.5730     0.9960 C.2   1 <1>   0.5440 
  6 C       -3.6370     1.7000     0.3580 C.ar  1 <1>  -0.1500 
  7 C       -1.7470     2.1030    -1.0300 C.ar  1 <1>   0.1900 
  8 O       -4.9210    -0.2070     1.9980 O.2   1 <1>  -0.5700 
  9 N       -4.7070    -1.7990     0.5230 N.am  1 <1>  -0.6600 
 10 C       -2.8130     2.5950    -0.3020 C.ar  1 <1>  -0.1500 
 11 F       -0.9710     2.9400    -1.6570 F     1 <1>  -0.1900 
 12 C       -4.5280    -2.9920     1.4210 C.3   1 <1>   0.3210 
 13 C       -5.5540    -1.9050    -0.7090 C.3   1 <1>   0.1400 
 14 C       -5.1650    -4.2820     0.9050 C.2   1 <1>   0.0460 
 15 C       -7.0640    -1.9660    -0.3830 C.3   1 <1>   0.3430 
 16 N       -6.4590    -4.5730     1.1600 N.2   1 <1>  -0.5650 
 17 C       -4.5830    -5.2760     0.1910 C.2   1 <1>  -0.3320 
 18 N       -7.4060    -1.1600     0.8340 N.4   1 <1>  -0.9590 
 19 C       -6.6310    -5.7340     0.6140 C.2   1 <1>   0.0360 
 20 N       -5.5280    -6.2150     0.0050 N.pl3 1 <1>   0.0330 
 21 C       -3.1660    -5.4330    -0.3360 C.3   1 <1>  -0.0600 
 22 C       -8.3460    -1.9010     1.7240 C.3   1 <1>   0.2630 
 23 C       -7.8850     0.2140     0.5210 C.3   1 <1>   0.2630 
 24 H       -0.6370     0.3970    -1.6740 H     1 <1>   0.1500 
 25 H       -4.4620     2.0810     0.9360 H     1 <1>   0.1500 
 26 H       -2.9840     3.6570    -0.2540 H     1 <1>   0.1500 
 27 H       -4.9390    -2.7760     2.3920 H     1 <1>   0.0800 
 28 H       -3.4740    -3.1600     1.5540 H     1 <1>   0.0800 
 29 H       -5.2690    -2.7740    -1.2780 H     1 <1>   0.0800 
 30 H       -5.3750    -1.0470    -1.3330 H     1 <1>   0.0800 
 31 H       -7.3280    -2.9950    -0.2150 H     1 <1>   0.0800 
 32 H       -7.6370    -1.6330    -1.2310 H     1 <1>   0.0800 
 33 H       -6.5050    -1.0660     1.3600 H     1 <1>   0.4500 
 34 H       -7.5540    -6.2880     0.6350 H     1 <1>   0.1500 
 35 H       -5.4310    -7.1140    -0.4770 H     1 <1>   0.2700 
 36 H       -2.5580    -4.5910    -0.0620 H     1 <1>   0.0800 
 37 H       -3.1730    -5.5100    -1.4090 H     1 <1>   0.0800 
 38 H       -2.7140    -6.3200     0.0720 H     1 <1>   0.0800 
 39 H       -9.2870    -2.0640     1.2260 H     1 <1>   0.0800 
 40 H       -8.5200    -1.3420     2.6290 H     1 <1>   0.0800 
 41 H       -7.9260    -2.8570     1.9930 H     1 <1>   0.0800 
 42 H       -8.8150     0.1730    -0.0230 H     1 <1>   0.0800 
 43 H       -7.1530     0.7360    -0.0730 H     1 <1>   0.0800 
 44 H       -8.0390     0.7670     1.4330 H     1 <1>   0.0800 
@<TRIPOS>BOND
  1   1   2  1   
  2   2   3  ar  
  3   2   4  ar  
  4   3   5  1   
  5   3   6  ar  
  6   4   7  ar  
  7   4  24  1   
  8   5   8  2   
  9   5   9  am  
 10   6  10  ar  
 11   6  25  1   
 12   7  10  ar  
 13   7  11  1   
 14   9  12  1   
 15   9  13  1   
 16  10  26  1   
 17  12  14  1   
 18  12  27  1   
 19  12  28  1   
 20  13  15  1   
 21  13  29  1   
 22  13  30  1   
 23  14  16  1   
 24  14  17  2   
 25  15  18  1   
 26  15  31  1   
 27  15  32  1   
 28  16  19  2   
 29  17  20  1   
 30  17  21  1   
 31  18  22  1   
 32  18  23  1   
 33  18  33  1   
 34  19  20  1   
 35  19  34  1   
 36  20  35  1   
 37  21  36  1   
 38  21  37  1   
 39  21  38  1   
 40  22  39  1   
 41  22  40  1   
 42  22  41  1   
 43  23  42  1   
 44  23  43  1   
 45  23  44  1   
@<TRIPOS>SUBSTRUCTURE
  1 ****   9 GROUP 4 **** **** 0

# MOE 2024.06 (io_trps.svl 2023.06)
