@<TRIPOS>MOLECULE
NONAME
61 64 1 0 0 
SMALL
USER_CHARGES


@<TRIPOS>ATOM
  1 O       -1.6660     1.0060     2.1170 O.2   1 <1>  -0.5700 
  2 C       -1.8660     0.8650     0.9240 C.2   1 <1>   0.7160 
  3 N       -2.1000    -0.4050     0.4310 N.am  1 <1>  -0.6600 
  4 C       -1.8970     2.0090     0.0760 C.2   1 <1>  -0.0860 
  5 C       -2.3910    -0.6770    -1.0020 C.3   1 <1>   0.1400 
  6 C       -2.2450    -1.5810     1.3410 C.3   1 <1>   0.1400 
  7 C       -3.0540     2.6310    -0.4010 C.2   1 <1>   0.3720 
  8 C       -0.8890     2.7050    -0.5100 C.2   1 <1>   0.0870 
  9 C       -3.8730    -1.0530    -1.1570 C.3   1 <1>  -0.1600 
 10 C       -3.4300    -2.4550     0.9050 C.3   1 <1>  -0.1600 
 11 N       -2.7570     3.5850    -1.2120 N.2   1 <1>  -0.4100 
 12 N       -4.3690     2.2630    -0.0680 N.pl3 1 <1>  -0.8210 
 13 O       -1.4510     3.6180    -1.2600 O.3   1 <1>  -0.0190 
 14 C        0.5450     2.5740    -0.4590 C.ar  1 <1>   0.0530 
 15 C       -4.4610    -1.6030     0.1550 C.3   1 <1>   0.4230 
 16 C       -5.4250     2.8870    -0.9270 C.3   1 <1>   0.2090 
 17 C       -4.7160     2.5220     1.3640 C.3   1 <1>   0.2090 
 18 C        1.3260     2.8680    -1.5770 C.ar  1 <1>  -0.1500 
 19 C        1.2060     2.1480     0.6930 C.ar  1 <1>  -0.1500 
 20 N       -5.7250    -2.3650    -0.0500 N.4   1 <1>  -0.9590 
 21 C       -6.8160     2.3460    -0.5580 C.3   1 <1>   0.1200 
 22 C       -6.1180     1.9740     1.6830 C.3   1 <1>   0.1200 
 23 C        2.7020     2.7320    -1.5520 C.ar  1 <1>  -0.1500 
 24 C        2.5810     2.0080     0.7240 C.ar  1 <1>  -0.1500 
 25 C       -5.6250    -3.5850    -0.9120 C.3   1 <1>   0.3430 
 26 C       -6.8660    -1.4860    -0.4400 C.3   1 <1>   0.2630 
 27 O       -7.0880     2.4890     0.8110 O.3   1 <1>  -0.5600 
 28 C        3.3330     2.2980    -0.4000 C.ar  1 <1>  -0.1500 
 29 C       -6.5470    -4.6850    -0.3520 C.3   1 <1>   0.1200 
 30 O       -6.5470    -4.6240     1.0450 O.3   1 <1>  -0.6800 
 31 H       -1.7700    -1.4970    -1.3220 H     1 <1>   0.0800 
 32 H       -2.1530     0.1680    -1.6270 H     1 <1>   0.0800 
 33 H       -2.4110    -1.2430     2.3500 H     1 <1>   0.0800 
 34 H       -1.3320    -2.1540     1.3350 H     1 <1>   0.0800 
 35 H       -3.9510    -1.7600    -1.9600 H     1 <1>   0.0800 
 36 H       -4.4160    -0.1690    -1.4360 H     1 <1>   0.0800 
 37 H       -3.8670    -2.9020     1.7800 H     1 <1>   0.0800 
 38 H       -3.0570    -3.2410     0.2750 H     1 <1>   0.0800 
 39 H       -4.6750    -0.7550     0.7870 H     1 <1>   0.0800 
 40 H       -5.2200     2.6750    -1.9620 H     1 <1>   0.0800 
 41 H       -5.4160     3.9570    -0.8010 H     1 <1>   0.0800 
 42 H       -4.6930     3.5820     1.5590 H     1 <1>   0.0800 
 43 H       -4.0010     2.0540     2.0170 H     1 <1>   0.0800 
 44 H        0.8480     3.2070    -2.4790 H     1 <1>   0.1500 
 45 H        0.6440     1.9300     1.5830 H     1 <1>   0.1500 
 46 H       -5.9680    -2.7870     0.8700 H     1 <1>   0.4500 
 47 H       -6.8870     1.3060    -0.8130 H     1 <1>   0.0800 
 48 H       -7.5740     2.8850    -1.0980 H     1 <1>   0.0800 
 49 H       -6.4000     2.2510     2.6830 H     1 <1>   0.0800 
 50 H       -6.1230     0.9030     1.6080 H     1 <1>   0.0800 
 51 H        3.2830     2.9630    -2.4280 H     1 <1>   0.1500 
 52 H        3.0690     1.6770     1.6240 H     1 <1>   0.1500 
 53 H       -4.6160    -3.9610    -0.8960 H     1 <1>   0.0800 
 54 H       -5.8770    -3.3600    -1.9350 H     1 <1>   0.0800 
 55 H       -6.6950    -1.0620    -1.4160 H     1 <1>   0.0800 
 56 H       -6.9780    -0.6830     0.2710 H     1 <1>   0.0800 
 57 H       -7.7830    -2.0520    -0.4610 H     1 <1>   0.0800 
 58 H        4.4030     2.1900    -0.3780 H     1 <1>   0.1500 
 59 H       -6.2030    -5.6580    -0.6590 H     1 <1>   0.0800 
 60 H       -7.5570    -4.5450    -0.6960 H     1 <1>   0.0800 
 61 H       -7.0480    -5.3790     1.4300 H     1 <1>   0.4000 
@<TRIPOS>BOND
  1   1   2  2   
  2   2   3  am  
  3   2   4  1   
  4   3   5  1   
  5   3   6  1   
  6   4   7  1   
  7   4   8  2   
  8   5   9  1   
  9   5  31  1   
 10   5  32  1   
 11   6  10  1   
 12   6  33  1   
 13   6  34  1   
 14   7  11  2   
 15   7  12  1   
 16   8  13  1   
 17   8  14  1   
 18   9  15  1   
 19   9  35  1   
 20   9  36  1   
 21  10  15  1   
 22  10  37  1   
 23  10  38  1   
 24  11  13  1   
 25  12  16  1   
 26  12  17  1   
 27  14  18  ar  
 28  14  19  ar  
 29  15  20  1   
 30  15  39  1   
 31  16  21  1   
 32  16  40  1   
 33  16  41  1   
 34  17  22  1   
 35  17  42  1   
 36  17  43  1   
 37  18  23  ar  
 38  18  44  1   
 39  19  24  ar  
 40  19  45  1   
 41  20  25  1   
 42  20  26  1   
 43  20  46  1   
 44  21  27  1   
 45  21  47  1   
 46  21  48  1   
 47  22  27  1   
 48  22  49  1   
 49  22  50  1   
 50  23  28  ar  
 51  23  51  1   
 52  24  28  ar  
 53  24  52  1   
 54  25  29  1   
 55  25  53  1   
 56  25  54  1   
 57  26  55  1   
 58  26  56  1   
 59  26  57  1   
 60  28  58  1   
 61  29  30  1   
 62  29  59  1   
 63  29  60  1   
 64  30  61  1   
@<TRIPOS>SUBSTRUCTURE
  1 ****   2 GROUP 4 **** **** 0

# MOE 2024.06 (io_trps.svl 2023.06)
