@<TRIPOS>MOLECULE
NONAME
48 50 1 0 0 
SMALL
USER_CHARGES


@<TRIPOS>ATOM
  1 S        0.3500    -0.9410    -3.0250 S.3   1 <1>  -0.0800 
  2 C       -0.3160    -0.8240    -1.4110 C.2   1 <1>   0.1980 
  3 C        1.2920    -2.3110    -2.5140 C.2   1 <1>  -0.1100 
  4 N        0.1150    -1.7070    -0.6000 N.2   1 <1>  -0.5650 
  5 C       -1.3090     0.2860    -1.1530 C.3   1 <1>  -0.0600 
  6 C        1.0350    -2.5510    -1.2190 C.2   1 <1>   0.0460 
  7 C        1.6280    -3.6590    -0.3610 C.3   1 <1>   0.5240 
  8 N        0.5140    -4.2520     0.4230 N.4   1 <1>  -0.9590 
  9 C       -0.3630    -5.1040    -0.4530 C.3   1 <1>   0.3430 
 10 C        0.9840    -4.9160     1.6630 C.3   1 <1>   0.3430 
 11 C       -1.3130    -6.0670     0.2980 C.3   1 <1>   0.0000 
 12 C       -0.2110    -5.2750     2.5460 C.3   1 <1>  -0.1600 
 13 C       -1.4940    -5.5670     1.7550 C.3   1 <1>   0.2000 
 14 C       -2.6980    -5.9740    -0.3850 C.3   1 <1>   0.1200 
 15 C       -0.8250    -7.5460     0.1650 C.3   1 <1>  -0.0170 
 16 O       -2.2770    -6.4410     2.4830 O.3   1 <1>  -0.6800 
 17 O       -2.5550    -6.1100    -1.7610 O.3   1 <1>  -0.6800 
 18 C        0.6160    -7.8230     0.5770 C.ar  1 <1>  -0.1440 
 19 C        0.9120    -8.2750     1.8540 C.ar  1 <1>  -0.1500 
 20 C        1.6510    -7.6450    -0.3320 C.ar  1 <1>  -0.1500 
 21 C        2.2240    -8.4950     2.2350 C.ar  1 <1>  -0.1500 
 22 C        2.9640    -7.8660     0.0470 C.ar  1 <1>  -0.1500 
 23 C        3.2520    -8.2830     1.3340 C.ar  1 <1>  -0.1500 
 24 H        1.9300    -2.7730    -3.2470 H     1 <1>   0.1500 
 25 H       -1.6430     0.2520    -0.1330 H     1 <1>   0.0800 
 26 H       -2.1570     0.1770    -1.8040 H     1 <1>   0.0800 
 27 H       -0.8460     1.2390    -1.3370 H     1 <1>   0.0800 
 28 H        2.3510    -3.2200     0.3070 H     1 <1>   0.0800 
 29 H        2.1160    -4.4020    -0.9690 H     1 <1>   0.0800 
 30 H       -0.0380    -3.4120     0.6730 H     1 <1>   0.4500 
 31 H       -0.9570    -4.4470    -1.0700 H     1 <1>   0.0800 
 32 H        0.2430    -5.6850    -1.1250 H     1 <1>   0.0800 
 33 H        1.5350    -5.8060     1.4100 H     1 <1>   0.0800 
 34 H        1.6460    -4.2650     2.2110 H     1 <1>   0.0800 
 35 H       -0.4050    -4.4490     3.2060 H     1 <1>   0.0800 
 36 H        0.0650    -6.1080     3.1650 H     1 <1>   0.0800 
 37 H       -2.0480    -4.6430     1.7120 H     1 <1>   0.0800 
 38 H       -3.1620    -5.0200    -0.1990 H     1 <1>   0.0800 
 39 H       -3.3540    -6.7520    -0.0300 H     1 <1>   0.0800 
 40 H       -1.4790    -8.1960     0.7190 H     1 <1>   0.0800 
 41 H       -0.9190    -7.8560    -0.8620 H     1 <1>   0.0800 
 42 H       -1.8000    -7.2690     2.6820 H     1 <1>   0.4000 
 43 H       -3.4330    -6.1640    -2.1980 H     1 <1>   0.4000 
 44 H        0.1270    -8.4670     2.5640 H     1 <1>   0.1500 
 45 H        1.4460    -7.3500    -1.3460 H     1 <1>   0.1500 
 46 H        2.4470    -8.8420     3.2300 H     1 <1>   0.1500 
 47 H        3.7640    -7.7300    -0.6610 H     1 <1>   0.1500 
 48 H        4.2720    -8.4600     1.6290 H     1 <1>   0.1500 
@<TRIPOS>BOND
  1   1   2  1   
  2   1   3  1   
  3   2   4  2   
  4   2   5  1   
  5   3   6  2   
  6   3  24  1   
  7   4   6  1   
  8   5  25  1   
  9   5  26  1   
 10   5  27  1   
 11   6   7  1   
 12   7   8  1   
 13   7  28  1   
 14   7  29  1   
 15   8   9  1   
 16   8  10  1   
 17   8  30  1   
 18   9  11  1   
 19   9  31  1   
 20   9  32  1   
 21  10  12  1   
 22  10  33  1   
 23  10  34  1   
 24  11  13  1   
 25  11  14  1   
 26  11  15  1   
 27  12  13  1   
 28  12  35  1   
 29  12  36  1   
 30  13  16  1   
 31  13  37  1   
 32  14  17  1   
 33  14  38  1   
 34  14  39  1   
 35  15  18  1   
 36  15  40  1   
 37  15  41  1   
 38  16  42  1   
 39  17  43  1   
 40  18  19  ar  
 41  18  20  ar  
 42  19  21  ar  
 43  19  44  1   
 44  20  22  ar  
 45  20  45  1   
 46  21  23  ar  
 47  21  46  1   
 48  22  23  ar  
 49  22  47  1   
 50  23  48  1   
@<TRIPOS>SUBSTRUCTURE
  1 ****   9 GROUP 4 **** **** 0

# MOE 2024.06 (io_trps.svl 2023.06)
