@<TRIPOS>MOLECULE
NONAME
53 56 1 0 0 
SMALL
USER_CHARGES


@<TRIPOS>ATOM
  1 O        4.3110    -1.9000    -1.9580 O.2   1 <1>  -0.5700 
  2 C        3.4560    -1.9030    -1.0900 C.2   1 <1>   0.5440 
  3 N        3.3000    -0.7390    -0.3810 N.am  1 <1>  -0.6600 
  4 C        2.7000    -3.1010    -0.7660 C.ar  1 <1>   0.0860 
  5 C        3.8670    -0.7160     1.0160 C.3   1 <1>   0.2200 
  6 C        3.2010     0.5530    -1.1350 C.3   1 <1>   0.1400 
  7 C        1.6050    -3.0760     0.0720 C.ar  1 <1>  -0.1500 
  8 C        3.0660    -4.3540    -1.2970 C.ar  1 <1>  -0.1500 
  9 C        3.2150     0.3580     1.9020 C.3   1 <1>   0.1200 
 10 C        5.4110    -0.5740     0.9940 C.3   1 <1>   0.3430 
 11 C        4.1190     1.6850    -0.6340 C.3   1 <1>  -0.0800 
 12 C        0.8850    -4.2220     0.4250 C.ar  1 <1>   0.3100 
 13 C        2.3790    -5.4950    -0.9840 C.ar  1 <1>  -0.1500 
 14 O        3.8690     1.5830     1.7780 O.3   1 <1>  -0.5600 
 15 N        5.9250    -0.0960    -0.3360 N.4   1 <1>  -0.9590 
 16 C        3.5820     2.3370     0.6500 C.3   1 <1>   0.1200 
 17 C        5.6250     1.3510    -0.5460 C.3   1 <1>   0.3430 
 18 N       -0.1540    -4.0710     1.2820 N.ar  1 <1>  -0.6200 
 19 C        1.2700    -5.4700    -0.1110 C.ar  1 <1>   0.0000 
 20 C        7.4300    -0.3050    -0.3830 C.3   1 <1>   0.2370 
 21 C       -0.8220    -5.1330     1.6040 C.ar  1 <1>   0.1670 
 22 C        0.5210    -6.6050     0.2630 C.ar  1 <1>  -0.1430 
 23 C        8.2030     0.4120     0.7280 C.2   1 <1>   0.9060 
 24 C       -0.5220    -6.4160     1.1220 C.ar  1 <1>  -0.1500 
 25 C       -1.9840    -4.9550     2.5590 C.3   1 <1>  -0.0970 
 26 C        0.8530    -7.9930    -0.2650 C.3   1 <1>  -0.0970 
 27 O        8.5760     1.5700     0.5210 O.co2 1 <1>  -0.9000 
 28 O        8.2950    -0.1560     1.8210 O.co2 1 <1>  -0.9000 
 29 H        3.6420    -1.6610     1.4800 H     1 <1>   0.0800 
 30 H        3.4220     0.3730    -2.1750 H     1 <1>   0.0800 
 31 H        2.1780     0.8860    -1.0930 H     1 <1>   0.0800 
 32 H        1.2580    -2.1500     0.4900 H     1 <1>   0.1500 
 33 H        3.9100    -4.4000    -1.9650 H     1 <1>   0.1500 
 34 H        3.3160     0.0670     2.9330 H     1 <1>   0.0800 
 35 H        2.1670     0.4740     1.6850 H     1 <1>   0.0800 
 36 H        5.8440    -1.5360     1.2100 H     1 <1>   0.0800 
 37 H        5.7330     0.0950     1.7770 H     1 <1>   0.0800 
 38 H        4.0440     2.4610    -1.3730 H     1 <1>   0.0800 
 39 H        2.6880    -6.4320    -1.4100 H     1 <1>   0.1500 
 40 H        5.4470    -0.6590    -1.0680 H     1 <1>   0.4500 
 41 H        2.5180     2.4970     0.6010 H     1 <1>   0.0800 
 42 H        4.0570     3.2930     0.7930 H     1 <1>   0.0800 
 43 H        6.0730     1.9290     0.2490 H     1 <1>   0.0800 
 44 H        6.0950     1.6610    -1.4640 H     1 <1>   0.0800 
 45 H        7.6520    -1.3520    -0.2980 H     1 <1>   0.0800 
 46 H        7.8180     0.0490    -1.3210 H     1 <1>   0.0800 
 47 H       -1.1290    -7.2420     1.4440 H     1 <1>   0.1500 
 48 H       -2.6370    -5.8070     2.5380 H     1 <1>   0.0800 
 49 H       -2.5480    -4.0830     2.2810 H     1 <1>   0.0800 
 50 H       -1.6090    -4.8210     3.5570 H     1 <1>   0.0800 
 51 H        0.1750    -8.7270     0.1310 H     1 <1>   0.0800 
 52 H        1.8520    -8.2680     0.0220 H     1 <1>   0.0800 
 53 H        0.7770    -8.0080    -1.3370 H     1 <1>   0.0800 
@<TRIPOS>BOND
  1   1   2  2   
  2   2   3  am  
  3   2   4  1   
  4   3   5  1   
  5   3   6  1   
  6   4   7  ar  
  7   4   8  ar  
  8   5   9  1   
  9   5  10  1   
 10   5  29  1   
 11   6  11  1   
 12   6  30  1   
 13   6  31  1   
 14   7  12  ar  
 15   7  32  1   
 16   8  13  ar  
 17   8  33  1   
 18   9  14  1   
 19   9  34  1   
 20   9  35  1   
 21  10  15  1   
 22  10  36  1   
 23  10  37  1   
 24  11  16  1   
 25  11  17  1   
 26  11  38  1   
 27  12  18  ar  
 28  12  19  ar  
 29  13  19  ar  
 30  13  39  1   
 31  14  16  1   
 32  15  17  1   
 33  15  20  1   
 34  15  40  1   
 35  16  41  1   
 36  16  42  1   
 37  17  43  1   
 38  17  44  1   
 39  18  21  ar  
 40  19  22  ar  
 41  20  23  1   
 42  20  45  1   
 43  20  46  1   
 44  21  24  ar  
 45  21  25  1   
 46  22  24  ar  
 47  22  26  1   
 48  23  27  ar  
 49  23  28  ar  
 50  24  47  1   
 51  25  48  1   
 52  25  49  1   
 53  25  50  1   
 54  26  51  1   
 55  26  52  1   
 56  26  53  1   
@<TRIPOS>SUBSTRUCTURE
  1 ****   2 GROUP 4 **** **** 0

# MOE 2024.06 (io_trps.svl 2023.06)
