@<TRIPOS>MOLECULE
NONAME
56 59 1 0 0 
SMALL
USER_CHARGES


@<TRIPOS>ATOM
  1 O       -0.7270     0.9340    -1.5090 O.2   1 <1>  -0.5700 
  2 C       -1.8110     1.2340    -1.0650 C.2   1 <1>   0.5690 
  3 N       -2.9300     0.4830    -1.3280 N.am  1 <1>  -0.6600 
  4 C       -1.9130     2.4760    -0.1900 C.3   1 <1>  -0.0990 
  5 C       -4.2980     0.7430    -0.7980 C.3   1 <1>   0.1400 
  6 C       -2.8650    -0.7220    -2.2030 C.3   1 <1>   0.1400 
  7 C       -0.5800     3.2150    -0.0160 C.3   1 <1>   0.0210 
  8 C       -4.7500    -0.4630     0.0280 C.3   1 <1>  -0.1600 
  9 C       -3.3110    -1.9500    -1.4050 C.3   1 <1>  -0.1600 
 10 C       -0.6360     4.4710     0.8520 C.2   1 <1>  -0.1810 
 11 C       -4.7070    -1.7640    -0.7930 C.3   1 <1>   0.4240 
 12 C       -1.6000     5.1240     1.5340 C.2   1 <1>  -0.0400 
 13 C        0.4980     5.2490     1.1000 C.2   1 <1>   0.1080 
 14 O       -5.5760    -1.6120    -1.8910 O.3   1 <1>  -0.5600 
 15 C       -5.0830    -2.9860     0.0740 C.ar  1 <1>  -0.1440 
 16 O       -1.0500     6.1630     2.1040 O.3   1 <1>  -0.0190 
 17 C       -3.0870     4.9360     1.7740 C.3   1 <1>  -0.0600 
 18 N        0.2190     6.2510     1.8500 N.2   1 <1>  -0.4100 
 19 C        1.8910     4.9790     0.5710 C.3   1 <1>  -0.0590 
 20 C       -6.9280    -1.8840    -1.6890 C.3   1 <1>   0.1200 
 21 C       -6.2130    -3.7480    -0.2060 C.ar  1 <1>  -0.1440 
 22 C       -4.2960    -3.3460     1.1630 C.ar  1 <1>  -0.1500 
 23 C       -7.0920    -3.3690    -1.3810 C.3   1 <1>  -0.0170 
 24 C       -6.5410    -4.8440     0.5750 C.ar  1 <1>  -0.1500 
 25 C       -4.6230    -4.4380     1.9460 C.ar  1 <1>  -0.1500 
 26 C       -5.7440    -5.1960     1.6600 C.ar  1 <1>   0.0820 
 27 O       -5.9940    -6.2520     2.4740 O.3   1 <1>  -0.3620 
 28 C       -7.0990    -7.1000     2.2570 C.3   1 <1>   0.0400 
 29 H       -2.2680     2.1740     0.7770 H     1 <1>   0.0800 
 30 H       -2.6190     3.1450    -0.6440 H     1 <1>   0.0800 
 31 H       -4.9710     0.8920    -1.6270 H     1 <1>   0.0800 
 32 H       -4.3260     1.6260    -0.1880 H     1 <1>   0.0800 
 33 H       -1.8660    -0.8770    -2.5730 H     1 <1>   0.0800 
 34 H       -3.5130    -0.5790    -3.0510 H     1 <1>   0.0800 
 35 H       -0.2130     3.4920    -0.9890 H     1 <1>   0.0800 
 36 H        0.1340     2.5360     0.4170 H     1 <1>   0.0800 
 37 H       -5.7410    -0.3020     0.4070 H     1 <1>   0.0800 
 38 H       -4.0990    -0.5520     0.8770 H     1 <1>   0.0800 
 39 H       -2.5850    -2.1260    -0.6350 H     1 <1>   0.0800 
 40 H       -3.3200    -2.8150    -2.0430 H     1 <1>   0.0800 
 41 H       -3.4750     4.0690     1.2830 H     1 <1>   0.0800 
 42 H       -3.6160     5.8000     1.4140 H     1 <1>   0.0800 
 43 H       -3.2670     4.8410     2.8300 H     1 <1>   0.0800 
 44 H        2.2380     4.0250     0.9240 H     1 <1>   0.0800 
 45 H        2.5680     5.7410     0.9130 H     1 <1>   0.0800 
 46 H        1.8820     4.9810    -0.5030 H     1 <1>   0.0800 
 47 H       -7.4550    -1.6270    -2.5910 H     1 <1>   0.0800 
 48 H       -7.2960    -1.2790    -0.8800 H     1 <1>   0.0800 
 49 H       -3.4170    -2.7810     1.4150 H     1 <1>   0.1500 
 50 H       -6.8120    -3.9460    -2.2450 H     1 <1>   0.0800 
 51 H       -8.1230    -3.5720    -1.1570 H     1 <1>   0.0800 
 52 H       -7.4160    -5.4140     0.3300 H     1 <1>   0.1500 
 53 H       -4.0100    -4.7110     2.7850 H     1 <1>   0.1500 
 54 H       -7.0880    -7.8620     3.0150 H     1 <1>   0.0800 
 55 H       -7.0080    -7.5490     1.2840 H     1 <1>   0.0800 
 56 H       -8.0030    -6.5220     2.3340 H     1 <1>   0.0800 
@<TRIPOS>BOND
  1   1   2  2   
  2   2   3  am  
  3   2   4  1   
  4   3   5  1   
  5   3   6  1   
  6   4   7  1   
  7   4  29  1   
  8   4  30  1   
  9   5   8  1   
 10   5  31  1   
 11   5  32  1   
 12   6   9  1   
 13   6  33  1   
 14   6  34  1   
 15   7  10  1   
 16   7  35  1   
 17   7  36  1   
 18   8  11  1   
 19   8  37  1   
 20   8  38  1   
 21   9  11  1   
 22   9  39  1   
 23   9  40  1   
 24  10  12  2   
 25  10  13  1   
 26  11  14  1   
 27  11  15  1   
 28  12  16  1   
 29  12  17  1   
 30  13  18  2   
 31  13  19  1   
 32  14  20  1   
 33  15  21  ar  
 34  15  22  ar  
 35  16  18  1   
 36  17  41  1   
 37  17  42  1   
 38  17  43  1   
 39  19  44  1   
 40  19  45  1   
 41  19  46  1   
 42  20  23  1   
 43  20  47  1   
 44  20  48  1   
 45  21  23  1   
 46  21  24  ar  
 47  22  25  ar  
 48  22  49  1   
 49  23  50  1   
 50  23  51  1   
 51  24  26  ar  
 52  24  52  1   
 53  25  26  ar  
 54  25  53  1   
 55  26  27  1   
 56  27  28  1   
 57  28  54  1   
 58  28  55  1   
 59  28  56  1   
@<TRIPOS>SUBSTRUCTURE
  1 ****   8 GROUP 4 **** **** 0

# MOE 2024.06 (io_trps.svl 2023.06)
