@<TRIPOS>MOLECULE
NONAME
44 46 1 0 0 
SMALL
USER_CHARGES


@<TRIPOS>ATOM
  1 O        0.1080    -1.1330     0.5040 O.2   1 <1>  -0.5700 
  2 C       -0.4270    -1.9990    -0.1390 C.2   1 <1>   0.4230 
  3 C       -1.7590    -2.4760     0.1430 C.ar  1 <1>   0.0860 
  4 C        0.3780    -2.5790    -1.2870 C.3   1 <1>  -0.1790 
  5 C       -2.3850    -3.4840    -0.5980 C.ar  1 <1>   0.1600 
  6 C       -2.5020    -1.9390     1.1930 C.ar  1 <1>  -0.1500 
  7 N       -3.5980    -3.9670    -0.4000 N.ar  1 <1>  -0.6200 
  8 C       -3.7660    -2.4250     1.4160 C.ar  1 <1>  -0.1500 
  9 C       -4.2800    -3.4300     0.6060 C.ar  1 <1>   0.4100 
 10 N       -5.5490    -3.8940     0.8240 N.pl3 1 <1>  -0.8380 
 11 C       -6.6090    -3.4520    -0.1240 C.3   1 <1>   0.2090 
 12 C       -5.7300    -5.3460     1.0680 C.3   1 <1>   0.2090 
 13 C       -7.4330    -4.6970    -0.4880 C.3   1 <1>   0.2000 
 14 C       -6.5040    -5.8600    -0.1430 C.3   1 <1>  -0.0800 
 15 O       -8.5790    -4.7790     0.3170 O.3   1 <1>  -0.5600 
 16 C       -7.2100    -7.2050     0.1020 C.3   1 <1>   0.0200 
 17 C       -9.6750    -4.0480    -0.1350 C.3   1 <1>   0.0400 
 18 C       -6.2380    -8.3620     0.2680 C.2   1 <1>  -0.0400 
 19 O       -6.7020    -9.5300     0.6240 O.3   1 <1>  -0.0190 
 20 C       -4.9090    -8.4790     0.1190 C.2   1 <1>  -0.1500 
 21 N       -5.7580   -10.4210     0.7240 N.2   1 <1>  -0.4100 
 22 C       -4.6650    -9.8150     0.4250 C.2   1 <1>   0.1080 
 23 C       -3.3040   -10.4740     0.4120 C.3   1 <1>  -0.0590 
 24 H       -0.1340    -2.4200    -2.2170 H     1 <1>   0.0800 
 25 H        0.5410    -3.6290    -1.1320 H     1 <1>   0.0800 
 26 H        1.3360    -2.0920    -1.3400 H     1 <1>   0.0800 
 27 H       -1.8460    -3.9260    -1.4150 H     1 <1>   0.1500 
 28 H       -2.0880    -1.1600     1.8110 H     1 <1>   0.1500 
 29 H       -4.3800    -2.0460     2.2110 H     1 <1>   0.1500 
 30 H       -7.2200    -2.6920     0.3290 H     1 <1>   0.0800 
 31 H       -6.1480    -3.0540    -1.0120 H     1 <1>   0.0800 
 32 H       -4.7830    -5.8460     1.1800 H     1 <1>   0.0800 
 33 H       -6.3080    -5.4750     1.9670 H     1 <1>   0.0800 
 34 H       -7.7240    -4.7110    -1.5240 H     1 <1>   0.0800 
 35 H       -5.8060    -5.9710    -0.9540 H     1 <1>   0.0800 
 36 H       -7.8590    -7.4250    -0.7270 H     1 <1>   0.0800 
 37 H       -7.8210    -7.1400     0.9860 H     1 <1>   0.0800 
 38 H      -10.4790    -4.1880     0.5660 H     1 <1>   0.0800 
 39 H       -9.9720    -4.4130    -1.1030 H     1 <1>   0.0800 
 40 H       -9.4190    -3.0040    -0.1840 H     1 <1>   0.0800 
 41 H       -4.1740    -7.7500    -0.1670 H     1 <1>   0.1500 
 42 H       -2.8660   -10.3840    -0.5650 H     1 <1>   0.0800 
 43 H       -3.3990   -11.5160     0.6570 H     1 <1>   0.0800 
 44 H       -2.6650   -10.0030     1.1350 H     1 <1>   0.0800 
@<TRIPOS>BOND
  1   1   2  2   
  2   2   3  1   
  3   2   4  1   
  4   3   5  ar  
  5   3   6  ar  
  6   4  24  1   
  7   4  25  1   
  8   4  26  1   
  9   5   7  ar  
 10   5  27  1   
 11   6   8  ar  
 12   6  28  1   
 13   7   9  ar  
 14   8   9  ar  
 15   8  29  1   
 16   9  10  1   
 17  10  11  1   
 18  10  12  1   
 19  11  13  1   
 20  11  30  1   
 21  11  31  1   
 22  12  14  1   
 23  12  32  1   
 24  12  33  1   
 25  13  14  1   
 26  13  15  1   
 27  13  34  1   
 28  14  16  1   
 29  14  35  1   
 30  15  17  1   
 31  16  18  1   
 32  16  36  1   
 33  16  37  1   
 34  17  38  1   
 35  17  39  1   
 36  17  40  1   
 37  18  19  1   
 38  18  20  2   
 39  19  21  1   
 40  20  22  1   
 41  20  41  1   
 42  21  22  2   
 43  22  23  1   
 44  23  42  1   
 45  23  43  1   
 46  23  44  1   
@<TRIPOS>SUBSTRUCTURE
  1 ****  12 GROUP 4 **** **** 0

# MOE 2024.06 (io_trps.svl 2023.06)
