@<TRIPOS>MOLECULE
NONAME
54 57 1 0 0 
SMALL
USER_CHARGES


@<TRIPOS>ATOM
  1 O        0.5550    -0.4330     1.0400 O.3   1 <1>  -0.5600 
  2 C        1.6990    -0.9700     0.4130 C.3   1 <1>   0.4240 
  3 C       -0.6900    -0.8340     0.5600 C.3   1 <1>   0.1200 
  4 C        1.5050    -2.4610     0.0590 C.ar  1 <1>  -0.1440 
  5 C        1.9960    -0.1380    -0.8440 C.3   1 <1>  -0.1600 
  6 C        2.8360    -0.8030     1.4270 C.3   1 <1>  -0.1600 
  7 C       -0.8720    -2.3210     0.8480 C.3   1 <1>  -0.0160 
  8 C        0.2900    -3.1020     0.2670 C.ar  1 <1>  -0.1440 
  9 C        2.5500    -3.1980    -0.4850 C.ar  1 <1>  -0.1500 
 10 C        2.2400     1.3310    -0.5050 C.3   1 <1>   0.2090 
 11 C        3.1130     0.6680     1.7440 C.3   1 <1>   0.2090 
 12 C        0.1310    -4.4400    -0.0570 C.ar  1 <1>  -0.1500 
 13 C        2.4120    -4.5370    -0.8080 C.ar  1 <1>   0.0830 
 14 N        3.3320     1.4390     0.4920 N.pl3 1 <1>  -0.8380 
 15 C        1.1790    -5.1760    -0.6040 C.ar  1 <1>   0.0830 
 16 O        3.5330    -5.1230    -1.3180 O.3   1 <1>  -0.3630 
 17 C        4.6130     1.6860     0.0510 C.ar  1 <1>   0.4100 
 18 O        1.0200    -6.4860    -0.9570 O.3   1 <1>  -0.3630 
 19 C        3.8300    -6.4760    -1.0530 C.3   1 <1>   0.0400 
 20 N        5.4170     0.6480    -0.0590 N.ar  1 <1>  -0.6200 
 21 C        5.0400     2.9670    -0.2760 C.ar  1 <1>  -0.1430 
 22 C       -0.2380    -7.1250    -0.9300 C.3   1 <1>   0.0400 
 23 C        6.6290     0.9000    -0.5060 C.ar  1 <1>   0.4770 
 24 C        6.3280     3.0940    -0.7280 C.ar  1 <1>   0.1600 
 25 C        4.1330     4.1830    -0.1320 C.3   1 <1>  -0.0970 
 26 N        7.1430     2.0650    -0.8530 N.ar  1 <1>  -0.6200 
 27 C        7.5460    -0.2920    -0.6340 C.3   1 <1>  -0.0970 
 28 H       -0.7450    -0.6330    -0.4960 H     1 <1>   0.0800 
 29 H       -1.4410    -0.2560     1.0690 H     1 <1>   0.0800 
 30 H        1.1930    -0.2280    -1.5490 H     1 <1>   0.0800 
 31 H        2.8810    -0.5170    -1.3220 H     1 <1>   0.0800 
 32 H        3.7400    -1.2330     1.0420 H     1 <1>   0.0800 
 33 H        2.5870    -1.3310     2.3290 H     1 <1>   0.0800 
 34 H       -1.7990    -2.6530     0.4170 H     1 <1>   0.0800 
 35 H       -0.9170    -2.4750     1.9110 H     1 <1>   0.0800 
 36 H        3.5030    -2.7360    -0.6680 H     1 <1>   0.1500 
 37 H        1.3460     1.7730    -0.0990 H     1 <1>   0.0800 
 38 H        2.5090     1.8670    -1.3990 H     1 <1>   0.0800 
 39 H        3.9840     0.7450     2.3720 H     1 <1>   0.0800 
 40 H        2.2770     1.0920     2.2750 H     1 <1>   0.0800 
 41 H       -0.8230    -4.8920     0.1250 H     1 <1>   0.1500 
 42 H        4.8840    -6.6230    -1.2050 H     1 <1>   0.0800 
 43 H        3.2750    -7.0930    -1.7360 H     1 <1>   0.0800 
 44 H        3.5680    -6.7010    -0.0340 H     1 <1>   0.0800 
 45 H       -0.1140    -8.1200    -1.3170 H     1 <1>   0.0800 
 46 H       -0.9220    -6.5750    -1.5520 H     1 <1>   0.0800 
 47 H       -0.5860    -7.1690     0.0860 H     1 <1>   0.0800 
 48 H        6.7140     4.0610    -0.9960 H     1 <1>   0.1500 
 49 H        3.6670     4.1760     0.8380 H     1 <1>   0.0800 
 50 H        3.3660     4.1590    -0.8830 H     1 <1>   0.0800 
 51 H        4.6920     5.0960    -0.2340 H     1 <1>   0.0800 
 52 H        6.9710    -1.1850    -0.7940 H     1 <1>   0.0800 
 53 H        8.1170    -0.3950     0.2680 H     1 <1>   0.0800 
 54 H        8.2140    -0.1540    -1.4640 H     1 <1>   0.0800 
@<TRIPOS>BOND
  1   1   2  1   
  2   1   3  1   
  3   2   4  1   
  4   2   5  1   
  5   2   6  1   
  6   3   7  1   
  7   3  28  1   
  8   3  29  1   
  9   4   8  ar  
 10   4   9  ar  
 11   5  10  1   
 12   5  30  1   
 13   5  31  1   
 14   6  11  1   
 15   6  32  1   
 16   6  33  1   
 17   7   8  1   
 18   7  34  1   
 19   7  35  1   
 20   8  12  ar  
 21   9  13  ar  
 22   9  36  1   
 23  10  14  1   
 24  10  37  1   
 25  10  38  1   
 26  11  14  1   
 27  11  39  1   
 28  11  40  1   
 29  12  15  ar  
 30  12  41  1   
 31  13  15  ar  
 32  13  16  1   
 33  14  17  1   
 34  15  18  1   
 35  16  19  1   
 36  17  20  ar  
 37  17  21  ar  
 38  18  22  1   
 39  19  42  1   
 40  19  43  1   
 41  19  44  1   
 42  20  23  ar  
 43  21  24  ar  
 44  21  25  1   
 45  22  45  1   
 46  22  46  1   
 47  22  47  1   
 48  23  26  ar  
 49  23  27  1   
 50  24  26  ar  
 51  24  48  1   
 52  25  49  1   
 53  25  50  1   
 54  25  51  1   
 55  27  52  1   
 56  27  53  1   
 57  27  54  1   
@<TRIPOS>SUBSTRUCTURE
  1 ****   2 GROUP 4 **** **** 0

# MOE 2024.06 (io_trps.svl 2023.06)
