@<TRIPOS>MOLECULE
NONAME
57 60 1 0 0 
SMALL
USER_CHARGES


@<TRIPOS>ATOM
  1 O       -0.9660    -0.2190    -0.6440 O.3   1 <1>  -0.3630 
  2 C       -1.9020    -0.9420     0.0250 C.ar  1 <1>   0.0830 
  3 C       -0.6620     1.1140    -0.2980 C.3   1 <1>   0.0400 
  4 C       -2.0810    -2.2690    -0.3520 C.ar  1 <1>  -0.1440 
  5 C       -2.6670    -0.4120     1.0610 C.ar  1 <1>  -0.1500 
  6 C       -3.0090    -3.0480     0.3210 C.ar  1 <1>  -0.1500 
  7 C       -1.2540    -2.8510    -1.4960 C.3   1 <1>   0.2640 
  8 C       -3.6060    -1.1940     1.7090 C.ar  1 <1>  -0.1500 
  9 C       -3.7910    -2.5160     1.3360 C.ar  1 <1>  -0.1440 
 10 O       -1.9140    -3.9530    -2.0520 O.3   1 <1>  -0.5600 
 11 C       -4.8430    -3.3700     2.0180 C.3   1 <1>   0.4860 
 12 C       -1.2440    -4.5160    -3.1350 C.3   1 <1>   0.0400 
 13 N       -5.7160    -4.0020     0.9850 N.4   1 <1>  -0.9590 
 14 C       -6.3900    -2.9970     0.0820 C.3   1 <1>   0.3430 
 15 C       -6.6750    -4.9870     1.5820 C.3   1 <1>   0.3430 
 16 C       -7.4940    -2.1600     0.7750 C.3   1 <1>   0.1430 
 17 C       -8.0830    -4.4090     1.8060 C.3   1 <1>  -0.1600 
 18 C       -8.5780    -1.8880    -0.2490 C.ar  1 <1>   0.1670 
 19 C       -8.1040    -2.8850     2.0000 C.3   1 <1>  -0.1600 
 20 C       -7.0320    -0.7230     1.1410 C.3   1 <1>  -0.1600 
 21 N       -9.1060    -2.7930    -1.0420 N.ar  1 <1>  -0.6200 
 22 C       -8.9520    -0.5790    -0.2580 C.ar  1 <1>  -0.1430 
 23 C       -8.1780     0.2300     0.7500 C.3   1 <1>  -0.0170 
 24 C      -10.0450    -2.3230    -1.8540 C.ar  1 <1>   0.4770 
 25 C       -9.9320    -0.2010    -1.1420 C.ar  1 <1>   0.1600 
 26 N      -10.4880    -1.0780    -1.9520 N.ar  1 <1>  -0.6200 
 27 C      -10.6850    -3.3220    -2.7880 C.3   1 <1>  -0.0970 
 28 H        0.1190     1.4590    -0.9510 H     1 <1>   0.0800 
 29 H       -0.3220     1.1420     0.7220 H     1 <1>   0.0800 
 30 H       -1.5410     1.7200    -0.4300 H     1 <1>   0.0800 
 31 H       -2.5440     0.6080     1.3740 H     1 <1>   0.1500 
 32 H       -3.1130    -4.0800     0.0360 H     1 <1>   0.1500 
 33 H       -0.2940    -3.1700    -1.1290 H     1 <1>   0.0800 
 34 H       -1.1180    -2.1150    -2.2690 H     1 <1>   0.0800 
 35 H       -4.1840    -0.7570     2.5050 H     1 <1>   0.1500 
 36 H       -5.4330    -2.7600     2.6800 H     1 <1>   0.0800 
 37 H       -4.3530    -4.1310     2.6020 H     1 <1>   0.0800 
 38 H       -1.8190    -5.3540    -3.4880 H     1 <1>   0.0800 
 39 H       -0.2710    -4.8510    -2.8170 H     1 <1>   0.0800 
 40 H       -1.1550    -3.7830    -3.9190 H     1 <1>   0.0800 
 41 H       -5.0700    -4.5230     0.3780 H     1 <1>   0.4500 
 42 H       -6.8510    -3.5370    -0.7290 H     1 <1>   0.0800 
 43 H       -5.6600    -2.3380    -0.3590 H     1 <1>   0.0800 
 44 H       -6.2850    -5.3380     2.5240 H     1 <1>   0.0800 
 45 H       -6.7630    -5.8430     0.9320 H     1 <1>   0.0800 
 46 H       -8.5280    -4.8920     2.6580 H     1 <1>   0.0800 
 47 H       -8.6950    -4.6640     0.9570 H     1 <1>   0.0800 
 48 H       -9.1180    -2.5530     2.1520 H     1 <1>   0.0800 
 49 H       -7.5560    -2.6460     2.8930 H     1 <1>   0.0800 
 50 H       -6.1750    -0.4590     0.5450 H     1 <1>   0.0800 
 51 H       -6.7710    -0.6120     2.1780 H     1 <1>   0.0800 
 52 H       -7.8070     1.1480     0.3270 H     1 <1>   0.0800 
 53 H       -8.8050     0.4450     1.5980 H     1 <1>   0.0800 
 54 H      -10.2660     0.8220    -1.1900 H     1 <1>   0.1500 
 55 H      -10.5570    -4.3210    -2.4150 H     1 <1>   0.0800 
 56 H      -10.2300    -3.2450    -3.7560 H     1 <1>   0.0800 
 57 H      -11.7360    -3.1160    -2.8760 H     1 <1>   0.0800 
@<TRIPOS>BOND
  1   1   2  1   
  2   1   3  1   
  3   2   4  ar  
  4   2   5  ar  
  5   3  28  1   
  6   3  29  1   
  7   3  30  1   
  8   4   6  ar  
  9   4   7  1   
 10   5   8  ar  
 11   5  31  1   
 12   6   9  ar  
 13   6  32  1   
 14   7  10  1   
 15   7  33  1   
 16   7  34  1   
 17   8   9  ar  
 18   8  35  1   
 19   9  11  1   
 20  10  12  1   
 21  11  13  1   
 22  11  36  1   
 23  11  37  1   
 24  12  38  1   
 25  12  39  1   
 26  12  40  1   
 27  13  14  1   
 28  13  15  1   
 29  13  41  1   
 30  14  16  1   
 31  14  42  1   
 32  14  43  1   
 33  15  17  1   
 34  15  44  1   
 35  15  45  1   
 36  16  18  1   
 37  16  19  1   
 38  16  20  1   
 39  17  19  1   
 40  17  46  1   
 41  17  47  1   
 42  18  21  ar  
 43  18  22  ar  
 44  19  48  1   
 45  19  49  1   
 46  20  23  1   
 47  20  50  1   
 48  20  51  1   
 49  21  24  ar  
 50  22  23  1   
 51  22  25  ar  
 52  23  52  1   
 53  23  53  1   
 54  24  26  ar  
 55  24  27  1   
 56  25  26  ar  
 57  25  54  1   
 58  27  55  1   
 59  27  56  1   
 60  27  57  1   
@<TRIPOS>SUBSTRUCTURE
  1 ****  14 GROUP 4 **** **** 0

# MOE 2024.06 (io_trps.svl 2023.06)
