@<TRIPOS>MOLECULE
NONAME
46 47 1 0 0 
SMALL
USER_CHARGES


@<TRIPOS>ATOM
  1 S       -0.0090    -0.5460     0.9440 S.o2  1 <1>   1.4470 
  2 O       -1.0890     0.1590     1.5900 O.2   1 <1>  -0.6500 
  3 O        0.5400    -1.7420     1.5390 O.2   1 <1>  -0.6500 
  4 N       -0.6600    -0.9330    -0.5570 N.am  1 <1>  -0.9140 
  5 C        1.3290     0.5990     0.5150 C.ar  1 <1>  -0.0090 
  6 C       -1.2420    -2.2600    -0.7850 C.3   1 <1>   0.2760 
  7 C        1.0920     1.9620     0.3880 C.ar  1 <1>  -0.1500 
  8 C        2.6180     0.1380     0.2720 C.ar  1 <1>  -0.1500 
  9 C       -2.2550    -2.7340     0.2660 C.3   1 <1>  -0.0800 
 10 C       -0.2270    -3.4050    -0.8850 C.3   1 <1>   0.1200 
 11 C        2.0990     2.8440     0.0350 C.ar  1 <1>   0.0830 
 12 C        3.6370     1.0070    -0.0810 C.ar  1 <1>  -0.1500 
 13 C       -1.6050    -4.0180     0.7920 C.3   1 <1>   0.1200 
 14 C       -3.6190    -3.0290    -0.3910 C.3   1 <1>  -0.0550 
 15 O       -0.8460    -4.4900    -0.2710 O.3   1 <1>  -0.5600 
 16 O        1.7560     4.1510    -0.0610 O.3   1 <1>  -0.3630 
 17 C        3.3820     2.3610    -0.2000 C.ar  1 <1>  -0.1500 
 18 S       -4.9540    -3.2840     0.7790 S.o2  1 <1>   1.3330 
 19 C        2.7060     5.1400    -0.3910 C.3   1 <1>   0.0400 
 20 O       -4.7200    -4.4810     1.5550 O.2   1 <1>  -0.6500 
 21 O       -5.1850    -2.0260     1.4500 O.2   1 <1>  -0.6500 
 22 N       -6.2760    -3.5840    -0.2440 N.am  1 <1>  -0.8490 
 23 C       -6.3650    -4.9820    -0.6820 C.3   1 <1>   0.1160 
 24 C       -7.5470    -3.1720     0.3600 C.3   1 <1>   0.1160 
 25 H       -1.4140    -0.2530    -0.6440 H     1 <1>   0.4200 
 26 H       -1.7290    -2.2180    -1.7450 H     1 <1>   0.0800 
 27 H        0.1070     2.3540     0.5690 H     1 <1>   0.1500 
 28 H        2.8280    -0.9150     0.3610 H     1 <1>   0.1500 
 29 H       -2.3950    -2.0330     1.0680 H     1 <1>   0.0800 
 30 H        0.6870    -3.2010    -0.3580 H     1 <1>   0.0800 
 31 H       -0.0130    -3.6650    -1.9050 H     1 <1>   0.0800 
 32 H        4.6280     0.6280    -0.2610 H     1 <1>   0.1500 
 33 H       -2.3060    -4.7790     1.0880 H     1 <1>   0.0800 
 34 H       -0.9380    -3.8100     1.6120 H     1 <1>   0.0800 
 35 H       -3.5250    -3.8900    -1.0240 H     1 <1>   0.0800 
 36 H       -3.8890    -2.1970    -1.0100 H     1 <1>   0.0800 
 37 H        4.1860     3.0170    -0.4750 H     1 <1>   0.1500 
 38 H        2.2080     6.0920    -0.3980 H     1 <1>   0.0800 
 39 H        3.1050     4.9290    -1.3680 H     1 <1>   0.0800 
 40 H        3.4830     5.1390     0.3530 H     1 <1>   0.0800 
 41 H       -7.1610    -5.0950    -1.3970 H     1 <1>   0.0800 
 42 H       -6.5550    -5.6290     0.1590 H     1 <1>   0.0800 
 43 H       -5.4440    -5.2860    -1.1480 H     1 <1>   0.0800 
 44 H       -8.3620    -3.3630    -0.3170 H     1 <1>   0.0800 
 45 H       -7.5290    -2.1160     0.5730 H     1 <1>   0.0800 
 46 H       -7.7150    -3.7070     1.2800 H     1 <1>   0.0800 
@<TRIPOS>BOND
  1   1   2  2   
  2   1   3  2   
  3   1   4  am  
  4   1   5  1   
  5   4   6  1   
  6   4  25  1   
  7   5   7  ar  
  8   5   8  ar  
  9   6   9  1   
 10   6  10  1   
 11   6  26  1   
 12   7  11  ar  
 13   7  27  1   
 14   8  12  ar  
 15   8  28  1   
 16   9  13  1   
 17   9  14  1   
 18   9  29  1   
 19  10  15  1   
 20  10  30  1   
 21  10  31  1   
 22  11  16  1   
 23  11  17  ar  
 24  12  17  ar  
 25  12  32  1   
 26  13  15  1   
 27  13  33  1   
 28  13  34  1   
 29  14  18  1   
 30  14  35  1   
 31  14  36  1   
 32  16  19  1   
 33  17  37  1   
 34  18  20  2   
 35  18  21  2   
 36  18  22  am  
 37  19  38  1   
 38  19  39  1   
 39  19  40  1   
 40  22  23  1   
 41  22  24  1   
 42  23  41  1   
 43  23  42  1   
 44  23  43  1   
 45  24  44  1   
 46  24  45  1   
 47  24  46  1   
@<TRIPOS>SUBSTRUCTURE
  1 ****   4 GROUP 4 **** **** 0

# MOE 2024.06 (io_trps.svl 2023.06)
