@<TRIPOS>MOLECULE
NONAME
54 56 1 0 0 
SMALL
USER_CHARGES


@<TRIPOS>ATOM
  1 F       -1.7350    -3.9600     3.3970 F     1 <1>  -0.3400 
  2 C       -2.6030    -3.3590     2.5990 C.3   1 <1>   0.6800 
  3 F       -2.9050    -2.2200     3.2080 F     1 <1>  -0.3400 
  4 C       -3.8680    -4.2100     2.4700 C.3   1 <1>  -0.1600 
  5 C       -1.9450    -3.0490     1.2530 C.3   1 <1>  -0.1600 
  6 C       -4.8660    -3.6060     1.4630 C.3   1 <1>  -0.1600 
  7 C       -2.9520    -2.4380     0.2600 C.3   1 <1>  -0.1600 
  8 C       -4.2120    -3.3160     0.0920 C.3   1 <1>  -0.0800 
  9 C       -5.1730    -2.6120    -0.8880 C.3   1 <1>   0.3430 
 10 N       -6.4720    -3.3250    -1.0860 N.4   1 <1>  -0.9590 
 11 C       -6.3260    -4.7430    -1.5730 C.3   1 <1>   0.3430 
 12 C       -7.3940    -2.5250    -1.9410 C.3   1 <1>   0.3430 
 13 C       -7.6760    -5.4880    -1.6740 C.3   1 <1>   0.1400 
 14 C       -8.7900    -2.4870    -1.3160 C.3   1 <1>  -0.1600 
 15 N       -8.6760    -4.9310    -0.7160 N.am  1 <1>  -0.6600 
 16 C       -9.5310    -3.8320    -1.2440 C.3   1 <1>   0.1400 
 17 C       -8.4480    -5.0700     0.6310 C.2   1 <1>   0.7160 
 18 O       -8.2220    -4.0490     1.2550 O.2   1 <1>  -0.5700 
 19 C       -8.2880    -6.3660     1.2420 C.2   1 <1>  -0.0860 
 20 C       -8.9090    -7.5760     0.9050 C.2   1 <1>   0.1080 
 21 C       -7.4860    -6.7160     2.2870 C.2   1 <1>  -0.3020 
 22 N       -8.5050    -8.5630     1.6350 N.2   1 <1>  -0.7070 
 23 C       -9.9630    -7.7890    -0.1620 C.3   1 <1>  -0.0590 
 24 N       -7.6340    -8.0290     2.5010 N.pl3 1 <1>   0.3140 
 25 C       -6.9880    -8.8480     3.5330 C.3   1 <1>   0.0160 
 26 H       -4.3290    -4.3080     3.4370 H     1 <1>   0.0800 
 27 H       -3.5820    -5.1900     2.1310 H     1 <1>   0.0800 
 28 H       -1.5610    -3.9660     0.8430 H     1 <1>   0.0800 
 29 H       -1.1190    -2.3760     1.4080 H     1 <1>   0.0800 
 30 H       -5.2680    -2.6950     1.8760 H     1 <1>   0.0800 
 31 H       -5.6780    -4.3000     1.3510 H     1 <1>   0.0800 
 32 H       -2.4640    -2.3050    -0.6910 H     1 <1>   0.0800 
 33 H       -3.2370    -1.4620     0.6190 H     1 <1>   0.0800 
 34 H       -3.8930    -4.2460    -0.3440 H     1 <1>   0.0800 
 35 H       -4.6780    -2.4970    -1.8390 H     1 <1>   0.0800 
 36 H       -5.3760    -1.6240    -0.5060 H     1 <1>   0.0800 
 37 H       -6.9510    -3.3900    -0.1620 H     1 <1>   0.4500 
 38 H       -5.7060    -5.2870    -0.8790 H     1 <1>   0.0800 
 39 H       -5.8330    -4.7630    -2.5310 H     1 <1>   0.0800 
 40 H       -7.4400    -2.9380    -2.9350 H     1 <1>   0.0800 
 41 H       -7.0300    -1.5130    -2.0170 H     1 <1>   0.0800 
 42 H       -7.5180    -6.5340    -1.4740 H     1 <1>   0.0800 
 43 H       -8.0550    -5.4100    -2.6780 H     1 <1>   0.0800 
 44 H       -9.3970    -1.8140    -1.8950 H     1 <1>   0.0800 
 45 H       -8.7280    -2.0580    -0.3310 H     1 <1>   0.0800 
 46 H       -9.8910    -4.1060    -2.2220 H     1 <1>   0.0800 
 47 H      -10.3930    -3.7240    -0.6060 H     1 <1>   0.0800 
 48 H       -6.8400    -6.0910     2.8750 H     1 <1>   0.1500 
 49 H      -10.6030    -6.9310    -0.2370 H     1 <1>   0.0800 
 50 H      -10.5660    -8.6410     0.0960 H     1 <1>   0.0800 
 51 H       -9.4950    -7.9770    -1.1100 H     1 <1>   0.0800 
 52 H       -6.3510    -8.2320     4.1390 H     1 <1>   0.0800 
 53 H       -6.4100    -9.6170     3.0560 H     1 <1>   0.0800 
 54 H       -7.7480    -9.2970     4.1440 H     1 <1>   0.0800 
@<TRIPOS>BOND
  1   1   2  1   
  2   2   3  1   
  3   2   4  1   
  4   2   5  1   
  5   4   6  1   
  6   4  26  1   
  7   4  27  1   
  8   5   7  1   
  9   5  28  1   
 10   5  29  1   
 11   6   8  1   
 12   6  30  1   
 13   6  31  1   
 14   7   8  1   
 15   7  32  1   
 16   7  33  1   
 17   8   9  1   
 18   8  34  1   
 19   9  10  1   
 20   9  35  1   
 21   9  36  1   
 22  10  11  1   
 23  10  12  1   
 24  10  37  1   
 25  11  13  1   
 26  11  38  1   
 27  11  39  1   
 28  12  14  1   
 29  12  40  1   
 30  12  41  1   
 31  13  15  1   
 32  13  42  1   
 33  13  43  1   
 34  14  16  1   
 35  14  44  1   
 36  14  45  1   
 37  15  16  1   
 38  15  17  am  
 39  16  46  1   
 40  16  47  1   
 41  17  18  2   
 42  17  19  1   
 43  19  20  1   
 44  19  21  2   
 45  20  22  2   
 46  20  23  1   
 47  21  24  1   
 48  21  48  1   
 49  22  24  1   
 50  23  49  1   
 51  23  50  1   
 52  23  51  1   
 53  24  25  1   
 54  25  52  1   
 55  25  53  1   
 56  25  54  1   
@<TRIPOS>SUBSTRUCTURE
  1 ****  18 GROUP 4 **** **** 0

# MOE 2024.06 (io_trps.svl 2023.06)
