@<TRIPOS>MOLECULE
NONAME
50 53 1 0 0 
SMALL
USER_CHARGES


@<TRIPOS>ATOM
  1 O        1.9740    -2.3900     1.8540 O.2   1 <1>  -0.5700 
  2 C        1.2280    -2.5450     0.9000 C.2   1 <1>   0.5440 
  3 N        0.2930    -1.5520     0.6640 N.am  1 <1>  -0.6600 
  4 C        1.3970    -3.7370     0.0650 C.ar  1 <1>   0.3960 
  5 C       -0.6360    -1.4750    -0.4880 C.3   1 <1>   0.1400 
  6 C        0.2170    -0.3180     1.4780 C.3   1 <1>   0.1400 
  7 N        0.3480    -4.3320    -0.5340 N.ar  1 <1>  -0.6200 
  8 C        2.6950    -4.2400    -0.0760 C.ar  1 <1>   0.1600 
  9 C       -1.3750    -0.1500    -0.3230 C.3   1 <1>  -0.1600 
 10 C       -0.4790     0.6940     0.5790 C.3   1 <1>  -0.1600 
 11 C        0.6780    -5.4030    -1.2370 C.ar  1 <1>   0.4100 
 12 N        3.0430    -5.3040    -0.7880 N.ar  1 <1>  -0.6200 
 13 N       -0.3600    -6.0650    -1.8640 N.pl3 1 <1>  -0.8380 
 14 C        1.9960    -5.8650    -1.3560 C.ar  1 <1>   0.1600 
 15 C       -1.4300    -6.6240    -0.9750 C.3   1 <1>   0.2090 
 16 C       -1.0370    -5.3440    -2.9770 C.3   1 <1>   0.2090 
 17 C       -2.6920    -5.7930    -1.2500 C.3   1 <1>   0.4240 
 18 C       -2.5350    -5.5380    -2.7490 C.3   1 <1>  -0.1600 
 19 O       -2.5320    -4.5610    -0.6410 O.3   1 <1>  -0.6800 
 20 C       -4.0220    -6.4310    -0.7800 C.ar  1 <1>  -0.1440 
 21 C       -4.2360    -6.8560     0.5390 C.ar  1 <1>  -0.1440 
 22 C       -5.0640    -6.5990    -1.6930 C.ar  1 <1>  -0.1500 
 23 C       -5.4390    -7.4550     0.8880 C.ar  1 <1>  -0.1500 
 24 C       -3.2220    -6.6920     1.6670 C.3   1 <1>  -0.0970 
 25 C       -6.2590    -7.1920    -1.3330 C.ar  1 <1>  -0.1500 
 26 C       -6.4460    -7.6280    -0.0390 C.ar  1 <1>  -0.1500 
 27 H       -1.3320    -2.2940    -0.4740 H     1 <1>   0.0800 
 28 H       -0.0730    -1.4860    -1.4050 H     1 <1>   0.0800 
 29 H        1.1970     0.0200     1.7710 H     1 <1>   0.0800 
 30 H       -0.3740    -0.5160     2.3560 H     1 <1>   0.0800 
 31 H        3.4920    -3.7250     0.4330 H     1 <1>   0.1500 
 32 H       -2.3140    -0.3370     0.1680 H     1 <1>   0.0800 
 33 H       -1.5660     0.3220    -1.2700 H     1 <1>   0.0800 
 34 H        0.2620     1.2030    -0.0120 H     1 <1>   0.0800 
 35 H       -1.0340     1.4190     1.1470 H     1 <1>   0.0800 
 36 H        2.1560    -6.7420    -1.9550 H     1 <1>   0.1500 
 37 H       -1.1380    -6.5780     0.0580 H     1 <1>   0.0800 
 38 H       -1.6090    -7.6500    -1.2420 H     1 <1>   0.0800 
 39 H       -0.7340    -5.7500    -3.9270 H     1 <1>   0.0800 
 40 H       -0.7910    -4.2950    -2.9470 H     1 <1>   0.0800 
 41 H       -2.8320    -6.4100    -3.3000 H     1 <1>   0.0800 
 42 H       -3.1120    -4.6950    -3.0840 H     1 <1>   0.0800 
 43 H       -1.5600    -4.3840    -0.6230 H     1 <1>   0.4000 
 44 H       -4.9790    -6.2660    -2.7090 H     1 <1>   0.1500 
 45 H       -5.6050    -7.7910     1.8960 H     1 <1>   0.1500 
 46 H       -2.7230    -5.7420     1.6080 H     1 <1>   0.0800 
 47 H       -2.4970    -7.4840     1.6320 H     1 <1>   0.0800 
 48 H       -3.7100    -6.7290     2.6240 H     1 <1>   0.0800 
 49 H       -7.0430    -7.3120    -2.0590 H     1 <1>   0.1500 
 50 H       -7.3730    -8.0930     0.2480 H     1 <1>   0.1500 
@<TRIPOS>BOND
  1   1   2  2   
  2   2   3  am  
  3   2   4  1   
  4   3   5  1   
  5   3   6  1   
  6   4   7  ar  
  7   4   8  ar  
  8   5   9  1   
  9   5  27  1   
 10   5  28  1   
 11   6  10  1   
 12   6  29  1   
 13   6  30  1   
 14   7  11  ar  
 15   8  12  ar  
 16   8  31  1   
 17   9  10  1   
 18   9  32  1   
 19   9  33  1   
 20  10  34  1   
 21  10  35  1   
 22  11  13  1   
 23  11  14  ar  
 24  12  14  ar  
 25  13  15  1   
 26  13  16  1   
 27  14  36  1   
 28  15  17  1   
 29  15  37  1   
 30  15  38  1   
 31  16  18  1   
 32  16  39  1   
 33  16  40  1   
 34  17  18  1   
 35  17  19  1   
 36  17  20  1   
 37  18  41  1   
 38  18  42  1   
 39  19  43  1   
 40  20  21  ar  
 41  20  22  ar  
 42  21  23  ar  
 43  21  24  1   
 44  22  25  ar  
 45  22  44  1   
 46  23  26  ar  
 47  23  45  1   
 48  24  46  1   
 49  24  47  1   
 50  24  48  1   
 51  25  26  ar  
 52  25  49  1   
 53  26  50  1   
@<TRIPOS>SUBSTRUCTURE
  1 ****  19 GROUP 4 **** **** 0

# MOE 2024.06 (io_trps.svl 2023.06)
