@<TRIPOS>MOLECULE
NONAME
44 46 1 0 0 
SMALL
USER_CHARGES


@<TRIPOS>ATOM
  1 O       -0.6930    -1.6190    -1.8170 O.co2 1 <1>  -0.9000 
  2 C       -0.8630    -2.6730    -1.1690 C.2   1 <1>   0.9790 
  3 O        0.0490    -3.5280    -1.2280 O.co2 1 <1>  -0.9000 
  4 C       -2.0680    -2.9370    -0.3580 C.ar  1 <1>   0.1310 
  5 N       -3.0930    -2.0810    -0.2610 N.ar  1 <1>  -0.6200 
  6 C       -2.1560    -4.1290     0.3440 C.ar  1 <1>  -0.1500 
  7 C       -4.1290    -2.4180     0.4970 C.ar  1 <1>   0.7200 
  8 C       -3.2690    -4.3910     1.1020 C.ar  1 <1>   0.1660 
  9 N       -4.2640    -3.5480     1.1890 N.ar  1 <1>  -0.6200 
 10 N       -5.1650    -1.5080     0.5770 N.pl3 1 <1>  -0.8380 
 11 C       -3.3940    -5.6820     1.8800 C.3   1 <1>  -0.0970 
 12 C       -6.5510    -1.9350     0.9450 C.3   1 <1>   0.2090 
 13 C       -4.9870    -0.1320     0.0320 C.3   1 <1>   0.2090 
 14 C       -7.6320    -1.2380     0.0820 C.3   1 <1>   0.0000 
 15 C       -6.0840     0.7960     0.5570 C.3   1 <1>  -0.1600 
 16 C       -9.0220    -1.7620     0.4970 C.3   1 <1>   0.2000 
 17 C       -7.5060     0.3060     0.2230 C.3   1 <1>  -0.1600 
 18 C       -7.5310    -1.7160    -1.3820 C.3   1 <1>  -0.1600 
 19 O      -10.0150    -0.8990     0.0140 O.3   1 <1>  -0.5600 
 20 C       -9.1730    -3.1140    -0.2120 C.3   1 <1>  -0.1600 
 21 C       -8.2590    -3.0620    -1.4430 C.3   1 <1>  -0.1600 
 22 C      -11.2170    -0.9310     0.7150 C.3   1 <1>   0.0400 
 23 H       -1.3480    -4.8340     0.2840 H     1 <1>   0.1500 
 24 H       -2.5200    -6.2940     1.7510 H     1 <1>   0.0800 
 25 H       -4.2550    -6.2240     1.5360 H     1 <1>   0.0800 
 26 H       -3.5140    -5.4590     2.9240 H     1 <1>   0.0800 
 27 H       -6.6410    -3.0010     0.8390 H     1 <1>   0.0800 
 28 H       -6.7090    -1.6950     1.9810 H     1 <1>   0.0800 
 29 H       -4.0220     0.2480     0.3270 H     1 <1>   0.0800 
 30 H       -5.0120    -0.1700    -1.0440 H     1 <1>   0.0800 
 31 H       -5.9690     0.8630     1.6240 H     1 <1>   0.0800 
 32 H       -5.9380     1.7820     0.1550 H     1 <1>   0.0800 
 33 H       -9.1120    -1.8400     1.5680 H     1 <1>   0.0800 
 34 H       -7.8440     0.7760    -0.6830 H     1 <1>   0.0800 
 35 H       -8.1570     0.6480     1.0080 H     1 <1>   0.0800 
 36 H       -8.0500    -1.0250    -2.0240 H     1 <1>   0.0800 
 37 H       -6.5160    -1.8040    -1.7280 H     1 <1>   0.0800 
 38 H       -8.8340    -3.8960     0.4420 H     1 <1>   0.0800 
 39 H      -10.1930    -3.3150    -0.4870 H     1 <1>   0.0800 
 40 H       -7.5450    -3.8680    -1.4060 H     1 <1>   0.0800 
 41 H       -8.8270    -3.1410    -2.3540 H     1 <1>   0.0800 
 42 H      -11.9020    -0.2570     0.2330 H     1 <1>   0.0800 
 43 H      -11.0440    -0.6090     1.7270 H     1 <1>   0.0800 
 44 H      -11.6190    -1.9290     0.6980 H     1 <1>   0.0800 
@<TRIPOS>BOND
  1   1   2  ar  
  2   2   3  ar  
  3   2   4  1   
  4   4   5  ar  
  5   4   6  ar  
  6   5   7  ar  
  7   6   8  ar  
  8   6  23  1   
  9   7   9  ar  
 10   7  10  1   
 11   8   9  ar  
 12   8  11  1   
 13  10  12  1   
 14  10  13  1   
 15  11  24  1   
 16  11  25  1   
 17  11  26  1   
 18  12  14  1   
 19  12  27  1   
 20  12  28  1   
 21  13  15  1   
 22  13  29  1   
 23  13  30  1   
 24  14  16  1   
 25  14  17  1   
 26  14  18  1   
 27  15  17  1   
 28  15  31  1   
 29  15  32  1   
 30  16  19  1   
 31  16  20  1   
 32  16  33  1   
 33  17  34  1   
 34  17  35  1   
 35  18  21  1   
 36  18  36  1   
 37  18  37  1   
 38  19  22  1   
 39  20  21  1   
 40  20  38  1   
 41  20  39  1   
 42  21  40  1   
 43  21  41  1   
 44  22  42  1   
 45  22  43  1   
 46  22  44  1   
@<TRIPOS>SUBSTRUCTURE
  1 ****  10 GROUP 4 **** **** 0

# MOE 2024.06 (io_trps.svl 2023.06)
