@<TRIPOS>MOLECULE
NONAME
51 54 1 0 0 
SMALL
USER_CHARGES


@<TRIPOS>ATOM
  1 O        2.2640    -0.6310    -3.1080 O.2   1 <1>  -0.5700 
  2 C        2.5130    -0.9000    -1.9510 C.2   1 <1>   0.7160 
  3 N        3.0180     0.0820    -1.1260 N.am  1 <1>  -0.6600 
  4 C        2.2980    -2.2250    -1.4340 C.2   1 <1>  -0.0860 
  5 C        2.9300    -0.0440     0.3760 C.3   1 <1>   0.2200 
  6 C        3.8350     1.1730    -1.7440 C.3   1 <1>   0.1400 
  7 C        1.2310    -2.7940    -0.8060 C.2   1 <1>  -0.3320 
  8 C        3.2600    -3.2340    -1.4320 C.2   1 <1>   0.1390 
  9 C        2.5420     1.2770     1.0590 C.3   1 <1>   0.1200 
 10 C        4.2230    -0.6370     0.9810 C.3   1 <1>   0.3430 
 11 C        4.8330     1.8690    -0.7970 C.3   1 <1>  -0.0800 
 12 N        1.5770    -4.0560    -0.4250 N.pl3 1 <1>   0.5930 
 13 C       -0.1350    -2.1610    -0.5670 C.3   1 <1>  -0.0600 
 14 N        2.8590    -4.3030    -0.8250 N.2   1 <1>  -0.7070 
 15 O        3.6630     2.0700     1.3070 O.3   1 <1>  -0.5600 
 16 N        5.4000    -0.4450     0.0860 N.4   1 <1>  -0.9590 
 17 C        4.1400     2.7880     0.2190 C.3   1 <1>   0.1200 
 18 C        5.8770     0.9470    -0.1340 C.3   1 <1>   0.3430 
 19 C        0.7960    -5.0250     0.2920 C.ar  1 <1>   0.2870 
 20 C        6.5420    -1.4130     0.3030 C.3   1 <1>   0.2370 
 21 N        0.0420    -4.6170     1.3240 N.ar  1 <1>  -0.6200 
 22 C        0.8550    -6.3600    -0.1030 C.ar  1 <1>  -0.1500 
 23 C        7.0880    -1.8640    -1.0520 C.2   1 <1>   0.9060 
 24 C       -0.6520    -5.5530     1.9510 C.ar  1 <1>   0.1600 
 25 C        0.1250    -7.3210     0.5590 C.ar  1 <1>  -0.1500 
 26 O        8.2430    -2.2690    -1.1500 O.co2 1 <1>  -0.9000 
 27 O        6.3120    -1.7120    -2.0110 O.co2 1 <1>  -0.9000 
 28 C       -0.6490    -6.8940     1.6160 C.ar  1 <1>  -0.1500 
 29 H        2.1300    -0.7210     0.6140 H     1 <1>   0.0800 
 30 H        4.3890     0.7520    -2.5690 H     1 <1>   0.0800 
 31 H        3.1630     1.9050    -2.1600 H     1 <1>   0.0800 
 32 H        4.2370    -3.1320    -1.8840 H     1 <1>   0.1500 
 33 H        2.1070     1.0610     2.0190 H     1 <1>   0.0800 
 34 H        1.8190     1.8260     0.4790 H     1 <1>   0.0800 
 35 H        4.0660    -1.6940     1.1240 H     1 <1>   0.0800 
 36 H        4.4120    -0.1970     1.9460 H     1 <1>   0.0800 
 37 H        5.3970     2.5370    -1.4230 H     1 <1>   0.0800 
 38 H       -0.2060    -1.2110    -1.0670 H     1 <1>   0.0800 
 39 H       -0.3010    -2.0110     0.4850 H     1 <1>   0.0800 
 40 H       -0.9110    -2.8010    -0.9490 H     1 <1>   0.0800 
 41 H        5.1000    -0.7490    -0.8720 H     1 <1>   0.4500 
 42 H        3.3290     3.3380    -0.2290 H     1 <1>   0.0800 
 43 H        4.8510     3.4990     0.6060 H     1 <1>   0.0800 
 44 H        6.1950     1.3760     0.8020 H     1 <1>   0.0800 
 45 H        6.7360     0.9020    -0.7850 H     1 <1>   0.0800 
 46 H        7.3360    -0.9620     0.8680 H     1 <1>   0.0800 
 47 H        6.1970    -2.2930     0.8150 H     1 <1>   0.0800 
 48 H        1.4830    -6.6380    -0.9330 H     1 <1>   0.1500 
 49 H       -1.2600    -5.2330     2.7810 H     1 <1>   0.1500 
 50 H        0.1580    -8.3570     0.2660 H     1 <1>   0.1500 
 51 H       -1.2430    -7.5940     2.1760 H     1 <1>   0.1500 
@<TRIPOS>BOND
  1   1   2  2   
  2   2   3  am  
  3   2   4  1   
  4   3   5  1   
  5   3   6  1   
  6   4   7  2   
  7   4   8  1   
  8   5   9  1   
  9   5  10  1   
 10   5  29  1   
 11   6  11  1   
 12   6  30  1   
 13   6  31  1   
 14   7  12  1   
 15   7  13  1   
 16   8  14  2   
 17   8  32  1   
 18   9  15  1   
 19   9  33  1   
 20   9  34  1   
 21  10  16  1   
 22  10  35  1   
 23  10  36  1   
 24  11  17  1   
 25  11  18  1   
 26  11  37  1   
 27  12  14  1   
 28  12  19  1   
 29  13  38  1   
 30  13  39  1   
 31  13  40  1   
 32  15  17  1   
 33  16  18  1   
 34  16  20  1   
 35  16  41  1   
 36  17  42  1   
 37  17  43  1   
 38  18  44  1   
 39  18  45  1   
 40  19  21  ar  
 41  19  22  ar  
 42  20  23  1   
 43  20  46  1   
 44  20  47  1   
 45  21  24  ar  
 46  22  25  ar  
 47  22  48  1   
 48  23  26  ar  
 49  23  27  ar  
 50  24  28  ar  
 51  24  49  1   
 52  25  28  ar  
 53  25  50  1   
 54  28  51  1   
@<TRIPOS>SUBSTRUCTURE
  1 ****   4 GROUP 4 **** **** 0

# MOE 2024.06 (io_trps.svl 2023.06)
