@<TRIPOS>MOLECULE
NONAME
50 53 1 0 0 
SMALL
USER_CHARGES


@<TRIPOS>ATOM
  1 F       -1.5590    -0.2200     0.9690 F     1 <1>  -0.1900 
  2 C       -2.4770    -1.1470     0.9570 C.ar  1 <1>   0.1900 
  3 C       -2.3040    -2.2520     0.1490 C.ar  1 <1>  -0.1500 
  4 C       -3.5940    -0.9930     1.7540 C.ar  1 <1>  -0.1500 
  5 C       -3.2840    -3.2290     0.1420 C.ar  1 <1>  -0.1500 
  6 C       -4.5640    -1.9800     1.7360 C.ar  1 <1>  -0.1500 
  7 C       -4.4320    -3.1140     0.9290 C.ar  1 <1>   0.0280 
  8 C       -5.4340    -4.1570     0.8900 C.2   1 <1>  -0.1780 
  9 C       -6.6920    -4.1140     1.3650 C.2   1 <1>  -0.2880 
 10 C       -7.6810    -5.2530     1.2870 C.3   1 <1>   0.4810 
 11 N       -8.6510    -4.9150     0.2220 N.4   1 <1>  -0.9590 
 12 C       -9.6020    -3.8330     0.6560 C.3   1 <1>   0.3430 
 13 C       -9.3890    -6.1250    -0.2420 C.3   1 <1>   0.3430 
 14 C      -10.5420    -3.3980    -0.4810 C.3   1 <1>   0.1440 
 15 C      -10.2950    -5.7610    -1.4220 C.3   1 <1>  -0.1600 
 16 C      -11.5420    -2.4170     0.0800 C.ar  1 <1>   0.1670 
 17 C      -11.2710    -4.6230    -1.0720 C.3   1 <1>  -0.1600 
 18 C       -9.8280    -2.5590    -1.5760 C.3   1 <1>  -0.1600 
 19 N      -12.2080    -2.5910     1.1980 N.ar  1 <1>  -0.6200 
 20 C      -11.6660    -1.3110    -0.7050 C.ar  1 <1>  -0.1430 
 21 C      -10.7660    -1.3820    -1.9130 C.3   1 <1>  -0.0170 
 22 C      -13.0350    -1.5960     1.4940 C.ar  1 <1>   0.4770 
 23 C      -12.5460    -0.3400    -0.2990 C.ar  1 <1>   0.1600 
 24 N      -13.2410    -0.4780     0.8120 N.ar  1 <1>  -0.6200 
 25 C      -13.8370    -1.7470     2.7650 C.3   1 <1>  -0.0970 
 26 H       -1.4200    -2.3400    -0.4570 H     1 <1>   0.1500 
 27 H       -3.6930    -0.1200     2.3740 H     1 <1>   0.1500 
 28 H       -3.1500    -4.0920    -0.4860 H     1 <1>   0.1500 
 29 H       -5.4260    -1.8610     2.3660 H     1 <1>   0.1500 
 30 H       -5.0790    -5.0550     0.4120 H     1 <1>   0.1500 
 31 H       -7.0960    -3.2450     1.8520 H     1 <1>   0.1500 
 32 H       -8.1770    -5.3990     2.2340 H     1 <1>   0.0800 
 33 H       -7.1560    -6.1580     1.0280 H     1 <1>   0.0800 
 34 H       -8.0960    -4.5510    -0.5630 H     1 <1>   0.4500 
 35 H      -10.2060    -4.1900     1.4750 H     1 <1>   0.0800 
 36 H       -9.0580    -2.9690     1.0020 H     1 <1>   0.0800 
 37 H       -8.6940    -6.8910    -0.5470 H     1 <1>   0.0800 
 38 H       -9.9920    -6.5150     0.5630 H     1 <1>   0.0800 
 39 H       -9.6890    -5.4900    -2.2680 H     1 <1>   0.0800 
 40 H      -10.8610    -6.6320    -1.7060 H     1 <1>   0.0800 
 41 H      -11.9800    -4.9880    -0.3470 H     1 <1>   0.0800 
 42 H      -11.8340    -4.3350    -1.9450 H     1 <1>   0.0800 
 43 H       -8.9140    -2.1480    -1.1800 H     1 <1>   0.0800 
 44 H       -9.5920    -3.1270    -2.4580 H     1 <1>   0.0800 
 45 H      -11.3550    -1.5990    -2.7880 H     1 <1>   0.0800 
 46 H      -10.2210    -0.4650    -2.0600 H     1 <1>   0.0800 
 47 H      -12.6870     0.5550    -0.8810 H     1 <1>   0.1500 
 48 H      -14.8260    -1.3540     2.6200 H     1 <1>   0.0800 
 49 H      -13.3560    -1.2020     3.5550 H     1 <1>   0.0800 
 50 H      -13.9120    -2.7820     3.0420 H     1 <1>   0.0800 
@<TRIPOS>BOND
  1   1   2  1   
  2   2   3  ar  
  3   2   4  ar  
  4   3   5  ar  
  5   3  26  1   
  6   4   6  ar  
  7   4  27  1   
  8   5   7  ar  
  9   5  28  1   
 10   6   7  ar  
 11   6  29  1   
 12   7   8  1   
 13   8   9  2   
 14   8  30  1   
 15   9  10  1   
 16   9  31  1   
 17  10  11  1   
 18  10  32  1   
 19  10  33  1   
 20  11  12  1   
 21  11  13  1   
 22  11  34  1   
 23  12  14  1   
 24  12  35  1   
 25  12  36  1   
 26  13  15  1   
 27  13  37  1   
 28  13  38  1   
 29  14  16  1   
 30  14  17  1   
 31  14  18  1   
 32  15  17  1   
 33  15  39  1   
 34  15  40  1   
 35  16  19  ar  
 36  16  20  ar  
 37  17  41  1   
 38  17  42  1   
 39  18  21  1   
 40  18  43  1   
 41  18  44  1   
 42  19  22  ar  
 43  20  21  1   
 44  20  23  ar  
 45  21  45  1   
 46  21  46  1   
 47  22  24  ar  
 48  22  25  1   
 49  23  24  ar  
 50  23  47  1   
 51  25  48  1   
 52  25  49  1   
 53  25  50  1   
@<TRIPOS>SUBSTRUCTURE
  1 ****  12 GROUP 4 **** **** 0

# MOE 2024.06 (io_trps.svl 2023.06)
