@<TRIPOS>MOLECULE
NONAME
50 53 1 0 0 
SMALL
USER_CHARGES


@<TRIPOS>ATOM
  1 F       -0.1270    -0.7040     0.1390 F     1 <1>  -0.1900 
  2 C       -0.7440    -1.8500     0.0020 C.ar  1 <1>   0.1900 
  3 C       -0.3080    -2.8240    -0.9040 C.ar  1 <1>   0.0820 
  4 C       -1.8500    -2.0520     0.8040 C.ar  1 <1>  -0.1500 
  5 O        0.7640    -2.7430    -1.7440 O.3   1 <1>  -0.3630 
  6 C       -1.0290    -4.0060    -0.9710 C.ar  1 <1>  -0.1500 
  7 C       -2.5440    -3.2440     0.7110 C.ar  1 <1>  -0.1500 
  8 C        1.5700    -1.5910    -1.8520 C.3   1 <1>   0.0400 
  9 C       -2.1540    -4.2480    -0.1790 C.ar  1 <1>   0.0530 
 10 C       -2.8760    -5.4950    -0.2810 C.2   1 <1>   0.0870 
 11 O       -2.2840    -6.5700    -0.7450 O.3   1 <1>  -0.0190 
 12 C       -4.1480    -5.8550     0.0230 C.2   1 <1>  -0.2330 
 13 N       -3.0690    -7.6170    -0.7610 N.2   1 <1>  -0.4100 
 14 C       -4.2000    -7.2090    -0.3030 C.2   1 <1>   0.3720 
 15 C       -5.2220    -5.0900     0.5530 C.2   1 <1>   1.0330 
 16 N       -5.2880    -8.0720    -0.1580 N.pl3 1 <1>  -0.8210 
 17 O       -6.0420    -4.5420    -0.2020 O.co2 1 <1>  -0.9000 
 18 O       -5.3600    -4.9750     1.7820 O.co2 1 <1>  -0.9000 
 19 C       -5.5390    -8.4790     1.2680 C.3   1 <1>   0.2700 
 20 C       -6.5620    -7.6030    -0.7650 C.3   1 <1>   0.2090 
 21 C       -6.7760    -9.3790     1.4640 C.2   1 <1>   0.5690 
 22 C       -7.5670    -8.7610    -0.8330 C.3   1 <1>   0.1400 
 23 O       -6.8630    -9.9950     2.5050 O.2   1 <1>  -0.5700 
 24 N       -7.7440    -9.4690     0.4840 N.am  1 <1>  -0.6600 
 25 C       -8.9500   -10.3300     0.6750 C.3   1 <1>   0.2200 
 26 C       -9.0760   -11.3840    -0.4280 C.3   1 <1>  -0.1600 
 27 C      -10.2410    -9.5020     0.6160 C.3   1 <1>  -0.1600 
 28 C      -10.0800   -10.8300    -1.4390 C.3   1 <1>  -0.1600 
 29 C      -11.0360    -9.9760    -0.6090 C.3   1 <1>  -0.1600 
 30 H       -2.1670    -1.2900     1.4920 H     1 <1>   0.1500 
 31 H       -0.7060    -4.7610    -1.6660 H     1 <1>   0.1500 
 32 H       -3.4020    -3.3950     1.3460 H     1 <1>   0.1500 
 33 H        2.3190    -1.7750    -2.6010 H     1 <1>   0.0800 
 34 H        2.0430    -1.4050    -0.9040 H     1 <1>   0.0800 
 35 H        0.9550    -0.7600    -2.1470 H     1 <1>   0.0800 
 36 H       -5.6670    -7.6000     1.8750 H     1 <1>   0.0800 
 37 H       -4.6770    -9.0070     1.6320 H     1 <1>   0.0800 
 38 H       -6.3750    -7.2120    -1.7500 H     1 <1>   0.0800 
 39 H       -6.9970    -6.8180    -0.1710 H     1 <1>   0.0800 
 40 H       -7.2210    -9.4680    -1.5660 H     1 <1>   0.0800 
 41 H       -8.5080    -8.3650    -1.1660 H     1 <1>   0.0800 
 42 H       -8.8920   -10.8300     1.6270 H     1 <1>   0.0800 
 43 H       -9.4900   -12.2750     0.0090 H     1 <1>   0.0800 
 44 H       -8.1270   -11.6310    -0.8710 H     1 <1>   0.0800 
 45 H      -10.0270    -8.4500     0.5570 H     1 <1>   0.0800 
 46 H      -10.8180    -9.6750     1.5080 H     1 <1>   0.0800 
 47 H      -10.5960   -11.6170    -1.9620 H     1 <1>   0.0800 
 48 H       -9.5720   -10.2130    -2.1580 H     1 <1>   0.0800 
 49 H      -11.4220    -9.1480    -1.1780 H     1 <1>   0.0800 
 50 H      -11.8600   -10.5860    -0.2800 H     1 <1>   0.0800 
@<TRIPOS>BOND
  1   1   2  1   
  2   2   3  ar  
  3   2   4  ar  
  4   3   5  1   
  5   3   6  ar  
  6   4   7  ar  
  7   4  30  1   
  8   5   8  1   
  9   6   9  ar  
 10   6  31  1   
 11   7   9  ar  
 12   7  32  1   
 13   8  33  1   
 14   8  34  1   
 15   8  35  1   
 16   9  10  1   
 17  10  11  1   
 18  10  12  2   
 19  11  13  1   
 20  12  14  1   
 21  12  15  1   
 22  13  14  2   
 23  14  16  1   
 24  15  17  ar  
 25  15  18  ar  
 26  16  19  1   
 27  16  20  1   
 28  19  21  1   
 29  19  36  1   
 30  19  37  1   
 31  20  22  1   
 32  20  38  1   
 33  20  39  1   
 34  21  23  2   
 35  21  24  am  
 36  22  24  1   
 37  22  40  1   
 38  22  41  1   
 39  24  25  1   
 40  25  26  1   
 41  25  27  1   
 42  25  42  1   
 43  26  28  1   
 44  26  43  1   
 45  26  44  1   
 46  27  29  1   
 47  27  45  1   
 48  27  46  1   
 49  28  29  1   
 50  28  47  1   
 51  28  48  1   
 52  29  49  1   
 53  29  50  1   
@<TRIPOS>SUBSTRUCTURE
  1 ****  12 GROUP 4 **** **** 0

# MOE 2024.06 (io_trps.svl 2023.06)
