@<TRIPOS>MOLECULE
NONAME
46 48 1 0 0 
SMALL
USER_CHARGES


@<TRIPOS>ATOM
  1 CL      -0.8990    -0.8120     1.8000 Cl    1 <1>  -0.1770 
  2 C       -1.8800    -1.2170     0.4100 C.ar  1 <1>   0.1770 
  3 C       -2.1990    -0.2630    -0.5400 C.ar  1 <1>   0.1900 
  4 C       -2.3390    -2.5120     0.2700 C.ar  1 <1>  -0.1500 
  5 F       -1.7700     0.9620    -0.4110 F     1 <1>  -0.1900 
  6 C       -2.9740    -0.5860    -1.6380 C.ar  1 <1>  -0.1500 
  7 C       -3.1350    -2.8760    -0.8220 C.ar  1 <1>   0.0860 
  8 C       -3.4310    -1.8870    -1.7690 C.ar  1 <1>  -0.1500 
  9 C       -3.6360    -4.2320    -0.9790 C.2   1 <1>   0.5440 
 10 O       -3.9580    -4.6590    -2.0700 O.2   1 <1>  -0.5700 
 11 N       -3.8300    -5.0700     0.0950 N.am  1 <1>  -0.6600 
 12 C       -4.7880    -4.6900     1.1750 C.3   1 <1>   0.1400 
 13 C       -3.7270    -6.5440    -0.1160 C.3   1 <1>   0.1400 
 14 C       -6.1880    -5.3160     0.9410 C.3   1 <1>   0.4230 
 15 C       -5.1170    -7.1330    -0.4130 C.3   1 <1>   0.3430 
 16 N       -6.1160    -6.8130     0.6800 N.4   1 <1>  -0.9590 
 17 C       -6.9360    -4.5920    -0.2030 C.3   1 <1>   0.1200 
 18 C       -7.5000    -7.3360     0.3920 C.3   1 <1>   0.4230 
 19 O       -8.2050    -5.1520    -0.3780 O.3   1 <1>  -0.5600 
 20 C       -8.2020    -6.5110    -0.7140 C.3   1 <1>   0.1200 
 21 C       -7.4600    -8.8410     0.0810 C.3   1 <1>  -0.1600 
 22 C       -8.8480    -9.4940     0.1640 C.3   1 <1>  -0.1600 
 23 C       -8.7550   -11.0040    -0.0700 C.3   1 <1>  -0.2400 
 24 H       -2.0680    -3.2420     1.0110 H     1 <1>   0.1500 
 25 H       -3.2080     0.1670    -2.3710 H     1 <1>   0.1500 
 26 H       -4.0300    -2.1470    -2.6270 H     1 <1>   0.1500 
 27 H       -4.4000    -5.0230     2.1220 H     1 <1>   0.0800 
 28 H       -4.8810    -3.6180     1.2260 H     1 <1>   0.0800 
 29 H       -3.0710    -6.7460    -0.9470 H     1 <1>   0.0800 
 30 H       -3.3020    -7.0080     0.7560 H     1 <1>   0.0800 
 31 H       -6.7660    -5.1490     1.8350 H     1 <1>   0.0800 
 32 H       -5.0230    -8.2000    -0.5280 H     1 <1>   0.0800 
 33 H       -5.4580    -6.7280    -1.3530 H     1 <1>   0.0800 
 34 H       -5.7910    -7.2650     1.5410 H     1 <1>   0.4500 
 35 H       -6.4010    -4.6550    -1.1350 H     1 <1>   0.0800 
 36 H       -7.0740    -3.5530     0.0390 H     1 <1>   0.0800 
 37 H       -8.0930    -7.2150     1.2850 H     1 <1>   0.0800 
 38 H       -9.2290    -6.8140    -0.8140 H     1 <1>   0.0800 
 39 H       -7.7180    -6.6330    -1.6680 H     1 <1>   0.0800 
 40 H       -7.0630    -9.0080    -0.9050 H     1 <1>   0.0800 
 41 H       -6.8220    -9.3310     0.7960 H     1 <1>   0.0800 
 42 H       -9.2830    -9.3200     1.1350 H     1 <1>   0.0800 
 43 H       -9.5100    -9.0760    -0.5770 H     1 <1>   0.0800 
 44 H       -8.1310   -11.4700     0.6730 H     1 <1>   0.0800 
 45 H       -8.3500   -11.2160    -1.0450 H     1 <1>   0.0800 
 46 H       -9.7350   -11.4460    -0.0100 H     1 <1>   0.0800 
@<TRIPOS>BOND
  1   1   2  1   
  2   2   3  ar  
  3   2   4  ar  
  4   3   5  1   
  5   3   6  ar  
  6   4   7  ar  
  7   4  24  1   
  8   6   8  ar  
  9   6  25  1   
 10   7   8  ar  
 11   7   9  1   
 12   8  26  1   
 13   9  10  2   
 14   9  11  am  
 15  11  12  1   
 16  11  13  1   
 17  12  14  1   
 18  12  27  1   
 19  12  28  1   
 20  13  15  1   
 21  13  29  1   
 22  13  30  1   
 23  14  16  1   
 24  14  17  1   
 25  14  31  1   
 26  15  16  1   
 27  15  32  1   
 28  15  33  1   
 29  16  18  1   
 30  16  34  1   
 31  17  19  1   
 32  17  35  1   
 33  17  36  1   
 34  18  20  1   
 35  18  21  1   
 36  18  37  1   
 37  19  20  1   
 38  20  38  1   
 39  20  39  1   
 40  21  22  1   
 41  21  40  1   
 42  21  41  1   
 43  22  23  1   
 44  22  42  1   
 45  22  43  1   
 46  23  44  1   
 47  23  45  1   
 48  23  46  1   
@<TRIPOS>SUBSTRUCTURE
  1 ****  11 GROUP 4 **** **** 0

# MOE 2024.06 (io_trps.svl 2023.06)
