@<TRIPOS>MOLECULE
NONAME
45 46 1 0 0 
SMALL
USER_CHARGES


@<TRIPOS>ATOM
  1 S        0.2820    -0.3760    -1.1380 S.o2  1 <1>   1.3330 
  2 O        1.5040    -0.7440    -1.8180 O.2   1 <1>  -0.6500 
  3 O       -0.9280    -0.1860    -1.9060 O.2   1 <1>  -0.6500 
  4 N       -0.0570    -1.5780     0.0160 N.am  1 <1>  -0.8490 
  5 C        0.5810     1.0950    -0.1440 C.3   1 <1>  -0.0550 
  6 C        0.3060    -2.9180    -0.4550 C.3   1 <1>   0.1160 
  7 C       -1.4520    -1.5750     0.4710 C.3   1 <1>   0.1160 
  8 C        1.9740     1.2550     0.5100 C.3   1 <1>  -0.0800 
  9 C        3.1010     1.4810    -0.5010 C.3   1 <1>   0.2200 
 10 C        2.4750     0.0850     1.3670 C.3   1 <1>   0.1200 
 11 N        3.7090     2.8110    -0.2730 N.am  1 <1>  -0.7300 
 12 C        4.0950     0.3700    -0.1690 C.3   1 <1>   0.1200 
 13 O        3.8480     0.0470     1.1610 O.3   1 <1>  -0.5600 
 14 C        3.2770     3.9920    -0.8110 C.2   1 <1>   0.5440 
 15 O        2.2690     3.9630    -1.4960 O.2   1 <1>  -0.5700 
 16 C        3.9930     5.2430    -0.5550 C.ar  1 <1>   0.3960 
 17 N        5.0610     5.2520     0.2470 N.ar  1 <1>  -0.6200 
 18 C        3.5760     6.4260    -1.1390 C.ar  1 <1>  -0.1500 
 19 C        5.6550     6.4130     0.4280 C.ar  1 <1>   0.4770 
 20 C        4.2730     7.5770    -0.8780 C.ar  1 <1>   0.1670 
 21 N        5.3210     7.5800    -0.0900 N.ar  1 <1>  -0.6200 
 22 C        6.8620     6.4230     1.3350 C.3   1 <1>  -0.0970 
 23 C        3.8680     8.9030    -1.4860 C.3   1 <1>  -0.0970 
 24 H        0.4320     1.9540    -0.7720 H     1 <1>   0.0800 
 25 H       -0.1630     1.1470     0.6250 H     1 <1>   0.0800 
 26 H        0.0870    -3.6530     0.3000 H     1 <1>   0.0800 
 27 H        1.3620    -2.9610    -0.6680 H     1 <1>   0.0800 
 28 H       -0.2380    -3.1590    -1.3540 H     1 <1>   0.0800 
 29 H       -1.5830    -2.2880     1.2670 H     1 <1>   0.0800 
 30 H       -2.1140    -1.8320    -0.3410 H     1 <1>   0.0800 
 31 H       -1.7230    -0.6010     0.8400 H     1 <1>   0.0800 
 32 H        1.9140     2.1110     1.1600 H     1 <1>   0.0800 
 33 H        2.7770     1.4070    -1.5260 H     1 <1>   0.0800 
 34 H        2.0840    -0.8640     1.0540 H     1 <1>   0.0800 
 35 H        2.2820     0.2310     2.4150 H     1 <1>   0.0800 
 36 H        4.4870     2.8400     0.3940 H     1 <1>   0.3700 
 37 H        5.1200     0.6730    -0.2870 H     1 <1>   0.0800 
 38 H        3.8980    -0.5050    -0.7640 H     1 <1>   0.0800 
 39 H        2.7190     6.4310    -1.7860 H     1 <1>   0.1500 
 40 H        7.7090     6.8080     0.7990 H     1 <1>   0.0800 
 41 H        7.0870     5.4310     1.6800 H     1 <1>   0.0800 
 42 H        6.6650     7.0530     2.1820 H     1 <1>   0.0800 
 43 H        3.0030     8.7930    -2.1130 H     1 <1>   0.0800 
 44 H        4.6790     9.2910    -2.0750 H     1 <1>   0.0800 
 45 H        3.6440     9.6040    -0.7030 H     1 <1>   0.0800 
@<TRIPOS>BOND
  1   1   2  2   
  2   1   3  2   
  3   1   4  am  
  4   1   5  1   
  5   4   6  1   
  6   4   7  1   
  7   5   8  1   
  8   5  24  1   
  9   5  25  1   
 10   6  26  1   
 11   6  27  1   
 12   6  28  1   
 13   7  29  1   
 14   7  30  1   
 15   7  31  1   
 16   8   9  1   
 17   8  10  1   
 18   8  32  1   
 19   9  11  1   
 20   9  12  1   
 21   9  33  1   
 22  10  13  1   
 23  10  34  1   
 24  10  35  1   
 25  11  14  am  
 26  11  36  1   
 27  12  13  1   
 28  12  37  1   
 29  12  38  1   
 30  14  15  2   
 31  14  16  1   
 32  16  17  ar  
 33  16  18  ar  
 34  17  19  ar  
 35  18  20  ar  
 36  18  39  1   
 37  19  21  ar  
 38  19  22  1   
 39  20  21  ar  
 40  20  23  1   
 41  22  40  1   
 42  22  41  1   
 43  22  42  1   
 44  23  43  1   
 45  23  44  1   
 46  23  45  1   
@<TRIPOS>SUBSTRUCTURE
  1 ****  11 GROUP 4 **** **** 0

# MOE 2024.06 (io_trps.svl 2023.06)
