@<TRIPOS>MOLECULE
NONAME
38 39 1 0 0 
SMALL
USER_CHARGES


@<TRIPOS>ATOM
  1 O        0.1000    -1.8580     2.2240 O.2   1 <1>  -0.5700 
  2 C       -0.2010    -2.1720     1.0930 C.2   1 <1>   0.5690 
  3 N        0.7410    -2.2710     0.0970 N.am  1 <1>  -0.6600 
  4 C       -1.6910    -2.4380     0.7600 C.3   1 <1>   0.3500 
  5 C        0.3310    -2.7190    -1.2610 C.3   1 <1>   0.1400 
  6 C        2.1790    -1.9530     0.3010 C.3   1 <1>   0.0600 
  7 N       -1.9300    -3.4510    -0.3380 N.pl3 1 <1>  -0.8380 
  8 C       -2.3830    -1.1340     0.3450 C.3   1 <1>  -0.2400 
  9 C       -0.7500    -3.8120    -1.1930 C.3   1 <1>   0.2090 
 10 C       -3.0210    -4.2950    -0.2920 C.ar  1 <1>   0.7200 
 11 N       -3.0080    -5.3440    -1.1140 N.ar  1 <1>  -0.6200 
 12 N       -3.9960    -3.9920     0.5640 N.ar  1 <1>  -0.6200 
 13 C       -4.0490    -6.1390    -1.0630 C.ar  1 <1>   0.1600 
 14 C       -5.0230    -4.8050     0.5920 C.ar  1 <1>   0.1600 
 15 C       -5.1070    -5.9160    -0.2140 C.ar  1 <1>  -0.1430 
 16 C       -6.3050    -6.8510    -0.1640 C.3   1 <1>  -0.0170 
 17 C       -6.0790    -7.9570     0.8720 C.3   1 <1>  -0.1600 
 18 C       -7.2740    -8.9140     0.9420 C.3   1 <1>  -0.2400 
 19 H       -2.1420    -2.7900     1.6720 H     1 <1>   0.0800 
 20 H        1.1840    -3.1090    -1.7880 H     1 <1>   0.0800 
 21 H       -0.0480    -1.8770    -1.8130 H     1 <1>   0.0800 
 22 H        2.3490    -1.5950     1.3020 H     1 <1>   0.0800 
 23 H        2.4860    -1.1900    -0.3930 H     1 <1>   0.0800 
 24 H        2.7720    -2.8370     0.1470 H     1 <1>   0.0800 
 25 H       -1.9470    -0.7520    -0.5580 H     1 <1>   0.0800 
 26 H       -2.2660    -0.4020     1.1230 H     1 <1>   0.0800 
 27 H       -3.4330    -1.3050     0.1920 H     1 <1>   0.0800 
 28 H       -0.3080    -4.7140    -0.8050 H     1 <1>   0.0800 
 29 H       -1.0890    -4.0200    -2.1930 H     1 <1>   0.0800 
 30 H       -4.0570    -6.9930    -1.7170 H     1 <1>   0.1500 
 31 H       -5.8190    -4.5780     1.2800 H     1 <1>   0.1500 
 32 H       -6.4620    -7.2880    -1.1350 H     1 <1>   0.0800 
 33 H       -7.1890    -6.2910     0.0880 H     1 <1>   0.0800 
 34 H       -5.9220    -7.5140     1.8410 H     1 <1>   0.0800 
 35 H       -5.1930    -8.5130     0.6160 H     1 <1>   0.0800 
 36 H       -8.1670    -8.3840     1.2210 H     1 <1>   0.0800 
 37 H       -7.0880    -9.6780     1.6760 H     1 <1>   0.0800 
 38 H       -7.4340    -9.3880    -0.0100 H     1 <1>   0.0800 
@<TRIPOS>BOND
  1   1   2  2   
  2   2   3  am  
  3   2   4  1   
  4   3   5  1   
  5   3   6  1   
  6   4   7  1   
  7   4   8  1   
  8   4  19  1   
  9   5   9  1   
 10   5  20  1   
 11   5  21  1   
 12   6  22  1   
 13   6  23  1   
 14   6  24  1   
 15   7   9  1   
 16   7  10  1   
 17   8  25  1   
 18   8  26  1   
 19   8  27  1   
 20   9  28  1   
 21   9  29  1   
 22  10  11  ar  
 23  10  12  ar  
 24  11  13  ar  
 25  12  14  ar  
 26  13  15  ar  
 27  13  30  1   
 28  14  15  ar  
 29  14  31  1   
 30  15  16  1   
 31  16  17  1   
 32  16  32  1   
 33  16  33  1   
 34  17  18  1   
 35  17  34  1   
 36  17  35  1   
 37  18  36  1   
 38  18  37  1   
 39  18  38  1   
@<TRIPOS>SUBSTRUCTURE
  1 ****  10 GROUP 4 **** **** 0

# MOE 2024.06 (io_trps.svl 2023.06)
