@<TRIPOS>MOLECULE
NONAME
52 53 1 0 0 
SMALL
USER_CHARGES


@<TRIPOS>ATOM
  1 O       -1.9700    -1.3960    -2.1480 O.co2 1 <1>  -0.9000 
  2 C       -2.7630    -1.3830    -1.1890 C.2   1 <1>   0.9790 
  3 O       -3.0820    -2.4500    -0.6420 O.co2 1 <1>  -0.9000 
  4 C       -3.2760    -0.1100    -0.7050 C.ar  1 <1>  -0.1790 
  5 C       -3.0650     1.0570    -1.4340 C.ar  1 <1>  -0.1500 
  6 C       -3.9710     0.0070     0.4990 C.ar  1 <1>  -0.1500 
  7 C       -3.4810     2.2880    -0.9680 C.ar  1 <1>  -0.1440 
  8 C       -4.4040     1.2320     0.9720 C.ar  1 <1>  -0.1500 
  9 C       -4.1480     2.3910     0.2450 C.ar  1 <1>   0.0830 
 10 C       -3.1600     3.5210    -1.7680 C.3   1 <1>   0.4870 
 11 O       -4.4970     3.6350     0.6660 O.3   1 <1>  -0.3630 
 12 N       -2.1120     4.2510    -0.9960 N.4   1 <1>  -0.9590 
 13 C       -5.4060     3.7910     1.7400 C.3   1 <1>   0.0400 
 14 C       -2.0060     5.6830    -1.4310 C.3   1 <1>   0.3430 
 15 C       -0.8280     3.4640    -1.0330 C.3   1 <1>   0.2630 
 16 C       -1.1590     6.5660    -0.4710 C.3   1 <1>   0.3430 
 17 N       -1.0860     8.0280    -0.8490 N.4   1 <1>  -0.9590 
 18 C       -0.0500     8.7260    -0.0090 C.3   1 <1>   0.4230 
 19 C       -2.4280     8.7160    -0.8120 C.3   1 <1>   0.2630 
 20 C       -0.4480     8.8340     1.4730 C.3   1 <1>  -0.1600 
 21 C        0.1790    10.1610    -0.4890 C.3   1 <1>  -0.1600 
 22 C       -0.4960    10.3270     1.8230 C.3   1 <1>  -0.1600 
 23 C       -0.5540    11.0730     0.4950 C.3   1 <1>  -0.1600 
 24 H       -2.5490     0.9640    -2.3780 H     1 <1>   0.1500 
 25 H       -4.1600    -0.8930     1.0640 H     1 <1>   0.1500 
 26 H       -4.9270     1.2530     1.9090 H     1 <1>   0.1500 
 27 H       -4.0540     4.1160    -1.8610 H     1 <1>   0.0800 
 28 H       -2.8060     3.2530    -2.7500 H     1 <1>   0.0800 
 29 H       -2.5020     4.1760    -0.0360 H     1 <1>   0.4500 
 30 H       -5.6420     4.8360     1.8410 H     1 <1>   0.0800 
 31 H       -4.9480     3.4320     2.6460 H     1 <1>   0.0800 
 32 H       -6.3030     3.2370     1.5240 H     1 <1>   0.0800 
 33 H       -3.0000     6.0970    -1.4830 H     1 <1>   0.0800 
 34 H       -1.5740     5.7170    -2.4180 H     1 <1>   0.0800 
 35 H       -0.4490     3.4020    -2.0400 H     1 <1>   0.0800 
 36 H       -0.9950     2.4580    -0.6760 H     1 <1>   0.0800 
 37 H       -0.0800     3.9180    -0.4040 H     1 <1>   0.0800 
 38 H       -0.1580     6.1670    -0.4440 H     1 <1>   0.0800 
 39 H       -1.5730     6.4850     0.5200 H     1 <1>   0.0800 
 40 H       -0.7270     8.1160    -1.8120 H     1 <1>   0.4500 
 41 H        0.8850     8.1920    -0.0860 H     1 <1>   0.0800 
 42 H       -2.8270     8.7220     0.1890 H     1 <1>   0.0800 
 43 H       -3.1310     8.2230    -1.4620 H     1 <1>   0.0800 
 44 H       -2.3320     9.7380    -1.1420 H     1 <1>   0.0800 
 45 H        0.2960     8.3560     2.0870 H     1 <1>   0.0800 
 46 H       -1.3990     8.3820     1.6860 H     1 <1>   0.0800 
 47 H       -0.1170    10.3340    -1.5090 H     1 <1>   0.0800 
 48 H        1.2320    10.3720    -0.4080 H     1 <1>   0.0800 
 49 H        0.4100    10.6020     2.3400 H     1 <1>   0.0800 
 50 H       -1.3330    10.5720     2.4560 H     1 <1>   0.0800 
 51 H       -1.5790    11.2120     0.1980 H     1 <1>   0.0800 
 52 H       -0.0880    12.0430     0.5650 H     1 <1>   0.0800 
@<TRIPOS>BOND
  1   1   2  ar  
  2   2   3  ar  
  3   2   4  1   
  4   4   5  ar  
  5   4   6  ar  
  6   5   7  ar  
  7   5  24  1   
  8   6   8  ar  
  9   6  25  1   
 10   7   9  ar  
 11   7  10  1   
 12   8   9  ar  
 13   8  26  1   
 14   9  11  1   
 15  10  12  1   
 16  10  27  1   
 17  10  28  1   
 18  11  13  1   
 19  12  14  1   
 20  12  15  1   
 21  12  29  1   
 22  13  30  1   
 23  13  31  1   
 24  13  32  1   
 25  14  16  1   
 26  14  33  1   
 27  14  34  1   
 28  15  35  1   
 29  15  36  1   
 30  15  37  1   
 31  16  17  1   
 32  16  38  1   
 33  16  39  1   
 34  17  18  1   
 35  17  19  1   
 36  17  40  1   
 37  18  20  1   
 38  18  21  1   
 39  18  41  1   
 40  19  42  1   
 41  19  43  1   
 42  19  44  1   
 43  20  22  1   
 44  20  45  1   
 45  20  46  1   
 46  21  23  1   
 47  21  47  1   
 48  21  48  1   
 49  22  23  1   
 50  22  49  1   
 51  22  50  1   
 52  23  51  1   
 53  23  52  1   
@<TRIPOS>SUBSTRUCTURE
  1 ****  12 GROUP 4 **** **** 0

# MOE 2024.06 (io_trps.svl 2023.06)
