@<TRIPOS>MOLECULE
NONAME
45 47 1 0 0 
SMALL
USER_CHARGES


@<TRIPOS>ATOM
  1 O        1.6770     0.8880     0.9020 O.2   1 <1>  -0.5700 
  2 C        2.1280    -0.0360     0.2430 C.2   1 <1>   0.6900 
  3 N        3.3230     0.1320    -0.4110 N.am  1 <1>  -0.6600 
  4 N        1.4440    -1.2270     0.1730 N.am  1 <1>  -0.6600 
  5 C        3.7970     1.5020    -0.7390 C.3   1 <1>   0.1400 
  6 C        4.4110    -0.8740    -0.2870 C.3   1 <1>   0.1400 
  7 C        0.3590    -1.5400     1.1400 C.3   1 <1>   0.0600 
  8 C        1.4740    -2.0980    -1.0330 C.3   1 <1>   0.0600 
  9 C        4.7370     1.9880     0.3680 C.3   1 <1>  -0.0190 
 10 C        5.4170    -0.4180     0.7790 C.3   1 <1>  -0.1600 
 11 C        5.1750     3.4120     0.0640 C.2   1 <1>   0.5690 
 12 C        5.9230     1.0130     0.5290 C.3   1 <1>  -0.1600 
 13 O        5.9940     3.6080    -0.8000 O.2   1 <1>  -0.5700 
 14 N        4.5980     4.4230     0.7700 N.am  1 <1>  -0.4940 
 15 C        4.7690     5.8100     0.6720 C.2   1 <1>   0.2510 
 16 N        3.7910     6.6110     0.9560 N.2   1 <1>  -0.3380 
 17 N        5.8860     6.4870     0.3200 N.pl3 1 <1>   0.3340 
 18 N        4.2250     7.8570     0.7770 N.2   1 <1>  -0.3380 
 19 C        5.4680     7.7830     0.4010 C.2   1 <1>   0.3120 
 20 C        7.2230     6.2240     0.0380 C.2   1 <1>  -0.1810 
 21 N        6.2900     8.8560     0.1290 N.2   1 <1>  -0.5760 
 22 C        8.0390     7.2760    -0.2140 C.2   1 <1>  -0.1360 
 23 C        7.5160     8.6000    -0.1670 C.2   1 <1>   0.3750 
 24 C        8.4500     9.7490    -0.4750 C.3   1 <1>  -0.1790 
 25 H        2.9550     2.1680    -0.8300 H     1 <1>   0.0800 
 26 H        4.3130     1.4840    -1.6840 H     1 <1>   0.0800 
 27 H        4.9020    -0.9780    -1.2390 H     1 <1>   0.0800 
 28 H        4.0070    -1.8310    -0.0080 H     1 <1>   0.0800 
 29 H        0.4930    -0.9730     2.0460 H     1 <1>   0.0800 
 30 H        0.3750    -2.5870     1.3840 H     1 <1>   0.0800 
 31 H       -0.5930    -1.2850     0.7100 H     1 <1>   0.0800 
 32 H        2.0690    -1.6500    -1.8100 H     1 <1>   0.0800 
 33 H        0.4750    -2.2350    -1.4080 H     1 <1>   0.0800 
 34 H        1.8910    -3.0560    -0.7770 H     1 <1>   0.0800 
 35 H        4.1820     1.9980     1.2890 H     1 <1>   0.0800 
 36 H        6.2490    -1.0990     0.7950 H     1 <1>   0.0800 
 37 H        4.9380    -0.4670     1.7430 H     1 <1>   0.0800 
 38 H        6.5460     1.3270     1.3480 H     1 <1>   0.0800 
 39 H        6.5210     1.0240    -0.3670 H     1 <1>   0.0800 
 40 H        3.7840     4.1680     1.3320 H     1 <1>   0.3700 
 41 H        7.5440     5.1990     0.0340 H     1 <1>   0.1500 
 42 H        9.0800     7.1470    -0.4480 H     1 <1>   0.1500 
 43 H        8.8430     9.6450    -1.4690 H     1 <1>   0.0800 
 44 H        9.2600     9.7620     0.2300 H     1 <1>   0.0800 
 45 H        7.9220    10.6840    -0.4100 H     1 <1>   0.0800 
@<TRIPOS>BOND
  1   1   2  2   
  2   2   3  am  
  3   2   4  am  
  4   3   5  1   
  5   3   6  1   
  6   4   7  1   
  7   4   8  1   
  8   5   9  1   
  9   5  25  1   
 10   5  26  1   
 11   6  10  1   
 12   6  27  1   
 13   6  28  1   
 14   7  29  1   
 15   7  30  1   
 16   7  31  1   
 17   8  32  1   
 18   8  33  1   
 19   8  34  1   
 20   9  11  1   
 21   9  12  1   
 22   9  35  1   
 23  10  12  1   
 24  10  36  1   
 25  10  37  1   
 26  11  13  2   
 27  11  14  am  
 28  12  38  1   
 29  12  39  1   
 30  14  15  1   
 31  14  40  1   
 32  15  16  2   
 33  15  17  1   
 34  16  18  1   
 35  17  19  1   
 36  17  20  1   
 37  18  19  2   
 38  19  21  1   
 39  20  22  2   
 40  20  41  1   
 41  21  23  2   
 42  22  23  1   
 43  22  42  1   
 44  23  24  1   
 45  24  43  1   
 46  24  44  1   
 47  24  45  1   
@<TRIPOS>SUBSTRUCTURE
  1 ****  11 GROUP 4 **** **** 0

# MOE 2024.06 (io_trps.svl 2023.06)
