@<TRIPOS>MOLECULE
NONAME
51 53 1 0 0 
SMALL
USER_CHARGES


@<TRIPOS>ATOM
  1 O       -3.5690     1.7590    -1.6160 O.2   1 <1>  -0.5700 
  2 C       -2.9840     1.6180    -0.5720 C.2   1 <1>   0.5690 
  3 N       -2.5910     0.4010    -0.1280 N.am  1 <1>  -0.7300 
  4 C       -2.6770     2.8350     0.2770 C.3   1 <1>  -0.0990 
  5 C       -2.7880    -0.8650    -0.8660 C.3   1 <1>   0.2200 
  6 C       -1.1740     3.1570     0.2920 C.3   1 <1>  -0.1600 
  7 C       -3.9590    -1.6150    -0.2570 C.3   1 <1>  -0.0800 
  8 C       -1.6300    -1.8100    -0.5740 C.3   1 <1>   0.1200 
  9 C       -0.8830     4.4360     1.0770 C.3   1 <1>   0.1400 
 10 C       -3.3020    -2.3790     0.9000 C.3   1 <1>   0.1200 
 11 C       -4.6170    -2.5590    -1.2830 C.3   1 <1>  -0.0160 
 12 O       -1.9230    -2.3920     0.6590 O.3   1 <1>  -0.5600 
 13 N        0.5760     4.6650     1.0840 N.am  1 <1>  -0.7300 
 14 C       -5.8550    -3.2380    -0.7070 C.ar  1 <1>  -0.1440 
 15 C        1.3070     5.5170     0.3320 C.2   1 <1>   0.5690 
 16 C       -7.0860    -2.5570    -0.5480 C.ar  1 <1>   0.0000 
 17 C       -5.8040    -4.5460    -0.3240 C.ar  1 <1>  -0.1500 
 18 O        2.5010     5.5630     0.4700 O.2   1 <1>  -0.5700 
 19 C        0.6490     6.4130    -0.6870 C.3   1 <1>  -0.1790 
 20 C       -8.1670    -3.2780     0.0170 C.ar  1 <1>   0.3100 
 21 C       -7.3110    -1.2100    -0.9180 C.ar  1 <1>  -0.1500 
 22 C       -6.9360    -5.1670     0.2190 C.ar  1 <1>   0.1600 
 23 N       -8.0750    -4.5780     0.3950 N.ar  1 <1>  -0.6200 
 24 C       -9.3980    -2.6260     0.1980 C.ar  1 <1>  -0.1500 
 25 C       -8.5240    -0.6060    -0.7300 C.ar  1 <1>  -0.1500 
 26 C       -9.5820    -1.3200    -0.1630 C.ar  1 <1>  -0.1500 
 27 H       -2.1310     0.2910     0.7770 H     1 <1>   0.3700 
 28 H       -3.2230     3.6710    -0.1250 H     1 <1>   0.0800 
 29 H       -3.0310     2.6580     1.2760 H     1 <1>   0.0800 
 30 H       -2.9040    -0.6700    -1.9190 H     1 <1>   0.0800 
 31 H       -0.8330     3.2810    -0.7220 H     1 <1>   0.0800 
 32 H       -0.6360     2.3370     0.7340 H     1 <1>   0.0800 
 33 H       -4.7010    -0.9320     0.1160 H     1 <1>   0.0800 
 34 H       -0.6820    -1.3040    -0.5220 H     1 <1>   0.0800 
 35 H       -1.5840    -2.5960    -1.3060 H     1 <1>   0.0800 
 36 H       -1.2280     4.3390     2.0930 H     1 <1>   0.0800 
 37 H       -1.3900     5.2720     0.6260 H     1 <1>   0.0800 
 38 H       -3.6490    -3.3930     0.9850 H     1 <1>   0.0800 
 39 H       -3.4630    -1.8690     1.8350 H     1 <1>   0.0800 
 40 H       -3.9080    -3.3070    -1.5950 H     1 <1>   0.0800 
 41 H       -4.8960    -2.0080    -2.1650 H     1 <1>   0.0800 
 42 H        1.1220     4.0870     1.7260 H     1 <1>   0.3700 
 43 H       -4.9070    -5.1300    -0.4220 H     1 <1>   0.1500 
 44 H        0.0750     5.8240    -1.3760 H     1 <1>   0.0800 
 45 H        1.4020     6.9500    -1.2350 H     1 <1>   0.0800 
 46 H        0.0120     7.1190    -0.1910 H     1 <1>   0.0800 
 47 H       -6.5150    -0.6400    -1.3600 H     1 <1>   0.1500 
 48 H       -6.8510    -6.2010     0.5100 H     1 <1>   0.1500 
 49 H      -10.1970    -3.1960     0.6340 H     1 <1>   0.1500 
 50 H       -8.6790     0.4210    -1.0160 H     1 <1>   0.1500 
 51 H      -10.5310    -0.8330    -0.0190 H     1 <1>   0.1500 
@<TRIPOS>BOND
  1   1   2  2   
  2   2   3  am  
  3   2   4  1   
  4   3   5  1   
  5   3  27  1   
  6   4   6  1   
  7   4  28  1   
  8   4  29  1   
  9   5   7  1   
 10   5   8  1   
 11   5  30  1   
 12   6   9  1   
 13   6  31  1   
 14   6  32  1   
 15   7  10  1   
 16   7  11  1   
 17   7  33  1   
 18   8  12  1   
 19   8  34  1   
 20   8  35  1   
 21   9  13  1   
 22   9  36  1   
 23   9  37  1   
 24  10  12  1   
 25  10  38  1   
 26  10  39  1   
 27  11  14  1   
 28  11  40  1   
 29  11  41  1   
 30  13  15  am  
 31  13  42  1   
 32  14  16  ar  
 33  14  17  ar  
 34  15  18  2   
 35  15  19  1   
 36  16  20  ar  
 37  16  21  ar  
 38  17  22  ar  
 39  17  43  1   
 40  19  44  1   
 41  19  45  1   
 42  19  46  1   
 43  20  23  ar  
 44  20  24  ar  
 45  21  25  ar  
 46  21  47  1   
 47  22  23  ar  
 48  22  48  1   
 49  24  26  ar  
 50  24  49  1   
 51  25  26  ar  
 52  25  50  1   
 53  26  51  1   
@<TRIPOS>SUBSTRUCTURE
  1 ****   7 GROUP 4 **** **** 0

# MOE 2024.06 (io_trps.svl 2023.06)
