@<TRIPOS>MOLECULE
NONAME
49 52 1 0 0 
SMALL
USER_CHARGES


@<TRIPOS>ATOM
  1 O        0.1210    -0.6110    -1.8260 O.2   1 <1>  -0.5700 
  2 C        0.7470    -1.2020    -0.9610 C.2   1 <1>   0.5440 
  3 N        1.2650    -0.4430     0.0740 N.am  1 <1>  -0.6600 
  4 C        0.9310    -2.6500    -1.0930 C.ar  1 <1>   0.3960 
  5 C        1.1400     1.0310     0.1240 C.3   1 <1>   0.1400 
  6 C        2.1610    -0.9290     1.1490 C.3   1 <1>   0.1400 
  7 N        1.0060    -3.4480    -0.0130 N.ar  1 <1>  -0.6200 
  8 C        1.0150    -3.1730    -2.3880 C.ar  1 <1>   0.1600 
  9 C        2.2790     1.4850     1.0280 C.3   1 <1>  -0.1600 
 10 C        2.5110     0.3080     1.9700 C.3   1 <1>  -0.1600 
 11 C        1.1660    -4.7240    -0.3030 C.ar  1 <1>   0.4100 
 12 N        1.1870    -4.4510    -2.6980 N.ar  1 <1>  -0.6200 
 13 N        1.2220    -5.5380     0.8000 N.pl3 1 <1>  -0.6690 
 14 C        1.2620    -5.2030    -1.6190 C.ar  1 <1>   0.1600 
 15 C        0.6300    -6.8870     0.8390 C.3   1 <1>   0.0740 
 16 C        1.2650    -7.8090     1.8280 C.3   1 <1>  -0.2000 
 17 C        1.5070    -7.9990     0.3600 C.3   1 <1>  -0.2000 
 18 C       -0.9000    -6.8620     0.6220 C.3   1 <1>   0.0780 
 19 C       -1.5690    -8.2310     0.6650 C.ar  1 <1>  -0.1430 
 20 C       -1.6950    -8.9850    -0.4920 C.ar  1 <1>  -0.1500 
 21 C       -2.0690    -8.7330     1.8570 C.ar  1 <1>  -0.1500 
 22 C       -2.3050   -10.2290    -0.4660 C.ar  1 <1>  -0.1430 
 23 C       -2.6800    -9.9730     1.8910 C.ar  1 <1>  -0.1500 
 24 C       -2.7980   -10.7200     0.7320 C.ar  1 <1>  -0.1500 
 25 C       -2.4320   -11.0390    -1.7430 C.3   1 <1>  -0.0970 
 26 H        0.1870     1.2850     0.5560 H     1 <1>   0.0800 
 27 H        1.2170     1.4650    -0.8590 H     1 <1>   0.0800 
 28 H        3.0460    -1.3570     0.7100 H     1 <1>   0.0800 
 29 H        1.6650    -1.6640     1.7600 H     1 <1>   0.0800 
 30 H        0.9370    -2.4860    -3.2130 H     1 <1>   0.1500 
 31 H        2.0350     2.3920     1.5530 H     1 <1>   0.0800 
 32 H        3.1550     1.6520     0.4260 H     1 <1>   0.0800 
 33 H        3.5210     0.2710     2.3380 H     1 <1>   0.0800 
 34 H        1.8370     0.3730     2.8060 H     1 <1>   0.0800 
 35 H        1.0830    -5.0110     1.6650 H     1 <1>   0.4000 
 36 H        1.4060    -6.2570    -1.7610 H     1 <1>   0.1500 
 37 H        0.6830    -8.5630     2.3260 H     1 <1>   0.1000 
 38 H        2.0740    -7.4460     2.4360 H     1 <1>   0.1000 
 39 H        2.4840    -7.7680    -0.0270 H     1 <1>   0.1000 
 40 H        1.0770    -8.8710    -0.0990 H     1 <1>   0.1000 
 41 H       -1.1130    -6.4140    -0.3310 H     1 <1>   0.0800 
 42 H       -1.3440    -6.2360     1.3760 H     1 <1>   0.0800 
 43 H       -1.3160    -8.6010    -1.4230 H     1 <1>   0.1500 
 44 H       -1.9840    -8.1610     2.7650 H     1 <1>   0.1500 
 45 H       -3.0650   -10.3580     2.8180 H     1 <1>   0.1500 
 46 H       -3.2760   -11.6830     0.7680 H     1 <1>   0.1500 
 47 H       -1.5320   -10.9560    -2.3260 H     1 <1>   0.0800 
 48 H       -3.2590   -10.6730    -2.3240 H     1 <1>   0.0800 
 49 H       -2.5960   -12.0780    -1.5200 H     1 <1>   0.0800 
@<TRIPOS>BOND
  1   1   2  2   
  2   2   3  am  
  3   2   4  1   
  4   3   5  1   
  5   3   6  1   
  6   4   7  ar  
  7   4   8  ar  
  8   5   9  1   
  9   5  26  1   
 10   5  27  1   
 11   6  10  1   
 12   6  28  1   
 13   6  29  1   
 14   7  11  ar  
 15   8  12  ar  
 16   8  30  1   
 17   9  10  1   
 18   9  31  1   
 19   9  32  1   
 20  10  33  1   
 21  10  34  1   
 22  11  13  1   
 23  11  14  ar  
 24  12  14  ar  
 25  13  15  1   
 26  13  35  1   
 27  14  36  1   
 28  15  16  1   
 29  15  17  1   
 30  15  18  1   
 31  16  17  1   
 32  16  37  1   
 33  16  38  1   
 34  17  39  1   
 35  17  40  1   
 36  18  19  1   
 37  18  41  1   
 38  18  42  1   
 39  19  20  ar  
 40  19  21  ar  
 41  20  22  ar  
 42  20  43  1   
 43  21  23  ar  
 44  21  44  1   
 45  22  24  ar  
 46  22  25  1   
 47  23  24  ar  
 48  23  45  1   
 49  24  46  1   
 50  25  47  1   
 51  25  48  1   
 52  25  49  1   
@<TRIPOS>SUBSTRUCTURE
  1 ****  11 GROUP 4 **** **** 0

# MOE 2024.06 (io_trps.svl 2023.06)
