@<TRIPOS>MOLECULE
NONAME
56 58 1 0 0 
SMALL
USER_CHARGES


@<TRIPOS>ATOM
  1 O       -0.2440     0.9580    -0.6100 O.2   1 <1>  -0.5700 
  2 C       -0.0930     2.1310    -0.3790 C.2   1 <1>   0.5690 
  3 N       -1.1540     2.9190    -0.1000 N.am  1 <1>  -0.7300 
  4 C        1.3050     2.7510    -0.4400 C.3   1 <1>   0.1810 
  5 C       -1.0480     4.3710     0.1860 C.3   1 <1>   0.3640 
  6 O        1.3830     4.0080     0.1970 O.3   1 <1>  -0.5600 
  7 C       -2.1210     5.1050    -0.6170 C.ar  1 <1>  -0.1440 
  8 C        0.3600     4.9260    -0.1590 C.3   1 <1>   0.2610 
  9 C       -2.3690     4.7940    -1.9490 C.ar  1 <1>  -0.1500 
 10 C       -2.8580     6.1160    -0.0160 C.ar  1 <1>  -0.1500 
 11 C        0.6130     6.3010     0.4880 C.2   1 <1>   0.5690 
 12 C       -3.3370     5.4800    -2.6630 C.ar  1 <1>  -0.1500 
 13 C       -3.8260     6.8020    -0.7290 C.ar  1 <1>  -0.1500 
 14 O       -0.0690     6.6210     1.4390 O.2   1 <1>  -0.5700 
 15 N        1.5730     7.1570    -0.0060 N.am  1 <1>  -0.6600 
 16 C       -4.0660     6.4840    -2.0540 C.ar  1 <1>  -0.1500 
 17 C        2.5840     6.7850    -1.0410 C.3   1 <1>   0.2840 
 18 C        1.7250     8.5300     0.5550 C.3   1 <1>   0.1400 
 19 C        3.9890     6.7870    -0.4580 C.ar  1 <1>  -0.1430 
 20 C        0.9330     9.5230    -0.3000 C.3   1 <1>  -0.1600 
 21 C        4.9670     7.6200    -0.9810 C.ar  1 <1>  -0.1500 
 22 C        4.3080     5.9550     0.6030 C.ar  1 <1>  -0.1500 
 23 C        1.0510    10.9480     0.2540 C.3   1 <1>  -0.1600 
 24 C        6.2460     7.6170    -0.4510 C.ar  1 <1>  -0.1500 
 25 C        5.5870     5.9530     1.1330 C.ar  1 <1>  -0.1500 
 26 C        0.2570    11.9380    -0.6020 C.3   1 <1>  -0.2400 
 27 C        6.5630     6.7820     0.6080 C.ar  1 <1>  -0.1430 
 28 C        7.9640     6.7810     1.1910 C.3   1 <1>  -0.0970 
 29 H       -2.0860     2.5050    -0.0650 H     1 <1>   0.3700 
 30 H        1.5980     2.8730    -1.4670 H     1 <1>   0.0800 
 31 H        2.0060     2.0950     0.0440 H     1 <1>   0.0800 
 32 H       -1.2340     4.5080     1.2370 H     1 <1>   0.0800 
 33 H        0.4030     5.0550    -1.2240 H     1 <1>   0.0800 
 34 H       -1.8150     4.0140    -2.4420 H     1 <1>   0.1500 
 35 H       -2.6800     6.3810     1.0130 H     1 <1>   0.1500 
 36 H       -3.5250     5.2300    -3.6930 H     1 <1>   0.1500 
 37 H       -4.3900     7.5840    -0.2520 H     1 <1>   0.1500 
 38 H       -4.8190     7.0180    -2.6080 H     1 <1>   0.1500 
 39 H        2.3930     5.8080    -1.4430 H     1 <1>   0.0800 
 40 H        2.5230     7.4870    -1.8540 H     1 <1>   0.0800 
 41 H        1.3590     8.5560     1.5680 H     1 <1>   0.0800 
 42 H        2.7640     8.8100     0.5830 H     1 <1>   0.0800 
 43 H        1.3030     9.5030    -1.3100 H     1 <1>   0.0800 
 44 H       -0.1020     9.2280    -0.3050 H     1 <1>   0.0800 
 45 H        4.7420     8.2760    -1.8030 H     1 <1>   0.1500 
 46 H        3.5580     5.3070     1.0250 H     1 <1>   0.1500 
 47 H        0.6760    10.9730     1.2640 H     1 <1>   0.0800 
 48 H        2.0860    11.2460     0.2740 H     1 <1>   0.0800 
 49 H        6.9940     8.2690    -0.8660 H     1 <1>   0.1500 
 50 H        5.8150     5.3020     1.9590 H     1 <1>   0.1500 
 51 H       -0.7850    11.6680    -0.6190 H     1 <1>   0.0800 
 52 H        0.6290    11.9470    -1.6120 H     1 <1>   0.0800 
 53 H        0.3460    12.9300    -0.1960 H     1 <1>   0.0800 
 54 H        8.6870     7.0330     0.4360 H     1 <1>   0.0800 
 55 H        8.2070     5.8090     1.5810 H     1 <1>   0.0800 
 56 H        8.0270     7.5010     1.9870 H     1 <1>   0.0800 
@<TRIPOS>BOND
  1   1   2  2   
  2   2   3  am  
  3   2   4  1   
  4   3   5  1   
  5   3  29  1   
  6   4   6  1   
  7   4  30  1   
  8   4  31  1   
  9   5   7  1   
 10   5   8  1   
 11   5  32  1   
 12   6   8  1   
 13   7   9  ar  
 14   7  10  ar  
 15   8  11  1   
 16   8  33  1   
 17   9  12  ar  
 18   9  34  1   
 19  10  13  ar  
 20  10  35  1   
 21  11  14  2   
 22  11  15  am  
 23  12  16  ar  
 24  12  36  1   
 25  13  16  ar  
 26  13  37  1   
 27  15  17  1   
 28  15  18  1   
 29  16  38  1   
 30  17  19  1   
 31  17  39  1   
 32  17  40  1   
 33  18  20  1   
 34  18  41  1   
 35  18  42  1   
 36  19  21  ar  
 37  19  22  ar  
 38  20  23  1   
 39  20  43  1   
 40  20  44  1   
 41  21  24  ar  
 42  21  45  1   
 43  22  25  ar  
 44  22  46  1   
 45  23  26  1   
 46  23  47  1   
 47  23  48  1   
 48  24  27  ar  
 49  24  49  1   
 50  25  27  ar  
 51  25  50  1   
 52  26  51  1   
 53  26  52  1   
 54  26  53  1   
 55  27  28  1   
 56  28  54  1   
 57  28  55  1   
 58  28  56  1   
@<TRIPOS>SUBSTRUCTURE
  1 ****  11 GROUP 4 **** **** 0

# MOE 2024.06 (io_trps.svl 2023.06)
