@<TRIPOS>MOLECULE
NONAME
42 44 1 0 0 
SMALL
USER_CHARGES


@<TRIPOS>ATOM
  1 CL       0.5130    -0.0790     0.6190 Cl    1 <1>  -0.1770 
  2 C       -0.9180     0.9120     0.4380 C.ar  1 <1>   0.1770 
  3 C       -2.0800     0.3740    -0.1020 C.ar  1 <1>   0.0820 
  4 C       -0.8590     2.2310     0.8410 C.ar  1 <1>  -0.1500 
  5 O       -2.1270    -0.9090    -0.5190 O.3   1 <1>  -0.3630 
  6 C       -3.1860     1.2080    -0.2230 C.ar  1 <1>   0.1770 
  7 C       -1.9640     3.0710     0.7050 C.ar  1 <1>   0.0860 
  8 C       -2.5060    -1.8720     0.4380 C.3   1 <1>   0.0400 
  9 CL      -4.6830     0.5960    -0.8900 Cl    1 <1>  -0.1770 
 10 C       -3.1350     2.5290     0.1750 C.ar  1 <1>  -0.1500 
 11 C       -1.9000     4.4620     1.0940 C.2   1 <1>   0.5440 
 12 O       -2.5250     4.8200     2.0730 O.2   1 <1>  -0.5700 
 13 N       -1.1700     5.3890     0.3750 N.am  1 <1>  -0.6600 
 14 C       -0.8550     6.7290     0.9770 C.3   1 <1>   0.1400 
 15 C       -0.6540     5.1140    -1.0070 C.3   1 <1>   0.1400 
 16 C        0.6460     7.0840     1.0730 C.3   1 <1>   0.2200 
 17 C        0.8660     5.2760    -1.2010 C.3   1 <1>  -0.0190 
 18 N        1.1690     7.5570    -0.2400 N.am  1 <1>  -0.6600 
 19 C        1.5560     5.9920     1.6910 C.3   1 <1>   0.1200 
 20 C        1.2430     6.7340    -1.3250 C.2   1 <1>   0.5690 
 21 C        1.7970     4.5520    -0.2110 C.3   1 <1>   0.1200 
 22 C        1.5490     8.9970    -0.3150 C.3   1 <1>   0.0600 
 23 O        1.4310     4.7150     1.1240 O.3   1 <1>  -0.5600 
 24 O        1.6090     7.1280    -2.4080 O.2   1 <1>  -0.5700 
 25 H        0.0500     2.6160     1.2680 H     1 <1>   0.1500 
 26 H       -2.4990    -2.8370    -0.0370 H     1 <1>   0.0800 
 27 H       -3.4960    -1.6430     0.7920 H     1 <1>   0.0800 
 28 H       -1.8000    -1.8570     1.2500 H     1 <1>   0.0800 
 29 H       -4.0070     3.1510     0.0760 H     1 <1>   0.1500 
 30 H       -1.3620     7.4910     0.4130 H     1 <1>   0.0800 
 31 H       -1.2490     6.7690     1.9770 H     1 <1>   0.0800 
 32 H       -0.9180     4.1160    -1.3030 H     1 <1>   0.0800 
 33 H       -1.1570     5.7790    -1.6890 H     1 <1>   0.0800 
 34 H        0.7040     7.9220     1.7450 H     1 <1>   0.0800 
 35 H        1.0830     4.8490    -2.1620 H     1 <1>   0.0800 
 36 H        1.2970     5.8820     2.7290 H     1 <1>   0.0800 
 37 H        2.5870     6.2910     1.6350 H     1 <1>   0.0800 
 38 H        2.8150     4.8840    -0.3310 H     1 <1>   0.0800 
 39 H        1.7660     3.4950    -0.4090 H     1 <1>   0.0800 
 40 H        2.3190     9.2100     0.4050 H     1 <1>   0.0800 
 41 H        0.6900     9.6120    -0.1120 H     1 <1>   0.0800 
 42 H        1.9210     9.2460    -1.2940 H     1 <1>   0.0800 
@<TRIPOS>BOND
  1   1   2  1   
  2   2   3  ar  
  3   2   4  ar  
  4   3   5  1   
  5   3   6  ar  
  6   4   7  ar  
  7   4  25  1   
  8   5   8  1   
  9   6   9  1   
 10   6  10  ar  
 11   7  10  ar  
 12   7  11  1   
 13   8  26  1   
 14   8  27  1   
 15   8  28  1   
 16  10  29  1   
 17  11  12  2   
 18  11  13  am  
 19  13  14  1   
 20  13  15  1   
 21  14  16  1   
 22  14  30  1   
 23  14  31  1   
 24  15  17  1   
 25  15  32  1   
 26  15  33  1   
 27  16  18  1   
 28  16  19  1   
 29  16  34  1   
 30  17  20  1   
 31  17  21  1   
 32  17  35  1   
 33  18  20  am  
 34  18  22  1   
 35  19  23  1   
 36  19  36  1   
 37  19  37  1   
 38  20  24  2   
 39  21  23  1   
 40  21  38  1   
 41  21  39  1   
 42  22  40  1   
 43  22  41  1   
 44  22  42  1   
@<TRIPOS>SUBSTRUCTURE
  1 ****   7 GROUP 4 **** **** 0

# MOE 2024.06 (io_trps.svl 2023.06)
