@<TRIPOS>MOLECULE
NONAME
53 56 1 0 0 
SMALL
USER_CHARGES


@<TRIPOS>ATOM
  1 O        0.8340    -3.3010     2.0490 O.3   1 <1>  -0.3630 
  2 C        1.5450    -2.8760     0.9630 C.ar  1 <1>   0.0830 
  3 C        1.0740    -2.7730     3.3380 C.3   1 <1>   0.0400 
  4 C        1.0300    -3.1680    -0.3310 C.ar  1 <1>   0.3100 
  5 C        2.7290    -2.1800     1.1060 C.ar  1 <1>  -0.1500 
  6 N       -0.1330    -3.8690    -0.4640 N.ar  1 <1>  -0.6200 
  7 C        1.7590    -2.7080    -1.4540 C.ar  1 <1>   0.0000 
  8 C        3.4370    -1.7430    -0.0130 C.ar  1 <1>  -0.1500 
  9 C       -0.5710    -4.0970    -1.6730 C.ar  1 <1>   0.4100 
 10 C        1.2520    -2.9760    -2.7380 C.ar  1 <1>  -0.1500 
 11 C        2.9590    -2.0010    -1.2680 C.ar  1 <1>  -0.1500 
 12 N       -1.7520    -4.7910    -1.7970 N.pl3 1 <1>  -0.8380 
 13 C        0.0890    -3.6670    -2.8340 C.ar  1 <1>  -0.1500 
 14 C       -1.7900    -6.0940    -1.0940 C.3   1 <1>   0.2090 
 15 C       -2.9660    -3.9650    -1.5780 C.3   1 <1>   0.2090 
 16 C       -2.6770    -5.9250     0.1620 C.3   1 <1>   0.4230 
 17 C       -4.1930    -4.8070    -1.1120 C.3   1 <1>  -0.1600 
 18 N       -2.0660    -6.5390     1.4080 N.4   1 <1>  -0.9590 
 19 C       -4.2020    -6.1860    -0.2490 C.3   1 <1>   0.0000 
 20 C       -1.8390    -7.9860     1.2450 C.3   1 <1>   0.3430 
 21 C       -0.8170    -5.8160     1.8100 C.3   1 <1>   0.2630 
 22 C       -4.2700    -7.6020     0.5410 C.3   1 <1>  -0.1600 
 23 C       -5.7480    -6.3610    -0.6380 C.3   1 <1>   0.1200 
 24 C       -3.0490    -8.5560     0.5230 C.3   1 <1>  -0.1600 
 25 O       -5.8770    -7.1760    -1.7630 O.3   1 <1>  -0.6800 
 26 H        0.3080    -3.1340     4.0000 H     1 <1>   0.0800 
 27 H        1.0330    -1.6990     3.2890 H     1 <1>   0.0800 
 28 H        2.0370    -3.1060     3.6810 H     1 <1>   0.0800 
 29 H        3.1470    -1.9550     2.0680 H     1 <1>   0.1500 
 30 H        4.3580    -1.2020     0.1240 H     1 <1>   0.1500 
 31 H        1.7850    -2.6340    -3.6070 H     1 <1>   0.1500 
 32 H        3.5010    -1.6630    -2.1340 H     1 <1>   0.1500 
 33 H       -0.3550    -3.9060    -3.7820 H     1 <1>   0.1500 
 34 H       -2.2070    -6.8340    -1.7550 H     1 <1>   0.0800 
 35 H       -0.7900    -6.3960    -0.8380 H     1 <1>   0.0800 
 36 H       -2.7470    -3.2140    -0.8340 H     1 <1>   0.0800 
 37 H       -3.2030    -3.4430    -2.4900 H     1 <1>   0.0800 
 38 H       -2.6210    -4.8800     0.4100 H     1 <1>   0.0800 
 39 H       -4.8050    -4.0830    -0.5960 H     1 <1>   0.0800 
 40 H       -4.6570    -4.9740    -2.0720 H     1 <1>   0.0800 
 41 H       -2.7610    -6.4140     2.1530 H     1 <1>   0.4500 
 42 H       -0.9470    -8.1710     0.6680 H     1 <1>   0.0800 
 43 H       -1.7280    -8.4500     2.2120 H     1 <1>   0.0800 
 44 H       -0.0530    -5.9240     1.0580 H     1 <1>   0.0800 
 45 H       -0.4390    -6.1960     2.7440 H     1 <1>   0.0800 
 46 H       -1.0180    -4.7620     1.9220 H     1 <1>   0.0800 
 47 H       -4.5380    -7.4020     1.5660 H     1 <1>   0.0800 
 48 H       -5.0270    -8.2960     0.2030 H     1 <1>   0.0800 
 49 H       -6.3060    -5.4610    -0.8500 H     1 <1>   0.0800 
 50 H       -6.3480    -6.7940     0.1490 H     1 <1>   0.0800 
 51 H       -2.7870    -8.7890    -0.4940 H     1 <1>   0.0800 
 52 H       -3.3100    -9.4890     0.9920 H     1 <1>   0.0800 
 53 H       -5.5710    -6.7260    -2.5740 H     1 <1>   0.4000 
@<TRIPOS>BOND
  1   1   2  1   
  2   1   3  1   
  3   2   4  ar  
  4   2   5  ar  
  5   3  26  1   
  6   3  27  1   
  7   3  28  1   
  8   4   6  ar  
  9   4   7  ar  
 10   5   8  ar  
 11   5  29  1   
 12   6   9  ar  
 13   7  10  ar  
 14   7  11  ar  
 15   8  11  ar  
 16   8  30  1   
 17   9  12  1   
 18   9  13  ar  
 19  10  13  ar  
 20  10  31  1   
 21  11  32  1   
 22  12  14  1   
 23  12  15  1   
 24  13  33  1   
 25  14  16  1   
 26  14  34  1   
 27  14  35  1   
 28  15  17  1   
 29  15  36  1   
 30  15  37  1   
 31  16  18  1   
 32  16  19  1   
 33  16  38  1   
 34  17  19  1   
 35  17  39  1   
 36  17  40  1   
 37  18  20  1   
 38  18  21  1   
 39  18  41  1   
 40  19  22  1   
 41  19  23  1   
 42  20  24  1   
 43  20  42  1   
 44  20  43  1   
 45  21  44  1   
 46  21  45  1   
 47  21  46  1   
 48  22  24  1   
 49  22  47  1   
 50  22  48  1   
 51  23  25  1   
 52  23  49  1   
 53  23  50  1   
 54  24  51  1   
 55  24  52  1   
 56  25  53  1   
@<TRIPOS>SUBSTRUCTURE
  1 ****   6 GROUP 4 **** **** 0

# MOE 2024.06 (io_trps.svl 2023.06)
