@<TRIPOS>MOLECULE
NONAME
48 50 1 0 0 
SMALL
USER_CHARGES


@<TRIPOS>ATOM
  1 N        0.4510    -0.6080    -1.2480 N.ar  1 <1>  -0.1790 
  2 C        1.1750     0.3030    -0.4960 C.ar  1 <1>   0.3610 
  3 C        0.3040    -1.9030    -0.9630 C.ar  1 <1>   0.4610 
  4 C        1.8190    -0.1630     0.6650 C.ar  1 <1>   0.0000 
  5 C        1.2620     1.6540    -0.8850 C.ar  1 <1>  -0.1440 
  6 N       -0.4430    -2.6570    -1.7920 N.pl3 1 <1>  -0.8690 
  7 C        0.9570    -2.3680     0.2050 C.ar  1 <1>  -0.1500 
  8 C        1.6900    -1.5450     1.0040 C.ar  1 <1>  -0.1430 
  9 C        2.5500     0.7630     1.4190 C.ar  1 <1>  -0.1500 
 10 C        1.9950     2.5380    -0.1120 C.ar  1 <1>  -0.1430 
 11 C        0.5410     2.1170    -2.1580 C.3   1 <1>  -0.0970 
 12 C       -0.8540    -4.0810    -1.7230 C.3   1 <1>   0.2890 
 13 C        2.3700    -2.0970     2.2520 C.3   1 <1>  -0.0970 
 14 C        2.6340     2.0770     1.0380 C.ar  1 <1>  -0.1500 
 15 C        2.1530     4.0180    -0.4460 C.3   1 <1>  -0.0970 
 16 C       -1.6890    -4.3440    -0.4640 C.3   1 <1>  -0.1600 
 17 C        0.3620    -4.9930    -1.8880 C.3   1 <1>  -0.2400 
 18 C       -2.4260    -5.6920    -0.5220 C.3   1 <1>   0.0960 
 19 N       -3.3120    -5.8380     0.6470 N.pl3 1 <1>   0.3140 
 20 N       -4.4210    -5.0890     0.7860 N.2   1 <1>  -0.7070 
 21 C       -3.1510    -6.6740     1.6920 C.2   1 <1>  -0.3020 
 22 C       -4.9400    -5.4690     1.9140 C.2   1 <1>   0.1390 
 23 C       -4.1870    -6.4620     2.5300 C.2   1 <1>  -0.1500 
 24 H       -0.0070    -0.2450    -2.0740 H     1 <1>   0.4570 
 25 H       -0.8630    -2.2430    -2.6300 H     1 <1>   0.4000 
 26 H        0.8660    -3.4030     0.4590 H     1 <1>   0.1500 
 27 H        3.0590     0.4510     2.3140 H     1 <1>   0.1500 
 28 H        0.9290     1.6000    -3.0180 H     1 <1>   0.0800 
 29 H        0.6630     3.1680    -2.3450 H     1 <1>   0.0800 
 30 H       -0.5170     1.9380    -2.0770 H     1 <1>   0.0800 
 31 H       -1.4980    -4.2580    -2.5710 H     1 <1>   0.0800 
 32 H        2.0050    -1.5910     3.1290 H     1 <1>   0.0800 
 33 H        3.4350    -1.9590     2.1880 H     1 <1>   0.0800 
 34 H        2.1770    -3.1480     2.3700 H     1 <1>   0.0800 
 35 H        3.2060     2.7620     1.6430 H     1 <1>   0.1500 
 36 H        1.1930     4.5030    -0.4520 H     1 <1>   0.0800 
 37 H        2.6160     4.1360    -1.4090 H     1 <1>   0.0800 
 38 H        2.7700     4.5200     0.2780 H     1 <1>   0.0800 
 39 H       -2.4270    -3.5650    -0.3790 H     1 <1>   0.0800 
 40 H       -1.0770    -4.3330     0.4160 H     1 <1>   0.0800 
 41 H        1.0050    -4.9710    -1.0300 H     1 <1>   0.0800 
 42 H        0.9250    -4.7020    -2.7570 H     1 <1>   0.0800 
 43 H        0.0420    -6.0090    -2.0330 H     1 <1>   0.0800 
 44 H       -1.7310    -6.5110    -0.5290 H     1 <1>   0.0800 
 45 H       -3.0390    -5.7470    -1.4040 H     1 <1>   0.0800 
 46 H       -2.3290    -7.3600     1.7830 H     1 <1>   0.1500 
 47 H       -5.8490    -5.0560     2.3170 H     1 <1>   0.1500 
 48 H       -4.4100    -6.9360     3.4700 H     1 <1>   0.1500 
@<TRIPOS>BOND
  1   1   2  ar  
  2   1   3  ar  
  3   1  24  1   
  4   2   4  ar  
  5   2   5  ar  
  6   3   6  1   
  7   3   7  ar  
  8   4   8  ar  
  9   4   9  ar  
 10   5  10  ar  
 11   5  11  1   
 12   6  12  1   
 13   6  25  1   
 14   7   8  ar  
 15   7  26  1   
 16   8  13  1   
 17   9  14  ar  
 18   9  27  1   
 19  10  14  ar  
 20  10  15  1   
 21  11  28  1   
 22  11  29  1   
 23  11  30  1   
 24  12  16  1   
 25  12  17  1   
 26  12  31  1   
 27  13  32  1   
 28  13  33  1   
 29  13  34  1   
 30  14  35  1   
 31  15  36  1   
 32  15  37  1   
 33  15  38  1   
 34  16  18  1   
 35  16  39  1   
 36  16  40  1   
 37  17  41  1   
 38  17  42  1   
 39  17  43  1   
 40  18  19  1   
 41  18  44  1   
 42  18  45  1   
 43  19  20  1   
 44  19  21  1   
 45  20  22  2   
 46  21  23  2   
 47  21  46  1   
 48  22  23  1   
 49  22  47  1   
 50  23  48  1   
@<TRIPOS>SUBSTRUCTURE
  1 ****   3 GROUP 4 **** **** 0

# MOE 2024.06 (io_trps.svl 2023.06)
