@<TRIPOS>MOLECULE
NONAME
43 44 1 0 0 
SMALL
USER_CHARGES


@<TRIPOS>ATOM
  1 O        3.5310    -1.1400    -2.2110 O.2   1 <1>  -0.5700 
  2 C        2.6470    -1.2380    -1.3770 C.2   1 <1>   0.5440 
  3 N        2.2140    -0.0960    -0.7560 N.am  1 <1>  -0.4930 
  4 C        2.0880    -2.5470    -1.0530 C.ar  1 <1>   0.0860 
  5 C        2.6250     1.2510    -0.9080 C.2   1 <1>   0.0630 
  6 C        0.9280    -2.7530    -0.2760 C.ar  1 <1>   0.0830 
  7 C        2.7330    -3.6910    -1.5370 C.ar  1 <1>  -0.1500 
  8 C        3.5950     1.7970    -1.7510 C.2   1 <1>   0.1390 
  9 C        2.1310     2.3090    -0.2340 C.2   1 <1>  -0.3020 
 10 O        0.2610    -1.6760     0.2140 O.3   1 <1>  -0.3630 
 11 C        0.4720    -4.0460    -0.0170 C.ar  1 <1>  -0.1500 
 12 C        2.2750    -4.9670    -1.2780 C.ar  1 <1>  -0.1500 
 13 N        3.7010     3.0880    -1.6140 N.2   1 <1>  -0.7070 
 14 N        2.7890     3.4050    -0.6720 N.pl3 1 <1>   0.3140 
 15 C       -0.9630    -1.7650     0.9090 C.3   1 <1>   0.1200 
 16 C        1.1400    -5.1470    -0.5140 C.ar  1 <1>  -0.1500 
 17 C        2.5910     4.7920    -0.2240 C.3   1 <1>   0.1570 
 18 C       -1.4200    -0.3440     1.2400 C.3   1 <1>  -0.1600 
 19 C        3.6950     5.2050     0.7230 C.2   1 <1>   0.5690 
 20 C       -2.7550    -0.3500     1.9930 C.3   1 <1>  -0.2400 
 21 O        3.3980     5.8480     1.7010 O.2   1 <1>  -0.5700 
 22 N        4.9830     4.8610     0.4480 N.am  1 <1>  -0.7300 
 23 C        6.1730     5.1860     1.2710 C.3   1 <1>   0.0600 
 24 H        1.4350    -0.2500    -0.1100 H     1 <1>   0.3700 
 25 H        3.6210    -3.5770    -2.1360 H     1 <1>   0.1500 
 26 H        4.1900     1.2180    -2.4380 H     1 <1>   0.1500 
 27 H        1.3660     2.3420     0.5190 H     1 <1>   0.1500 
 28 H       -0.4060    -4.2240     0.5740 H     1 <1>   0.1500 
 29 H        2.8020    -5.8200    -1.6710 H     1 <1>   0.1500 
 30 H       -0.8050    -2.3320     1.8110 H     1 <1>   0.0800 
 31 H       -1.6810    -2.2580     0.2760 H     1 <1>   0.0800 
 32 H        0.7800    -6.1410    -0.3100 H     1 <1>   0.1500 
 33 H        1.6420     4.8720     0.2690 H     1 <1>   0.0800 
 34 H        2.5990     5.4360    -1.0820 H     1 <1>   0.0800 
 35 H       -1.5340     0.2140     0.3260 H     1 <1>   0.0800 
 36 H       -0.6750     0.1380     1.8490 H     1 <1>   0.0800 
 37 H       -3.5230    -0.8100     1.3960 H     1 <1>   0.0800 
 38 H       -3.0560     0.6590     2.2140 H     1 <1>   0.0800 
 39 H       -2.6640    -0.8890     2.9200 H     1 <1>   0.0800 
 40 H        5.1380     4.2440    -0.3670 H     1 <1>   0.3700 
 41 H        5.8920     5.8070     2.1050 H     1 <1>   0.0800 
 42 H        6.8960     5.7120     0.6720 H     1 <1>   0.0800 
 43 H        6.6140     4.2780     1.6440 H     1 <1>   0.0800 
@<TRIPOS>BOND
  1   1   2  2   
  2   2   3  am  
  3   2   4  1   
  4   3   5  1   
  5   3  24  1   
  6   4   6  ar  
  7   4   7  ar  
  8   5   8  1   
  9   5   9  2   
 10   6  10  1   
 11   6  11  ar  
 12   7  12  ar  
 13   7  25  1   
 14   8  13  2   
 15   8  26  1   
 16   9  14  1   
 17   9  27  1   
 18  10  15  1   
 19  11  16  ar  
 20  11  28  1   
 21  12  16  ar  
 22  12  29  1   
 23  13  14  1   
 24  14  17  1   
 25  15  18  1   
 26  15  30  1   
 27  15  31  1   
 28  16  32  1   
 29  17  19  1   
 30  17  33  1   
 31  17  34  1   
 32  18  20  1   
 33  18  35  1   
 34  18  36  1   
 35  19  21  2   
 36  19  22  am  
 37  20  37  1   
 38  20  38  1   
 39  20  39  1   
 40  22  23  1   
 41  22  40  1   
 42  23  41  1   
 43  23  42  1   
 44  23  43  1   
@<TRIPOS>SUBSTRUCTURE
  1 ****   3 GROUP 4 **** **** 0

# MOE 2024.06 (io_trps.svl 2023.06)
