@<TRIPOS>MOLECULE
NONAME
43 44 1 0 0 
SMALL
USER_CHARGES


@<TRIPOS>ATOM
  1 S        0.7510     0.4500    -0.7830 S.o2  1 <1>   1.3330 
  2 O        1.9420    -0.1110    -0.1940 O.2   1 <1>  -0.6500 
  3 O        0.6750     0.6960    -2.2010 O.2   1 <1>  -0.6500 
  4 N        0.4550     1.9540     0.0260 N.am  1 <1>  -0.6930 
  5 C       -0.6400    -0.5330    -0.2680 C.3   1 <1>  -0.1350 
  6 C       -0.7210     2.6810    -0.1670 C.ar  1 <1>   0.1990 
  7 C        1.4090     2.3160     1.1300 C.3   1 <1>   0.2570 
  8 C       -1.5520     2.9860     0.9060 C.ar  1 <1>  -0.1500 
  9 C       -1.0900     3.1210    -1.4380 C.ar  1 <1>  -0.1500 
 10 C        1.5000     3.8150     1.4300 C.2   1 <1>   0.5690 
 11 C       -2.7090     3.7020     0.6810 C.ar  1 <1>   0.1900 
 12 C       -2.2570     3.8390    -1.6470 C.ar  1 <1>  -0.1500 
 13 O        1.4270     4.1830     2.5790 O.2   1 <1>  -0.5700 
 14 N        1.6640     4.6940     0.4030 N.am  1 <1>  -0.7300 
 15 F       -3.4840     3.9780     1.6950 F     1 <1>  -0.1900 
 16 C       -3.0830     4.1360    -0.5760 C.ar  1 <1>  -0.1500 
 17 C        1.7300     6.1620     0.5370 C.3   1 <1>   0.1400 
 18 C        3.1000     6.6430     0.0650 C.3   1 <1>  -0.1600 
 19 C        3.2490     8.1550     0.2780 C.3   1 <1>   0.0960 
 20 N        4.5550     8.6280    -0.2180 N.pl3 1 <1>   0.3140 
 21 N        4.6930     9.1800    -1.4370 N.2   1 <1>  -0.7070 
 22 C        5.7330     8.5820     0.4350 C.2   1 <1>  -0.3020 
 23 C        5.9550     9.4720    -1.5290 C.2   1 <1>   0.1390 
 24 C        6.6610     9.1190    -0.3850 C.2   1 <1>  -0.1500 
 25 H       -0.5670    -1.5170    -0.6880 H     1 <1>   0.0800 
 26 H       -1.5550    -0.0850    -0.6010 H     1 <1>   0.0800 
 27 H       -0.6620    -0.6160     0.8010 H     1 <1>   0.0800 
 28 H        2.4010     1.9960     0.8690 H     1 <1>   0.0800 
 29 H        1.1230     1.7980     2.0270 H     1 <1>   0.0800 
 30 H       -1.3070     2.6740     1.9040 H     1 <1>   0.1500 
 31 H       -0.4550     2.9030    -2.2790 H     1 <1>   0.1500 
 32 H       -2.5210     4.1650    -2.6390 H     1 <1>   0.1500 
 33 H        1.6490     4.3290    -0.5540 H     1 <1>   0.3700 
 34 H       -3.9950     4.6910    -0.7080 H     1 <1>   0.1500 
 35 H        1.5770     6.4400     1.5670 H     1 <1>   0.0800 
 36 H        0.9490     6.6090    -0.0550 H     1 <1>   0.0800 
 37 H        3.2160     6.4220    -0.9820 H     1 <1>   0.0800 
 38 H        3.8650     6.1320     0.6230 H     1 <1>   0.0800 
 39 H        3.1730     8.3980     1.3220 H     1 <1>   0.0800 
 40 H        2.4800     8.6840    -0.2560 H     1 <1>   0.0800 
 41 H        5.8440     8.1770     1.4240 H     1 <1>   0.1500 
 42 H        6.3940     9.9330    -2.3980 H     1 <1>   0.1500 
 43 H        7.7140     9.2580    -0.2210 H     1 <1>   0.1500 
@<TRIPOS>BOND
  1   1   2  2   
  2   1   3  2   
  3   1   4  am  
  4   1   5  1   
  5   4   6  1   
  6   4   7  1   
  7   5  25  1   
  8   5  26  1   
  9   5  27  1   
 10   6   8  ar  
 11   6   9  ar  
 12   7  10  1   
 13   7  28  1   
 14   7  29  1   
 15   8  11  ar  
 16   8  30  1   
 17   9  12  ar  
 18   9  31  1   
 19  10  13  2   
 20  10  14  am  
 21  11  15  1   
 22  11  16  ar  
 23  12  16  ar  
 24  12  32  1   
 25  14  17  1   
 26  14  33  1   
 27  16  34  1   
 28  17  18  1   
 29  17  35  1   
 30  17  36  1   
 31  18  19  1   
 32  18  37  1   
 33  18  38  1   
 34  19  20  1   
 35  19  39  1   
 36  19  40  1   
 37  20  21  1   
 38  20  22  1   
 39  21  23  2   
 40  22  24  2   
 41  22  41  1   
 42  23  24  1   
 43  23  42  1   
 44  24  43  1   
@<TRIPOS>SUBSTRUCTURE
  1 ****  14 GROUP 4 **** **** 0

# MOE 2024.06 (io_trps.svl 2023.06)
