@<TRIPOS>MOLECULE
NONAME
49 52 1 0 0 
SMALL
USER_CHARGES


@<TRIPOS>ATOM
  1 O       -0.8420    -0.6660     0.8470 O.co2 1 <1>  -0.9000 
  2 C       -0.8120    -1.9060     0.8410 C.2   1 <1>   1.0330 
  3 O       -1.8890    -2.5190     0.9900 O.co2 1 <1>  -0.9000 
  4 C        0.4130    -2.6260     0.6540 C.2   1 <1>  -0.2330 
  5 C        0.5880    -3.9620     1.0080 C.2   1 <1>   0.3720 
  6 C        1.6260    -2.2800     0.1410 C.2   1 <1>   0.0870 
  7 N        1.7740    -4.3780     0.7380 N.2   1 <1>  -0.4100 
  8 N       -0.4000    -4.7540     1.5710 N.pl3 1 <1>  -0.8520 
  9 O        2.3880    -3.3480     0.2210 O.3   1 <1>  -0.0190 
 10 C        2.1780    -1.0790    -0.4450 C.ar  1 <1>   0.0530 
 11 C       -0.6070    -6.0570     0.9150 C.3   1 <1>   0.2090 
 12 C        3.5420    -0.7990    -0.3350 C.ar  1 <1>  -0.1500 
 13 C        1.3990    -0.1680    -1.1570 C.ar  1 <1>  -0.1500 
 14 C       -1.9860    -6.6220     1.2860 C.3   1 <1>  -0.0800 
 15 C        4.1000     0.3300    -0.9070 C.ar  1 <1>  -0.1500 
 16 C        1.9480     0.9650    -1.7290 C.ar  1 <1>  -0.1500 
 17 C       -2.1050    -8.0880     0.8340 C.3   1 <1>  -0.1600 
 18 C       -3.1310    -5.7930     0.6720 C.3   1 <1>  -0.1600 
 19 C        3.3030     1.2170    -1.6070 C.ar  1 <1>  -0.1500 
 20 C       -3.4820    -8.6640     1.1710 C.3   1 <1>   0.1400 
 21 C       -4.5070    -6.3980     0.9660 C.3   1 <1>   0.1400 
 22 N       -4.5360    -7.8270     0.5400 N.am  1 <1>  -0.6600 
 23 C       -5.4750    -8.2870    -0.3500 C.2   1 <1>   0.6300 
 24 O       -6.3640    -7.5840    -0.7710 O.2   1 <1>  -0.5700 
 25 C       -5.4350    -9.7340    -0.8360 C.3   1 <1>  -0.1000 
 26 C       -4.3410   -10.2280    -1.7420 C.3   1 <1>  -0.2000 
 27 C       -5.7320   -10.0760    -2.2690 C.3   1 <1>  -0.2000 
 28 H       -1.2710    -4.1810     1.5240 H     1 <1>   0.4000 
 29 H        0.1680    -6.7270     1.2460 H     1 <1>   0.0800 
 30 H       -0.5270    -5.9430    -0.1530 H     1 <1>   0.0800 
 31 H        4.1700    -1.4790     0.2110 H     1 <1>   0.1500 
 32 H        0.3430    -0.3480    -1.2590 H     1 <1>   0.1500 
 33 H       -2.0740    -6.5960     2.3590 H     1 <1>   0.0800 
 34 H        5.1540     0.5190    -0.8050 H     1 <1>   0.1500 
 35 H        1.3140     1.6490    -2.2650 H     1 <1>   0.1500 
 36 H       -1.3500    -8.6790     1.3220 H     1 <1>   0.0800 
 37 H       -1.9470    -8.1610    -0.2280 H     1 <1>   0.0800 
 38 H       -3.0060    -5.7190    -0.3930 H     1 <1>   0.0800 
 39 H       -3.1130    -4.7910     1.0650 H     1 <1>   0.0800 
 40 H        3.7300     2.0980    -2.0520 H     1 <1>   0.1500 
 41 H       -3.6260    -8.6560     2.2390 H     1 <1>   0.0800 
 42 H       -3.5380    -9.6850     0.8390 H     1 <1>   0.0800 
 43 H       -5.2620    -5.8290     0.4500 H     1 <1>   0.0800 
 44 H       -4.7110    -6.3410     2.0210 H     1 <1>   0.0800 
 45 H       -5.8250   -10.4050    -0.0930 H     1 <1>   0.1000 
 46 H       -3.9500   -11.2190    -1.5920 H     1 <1>   0.1000 
 47 H       -3.5910    -9.5310    -2.0740 H     1 <1>   0.1000 
 48 H       -5.9500    -9.2680    -2.9470 H     1 <1>   0.1000 
 49 H       -6.3160   -10.9560    -2.4750 H     1 <1>   0.1000 
@<TRIPOS>BOND
  1   1   2  ar  
  2   2   3  ar  
  3   2   4  1   
  4   4   5  1   
  5   4   6  2   
  6   5   7  2   
  7   5   8  1   
  8   6   9  1   
  9   6  10  1   
 10   7   9  1   
 11   8  11  1   
 12   8  28  1   
 13  10  12  ar  
 14  10  13  ar  
 15  11  14  1   
 16  11  29  1   
 17  11  30  1   
 18  12  15  ar  
 19  12  31  1   
 20  13  16  ar  
 21  13  32  1   
 22  14  17  1   
 23  14  18  1   
 24  14  33  1   
 25  15  19  ar  
 26  15  34  1   
 27  16  19  ar  
 28  16  35  1   
 29  17  20  1   
 30  17  36  1   
 31  17  37  1   
 32  18  21  1   
 33  18  38  1   
 34  18  39  1   
 35  19  40  1   
 36  20  22  1   
 37  20  41  1   
 38  20  42  1   
 39  21  22  1   
 40  21  43  1   
 41  21  44  1   
 42  22  23  am  
 43  23  24  2   
 44  23  25  1   
 45  25  26  1   
 46  25  27  1   
 47  25  45  1   
 48  26  27  1   
 49  26  46  1   
 50  26  47  1   
 51  27  48  1   
 52  27  49  1   
@<TRIPOS>SUBSTRUCTURE
  1 ****   8 GROUP 4 **** **** 0

# MOE 2024.06 (io_trps.svl 2023.06)
