@<TRIPOS>MOLECULE
NONAME
64 67 1 0 0 
SMALL
USER_CHARGES


@<TRIPOS>ATOM
  1 O       -2.3180     1.4480    -2.6170 O.2   1 <1>  -0.5700 
  2 C       -2.3880     1.2310    -1.4220 C.2   1 <1>   0.5440 
  3 N       -1.6050     1.9780    -0.5670 N.am  1 <1>  -0.6600 
  4 C       -3.2770     0.1970    -0.9510 C.ar  1 <1>   0.0860 
  5 C       -0.8650     3.1870    -1.0360 C.3   1 <1>   0.1400 
  6 C       -1.2340     1.5740     0.8230 C.3   1 <1>   0.1400 
  7 C       -3.2310    -1.0770    -1.5080 C.ar  1 <1>   0.1600 
  8 C       -4.2170     0.4100     0.0530 C.ar  1 <1>  -0.1500 
  9 C       -0.9350     4.3070     0.0170 C.3   1 <1>   0.1200 
 10 C       -1.2970     2.7840     1.7700 C.3   1 <1>   0.1200 
 11 N       -3.9760    -2.1090    -1.1520 N.ar  1 <1>  -0.6200 
 12 C       -5.0050    -0.6500     0.4330 C.ar  1 <1>  -0.1500 
 13 O       -0.5240     3.8400     1.2720 O.3   1 <1>  -0.5600 
 14 C       -4.8560    -1.8900    -0.1820 C.ar  1 <1>   0.4100 
 15 N       -5.6430    -2.9390     0.2110 N.pl3 1 <1>  -0.8690 
 16 C       -5.6410    -4.2490    -0.4760 C.3   1 <1>   0.2090 
 17 C       -6.6300    -5.1800     0.2300 C.3   1 <1>  -0.1600 
 18 C       -6.7480    -6.5820    -0.4280 C.3   1 <1>   0.1430 
 19 C       -5.3350    -7.2150    -0.4840 C.ar  1 <1>  -0.1430 
 20 C       -7.6620    -7.4970     0.4230 C.3   1 <1>  -0.1600 
 21 C       -7.4110    -6.4910    -1.8200 C.3   1 <1>  -0.1600 
 22 C       -4.6670    -7.4830    -1.6770 C.ar  1 <1>  -0.1500 
 23 C       -4.6800    -7.5230     0.7050 C.ar  1 <1>  -0.1500 
 24 C       -9.1860    -7.3140     0.2100 C.3   1 <1>   0.2800 
 25 C       -8.8710    -6.0140    -1.7840 C.3   1 <1>   0.1200 
 26 C       -3.4010    -8.0440    -1.6780 C.ar  1 <1>  -0.1500 
 27 C       -3.4150    -8.0830     0.7080 C.ar  1 <1>  -0.1500 
 28 O       -9.4430    -6.1550    -0.5170 O.3   1 <1>  -0.5600 
 29 C       -9.8300    -8.5060    -0.5130 C.3   1 <1>  -0.2400 
 30 C       -9.8930    -7.1060     1.5490 C.3   1 <1>  -0.2400 
 31 C       -2.7720    -8.3460    -0.4860 C.ar  1 <1>  -0.1500 
 32 H       -1.2810     3.5470    -1.9610 H     1 <1>   0.0800 
 33 H        0.1640     2.9270    -1.2130 H     1 <1>   0.0800 
 34 H       -0.2290     1.1900     0.8180 H     1 <1>   0.0800 
 35 H       -1.8790     0.7960     1.1880 H     1 <1>   0.0800 
 36 H       -2.5240    -1.2440    -2.3030 H     1 <1>   0.1500 
 37 H       -4.3180     1.3790     0.5080 H     1 <1>   0.1500 
 38 H       -1.9400     4.6820     0.1000 H     1 <1>   0.0800 
 39 H       -0.2850     5.1170    -0.2610 H     1 <1>   0.0800 
 40 H       -0.9060     2.5200     2.7360 H     1 <1>   0.0800 
 41 H       -2.3110     3.1240     1.8870 H     1 <1>   0.0800 
 42 H       -5.7410    -0.5390     1.2060 H     1 <1>   0.1500 
 43 H       -6.5030    -2.7260     0.7170 H     1 <1>   0.4000 
 44 H       -4.6450    -4.6600    -0.4470 H     1 <1>   0.0800 
 45 H       -5.9180    -4.0990    -1.5040 H     1 <1>   0.0800 
 46 H       -7.5900    -4.7010     0.2580 H     1 <1>   0.0800 
 47 H       -6.2990    -5.2940     1.2450 H     1 <1>   0.0800 
 48 H       -7.4280    -7.3680     1.4630 H     1 <1>   0.0800 
 49 H       -7.4180    -8.5210     0.2010 H     1 <1>   0.0800 
 50 H       -7.4040    -7.4690    -2.2680 H     1 <1>   0.0800 
 51 H       -6.8580    -5.8470    -2.4780 H     1 <1>   0.0800 
 52 H       -5.1040    -7.2640    -2.6320 H     1 <1>   0.1500 
 53 H       -5.1470    -7.3260     1.6520 H     1 <1>   0.1500 
 54 H       -9.4710    -6.5570    -2.4930 H     1 <1>   0.0800 
 55 H       -8.9220    -4.9670    -2.0290 H     1 <1>   0.0800 
 56 H       -2.9030    -8.2430    -2.6110 H     1 <1>   0.1500 
 57 H       -2.9300    -8.3120     1.6410 H     1 <1>   0.1500 
 58 H       -9.3280    -8.7200    -1.4370 H     1 <1>   0.0800 
 59 H      -10.8670    -8.3030    -0.7110 H     1 <1>   0.0800 
 60 H       -9.7690    -9.3840     0.1040 H     1 <1>   0.0800 
 61 H       -9.4940    -6.2420     2.0480 H     1 <1>   0.0800 
 62 H       -9.7560    -7.9630     2.1830 H     1 <1>   0.0800 
 63 H      -10.9470    -6.9620     1.3940 H     1 <1>   0.0800 
 64 H       -1.7880    -8.7800    -0.4870 H     1 <1>   0.1500 
@<TRIPOS>BOND
  1   1   2  2   
  2   2   3  am  
  3   2   4  1   
  4   3   5  1   
  5   3   6  1   
  6   4   7  ar  
  7   4   8  ar  
  8   5   9  1   
  9   5  32  1   
 10   5  33  1   
 11   6  10  1   
 12   6  34  1   
 13   6  35  1   
 14   7  11  ar  
 15   7  36  1   
 16   8  12  ar  
 17   8  37  1   
 18   9  13  1   
 19   9  38  1   
 20   9  39  1   
 21  10  13  1   
 22  10  40  1   
 23  10  41  1   
 24  11  14  ar  
 25  12  14  ar  
 26  12  42  1   
 27  14  15  1   
 28  15  16  1   
 29  15  43  1   
 30  16  17  1   
 31  16  44  1   
 32  16  45  1   
 33  17  18  1   
 34  17  46  1   
 35  17  47  1   
 36  18  19  1   
 37  18  20  1   
 38  18  21  1   
 39  19  22  ar  
 40  19  23  ar  
 41  20  24  1   
 42  20  48  1   
 43  20  49  1   
 44  21  25  1   
 45  21  50  1   
 46  21  51  1   
 47  22  26  ar  
 48  22  52  1   
 49  23  27  ar  
 50  23  53  1   
 51  24  28  1   
 52  24  29  1   
 53  24  30  1   
 54  25  28  1   
 55  25  54  1   
 56  25  55  1   
 57  26  31  ar  
 58  26  56  1   
 59  27  31  ar  
 60  27  57  1   
 61  29  58  1   
 62  29  59  1   
 63  29  60  1   
 64  30  61  1   
 65  30  62  1   
 66  30  63  1   
 67  31  64  1   
@<TRIPOS>SUBSTRUCTURE
  1 ****  15 GROUP 4 **** **** 0

# MOE 2024.06 (io_trps.svl 2023.06)
