@<TRIPOS>MOLECULE
NONAME
37 38 1 0 0 
SMALL
USER_CHARGES


@<TRIPOS>ATOM
  1 O        3.4510    -1.2770    -0.4100 O.2   1 <1>  -0.5700 
  2 C        2.3800    -1.2870     0.1470 C.2   1 <1>   0.5690 
  3 N        1.6110    -0.1720     0.3310 N.am  1 <1>  -0.4940 
  4 C        1.8720    -2.6130     0.6660 C.3   1 <1>   0.1570 
  5 C        1.8110     1.1600    -0.0400 C.2   1 <1>   0.2040 
  6 N        0.4420    -2.7490     0.3570 N.pl3 1 <1>   0.3140 
  7 O        0.7540     1.9170    -0.2110 O.3   1 <1>  -0.0190 
  8 C        2.8980     1.9240    -0.2840 C.2   1 <1>  -0.1810 
  9 N       -0.4780    -2.0760     1.0770 N.2   1 <1>  -0.7070 
 10 C       -0.1360    -3.4470    -0.6470 C.2   1 <1>  -0.3320 
 11 N        1.0700     3.1320    -0.5730 N.2   1 <1>  -0.4100 
 12 C        2.3530     3.1630    -0.6270 C.2   1 <1>   0.1080 
 13 C        4.3760     1.5790    -0.2070 C.3   1 <1>  -0.0590 
 14 C       -1.6130    -2.3690     0.5260 C.2   1 <1>   0.1080 
 15 C       -1.4640    -3.2230    -0.5580 C.2   1 <1>  -0.1500 
 16 C        0.6060    -4.2950    -1.6670 C.3   1 <1>  -0.0600 
 17 C        3.1320     4.4070    -1.0180 C.3   1 <1>   0.0210 
 18 C       -2.9260    -1.8180     1.0310 C.3   1 <1>  -0.0590 
 19 C        3.5090     5.2390     0.2130 C.3   1 <1>  -0.2400 
 20 H        0.6590    -0.3810     0.6710 H     1 <1>   0.3700 
 21 H        2.0000    -2.6550     1.7300 H     1 <1>   0.0800 
 22 H        2.4160    -3.4180     0.2130 H     1 <1>   0.0800 
 23 H        4.5430     0.8290     0.5440 H     1 <1>   0.0800 
 24 H        4.9580     2.4430     0.0540 H     1 <1>   0.0800 
 25 H        4.7120     1.2000    -1.1550 H     1 <1>   0.0800 
 26 H       -2.2560    -3.6040    -1.1790 H     1 <1>   0.1500 
 27 H        1.3160    -3.6930    -2.2070 H     1 <1>   0.0800 
 28 H       -0.0880    -4.7160    -2.3720 H     1 <1>   0.0800 
 29 H        1.1250    -5.0990    -1.1780 H     1 <1>   0.0800 
 30 H        2.5240     5.0020    -1.6770 H     1 <1>   0.0800 
 31 H        4.0180     4.1230    -1.5570 H     1 <1>   0.0800 
 32 H       -3.0550    -2.0890     2.0630 H     1 <1>   0.0800 
 33 H       -3.7440    -2.2120     0.4580 H     1 <1>   0.0800 
 34 H       -2.9210    -0.7470     0.9490 H     1 <1>   0.0800 
 35 H        2.6190     5.5410     0.7350 H     1 <1>   0.0800 
 36 H        4.0510     6.1180    -0.0850 H     1 <1>   0.0800 
 37 H        4.1210     4.6620     0.8830 H     1 <1>   0.0800 
@<TRIPOS>BOND
  1   1   2  2   
  2   2   3  am  
  3   2   4  1   
  4   3   5  1   
  5   3  20  1   
  6   4   6  1   
  7   4  21  1   
  8   4  22  1   
  9   5   7  1   
 10   5   8  2   
 11   6   9  1   
 12   6  10  1   
 13   7  11  1   
 14   8  12  1   
 15   8  13  1   
 16   9  14  2   
 17  10  15  2   
 18  10  16  1   
 19  11  12  2   
 20  12  17  1   
 21  13  23  1   
 22  13  24  1   
 23  13  25  1   
 24  14  15  1   
 25  14  18  1   
 26  15  26  1   
 27  16  27  1   
 28  16  28  1   
 29  16  29  1   
 30  17  19  1   
 31  17  30  1   
 32  17  31  1   
 33  18  32  1   
 34  18  33  1   
 35  18  34  1   
 36  19  35  1   
 37  19  36  1   
 38  19  37  1   
@<TRIPOS>SUBSTRUCTURE
  1 ****   3 GROUP 4 **** **** 0

# MOE 2024.06 (io_trps.svl 2023.06)
