@<TRIPOS>MOLECULE
NONAME
42 45 1 0 0 
SMALL
USER_CHARGES


@<TRIPOS>ATOM
  1 S       -1.1400     0.5970     2.4800 S.3   1 <1>  -0.0800 
  2 C       -1.4660     0.9880     0.8070 C.2   1 <1>   0.1980 
  3 C       -1.3840    -1.0800     2.1040 C.2   1 <1>  -0.1100 
  4 N       -1.7330    -0.0250     0.0820 N.2   1 <1>  -0.5650 
  5 C       -1.4240     2.4610     0.4010 C.3   1 <1>   0.2900 
  6 C       -1.6860    -1.2250     0.7970 C.2   1 <1>   0.1730 
  7 N       -0.0840     2.9560    -0.0010 N.3   1 <1>  -0.8100 
  8 C       -1.9560    -2.4770     0.1080 C.ar  1 <1>   0.0540 
  9 C        0.8600     3.0530     1.1400 C.3   1 <1>   0.1100 
 10 C        0.4410     2.1990    -1.1610 C.3   1 <1>   0.1100 
 11 C       -2.6830    -2.5140    -1.0830 C.ar  1 <1>  -0.1500 
 12 C       -1.5020    -3.6950     0.6150 C.ar  1 <1>  -0.1500 
 13 C        2.1740     3.8370     0.8640 C.3   1 <1>   0.2200 
 14 C        1.6670     2.8440    -1.8400 C.3   1 <1>  -0.0190 
 15 C       -2.9490    -3.7050    -1.7330 C.ar  1 <1>  -0.1500 
 16 C       -1.7640    -4.8900    -0.0300 C.ar  1 <1>  -0.1500 
 17 N        2.0710     4.7500    -0.3050 N.am  1 <1>  -0.7300 
 18 C        3.3830     2.8930     0.6930 C.3   1 <1>   0.1200 
 19 C        1.7940     4.3300    -1.5570 C.2   1 <1>   0.5690 
 20 C        2.9860     2.1190    -1.5220 C.3   1 <1>   0.1200 
 21 C       -2.4910    -4.8980    -1.2060 C.ar  1 <1>  -0.1500 
 22 O        3.1220     1.8180    -0.1650 O.3   1 <1>  -0.5600 
 23 O        1.6790     5.1260    -2.4560 O.2   1 <1>  -0.5700 
 24 H       -1.2810    -1.7920     2.9010 H     1 <1>   0.1500 
 25 H       -1.7990     3.0630     1.2090 H     1 <1>   0.0800 
 26 H       -2.0950     2.5940    -0.4290 H     1 <1>   0.0800 
 27 H        0.3580     3.5550     1.9490 H     1 <1>   0.0800 
 28 H        1.1070     2.0650     1.4890 H     1 <1>   0.0800 
 29 H        0.6760     1.1890    -0.8650 H     1 <1>   0.0800 
 30 H       -0.3410     2.1400    -1.8990 H     1 <1>   0.0800 
 31 H       -3.0460    -1.5930    -1.5030 H     1 <1>   0.1500 
 32 H       -0.9290    -3.7120     1.5240 H     1 <1>   0.1500 
 33 H        2.3810     4.4430     1.7280 H     1 <1>   0.0800 
 34 H        1.5270     2.7470    -2.9000 H     1 <1>   0.0800 
 35 H       -3.5140    -3.7030    -2.6490 H     1 <1>   0.1500 
 36 H       -1.4020    -5.8160     0.3830 H     1 <1>   0.1500 
 37 H        2.0030     5.7520    -0.1350 H     1 <1>   0.3700 
 38 H        3.6270     2.4640     1.6480 H     1 <1>   0.0800 
 39 H        4.2440     3.4300     0.3350 H     1 <1>   0.0800 
 40 H        3.8360     2.6990    -1.8410 H     1 <1>   0.0800 
 41 H        3.0040     1.1790    -2.0450 H     1 <1>   0.0800 
 42 H       -2.6970    -5.8270    -1.7100 H     1 <1>   0.1500 
@<TRIPOS>BOND
  1   1   2  1   
  2   1   3  1   
  3   2   4  2   
  4   2   5  1   
  5   3   6  2   
  6   3  24  1   
  7   4   6  1   
  8   5   7  1   
  9   5  25  1   
 10   5  26  1   
 11   6   8  1   
 12   7   9  1   
 13   7  10  1   
 14   8  11  ar  
 15   8  12  ar  
 16   9  13  1   
 17   9  27  1   
 18   9  28  1   
 19  10  14  1   
 20  10  29  1   
 21  10  30  1   
 22  11  15  ar  
 23  11  31  1   
 24  12  16  ar  
 25  12  32  1   
 26  13  17  1   
 27  13  18  1   
 28  13  33  1   
 29  14  19  1   
 30  14  20  1   
 31  14  34  1   
 32  15  21  ar  
 33  15  35  1   
 34  16  21  ar  
 35  16  36  1   
 36  17  19  am  
 37  17  37  1   
 38  18  22  1   
 39  18  38  1   
 40  18  39  1   
 41  19  23  2   
 42  20  22  1   
 43  20  40  1   
 44  20  41  1   
 45  21  42  1   
@<TRIPOS>SUBSTRUCTURE
  1 ****   2 GROUP 4 **** **** 0

# MOE 2024.06 (io_trps.svl 2023.06)
