@<TRIPOS>MOLECULE
NONAME
49 52 1 0 0 
SMALL
USER_CHARGES


@<TRIPOS>ATOM
  1 O       -0.6850     0.8280    -1.1780 O.2   1 <1>  -0.5700 
  2 C       -1.6720     1.3170    -0.6560 C.2   1 <1>   0.7160 
  3 N       -2.9010     0.7280    -0.8820 N.am  1 <1>  -0.6600 
  4 C       -1.5380     2.4870     0.1900 C.2   1 <1>  -0.0860 
  5 C       -4.0610     0.8760     0.0380 C.3   1 <1>   0.1400 
  6 C       -3.1120    -0.2650    -1.9700 C.3   1 <1>   0.1400 
  7 C       -0.6420     2.7560     1.1990 C.2   1 <1>  -0.3320 
  8 C       -2.3530     3.6370     0.1120 C.2   1 <1>  -0.1500 
  9 C       -4.3730    -0.4820     0.6700 C.3   1 <1>  -0.1600 
 10 C       -3.4200    -1.6320    -1.3560 C.3   1 <1>  -0.1600 
 11 N       -0.8790     3.9820     1.7190 N.pl3 1 <1>   0.0330 
 12 C        0.4810     1.8700     1.7110 C.3   1 <1>  -0.0600 
 13 C       -1.9310     4.5190     1.0510 C.2   1 <1>  -0.3020 
 14 C       -4.6120    -1.5720    -0.3900 C.3   1 <1>   0.4240 
 15 O       -5.7100    -1.1770    -1.1800 O.3   1 <1>  -0.5600 
 16 C       -4.8440    -2.9500     0.2670 C.ar  1 <1>  -0.1430 
 17 C       -6.9860    -1.4660    -0.7000 C.3   1 <1>   0.1200 
 18 C       -6.0570    -3.6190     0.1300 C.ar  1 <1>  -0.1430 
 19 C       -3.8390    -3.5490     1.0190 C.ar  1 <1>  -0.1500 
 20 C       -7.1710    -2.9800    -0.6740 C.3   1 <1>  -0.0170 
 21 C       -6.2540    -4.8570     0.7210 C.ar  1 <1>  -0.1500 
 22 C       -4.0350    -4.7830     1.6120 C.ar  1 <1>  -0.1500 
 23 C       -5.2400    -5.4470     1.4680 C.ar  1 <1>   0.0830 
 24 O       -5.3500    -6.6540     2.0780 O.3   1 <1>  -0.3620 
 25 C       -6.5280    -7.4220     1.9750 C.3   1 <1>   0.0400 
 26 H       -4.9110     1.2300    -0.5210 H     1 <1>   0.0800 
 27 H       -3.8490     1.5850     0.8180 H     1 <1>   0.0800 
 28 H       -2.2410    -0.3350    -2.5990 H     1 <1>   0.0800 
 29 H       -3.9370     0.0570    -2.5840 H     1 <1>   0.0800 
 30 H       -3.1580     3.7590    -0.5920 H     1 <1>   0.1500 
 31 H       -5.2260    -0.4010     1.3160 H     1 <1>   0.0800 
 32 H       -3.5390    -0.7610     1.2870 H     1 <1>   0.0800 
 33 H       -2.5390    -1.9690    -0.8430 H     1 <1>   0.0800 
 34 H       -3.6320    -2.3420    -2.1330 H     1 <1>   0.0800 
 35 H       -0.3540     4.4320     2.4770 H     1 <1>   0.2700 
 36 H        0.4840     0.9250     1.1980 H     1 <1>   0.0800 
 37 H        0.3590     1.6850     2.7630 H     1 <1>   0.0800 
 38 H        1.4310     2.3470     1.5450 H     1 <1>   0.0800 
 39 H       -2.3170     5.4980     1.2750 H     1 <1>   0.1500 
 40 H       -7.6990    -1.0110    -1.3650 H     1 <1>   0.0800 
 41 H       -7.1010    -1.0450     0.2830 H     1 <1>   0.0800 
 42 H       -2.8900    -3.0600     1.1520 H     1 <1>   0.1500 
 43 H       -7.1560    -3.3600    -1.6800 H     1 <1>   0.0800 
 44 H       -8.1260    -3.2120    -0.2380 H     1 <1>   0.0800 
 45 H       -7.1980    -5.3500     0.5930 H     1 <1>   0.1500 
 46 H       -3.2530    -5.2400     2.1900 H     1 <1>   0.1500 
 47 H       -6.3810    -8.3330     2.5270 H     1 <1>   0.0800 
 48 H       -6.7090    -7.6470     0.9390 H     1 <1>   0.0800 
 49 H       -7.3450    -6.8660     2.3990 H     1 <1>   0.0800 
@<TRIPOS>BOND
  1   1   2  2   
  2   2   3  am  
  3   2   4  1   
  4   3   5  1   
  5   3   6  1   
  6   4   7  2   
  7   4   8  1   
  8   5   9  1   
  9   5  26  1   
 10   5  27  1   
 11   6  10  1   
 12   6  28  1   
 13   6  29  1   
 14   7  11  1   
 15   7  12  1   
 16   8  13  2   
 17   8  30  1   
 18   9  14  1   
 19   9  31  1   
 20   9  32  1   
 21  10  14  1   
 22  10  33  1   
 23  10  34  1   
 24  11  13  1   
 25  11  35  1   
 26  12  36  1   
 27  12  37  1   
 28  12  38  1   
 29  13  39  1   
 30  14  15  1   
 31  14  16  1   
 32  15  17  1   
 33  16  18  ar  
 34  16  19  ar  
 35  17  20  1   
 36  17  40  1   
 37  17  41  1   
 38  18  20  1   
 39  18  21  ar  
 40  19  22  ar  
 41  19  42  1   
 42  20  43  1   
 43  20  44  1   
 44  21  23  ar  
 45  21  45  1   
 46  22  23  ar  
 47  22  46  1   
 48  23  24  1   
 49  24  25  1   
 50  25  47  1   
 51  25  48  1   
 52  25  49  1   
@<TRIPOS>SUBSTRUCTURE
  1 ****   9 GROUP 4 **** **** 0

# MOE 2024.06 (io_trps.svl 2023.06)
