@<TRIPOS>MOLECULE
NONAME
44 46 1 0 0 
SMALL
USER_CHARGES


@<TRIPOS>ATOM
  1 CL      -0.2270     0.1960    -1.1130 Cl    1 <1>  -0.1770 
  2 C       -1.8670     0.5880    -0.6670 C.ar  1 <1>   0.1770 
  3 C       -2.1010     1.3660     0.4500 C.ar  1 <1>  -0.1500 
  4 C       -2.9130     0.1170    -1.4370 C.ar  1 <1>  -0.1500 
  5 C       -3.4050     1.6730     0.7980 C.ar  1 <1>  -0.1500 
  6 C       -4.2120     0.4330    -1.0800 C.ar  1 <1>  -0.1500 
  7 C       -4.4880     1.2120     0.0460 C.ar  1 <1>   0.0530 
  8 C       -5.8340     1.5580     0.4260 C.2   1 <1>   0.0870 
  9 O       -6.1020     2.7980     0.7480 O.3   1 <1>  -0.0190 
 10 C       -6.9930     0.8530     0.5600 C.2   1 <1>  -0.0860 
 11 N       -7.3530     2.9860     1.0710 N.2   1 <1>  -0.4100 
 12 C       -7.9090     1.8390     0.9520 C.2   1 <1>   0.3720 
 13 C       -7.2710    -0.5440     0.4070 C.2   1 <1>   0.7160 
 14 N       -9.2670     1.6940     1.1990 N.pl3 1 <1>  -0.8520 
 15 O       -6.4930    -1.2950    -0.1490 O.2   1 <1>  -0.5700 
 16 N       -8.4300    -1.0620     0.8930 N.am  1 <1>  -0.7300 
 17 C      -10.1000     1.6600    -0.0350 C.3   1 <1>   0.2090 
 18 C       -8.9380    -2.4260     0.6800 C.3   1 <1>   0.2350 
 19 C      -11.5570     1.3620     0.3180 C.3   1 <1>   0.1200 
 20 C      -10.3960    -2.3280     0.2330 C.3   1 <1>  -0.1950 
 21 O      -12.3010     1.3320    -0.8590 O.3   1 <1>  -0.5600 
 22 C      -10.9800    -3.3520    -0.6890 C.3   1 <1>  -0.2000 
 23 C      -10.7480    -1.9480    -1.1710 C.3   1 <1>  -0.2000 
 24 C      -13.6470     1.0350    -0.6690 C.3   1 <1>   0.0400 
 25 H       -1.2730     1.7230     1.0340 H     1 <1>   0.1500 
 26 H       -2.7110    -0.4880    -2.3030 H     1 <1>   0.1500 
 27 H       -3.5920     2.2800     1.6680 H     1 <1>   0.1500 
 28 H       -5.0260     0.0700    -1.6830 H     1 <1>   0.1500 
 29 H       -9.5470     2.5190     1.7440 H     1 <1>   0.4000 
 30 H       -9.0880    -0.3830     1.2940 H     1 <1>   0.3700 
 31 H       -9.7360     0.8950    -0.7000 H     1 <1>   0.0800 
 32 H      -10.0400     2.6130    -0.5350 H     1 <1>   0.0800 
 33 H       -8.8660    -2.9870     1.5960 H     1 <1>   0.0800 
 34 H       -8.3510    -2.9250    -0.0740 H     1 <1>   0.0800 
 35 H      -11.9550     2.1340     0.9540 H     1 <1>   0.0800 
 36 H      -11.6340     0.4030     0.7980 H     1 <1>   0.0800 
 37 H      -11.0390    -1.9860     1.0250 H     1 <1>   0.1000 
 38 H      -11.9930    -3.6790    -0.5290 H     1 <1>   0.1000 
 39 H      -10.3520    -4.1340    -1.0820 H     1 <1>   0.1000 
 40 H       -9.9540    -1.7670    -1.8750 H     1 <1>   0.1000 
 41 H      -11.6000    -1.3130    -1.3440 H     1 <1>   0.1000 
 42 H      -14.1290     1.0380    -1.6310 H     1 <1>   0.0800 
 43 H      -14.0930     1.7860    -0.0390 H     1 <1>   0.0800 
 44 H      -13.7370     0.0600    -0.2220 H     1 <1>   0.0800 
@<TRIPOS>BOND
  1   1   2  1   
  2   2   3  ar  
  3   2   4  ar  
  4   3   5  ar  
  5   3  25  1   
  6   4   6  ar  
  7   4  26  1   
  8   5   7  ar  
  9   5  27  1   
 10   6   7  ar  
 11   6  28  1   
 12   7   8  1   
 13   8   9  1   
 14   8  10  2   
 15   9  11  1   
 16  10  12  1   
 17  10  13  1   
 18  11  12  2   
 19  12  14  1   
 20  13  15  2   
 21  13  16  am  
 22  14  17  1   
 23  14  29  1   
 24  16  18  1   
 25  16  30  1   
 26  17  19  1   
 27  17  31  1   
 28  17  32  1   
 29  18  20  1   
 30  18  33  1   
 31  18  34  1   
 32  19  21  1   
 33  19  35  1   
 34  19  36  1   
 35  20  22  1   
 36  20  23  1   
 37  20  37  1   
 38  21  24  1   
 39  22  23  1   
 40  22  38  1   
 41  22  39  1   
 42  23  40  1   
 43  23  41  1   
 44  24  42  1   
 45  24  43  1   
 46  24  44  1   
@<TRIPOS>SUBSTRUCTURE
  1 ****  10 GROUP 4 **** **** 0

# MOE 2024.06 (io_trps.svl 2023.06)
