@<TRIPOS>MOLECULE
NONAME
42 44 1 0 0 
SMALL
USER_CHARGES


@<TRIPOS>ATOM
  1 S       -2.7530    -0.3910    -2.0080 S.3   1 <1>  -0.0800 
  2 C       -1.6940    -1.4450    -1.1110 C.2   1 <1>  -0.1400 
  3 C       -1.4050     0.6880    -2.2770 C.2   1 <1>   0.2280 
  4 C       -0.4610    -0.9080    -1.1060 C.2   1 <1>   0.0460 
  5 C       -2.2860    -2.7180    -0.5230 C.3   1 <1>   0.0200 
  6 N       -0.3080     0.3040    -1.7610 N.2   1 <1>  -0.5650 
  7 C        0.7840    -1.4860    -0.4670 C.3   1 <1>  -0.0590 
  8 C       -3.4380    -2.4000     0.4360 C.3   1 <1>   0.2090 
  9 N       -3.8760    -3.5980     1.2050 N.pl3 1 <1>  -0.8380 
 10 C       -4.4150    -4.6720     0.5080 C.ar  1 <1>   0.1000 
 11 C       -3.1140    -3.8700     2.4570 C.3   1 <1>   0.1290 
 12 C       -3.6770    -5.7750     0.0820 C.ar  1 <1>  -0.1790 
 13 C       -5.7770    -4.6790     0.1560 C.ar  1 <1>   0.0000 
 14 C       -2.2800    -5.9790     0.3370 C.2   1 <1>   0.9790 
 15 C       -4.3120    -6.7640    -0.6830 C.ar  1 <1>   0.1600 
 16 C       -6.2710    -5.7170    -0.6010 C.ar  1 <1>   0.1050 
 17 C       -6.9050    -3.8600     0.3730 C.2   1 <1>   0.1080 
 18 O       -1.4490    -5.8020    -0.5720 O.co2 1 <1>  -0.9000 
 19 O       -1.8720    -6.3890     1.4400 O.co2 1 <1>  -0.9000 
 20 N       -5.5720    -6.7810    -1.0450 N.ar  1 <1>  -0.5670 
 21 N       -7.5900    -5.4520    -0.7990 N.pl3 1 <1>   0.3140 
 22 N       -7.9780    -4.3050    -0.1940 N.2   1 <1>  -0.7070 
 23 C       -6.9040    -2.5920     1.1970 C.3   1 <1>  -0.0590 
 24 C       -8.5240    -6.2910    -1.5560 C.3   1 <1>   0.0160 
 25 H       -1.5980     1.5790    -2.8470 H     1 <1>   0.1500 
 26 H       -1.5220    -3.2530     0.0080 H     1 <1>   0.0800 
 27 H       -2.6400    -3.3490    -1.3190 H     1 <1>   0.0800 
 28 H        0.5820    -2.4370    -0.0100 H     1 <1>   0.0800 
 29 H        1.1540    -0.8100     0.2820 H     1 <1>   0.0800 
 30 H        1.5400    -1.6220    -1.2170 H     1 <1>   0.0800 
 31 H       -4.2720    -2.0280    -0.1320 H     1 <1>   0.0800 
 32 H       -3.1300    -1.6320     1.1230 H     1 <1>   0.0800 
 33 H       -3.3180    -3.1050     3.1840 H     1 <1>   0.0800 
 34 H       -2.0580    -3.8990     2.2520 H     1 <1>   0.0800 
 35 H       -3.4050    -4.8240     2.8630 H     1 <1>   0.0800 
 36 H       -3.6940    -7.5860    -1.0060 H     1 <1>   0.1500 
 37 H       -6.3170    -2.7360     2.0850 H     1 <1>   0.0800 
 38 H       -7.9090    -2.3400     1.4800 H     1 <1>   0.0800 
 39 H       -6.4890    -1.7880     0.6210 H     1 <1>   0.0800 
 40 H       -8.1310    -6.4460    -2.5430 H     1 <1>   0.0800 
 41 H       -9.4760    -5.7970    -1.6130 H     1 <1>   0.0800 
 42 H       -8.6290    -7.2340    -1.0540 H     1 <1>   0.0800 
@<TRIPOS>BOND
  1   1   2  1   
  2   1   3  1   
  3   2   4  2   
  4   2   5  1   
  5   3   6  2   
  6   3  25  1   
  7   4   6  1   
  8   4   7  1   
  9   5   8  1   
 10   5  26  1   
 11   5  27  1   
 12   7  28  1   
 13   7  29  1   
 14   7  30  1   
 15   8   9  1   
 16   8  31  1   
 17   8  32  1   
 18   9  10  1   
 19   9  11  1   
 20  10  12  ar  
 21  10  13  ar  
 22  11  33  1   
 23  11  34  1   
 24  11  35  1   
 25  12  14  1   
 26  12  15  ar  
 27  13  16  ar  
 28  13  17  1   
 29  14  18  ar  
 30  14  19  ar  
 31  15  20  ar  
 32  15  36  1   
 33  16  20  ar  
 34  16  21  1   
 35  17  22  2   
 36  17  23  1   
 37  21  22  1   
 38  21  24  1   
 39  23  37  1   
 40  23  38  1   
 41  23  39  1   
 42  24  40  1   
 43  24  41  1   
 44  24  42  1   
@<TRIPOS>SUBSTRUCTURE
  1 ****  10 GROUP 4 **** **** 0

# MOE 2024.06 (io_trps.svl 2023.06)
