@<TRIPOS>MOLECULE
NONAME
50 52 1 0 0 
SMALL
USER_CHARGES


@<TRIPOS>ATOM
  1 O       -0.0490     3.7140    -3.0240 O.2   1 <1>  -0.5700 
  2 C       -0.2500     3.6320    -1.8300 C.2   1 <1>   0.5440 
  3 N        0.7620     3.9930    -0.9960 N.am  1 <1>  -0.7300 
  4 C       -1.5050     3.1430    -1.3070 C.ar  1 <1>   0.0860 
  5 C        0.7370     4.0210     0.4840 C.3   1 <1>   0.1400 
  6 C       -2.5480     4.0110    -0.9800 C.ar  1 <1>   0.0830 
  7 C       -1.6860     1.7800    -1.0770 C.ar  1 <1>  -0.1500 
  8 C        2.1400     4.2620     1.0560 C.3   1 <1>   0.1400 
  9 O       -2.3920     5.3260    -1.2600 O.3   1 <1>  -0.3630 
 10 C       -3.7300     3.5330    -0.4050 C.ar  1 <1>   0.0830 
 11 C       -2.8520     1.2960    -0.5180 C.ar  1 <1>  -0.1500 
 12 N        2.5930     5.6770     0.8920 N.am  1 <1>  -0.6600 
 13 C       -2.3990     6.2590    -0.1980 C.3   1 <1>   0.3010 
 14 O       -4.7090     4.4300    -0.0920 O.3   1 <1>  -0.3630 
 15 C       -3.8710     2.1680    -0.1750 C.ar  1 <1>  -0.1500 
 16 C        3.2320     6.0840    -0.2510 C.2   1 <1>   0.5690 
 17 C        2.2640     6.5620     2.0480 C.3   1 <1>   0.0600 
 18 C       -1.1350     7.1000    -0.2690 C.2   1 <1>   0.0460 
 19 C       -6.0200     4.0090     0.2170 C.3   1 <1>   0.0400 
 20 O        3.2600     5.3910    -1.2410 O.2   1 <1>  -0.5700 
 21 C        3.9760     7.4110    -0.3320 C.3   1 <1>  -0.0990 
 22 N       -0.8330     7.9950     0.6780 N.2   1 <1>  -0.2270 
 23 C       -0.1750     7.1010    -1.2060 C.2   1 <1>  -0.3020 
 24 C        3.1390     8.6760    -0.6260 C.3   1 <1>  -0.1600 
 25 N        0.2790     8.5550     0.3480 N.2   1 <1>  -0.4180 
 26 N        0.7070     8.0100    -0.8010 N.pl3 1 <1>   0.3140 
 27 C        1.9120     8.4600    -1.5370 C.3   1 <1>   0.0960 
 28 H        1.5990     4.4240    -1.4240 H     1 <1>   0.3700 
 29 H        0.3710     3.0740     0.8390 H     1 <1>   0.0800 
 30 H        0.0690     4.7930     0.8230 H     1 <1>   0.0800 
 31 H       -0.8930     1.1020    -1.3440 H     1 <1>   0.1500 
 32 H        2.8380     3.5980     0.5730 H     1 <1>   0.0800 
 33 H        2.1370     4.0170     2.1040 H     1 <1>   0.0800 
 34 H       -2.9700     0.2390    -0.3470 H     1 <1>   0.1500 
 35 H       -2.4400     5.7340     0.7390 H     1 <1>   0.0800 
 36 H       -3.2710     6.8770    -0.3030 H     1 <1>   0.0800 
 37 H       -4.7620     1.7630     0.2660 H     1 <1>   0.1500 
 38 H        1.2000     6.5590     2.2120 H     1 <1>   0.0800 
 39 H        2.5670     7.5760     1.8710 H     1 <1>   0.0800 
 40 H        2.7580     6.2050     2.9340 H     1 <1>   0.0800 
 41 H       -6.6380     4.8850     0.3120 H     1 <1>   0.0800 
 42 H       -6.0070     3.4720     1.1480 H     1 <1>   0.0800 
 43 H       -6.3870     3.3900    -0.5830 H     1 <1>   0.0800 
 44 H        4.7000     7.3070    -1.1220 H     1 <1>   0.0800 
 45 H        4.5380     7.5530     0.5720 H     1 <1>   0.0800 
 46 H       -0.0770     6.5210    -2.1060 H     1 <1>   0.1500 
 47 H        3.7890     9.3820    -1.1120 H     1 <1>   0.0800 
 48 H        2.8290     9.1400     0.2930 H     1 <1>   0.0800 
 49 H        2.1390     7.7450    -2.3080 H     1 <1>   0.0800 
 50 H        1.6580     9.3910    -2.0100 H     1 <1>   0.0800 
@<TRIPOS>BOND
  1   1   2  2   
  2   2   3  am  
  3   2   4  1   
  4   3   5  1   
  5   3  28  1   
  6   4   6  ar  
  7   4   7  ar  
  8   5   8  1   
  9   5  29  1   
 10   5  30  1   
 11   6   9  1   
 12   6  10  ar  
 13   7  11  ar  
 14   7  31  1   
 15   8  12  1   
 16   8  32  1   
 17   8  33  1   
 18   9  13  1   
 19  10  14  1   
 20  10  15  ar  
 21  11  15  ar  
 22  11  34  1   
 23  12  16  am  
 24  12  17  1   
 25  13  18  1   
 26  13  35  1   
 27  13  36  1   
 28  14  19  1   
 29  15  37  1   
 30  16  20  2   
 31  16  21  1   
 32  17  38  1   
 33  17  39  1   
 34  17  40  1   
 35  18  22  1   
 36  18  23  2   
 37  19  41  1   
 38  19  42  1   
 39  19  43  1   
 40  21  24  1   
 41  21  44  1   
 42  21  45  1   
 43  22  25  2   
 44  23  26  1   
 45  23  46  1   
 46  24  27  1   
 47  24  47  1   
 48  24  48  1   
 49  25  26  1   
 50  26  27  1   
 51  27  49  1   
 52  27  50  1   
@<TRIPOS>SUBSTRUCTURE
  1 ****   3 GROUP 4 **** **** 0

# MOE 2024.06 (io_trps.svl 2023.06)
