@<TRIPOS>MOLECULE
NONAME
44 46 1 0 0 
SMALL
USER_CHARGES


@<TRIPOS>ATOM
  1 CL      -1.9550    -0.1000    -0.6160 Cl    1 <1>  -0.1770 
  2 C       -2.2720    -1.7840    -0.2890 C.ar  1 <1>   0.1770 
  3 C       -3.4520    -2.3540    -0.7250 C.ar  1 <1>  -0.1500 
  4 C       -1.3370    -2.5310     0.4000 C.ar  1 <1>  -0.1500 
  5 C       -3.6970    -3.6900    -0.4640 C.ar  1 <1>  -0.1500 
  6 C       -1.5950    -3.8650     0.6570 C.ar  1 <1>  -0.1500 
  7 C       -2.7790    -4.4770     0.2360 C.ar  1 <1>   0.0530 
  8 C       -3.0090    -5.8730     0.5240 C.2   1 <1>   0.0870 
  9 O       -1.9940    -6.7070     0.4990 O.3   1 <1>  -0.0190 
 10 C       -4.1040    -6.6070     0.8540 C.2   1 <1>  -0.2330 
 11 N       -2.3310    -7.9340     0.8020 N.2   1 <1>  -0.4100 
 12 C       -3.5880    -7.8840     1.0480 C.2   1 <1>   0.3720 
 13 C       -5.5020    -6.3430     0.9420 C.2   1 <1>   1.0330 
 14 N       -4.3510    -8.9660     1.4610 N.pl3 1 <1>  -0.8520 
 15 O       -6.1050    -5.7530     0.0340 O.co2 1 <1>  -0.9000 
 16 O       -6.2270    -6.9500     1.7550 O.co2 1 <1>  -0.9000 
 17 C       -4.5430   -10.0820     0.5060 C.3   1 <1>   0.2090 
 18 C       -5.9850   -10.1530    -0.0570 C.3   1 <1>   0.0000 
 19 C       -6.3520    -8.8760    -0.8320 C.3   1 <1>   0.3430 
 20 C       -7.0630   -10.2680     1.0420 C.3   1 <1>  -0.1600 
 21 C       -6.0960   -11.3620    -1.0060 C.3   1 <1>  -0.2400 
 22 N       -7.5680    -8.3310    -0.1810 N.4   1 <1>  -0.9590 
 23 C       -8.2250    -9.4120     0.5620 C.3   1 <1>   0.3430 
 24 C       -8.4090    -7.4720    -1.0500 C.3   1 <1>   0.2630 
 25 H       -4.1700    -1.7590    -1.2610 H     1 <1>   0.1500 
 26 H       -0.4230    -2.0700     0.7300 H     1 <1>   0.1500 
 27 H       -4.6130    -4.1270    -0.8150 H     1 <1>   0.1500 
 28 H       -0.8700    -4.4490     1.1970 H     1 <1>   0.1500 
 29 H       -5.2470    -8.5870     1.8260 H     1 <1>   0.4000 
 30 H       -4.3140   -11.0000     1.0200 H     1 <1>   0.0800 
 31 H       -3.8380    -9.9830    -0.3040 H     1 <1>   0.0800 
 32 H       -6.5590    -9.1160    -1.8610 H     1 <1>   0.0800 
 33 H       -5.5530    -8.1530    -0.7980 H     1 <1>   0.0800 
 34 H       -6.7210    -9.8590     1.9760 H     1 <1>   0.0800 
 35 H       -7.3750   -11.2810     1.2240 H     1 <1>   0.0800 
 36 H       -5.3940   -11.2720    -1.8180 H     1 <1>   0.0800 
 37 H       -7.0860   -11.4370    -1.4230 H     1 <1>   0.0800 
 38 H       -5.8820   -12.2770    -0.4800 H     1 <1>   0.0800 
 39 H       -7.1910    -7.6680     0.5510 H     1 <1>   0.4500 
 40 H       -8.8040    -9.0260     1.3860 H     1 <1>   0.0800 
 41 H       -8.8560    -9.9810    -0.1000 H     1 <1>   0.0800 
 42 H       -8.8040    -8.0380    -1.8760 H     1 <1>   0.0800 
 43 H       -7.8150    -6.6550    -1.4290 H     1 <1>   0.0800 
 44 H       -9.2230    -7.0570    -0.4790 H     1 <1>   0.0800 
@<TRIPOS>BOND
  1   1   2  1   
  2   2   3  ar  
  3   2   4  ar  
  4   3   5  ar  
  5   3  25  1   
  6   4   6  ar  
  7   4  26  1   
  8   5   7  ar  
  9   5  27  1   
 10   6   7  ar  
 11   6  28  1   
 12   7   8  1   
 13   8   9  1   
 14   8  10  2   
 15   9  11  1   
 16  10  12  1   
 17  10  13  1   
 18  11  12  2   
 19  12  14  1   
 20  13  15  ar  
 21  13  16  ar  
 22  14  17  1   
 23  14  29  1   
 24  17  18  1   
 25  17  30  1   
 26  17  31  1   
 27  18  19  1   
 28  18  20  1   
 29  18  21  1   
 30  19  22  1   
 31  19  32  1   
 32  19  33  1   
 33  20  23  1   
 34  20  34  1   
 35  20  35  1   
 36  21  36  1   
 37  21  37  1   
 38  21  38  1   
 39  22  23  1   
 40  22  24  1   
 41  22  39  1   
 42  23  40  1   
 43  23  41  1   
 44  24  42  1   
 45  24  43  1   
 46  24  44  1   
@<TRIPOS>SUBSTRUCTURE
  1 ****  10 GROUP 4 **** **** 0

# MOE 2024.06 (io_trps.svl 2023.06)
