@<TRIPOS>MOLECULE
NONAME
39 40 1 0 0 
SMALL
USER_CHARGES


@<TRIPOS>ATOM
  1 S        0.6770    -0.6040     0.2920 S.o2  1 <1>   1.3330 
  2 O        1.5470    -1.1420     1.3090 O.2   1 <1>  -0.6500 
  3 O        0.9730    -0.8270    -1.1050 O.2   1 <1>  -0.6500 
  4 N       -0.8050    -1.3190     0.6170 N.am  1 <1>  -0.9140 
  5 C        0.3870     1.1660     0.5960 C.3   1 <1>   0.0250 
  6 C       -1.0970    -2.4830    -0.2110 C.3   1 <1>   0.2760 
  7 C       -0.7060     1.7710    -0.3080 C.3   1 <1>  -0.2400 
  8 C        1.6670     2.0110     0.4560 C.3   1 <1>  -0.2400 
  9 C       -2.5220    -2.9270     0.0780 C.3   1 <1>  -0.0800 
 10 C       -0.3040    -3.7040     0.2590 C.3   1 <1>   0.1200 
 11 C       -2.3470    -3.8120     1.3190 C.3   1 <1>   0.1200 
 12 C       -3.1260    -3.7020    -1.1100 C.3   1 <1>  -0.0160 
 13 O       -1.0090    -4.2160     1.3500 O.3   1 <1>  -0.5600 
 14 C       -4.5570    -4.1330    -0.8260 C.ar  1 <1>  -0.1440 
 15 C       -4.8840    -5.4420    -0.5330 C.ar  1 <1>  -0.1500 
 16 C       -5.6050    -3.2340    -0.8490 C.ar  1 <1>  -0.1500 
 17 C       -6.2040    -5.7770    -0.2790 C.ar  1 <1>   0.1600 
 18 C       -6.8900    -3.6740    -0.5800 C.ar  1 <1>   0.1600 
 19 N       -7.2140    -4.9240    -0.2940 N.ar  1 <1>  -0.6200 
 20 H       -0.6820    -1.6990     1.5580 H     1 <1>   0.4200 
 21 H        0.0530     1.2660     1.6120 H     1 <1>   0.0800 
 22 H       -0.9490    -2.2640    -1.2560 H     1 <1>   0.0800 
 23 H       -0.4150     1.7000    -1.3420 H     1 <1>   0.0800 
 24 H       -0.8710     2.8050    -0.0630 H     1 <1>   0.0800 
 25 H       -1.6310     1.2380    -0.1770 H     1 <1>   0.0800 
 26 H        2.0420     1.9570    -0.5520 H     1 <1>   0.0800 
 27 H        2.4270     1.6390     1.1210 H     1 <1>   0.0800 
 28 H        1.4730     3.0400     0.7010 H     1 <1>   0.0800 
 29 H       -3.1560    -2.0850     0.2960 H     1 <1>   0.0800 
 30 H        0.7050    -3.4770     0.5540 H     1 <1>   0.0800 
 31 H       -0.2890    -4.4610    -0.5040 H     1 <1>   0.0800 
 32 H       -2.9740    -4.6860     1.3090 H     1 <1>   0.0800 
 33 H       -2.5360    -3.2500     2.2170 H     1 <1>   0.0800 
 34 H       -2.5290    -4.5680    -1.3350 H     1 <1>   0.0800 
 35 H       -3.1250    -3.0730    -1.9840 H     1 <1>   0.0800 
 36 H       -4.1280    -6.2050    -0.4990 H     1 <1>   0.1500 
 37 H       -5.4350    -2.1970    -1.0730 H     1 <1>   0.1500 
 38 H       -6.4400    -6.8030    -0.0520 H     1 <1>   0.1500 
 39 H       -7.6960    -2.9590    -0.6020 H     1 <1>   0.1500 
@<TRIPOS>BOND
  1   1   2  2   
  2   1   3  2   
  3   1   4  am  
  4   1   5  1   
  5   4   6  1   
  6   4  20  1   
  7   5   7  1   
  8   5   8  1   
  9   5  21  1   
 10   6   9  1   
 11   6  10  1   
 12   6  22  1   
 13   7  23  1   
 14   7  24  1   
 15   7  25  1   
 16   8  26  1   
 17   8  27  1   
 18   8  28  1   
 19   9  11  1   
 20   9  12  1   
 21   9  29  1   
 22  10  13  1   
 23  10  30  1   
 24  10  31  1   
 25  11  13  1   
 26  11  32  1   
 27  11  33  1   
 28  12  14  1   
 29  12  34  1   
 30  12  35  1   
 31  14  15  ar  
 32  14  16  ar  
 33  15  17  ar  
 34  15  36  1   
 35  16  18  ar  
 36  16  37  1   
 37  17  19  ar  
 38  17  38  1   
 39  18  19  ar  
 40  18  39  1   
@<TRIPOS>SUBSTRUCTURE
  1 ****   9 GROUP 4 **** **** 0

# MOE 2024.06 (io_trps.svl 2023.06)
