@<TRIPOS>MOLECULE
NONAME
50 53 1 0 0 
SMALL
USER_CHARGES


@<TRIPOS>ATOM
  1 S       -0.3050    -0.3350    -1.5050 S.o2  1 <1>   1.4550 
  2 O       -0.8040    -1.6220    -1.9430 O.2   1 <1>  -0.6500 
  3 O       -0.2110     0.7240    -2.4850 O.2   1 <1>  -0.6500 
  4 N       -1.3210     0.1590    -0.2390 N.am  1 <1>  -0.8490 
  5 C        1.2840    -0.6010    -0.7420 C.2   1 <1>  -0.0030 
  6 C       -2.4200     1.0280    -0.7050 C.3   1 <1>   0.1960 
  7 C       -1.8350    -0.9510     0.5670 C.3   1 <1>   0.1960 
  8 C        1.9040     0.5160    -0.1200 C.2   1 <1>   0.6160 
  9 C        1.9060    -1.8020    -0.7390 C.2   1 <1>  -0.0410 
 10 C       -3.1770     1.6590     0.4800 C.3   1 <1>   0.1440 
 11 C       -2.5540    -0.4110     1.8090 C.3   1 <1>  -0.1600 
 12 O        1.3680     1.6080    -0.0480 O.2   1 <1>  -0.5700 
 13 N        3.1640     0.3560     0.4440 N.am  1 <1>  -0.4200 
 14 N        3.1410    -1.9600    -0.1360 N.am  1 <1>  -0.4690 
 15 C       -4.3000     2.5260    -0.0620 C.ar  1 <1>   0.1670 
 16 C       -3.6900     0.5500     1.4220 C.3   1 <1>  -0.1600 
 17 C       -2.2860     2.6940     1.2210 C.3   1 <1>  -0.1600 
 18 C        3.7790    -0.8840     0.4660 C.2   1 <1>   0.6900 
 19 C        3.8510     1.5270     1.0670 C.3   1 <1>   0.0600 
 20 C        3.8050    -3.2910    -0.1400 C.3   1 <1>   0.0600 
 21 N       -5.4270     2.0870    -0.5740 N.ar  1 <1>  -0.6200 
 22 C       -3.9970     3.8520     0.0340 C.ar  1 <1>  -0.1440 
 23 C       -2.6360     4.0760     0.6450 C.3   1 <1>  -0.0170 
 24 O        4.8590    -1.0370     1.0060 O.2   1 <1>  -0.5700 
 25 C       -6.2410     3.0460    -0.9860 C.ar  1 <1>   0.7200 
 26 C       -4.9250     4.7570    -0.4210 C.ar  1 <1>   0.1600 
 27 N       -6.0690     4.3600    -0.9330 N.ar  1 <1>  -0.6200 
 28 N       -7.4030     2.6380    -1.4970 N.pl3 1 <1>  -0.9000 
 29 H       -3.1030     0.4580    -1.3130 H     1 <1>   0.0800 
 30 H       -2.0250     1.8250    -1.3130 H     1 <1>   0.0800 
 31 H       -1.0200    -1.5830     0.8790 H     1 <1>   0.0800 
 32 H       -2.5160    -1.5470    -0.0210 H     1 <1>   0.0800 
 33 H        1.4640    -2.6700    -1.2050 H     1 <1>   0.1500 
 34 H       -1.8390     0.0940     2.4340 H     1 <1>   0.0800 
 35 H       -2.9570    -1.2340     2.3710 H     1 <1>   0.0800 
 36 H       -4.4570    -0.0090     0.9140 H     1 <1>   0.0800 
 37 H       -4.1350     0.9810     2.3020 H     1 <1>   0.0800 
 38 H       -1.2350     2.4800     1.1220 H     1 <1>   0.0800 
 39 H       -2.5310     2.6950     2.2680 H     1 <1>   0.0800 
 40 H        3.6160     2.4290     0.5290 H     1 <1>   0.0800 
 41 H        4.9190     1.3950     1.0490 H     1 <1>   0.0800 
 42 H        3.5270     1.6310     2.0870 H     1 <1>   0.0800 
 43 H        3.1960    -4.0210    -0.6440 H     1 <1>   0.0800 
 44 H        3.9730    -3.6120     0.8740 H     1 <1>   0.0800 
 45 H        4.7540    -3.2180    -0.6420 H     1 <1>   0.0800 
 46 H       -1.9330     4.3530    -0.1230 H     1 <1>   0.0800 
 47 H       -2.6580     4.8310     1.4110 H     1 <1>   0.0800 
 48 H       -4.7290     5.8140    -0.3650 H     1 <1>   0.1500 
 49 H       -8.1360     3.3400    -1.5170 H     1 <1>   0.4000 
 50 H       -7.6750     1.6910    -1.2510 H     1 <1>   0.4000 
@<TRIPOS>BOND
  1   1   2  2   
  2   1   3  2   
  3   1   4  am  
  4   1   5  1   
  5   4   6  1   
  6   4   7  1   
  7   5   8  1   
  8   5   9  2   
  9   6  10  1   
 10   6  29  1   
 11   6  30  1   
 12   7  11  1   
 13   7  31  1   
 14   7  32  1   
 15   8  12  2   
 16   8  13  am  
 17   9  14  1   
 18   9  33  1   
 19  10  15  1   
 20  10  16  1   
 21  10  17  1   
 22  11  16  1   
 23  11  34  1   
 24  11  35  1   
 25  13  18  am  
 26  13  19  1   
 27  14  18  am  
 28  14  20  1   
 29  15  21  ar  
 30  15  22  ar  
 31  16  36  1   
 32  16  37  1   
 33  17  23  1   
 34  17  38  1   
 35  17  39  1   
 36  18  24  2   
 37  19  40  1   
 38  19  41  1   
 39  19  42  1   
 40  20  43  1   
 41  20  44  1   
 42  20  45  1   
 43  21  25  ar  
 44  22  23  1   
 45  22  26  ar  
 46  23  46  1   
 47  23  47  1   
 48  25  27  ar  
 49  25  28  1   
 50  26  27  ar  
 51  26  48  1   
 52  28  49  1   
 53  28  50  1   
@<TRIPOS>SUBSTRUCTURE
  1 ****   4 GROUP 4 **** **** 0

# MOE 2024.06 (io_trps.svl 2023.06)
