@<TRIPOS>MOLECULE
NONAME
55 56 1 0 0 
SMALL
USER_CHARGES


@<TRIPOS>ATOM
  1 O       -1.1220    -0.3090     1.0840 O.2   1 <1>  -0.5700 
  2 C       -1.7540     0.4480     0.3840 C.2   1 <1>   0.5690 
  3 N       -2.6500    -0.0380    -0.5450 N.am  1 <1>  -0.6600 
  4 C       -1.4650     1.9420     0.6110 C.3   1 <1>  -0.0190 
  5 C       -2.7340    -1.5160    -0.7740 C.3   1 <1>   0.2840 
  6 C       -3.5210     0.7810    -1.4400 C.3   1 <1>   0.1400 
  7 C       -2.6740     2.7750     1.0860 C.3   1 <1>  -0.1600 
  8 C       -0.7030     2.6030    -0.5650 C.3   1 <1>  -0.1600 
  9 C       -3.9780    -2.1140    -0.1320 C.ar  1 <1>  -0.1440 
 10 C       -4.9480     0.8830    -0.8870 C.3   1 <1>  -0.1600 
 11 C       -2.2610     4.1920     1.5350 C.3   1 <1>   0.2000 
 12 C       -0.8880     4.1310    -0.6270 C.3   1 <1>  -0.1600 
 13 C       -4.1710    -2.0200     1.2370 C.ar  1 <1>  -0.1500 
 14 C       -4.9290    -2.7650    -0.9040 C.ar  1 <1>  -0.1500 
 15 C       -5.7440     1.9850    -1.5940 C.3   1 <1>  -0.2400 
 16 O       -3.3490     5.0540     1.3060 O.3   1 <1>  -0.5600 
 17 C       -1.0140     4.7280     0.7770 C.3   1 <1>   0.2000 
 18 C       -5.3010    -2.5600     1.8250 C.ar  1 <1>  -0.1500 
 19 C       -6.0600    -3.3050    -0.3150 C.ar  1 <1>  -0.1500 
 20 C       -4.3600     5.0040     2.2650 C.3   1 <1>   0.0400 
 21 O       -1.1130     6.0980     0.6500 O.3   1 <1>  -0.6800 
 22 C       -6.2540    -3.2040     1.0530 C.ar  1 <1>  -0.1440 
 23 C       -7.4950    -3.7960     1.7000 C.3   1 <1>  -0.0170 
 24 C       -7.2440    -5.2470     2.1150 C.3   1 <1>  -0.2400 
 25 H       -0.7790     1.9640     1.4420 H     1 <1>   0.0800 
 26 H       -2.7380    -1.7090    -1.8320 H     1 <1>   0.0800 
 27 H       -1.8690    -2.0120    -0.3700 H     1 <1>   0.0800 
 28 H       -3.1140     1.7660    -1.5520 H     1 <1>   0.0800 
 29 H       -3.5470     0.3400    -2.4220 H     1 <1>   0.0800 
 30 H       -3.1560     2.2660     1.9020 H     1 <1>   0.0800 
 31 H       -3.3770     2.8760     0.2850 H     1 <1>   0.0800 
 32 H        0.3440     2.3800    -0.4470 H     1 <1>   0.0800 
 33 H       -1.0000     2.1790    -1.5070 H     1 <1>   0.0800 
 34 H       -5.4590    -0.0520    -1.0260 H     1 <1>   0.0800 
 35 H       -4.9190     1.0890     0.1690 H     1 <1>   0.0800 
 36 H       -2.0300     4.1950     2.5870 H     1 <1>   0.0800 
 37 H       -1.7830     4.3580    -1.1800 H     1 <1>   0.0800 
 38 H       -0.0510     4.5740    -1.1390 H     1 <1>   0.0800 
 39 H       -3.4360    -1.5240     1.8470 H     1 <1>   0.1500 
 40 H       -4.7980    -2.8540    -1.9680 H     1 <1>   0.1500 
 41 H       -5.8040     1.7880    -2.6500 H     1 <1>   0.0800 
 42 H       -5.2800     2.9440    -1.4440 H     1 <1>   0.0800 
 43 H       -6.7430     2.0260    -1.1980 H     1 <1>   0.0800 
 44 H       -0.1190     4.5120     1.3350 H     1 <1>   0.0800 
 45 H       -5.4330    -2.4780     2.8900 H     1 <1>   0.1500 
 46 H       -6.7890    -3.8070    -0.9260 H     1 <1>   0.1500 
 47 H       -5.1150     5.7190     1.9930 H     1 <1>   0.0800 
 48 H       -3.9500     5.2610     3.2270 H     1 <1>   0.0800 
 49 H       -4.7900     4.0180     2.2860 H     1 <1>   0.0800 
 50 H       -2.0780     6.2950     0.6680 H     1 <1>   0.4000 
 51 H       -7.7660    -3.2140     2.5640 H     1 <1>   0.0800 
 52 H       -8.3190    -3.7550     1.0080 H     1 <1>   0.0800 
 53 H       -6.4300    -5.2940     2.8170 H     1 <1>   0.0800 
 54 H       -6.9890    -5.8390     1.2540 H     1 <1>   0.0800 
 55 H       -8.1240    -5.6600     2.5740 H     1 <1>   0.0800 
@<TRIPOS>BOND
  1   1   2  2   
  2   2   3  am  
  3   2   4  1   
  4   3   5  1   
  5   3   6  1   
  6   4   7  1   
  7   4   8  1   
  8   4  25  1   
  9   5   9  1   
 10   5  26  1   
 11   5  27  1   
 12   6  10  1   
 13   6  28  1   
 14   6  29  1   
 15   7  11  1   
 16   7  30  1   
 17   7  31  1   
 18   8  12  1   
 19   8  32  1   
 20   8  33  1   
 21   9  13  ar  
 22   9  14  ar  
 23  10  15  1   
 24  10  34  1   
 25  10  35  1   
 26  11  16  1   
 27  11  17  1   
 28  11  36  1   
 29  12  17  1   
 30  12  37  1   
 31  12  38  1   
 32  13  18  ar  
 33  13  39  1   
 34  14  19  ar  
 35  14  40  1   
 36  15  41  1   
 37  15  42  1   
 38  15  43  1   
 39  16  20  1   
 40  17  21  1   
 41  17  44  1   
 42  18  22  ar  
 43  18  45  1   
 44  19  22  ar  
 45  19  46  1   
 46  20  47  1   
 47  20  48  1   
 48  20  49  1   
 49  21  50  1   
 50  22  23  1   
 51  23  24  1   
 52  23  51  1   
 53  23  52  1   
 54  24  53  1   
 55  24  54  1   
 56  24  55  1   
@<TRIPOS>SUBSTRUCTURE
  1 ****   3 GROUP 4 **** **** 0

# MOE 2024.06 (io_trps.svl 2023.06)
