@<TRIPOS>MOLECULE
NONAME
47 49 1 0 0 
SMALL
USER_CHARGES


@<TRIPOS>ATOM
  1 F       -2.7290     4.4810     2.1900 F     1 <1>  -0.1900 
  2 C       -1.9290     4.0940     1.2280 C.ar  1 <1>   0.1900 
  3 C       -2.2450     2.9550     0.4870 C.ar  1 <1>   0.0830 
  4 C       -0.8000     4.8510     0.9850 C.ar  1 <1>  -0.1500 
  5 O       -3.3790     2.2700     0.7940 O.3   1 <1>  -0.3630 
  6 C       -1.3820     2.5660    -0.5390 C.ar  1 <1>  -0.1500 
  7 C        0.0260     4.4340    -0.0400 C.ar  1 <1>   0.1900 
  8 C       -4.0210     1.4560    -0.1790 C.3   1 <1>   0.1810 
  9 C       -0.2420     3.3110    -0.8040 C.ar  1 <1>  -0.1500 
 10 F        1.1030     5.1280    -0.3000 F     1 <1>  -0.1900 
 11 C       -5.4020     0.9890     0.2810 C.2   1 <1>   0.5690 
 12 O       -5.6300    -0.1970     0.1900 O.2   1 <1>  -0.5700 
 13 N       -6.3520     1.8730     0.7340 N.am  1 <1>  -0.6600 
 14 C       -7.7040     1.4100     1.1580 C.3   1 <1>   0.1400 
 15 C       -6.1380     3.3500     0.8320 C.3   1 <1>   0.1400 
 16 C       -8.7960     2.0180     0.2500 C.3   1 <1>   0.0000 
 17 C       -7.4650     4.1260     0.8750 C.3   1 <1>  -0.1600 
 18 C      -10.1780     1.8130     0.8970 C.3   1 <1>   0.2000 
 19 C       -8.4990     3.5150    -0.0840 C.3   1 <1>  -0.1600 
 20 C       -8.9620     1.2230    -1.0560 C.3   1 <1>  -0.1600 
 21 O      -10.4450     2.7890     1.8610 O.3   1 <1>  -0.5600 
 22 C      -11.1870     1.8620    -0.2560 C.3   1 <1>  -0.1600 
 23 C      -10.3930     1.5100    -1.5220 C.3   1 <1>  -0.1600 
 24 C      -11.5210     2.5080     2.6990 C.3   1 <1>   0.0400 
 25 H       -0.5740     5.7250     1.5670 H     1 <1>   0.1500 
 26 H       -1.5760     1.6900    -1.1290 H     1 <1>   0.1500 
 27 H       -4.1240     2.0230    -1.0850 H     1 <1>   0.0800 
 28 H       -3.4030     0.5960    -0.3550 H     1 <1>   0.0800 
 29 H        0.4360     3.0270    -1.5900 H     1 <1>   0.1500 
 30 H       -7.7650     0.3350     1.1490 H     1 <1>   0.0800 
 31 H       -7.8670     1.7290     2.1740 H     1 <1>   0.0800 
 32 H       -5.5620     3.5690     1.7160 H     1 <1>   0.0800 
 33 H       -5.5760     3.6800    -0.0240 H     1 <1>   0.0800 
 34 H       -7.8570     4.1130     1.8780 H     1 <1>   0.0800 
 35 H       -7.2850     5.1540     0.6170 H     1 <1>   0.0800 
 36 H      -10.2080     0.8430     1.3650 H     1 <1>   0.0800 
 37 H       -8.1010     3.5990    -1.0800 H     1 <1>   0.0800 
 38 H       -9.4010     4.1000    -0.0590 H     1 <1>   0.0800 
 39 H       -8.2270     1.4780    -1.7990 H     1 <1>   0.0800 
 40 H       -8.8710     0.1690    -0.8500 H     1 <1>   0.0800 
 41 H      -11.9780     1.1530    -0.0910 H     1 <1>   0.0800 
 42 H      -11.5980     2.8510    -0.3510 H     1 <1>   0.0800 
 43 H      -10.8120     0.6590    -2.0330 H     1 <1>   0.0800 
 44 H      -10.3940     2.3530    -2.1920 H     1 <1>   0.0800 
 45 H      -11.6130     3.3160     3.4040 H     1 <1>   0.0800 
 46 H      -11.3330     1.5890     3.2250 H     1 <1>   0.0800 
 47 H      -12.4220     2.4350     2.1150 H     1 <1>   0.0800 
@<TRIPOS>BOND
  1   1   2  1   
  2   2   3  ar  
  3   2   4  ar  
  4   3   5  1   
  5   3   6  ar  
  6   4   7  ar  
  7   4  25  1   
  8   5   8  1   
  9   6   9  ar  
 10   6  26  1   
 11   7   9  ar  
 12   7  10  1   
 13   8  11  1   
 14   8  27  1   
 15   8  28  1   
 16   9  29  1   
 17  11  12  2   
 18  11  13  am  
 19  13  14  1   
 20  13  15  1   
 21  14  16  1   
 22  14  30  1   
 23  14  31  1   
 24  15  17  1   
 25  15  32  1   
 26  15  33  1   
 27  16  18  1   
 28  16  19  1   
 29  16  20  1   
 30  17  19  1   
 31  17  34  1   
 32  17  35  1   
 33  18  21  1   
 34  18  22  1   
 35  18  36  1   
 36  19  37  1   
 37  19  38  1   
 38  20  23  1   
 39  20  39  1   
 40  20  40  1   
 41  21  24  1   
 42  22  23  1   
 43  22  41  1   
 44  22  42  1   
 45  23  43  1   
 46  23  44  1   
 47  24  45  1   
 48  24  46  1   
 49  24  47  1   
@<TRIPOS>SUBSTRUCTURE
  1 ****  15 GROUP 4 **** **** 0

# MOE 2024.06 (io_trps.svl 2023.06)
