@<TRIPOS>MOLECULE
NONAME
52 55 1 0 0 
SMALL
USER_CHARGES


@<TRIPOS>ATOM
  1 O       -2.0050    -0.5850    -0.0690 O.3   1 <1>  -0.3630 
  2 C       -1.0530     0.3590    -0.2830 C.ar  1 <1>   0.0820 
  3 C       -3.0920    -0.2220     0.7690 C.3   1 <1>   0.2000 
  4 C       -0.9780     1.4990     0.5210 C.ar  1 <1>   0.0820 
  5 C       -0.1520     0.1840    -1.3200 C.ar  1 <1>  -0.1500 
  6 C       -2.5700     0.5570     1.9880 C.3   1 <1>   0.1200 
  7 C       -3.8780    -1.4850     1.1900 C.3   1 <1>   0.3430 
  8 O       -1.8350     1.6820     1.5570 O.3   1 <1>  -0.3630 
  9 C       -0.0150     2.4600     0.2700 C.ar  1 <1>  -0.1500 
 10 C        0.8140     1.1470    -1.5630 C.ar  1 <1>  -0.1500 
 11 N       -4.2130    -2.4500     0.0770 N.4   1 <1>  -0.9590 
 12 C        0.8800     2.2840    -0.7720 C.ar  1 <1>  -0.1500 
 13 C       -3.0340    -3.2670    -0.3630 C.3   1 <1>   0.3430 
 14 C       -4.8970    -1.8170    -1.0790 C.3   1 <1>   0.3430 
 15 C       -3.4670    -4.5290    -1.1430 C.3   1 <1>   0.2090 
 16 C       -6.1140    -2.6630    -1.4510 C.3   1 <1>  -0.1600 
 17 N       -4.9420    -4.8360    -1.0040 N.pl3 1 <1>  -0.8380 
 18 C       -5.7910    -4.0650    -1.9770 C.3   1 <1>   0.2090 
 19 C       -5.3640    -5.9670    -0.3610 C.ar  1 <1>   0.1000 
 20 C       -6.3450    -6.8250    -0.8870 C.ar  1 <1>  -0.1500 
 21 C       -4.8140    -6.3480     0.8730 C.ar  1 <1>  -0.1500 
 22 C       -6.7490    -7.9560    -0.2230 C.ar  1 <1>   0.2180 
 23 C       -5.2320    -7.4850     1.5180 C.ar  1 <1>   0.2110 
 24 N       -6.1910    -8.2710     0.9710 N.ar  1 <1>  -0.1790 
 25 C       -7.8100    -8.8870    -0.7880 C.3   1 <1>  -0.0970 
 26 H       -3.7340     0.4290     0.2030 H     1 <1>   0.0800 
 27 H       -0.2020    -0.6950    -1.9360 H     1 <1>   0.1500 
 28 H       -1.9170    -0.0550     2.5870 H     1 <1>   0.0800 
 29 H       -3.3800     0.9140     2.6000 H     1 <1>   0.0800 
 30 H       -4.7930    -1.1610     1.6580 H     1 <1>   0.0800 
 31 H       -3.3070    -2.0010     1.9440 H     1 <1>   0.0800 
 32 H        0.0330     3.3380     0.8890 H     1 <1>   0.1500 
 33 H        1.5160     1.0160    -2.3690 H     1 <1>   0.1500 
 34 H       -4.8810    -3.1720     0.4030 H     1 <1>   0.4500 
 35 H        1.6310     3.0310    -0.9670 H     1 <1>   0.1500 
 36 H       -2.4770    -3.5830     0.5030 H     1 <1>   0.0800 
 37 H       -2.3690    -2.6780    -0.9720 H     1 <1>   0.0800 
 38 H       -4.2240    -1.7280    -1.9170 H     1 <1>   0.0800 
 39 H       -5.2350    -0.8280    -0.8130 H     1 <1>   0.0800 
 40 H       -2.8790    -5.3660    -0.8080 H     1 <1>   0.0800 
 41 H       -3.2260    -4.3910    -2.1830 H     1 <1>   0.0800 
 42 H       -6.6540    -2.1430    -2.2230 H     1 <1>   0.0800 
 43 H       -6.7780    -2.7390    -0.6090 H     1 <1>   0.0800 
 44 H       -5.2860    -3.9960    -2.9260 H     1 <1>   0.0800 
 45 H       -6.7260    -4.5660    -2.1530 H     1 <1>   0.0800 
 46 H       -6.7780    -6.6040    -1.8440 H     1 <1>   0.1500 
 47 H       -4.0570    -5.7330     1.3200 H     1 <1>   0.1500 
 48 H       -4.8080    -7.7750     2.4670 H     1 <1>   0.1500 
 49 H       -6.4980    -9.1200     1.4590 H     1 <1>   0.4570 
 50 H       -8.1680    -8.5250    -1.7360 H     1 <1>   0.0800 
 51 H       -8.6490    -8.9530    -0.1180 H     1 <1>   0.0800 
 52 H       -7.4040    -9.8710    -0.9400 H     1 <1>   0.0800 
@<TRIPOS>BOND
  1   1   2  1   
  2   1   3  1   
  3   2   4  ar  
  4   2   5  ar  
  5   3   6  1   
  6   3   7  1   
  7   3  26  1   
  8   4   8  1   
  9   4   9  ar  
 10   5  10  ar  
 11   5  27  1   
 12   6   8  1   
 13   6  28  1   
 14   6  29  1   
 15   7  11  1   
 16   7  30  1   
 17   7  31  1   
 18   9  12  ar  
 19   9  32  1   
 20  10  12  ar  
 21  10  33  1   
 22  11  13  1   
 23  11  14  1   
 24  11  34  1   
 25  12  35  1   
 26  13  15  1   
 27  13  36  1   
 28  13  37  1   
 29  14  16  1   
 30  14  38  1   
 31  14  39  1   
 32  15  17  1   
 33  15  40  1   
 34  15  41  1   
 35  16  18  1   
 36  16  42  1   
 37  16  43  1   
 38  17  18  1   
 39  17  19  1   
 40  18  44  1   
 41  18  45  1   
 42  19  20  ar  
 43  19  21  ar  
 44  20  22  ar  
 45  20  46  1   
 46  21  23  ar  
 47  21  47  1   
 48  22  24  ar  
 49  22  25  1   
 50  23  24  ar  
 51  23  48  1   
 52  24  49  1   
 53  25  50  1   
 54  25  51  1   
 55  25  52  1   
@<TRIPOS>SUBSTRUCTURE
  1 ****  11 GROUP 4 **** **** 0

# MOE 2024.06 (io_trps.svl 2023.06)
