@<TRIPOS>MOLECULE
NONAME
53 57 1 0 0 
SMALL
USER_CHARGES


@<TRIPOS>ATOM
  1 O       -2.1320     0.2480    -0.1760 O.2   1 <1>  -0.5700 
  2 C       -2.4240     1.1570    -0.9380 C.2   1 <1>   0.7150 
  3 N       -3.4070     0.8700    -1.8580 N.am  1 <1>  -0.6600 
  4 C       -1.8650     2.4880    -0.8070 C.2   1 <1>   0.0550 
  5 C       -4.7780     1.3770    -1.5540 C.3   1 <1>   0.1400 
  6 C       -3.4290    -0.4890    -2.4930 C.3   1 <1>   0.1400 
  7 O       -2.3980     3.4860    -1.5310 O.3   1 <1>  -0.2800 
  8 C       -0.8510     2.9820    -0.0430 C.2   1 <1>  -0.1810 
  9 C       -5.4960     0.4370    -0.5460 C.3   1 <1>   0.4230 
 10 C       -4.3910    -1.4530    -1.7560 C.3   1 <1>   0.3430 
 11 C       -1.7450     4.6090    -1.2430 C.ar  1 <1>   0.1400 
 12 C       -0.7600     4.3610    -0.3090 C.ar  1 <1>   0.0000 
 13 C        0.0760     2.2840     0.9390 C.3   1 <1>  -0.0590 
 14 N       -4.7890    -0.8990    -0.4150 N.4   1 <1>  -0.9590 
 15 C       -6.9840     0.2440    -0.9210 C.3   1 <1>   0.1200 
 16 C       -1.9660     5.8770    -1.7610 C.ar  1 <1>  -0.1500 
 17 C        0.0400     5.4160     0.1340 C.ar  1 <1>  -0.1500 
 18 C       -5.5540    -1.8210     0.4770 C.3   1 <1>   0.5180 
 19 O       -7.6110    -0.6370    -0.0300 O.3   1 <1>  -0.5600 
 20 C       -1.1700     6.9130    -1.3170 C.ar  1 <1>  -0.1500 
 21 C       -0.1660     6.6860    -0.3690 C.ar  1 <1>  -0.1430 
 22 C       -4.8710    -3.1930     0.5210 C.3   1 <1>  -0.1950 
 23 C       -7.0370    -1.9150     0.0550 C.3   1 <1>   0.1200 
 24 C        0.6870     7.8530     0.0930 C.3   1 <1>  -0.0970 
 25 C       -4.7440    -3.9260     1.8210 C.3   1 <1>  -0.2000 
 26 C       -3.5210    -3.3730     1.1490 C.3   1 <1>  -0.2000 
 27 H       -4.7270     2.3710    -1.1420 H     1 <1>   0.0800 
 28 H       -5.3350     1.4440    -2.4730 H     1 <1>   0.0800 
 29 H       -3.7190    -0.4010    -3.5260 H     1 <1>   0.0800 
 30 H       -2.4350    -0.9060    -2.4770 H     1 <1>   0.0800 
 31 H       -5.4770     0.9250     0.4150 H     1 <1>   0.0800 
 32 H       -3.8960    -2.4030    -1.6380 H     1 <1>   0.0800 
 33 H       -5.2680    -1.6120    -2.3610 H     1 <1>   0.0800 
 34 H        1.0990     2.4470     0.6500 H     1 <1>   0.0800 
 35 H       -0.1030     1.2260     0.9660 H     1 <1>   0.0800 
 36 H       -0.0720     2.6830     1.9270 H     1 <1>   0.0800 
 37 H       -3.8810    -0.6940     0.0470 H     1 <1>   0.4500 
 38 H       -7.0910    -0.1450    -1.9180 H     1 <1>   0.0800 
 39 H       -7.5050     1.1840    -0.8640 H     1 <1>   0.0800 
 40 H       -2.7410     6.0300    -2.4890 H     1 <1>   0.1500 
 41 H        0.8060     5.2200     0.8620 H     1 <1>   0.1500 
 42 H       -5.5330    -1.4160     1.4760 H     1 <1>   0.0800 
 43 H       -1.3200     7.9060    -1.7030 H     1 <1>   0.1500 
 44 H       -5.1140    -3.8080    -0.3290 H     1 <1>   0.1000 
 45 H       -7.5910    -2.4730     0.7900 H     1 <1>   0.0800 
 46 H       -7.1410    -2.4060    -0.8960 H     1 <1>   0.0800 
 47 H        0.0640     8.6070     0.5390 H     1 <1>   0.0800 
 48 H        1.2060     8.2810    -0.7460 H     1 <1>   0.0800 
 49 H        1.4130     7.5350     0.8190 H     1 <1>   0.0800 
 50 H       -5.0640    -3.4660     2.7410 H     1 <1>   0.1000 
 51 H       -4.8740    -4.9960     1.8370 H     1 <1>   0.1000 
 52 H       -2.8240    -4.0700     0.7140 H     1 <1>   0.1000 
 53 H       -3.0220    -2.5410     1.6170 H     1 <1>   0.1000 
@<TRIPOS>BOND
  1   1   2  2   
  2   2   3  am  
  3   2   4  1   
  4   3   5  1   
  5   3   6  1   
  6   4   7  1   
  7   4   8  2   
  8   5   9  1   
  9   5  27  1   
 10   5  28  1   
 11   6  10  1   
 12   6  29  1   
 13   6  30  1   
 14   7  11  1   
 15   8  12  1   
 16   8  13  1   
 17   9  14  1   
 18   9  15  1   
 19   9  31  1   
 20  10  14  1   
 21  10  32  1   
 22  10  33  1   
 23  11  12  ar  
 24  11  16  ar  
 25  12  17  ar  
 26  13  34  1   
 27  13  35  1   
 28  13  36  1   
 29  14  18  1   
 30  14  37  1   
 31  15  19  1   
 32  15  38  1   
 33  15  39  1   
 34  16  20  ar  
 35  16  40  1   
 36  17  21  ar  
 37  17  41  1   
 38  18  22  1   
 39  18  23  1   
 40  18  42  1   
 41  19  23  1   
 42  20  21  ar  
 43  20  43  1   
 44  21  24  1   
 45  22  25  1   
 46  22  26  1   
 47  22  44  1   
 48  23  45  1   
 49  23  46  1   
 50  24  47  1   
 51  24  48  1   
 52  24  49  1   
 53  25  26  1   
 54  25  50  1   
 55  25  51  1   
 56  26  52  1   
 57  26  53  1   
@<TRIPOS>SUBSTRUCTURE
  1 ****   2 GROUP 4 **** **** 0

# MOE 2024.06 (io_trps.svl 2023.06)
