@<TRIPOS>MOLECULE
NONAME
48 50 1 0 0 
SMALL
USER_CHARGES


@<TRIPOS>ATOM
  1 O       -1.2200    -1.8260     1.4540 O.co2 1 <1>  -0.9000 
  2 C       -0.7460    -2.9310     1.7570 C.2   1 <1>   1.0330 
  3 O       -1.4450    -3.6910     2.4570 O.co2 1 <1>  -0.9000 
  4 C        0.5510    -3.3440     1.3010 C.2   1 <1>  -0.2330 
  5 C        1.2460    -4.4440     1.8040 C.2   1 <1>   0.3720 
  6 C        1.3970    -2.8540     0.3520 C.2   1 <1>   0.0870 
  7 N        2.3820    -4.6000     1.2250 N.2   1 <1>  -0.4100 
  8 N        0.7680    -5.2820     2.8000 N.pl3 1 <1>  -0.8520 
  9 O        2.4580    -3.6280     0.3560 O.3   1 <1>  -0.0190 
 10 C        1.3500    -1.7590    -0.5900 C.ar  1 <1>   0.0530 
 11 C        0.4680    -6.6610     2.3570 C.3   1 <1>   0.2090 
 12 C        0.1650    -1.3390    -1.1920 C.ar  1 <1>  -0.1500 
 13 C        2.5200    -1.0900    -0.9560 C.ar  1 <1>  -0.1500 
 14 C       -0.9680    -6.6940     1.8380 C.3   1 <1>  -0.0990 
 15 C        0.1440    -0.3050    -2.1100 C.ar  1 <1>  -0.1500 
 16 C        2.5100    -0.0570    -1.8750 C.ar  1 <1>  -0.1500 
 17 C       -1.4300    -8.0630     1.3820 C.2   1 <1>   0.5690 
 18 C        1.3180     0.3390    -2.4560 C.ar  1 <1>  -0.1500 
 19 O       -0.6800    -9.0030     1.5200 O.2   1 <1>  -0.5700 
 20 N       -2.6810    -8.2090     0.8320 N.am  1 <1>  -0.6600 
 21 C       -3.6710    -7.1040     0.6660 C.3   1 <1>   0.1400 
 22 C       -3.1540    -9.5240     0.3210 C.3   1 <1>   0.1400 
 23 C       -4.0300    -6.9580    -0.8160 C.3   1 <1>  -0.1600 
 24 C       -3.5150    -9.4000    -1.1630 C.3   1 <1>  -0.1600 
 25 C       -4.5420    -8.2820    -1.4070 C.3   1 <1>  -0.0800 
 26 C       -4.8300    -8.1300    -2.9050 C.3   1 <1>  -0.2400 
 27 H       -0.1310    -4.8490     3.1030 H     1 <1>   0.4000 
 28 H        0.5760    -7.3320     3.1910 H     1 <1>   0.0800 
 29 H        1.1530    -6.9660     1.5830 H     1 <1>   0.0800 
 30 H       -0.7560    -1.8290    -0.9330 H     1 <1>   0.1500 
 31 H        3.4510    -1.3880    -0.5070 H     1 <1>   0.1500 
 32 H       -1.0420    -6.0200     1.0060 H     1 <1>   0.0800 
 33 H       -1.6240    -6.3600     2.6190 H     1 <1>   0.0800 
 34 H       -0.7900    -0.0020    -2.5490 H     1 <1>   0.1500 
 35 H        3.4270     0.4410    -2.1360 H     1 <1>   0.1500 
 36 H        1.3030     1.1440    -3.1690 H     1 <1>   0.1500 
 37 H       -3.2950    -6.1660     1.0340 H     1 <1>   0.0800 
 38 H       -4.5560    -7.3430     1.2310 H     1 <1>   0.0800 
 39 H       -4.0180    -9.8280     0.8860 H     1 <1>   0.0800 
 40 H       -2.3940   -10.2770     0.4430 H     1 <1>   0.0800 
 41 H       -3.1550    -6.6270    -1.3490 H     1 <1>   0.0800 
 42 H       -4.7830    -6.1970    -0.9190 H     1 <1>   0.0800 
 43 H       -3.9100   -10.3390    -1.5070 H     1 <1>   0.0800 
 44 H       -2.6140    -9.2000    -1.7170 H     1 <1>   0.0800 
 45 H       -5.4600    -8.5460    -0.9090 H     1 <1>   0.0800 
 46 H       -3.9330    -7.8640    -3.4380 H     1 <1>   0.0800 
 47 H       -5.5650    -7.3620    -3.0670 H     1 <1>   0.0800 
 48 H       -5.2090    -9.0520    -3.3080 H     1 <1>   0.0800 
@<TRIPOS>BOND
  1   1   2  ar  
  2   2   3  ar  
  3   2   4  1   
  4   4   5  1   
  5   4   6  2   
  6   5   7  2   
  7   5   8  1   
  8   6   9  1   
  9   6  10  1   
 10   7   9  1   
 11   8  11  1   
 12   8  27  1   
 13  10  12  ar  
 14  10  13  ar  
 15  11  14  1   
 16  11  28  1   
 17  11  29  1   
 18  12  15  ar  
 19  12  30  1   
 20  13  16  ar  
 21  13  31  1   
 22  14  17  1   
 23  14  32  1   
 24  14  33  1   
 25  15  18  ar  
 26  15  34  1   
 27  16  18  ar  
 28  16  35  1   
 29  17  19  2   
 30  17  20  am  
 31  18  36  1   
 32  20  21  1   
 33  20  22  1   
 34  21  23  1   
 35  21  37  1   
 36  21  38  1   
 37  22  24  1   
 38  22  39  1   
 39  22  40  1   
 40  23  25  1   
 41  23  41  1   
 42  23  42  1   
 43  24  25  1   
 44  24  43  1   
 45  24  44  1   
 46  25  26  1   
 47  25  45  1   
 48  26  46  1   
 49  26  47  1   
 50  26  48  1   
@<TRIPOS>SUBSTRUCTURE
  1 ****   4 GROUP 4 **** **** 0

# MOE 2024.06 (io_trps.svl 2023.06)
