@<TRIPOS>MOLECULE
NONAME
34 34 1 0 0 
SMALL
USER_CHARGES


@<TRIPOS>ATOM
  1 O       -1.2650    -1.0480     0.6630 O.2   1 <1>  -0.5700 
  2 C       -0.8280    -2.1380     0.4560 C.2   1 <1>   0.4480 
  3 C        0.5670    -2.5360     0.8860 C.3   1 <1>  -0.0990 
  4 C       -1.6420    -3.2040    -0.2530 C.3   1 <1>  -0.0990 
  5 C        1.3250    -3.1510    -0.2920 C.3   1 <1>   0.2200 
  6 C       -0.8490    -3.8330    -1.4080 C.3   1 <1>  -0.1600 
  7 N        2.6150    -3.6740     0.1810 N.am  1 <1>  -0.7300 
  8 C        0.5390    -4.2980    -0.9400 C.3   1 <1>  -0.1600 
  9 C        3.8310    -3.2890    -0.2610 C.2   1 <1>   0.7800 
 10 O        3.9750    -2.4360    -1.1110 O.2   1 <1>  -0.5700 
 11 O        4.8590    -3.9170     0.3020 O.3   1 <1>  -0.4300 
 12 C        6.2300    -3.7150     0.0300 C.3   1 <1>   0.2800 
 13 C        6.5390    -4.0680    -1.4300 C.3   1 <1>  -0.2400 
 14 C        6.9680    -4.6880     0.9510 C.3   1 <1>  -0.2400 
 15 C        6.6350    -2.2790     0.3830 C.3   1 <1>  -0.2400 
 16 H        1.0900    -1.6650     1.2360 H     1 <1>   0.0800 
 17 H        0.4880    -3.2430     1.6900 H     1 <1>   0.0800 
 18 H       -1.9100    -3.9620     0.4610 H     1 <1>   0.0800 
 19 H       -2.5500    -2.7660    -0.6280 H     1 <1>   0.0800 
 20 H        1.4960    -2.3840    -1.0320 H     1 <1>   0.0800 
 21 H       -1.3970    -4.6660    -1.8160 H     1 <1>   0.0800 
 22 H       -0.7310    -3.1020    -2.1920 H     1 <1>   0.0800 
 23 H        2.5980    -4.4140     0.8790 H     1 <1>   0.3700 
 24 H        1.0900    -4.6670    -1.7880 H     1 <1>   0.0800 
 25 H        0.4230    -5.1030    -0.2350 H     1 <1>   0.0800 
 26 H        7.6010    -4.0460    -1.5950 H     1 <1>   0.0800 
 27 H        6.0920    -3.3600    -2.1030 H     1 <1>   0.0800 
 28 H        6.1790    -5.0540    -1.6610 H     1 <1>   0.0800 
 29 H        8.0300    -4.6010     0.8110 H     1 <1>   0.0800 
 30 H        6.6790    -5.7000     0.7330 H     1 <1>   0.0800 
 31 H        6.7430    -4.4710     1.9800 H     1 <1>   0.0800 
 32 H        7.7010    -2.1700     0.3060 H     1 <1>   0.0800 
 33 H        6.3400    -2.0430     1.3900 H     1 <1>   0.0800 
 34 H        6.1880    -1.5720    -0.2910 H     1 <1>   0.0800 
@<TRIPOS>BOND
  1   1   2  2   
  2   2   3  1   
  3   2   4  1   
  4   3   5  1   
  5   3  16  1   
  6   3  17  1   
  7   4   6  1   
  8   4  18  1   
  9   4  19  1   
 10   5   7  1   
 11   5   8  1   
 12   5  20  1   
 13   6   8  1   
 14   6  21  1   
 15   6  22  1   
 16   7   9  am  
 17   7  23  1   
 18   8  24  1   
 19   8  25  1   
 20   9  10  2   
 21   9  11  1   
 22  11  12  1   
 23  12  13  1   
 24  12  14  1   
 25  12  15  1   
 26  13  26  1   
 27  13  27  1   
 28  13  28  1   
 29  14  29  1   
 30  14  30  1   
 31  14  31  1   
 32  15  32  1   
 33  15  33  1   
 34  15  34  1   
@<TRIPOS>SUBSTRUCTURE
  1 ****   7 GROUP 4 **** **** 0

# MOE 2024.06 (io_trps.svl 2023.06)
