@<TRIPOS>MOLECULE
NONAME
46 48 1 0 0 
SMALL
USER_CHARGES


@<TRIPOS>ATOM
  1 O       -0.7550     0.5420     0.3280 O.2   1 <1>  -0.5700 
  2 C       -0.5100     1.7040     0.5280 C.2   1 <1>   0.5690 
  3 N       -1.5050     2.6090     0.6440 N.am  1 <1>  -0.7300 
  4 C        0.9440     2.1780     0.6120 C.3   1 <1>   0.1810 
  5 C       -1.2830     4.0540     0.8870 C.3   1 <1>   0.3640 
  6 O        1.0820     3.4540     1.2020 O.3   1 <1>  -0.5600 
  7 C       -2.1770     4.8480    -0.0650 C.ar  1 <1>  -0.1440 
  8 C        0.2050     4.4500     0.6940 C.3   1 <1>   0.2610 
  9 C       -2.8880     5.9410     0.4100 C.ar  1 <1>  -0.1500 
 10 C       -2.2900     4.5060    -1.4070 C.ar  1 <1>  -0.1500 
 11 C        0.5190     5.8220     1.3200 C.2   1 <1>   0.5690 
 12 C       -3.6960     6.6780    -0.4370 C.ar  1 <1>  -0.1500 
 13 C       -3.0980     5.2420    -2.2560 C.ar  1 <1>  -0.1500 
 14 O       -0.2370     6.2690     2.1550 O.2   1 <1>  -0.5700 
 15 N        1.6280     6.5390     0.9300 N.am  1 <1>  -0.6600 
 16 C       -3.8020     6.3290    -1.7710 C.ar  1 <1>  -0.1500 
 17 C        1.8730     7.9310     1.4220 C.3   1 <1>   0.1400 
 18 C        2.7170     6.0370     0.0340 C.3   1 <1>   0.1400 
 19 C        2.0820     8.8970     0.2450 C.3   1 <1>   0.1400 
 20 C        2.9220     6.9870    -1.1560 C.3   1 <1>   0.1400 
 21 N        3.1370     8.3860    -0.6830 N.am  1 <1>  -0.6600 
 22 C        4.2610     9.0940    -1.0140 C.2   1 <1>   0.7800 
 23 O        5.1370     8.6340    -1.7230 O.2   1 <1>  -0.5700 
 24 O        4.3860    10.3310    -0.5280 O.3   1 <1>  -0.4300 
 25 C        5.5190    11.1220    -0.8280 C.3   1 <1>   0.0400 
 26 H       -2.4740     2.2930     0.5810 H     1 <1>   0.3700 
 27 H        1.3640     2.2140    -0.3760 H     1 <1>   0.0800 
 28 H        1.5100     1.4820     1.2040 H     1 <1>   0.0800 
 29 H       -1.5740     4.2590     1.9030 H     1 <1>   0.0800 
 30 H        0.3870     4.5270    -0.3610 H     1 <1>   0.0800 
 31 H       -2.8130     6.2310     1.4460 H     1 <1>   0.1500 
 32 H       -1.7530     3.6610    -1.8030 H     1 <1>   0.1500 
 33 H       -4.2430     7.5240    -0.0570 H     1 <1>   0.1500 
 34 H       -3.1820     4.9680    -3.2930 H     1 <1>   0.1500 
 35 H       -4.4320     6.9020    -2.4300 H     1 <1>   0.1500 
 36 H        1.0450     8.2780     2.0160 H     1 <1>   0.0800 
 37 H        2.7490     7.9360     2.0470 H     1 <1>   0.0800 
 38 H        3.6330     5.9820     0.5970 H     1 <1>   0.0800 
 39 H        2.5050     5.0500    -0.3310 H     1 <1>   0.0800 
 40 H        2.3440     9.8670     0.6300 H     1 <1>   0.0800 
 41 H        1.1570     8.9980    -0.2960 H     1 <1>   0.0800 
 42 H        2.0530     6.9610    -1.7900 H     1 <1>   0.0800 
 43 H        3.7640     6.6510    -1.7360 H     1 <1>   0.0800 
 44 H        5.4110    12.0720    -0.3370 H     1 <1>   0.0800 
 45 H        5.5740    11.2580    -1.8940 H     1 <1>   0.0800 
 46 H        6.4000    10.6170    -0.4720 H     1 <1>   0.0800 
@<TRIPOS>BOND
  1   1   2  2   
  2   2   3  am  
  3   2   4  1   
  4   3   5  1   
  5   3  26  1   
  6   4   6  1   
  7   4  27  1   
  8   4  28  1   
  9   5   7  1   
 10   5   8  1   
 11   5  29  1   
 12   6   8  1   
 13   7   9  ar  
 14   7  10  ar  
 15   8  11  1   
 16   8  30  1   
 17   9  12  ar  
 18   9  31  1   
 19  10  13  ar  
 20  10  32  1   
 21  11  14  2   
 22  11  15  am  
 23  12  16  ar  
 24  12  33  1   
 25  13  16  ar  
 26  13  34  1   
 27  15  17  1   
 28  15  18  1   
 29  16  35  1   
 30  17  19  1   
 31  17  36  1   
 32  17  37  1   
 33  18  20  1   
 34  18  38  1   
 35  18  39  1   
 36  19  21  1   
 37  19  40  1   
 38  19  41  1   
 39  20  21  1   
 40  20  42  1   
 41  20  43  1   
 42  21  22  am  
 43  22  23  2   
 44  22  24  1   
 45  24  25  1   
 46  25  44  1   
 47  25  45  1   
 48  25  46  1   
@<TRIPOS>SUBSTRUCTURE
  1 ****  11 GROUP 4 **** **** 0

# MOE 2024.06 (io_trps.svl 2023.06)
