@<TRIPOS>MOLECULE
NONAME
43 44 1 0 0 
SMALL
USER_CHARGES


@<TRIPOS>ATOM
  1 N        2.5970    -4.0640    -0.5600 N.4   1 <1>  -0.9590 
  2 C        2.4420    -2.5750    -0.6130 C.3   1 <1>   0.4230 
  3 C        3.1920    -4.5300     0.7270 C.3   1 <1>   0.3430 
  4 C        1.3260    -4.8190    -0.8500 C.3   1 <1>   0.3430 
  5 C        3.8240    -1.8880    -0.4550 C.3   1 <1>  -0.0800 
  6 C        1.3870    -2.0990     0.4150 C.3   1 <1>  -0.1600 
  7 C        4.5850    -3.9170     0.8840 C.3   1 <1>  -0.1600 
  8 C        0.0630    -3.9670    -0.6640 C.3   1 <1>  -0.1600 
  9 C        4.5700    -2.3820     0.8080 C.3   1 <1>  -0.1600 
 10 C        3.6820    -0.3520    -0.4830 C.3   1 <1>   0.3430 
 11 C        0.1730    -3.0360     0.5470 C.3   1 <1>  -0.1600 
 12 N        5.0110     0.3250    -0.4420 N.4   1 <1>  -0.9060 
 13 C        4.9350     1.7950    -0.4650 C.3   1 <1>   0.4230 
 14 C        6.3400     2.3150    -0.7340 C.3   1 <1>  -0.2400 
 15 C        4.4210     2.2980     0.8810 C.3   1 <1>  -0.2400 
 16 H        3.2640    -4.3370    -1.2930 H     1 <1>   0.4500 
 17 H        2.0590    -2.3270    -1.5910 H     1 <1>   0.0800 
 18 H        2.5650    -4.2340     1.5530 H     1 <1>   0.0800 
 19 H        3.2710    -5.6060     0.7330 H     1 <1>   0.0800 
 20 H        1.3440    -5.1890    -1.8630 H     1 <1>   0.0800 
 21 H        1.2640    -5.6760    -0.1980 H     1 <1>   0.0800 
 22 H        4.4010    -2.1680    -1.3190 H     1 <1>   0.0800 
 23 H        1.8210    -1.9680     1.3890 H     1 <1>   0.0800 
 24 H        1.0260    -1.1350     0.1020 H     1 <1>   0.0800 
 25 H        4.9890    -4.2210     1.8360 H     1 <1>   0.0800 
 26 H        5.2340    -4.3190     0.1250 H     1 <1>   0.0800 
 27 H       -0.1150    -3.3910    -1.5560 H     1 <1>   0.0800 
 28 H       -0.7830    -4.6220    -0.5430 H     1 <1>   0.0800 
 29 H        5.5900    -2.0370     0.8080 H     1 <1>   0.0800 
 30 H        4.0990    -1.9950     1.6980 H     1 <1>   0.0800 
 31 H        3.0950    -0.0350     0.3650 H     1 <1>   0.0800 
 32 H        3.1590    -0.0550    -1.3790 H     1 <1>   0.0800 
 33 H        0.2730    -3.6340     1.4380 H     1 <1>   0.0800 
 34 H       -0.7310    -2.4580     0.6510 H     1 <1>   0.0800 
 35 H        5.5900     0.0360    -1.2390 H     1 <1>   0.4500 
 36 H        5.5270     0.0620     0.4060 H     1 <1>   0.4500 
 37 H        4.2780     2.1250    -1.2570 H     1 <1>   0.0800 
 38 H        7.0280     2.0130     0.0370 H     1 <1>   0.0800 
 39 H        6.3260     3.3920    -0.7580 H     1 <1>   0.0800 
 40 H        6.6990     1.9780    -1.6900 H     1 <1>   0.0800 
 41 H        5.0470     1.9650     1.6900 H     1 <1>   0.0800 
 42 H        3.4080     1.9870     1.0570 H     1 <1>   0.0800 
 43 H        4.4270     3.3740     0.8840 H     1 <1>   0.0800 
@<TRIPOS>BOND
  1   1   2  1   
  2   1   3  1   
  3   1   4  1   
  4   1  16  1   
  5   2   5  1   
  6   2   6  1   
  7   2  17  1   
  8   3   7  1   
  9   3  18  1   
 10   3  19  1   
 11   4   8  1   
 12   4  20  1   
 13   4  21  1   
 14   5   9  1   
 15   5  10  1   
 16   5  22  1   
 17   6  11  1   
 18   6  23  1   
 19   6  24  1   
 20   7   9  1   
 21   7  25  1   
 22   7  26  1   
 23   8  11  1   
 24   8  27  1   
 25   8  28  1   
 26   9  29  1   
 27   9  30  1   
 28  10  12  1   
 29  10  31  1   
 30  10  32  1   
 31  11  33  1   
 32  11  34  1   
 33  12  13  1   
 34  12  35  1   
 35  12  36  1   
 36  13  14  1   
 37  13  15  1   
 38  13  37  1   
 39  14  38  1   
 40  14  39  1   
 41  14  40  1   
 42  15  41  1   
 43  15  42  1   
 44  15  43  1   
@<TRIPOS>SUBSTRUCTURE
  1 ****   5 GROUP 4 **** **** 0

# MOE 2024.06 (io_trps.svl 2023.06)
