@<TRIPOS>MOLECULE
NONAME
43 44 1 0 0 
SMALL
USER_CHARGES


@<TRIPOS>ATOM
  1 O       -0.2180    -0.3450    -0.7230 O.2   1 <1>  -0.5700 
  2 C       -0.2470    -1.2730     0.0560 C.2   1 <1>   0.7800 
  3 O        0.8390    -1.9940     0.3310 O.3   1 <1>  -0.4300 
  4 N       -1.4100    -1.6390     0.6770 N.am  1 <1>  -0.6600 
  5 C        2.1380    -1.8150    -0.1930 C.3   1 <1>   0.2800 
  6 C       -2.7070    -0.9760     0.3150 C.3   1 <1>   0.2840 
  7 C       -1.5320    -2.8370     1.5750 C.3   1 <1>   0.1400 
  8 C        2.1300    -2.0220    -1.7120 C.3   1 <1>  -0.2400 
  9 C        2.9850    -2.9080     0.4590 C.3   1 <1>  -0.2400 
 10 C        2.6880    -0.4420     0.2080 C.3   1 <1>  -0.2400 
 11 C       -3.8040    -2.0170     0.0340 C.cat 1 <1>   0.6560 
 12 C       -2.4680    -3.9120     0.9760 C.3   1 <1>   0.3540 
 13 N       -4.9800    -1.8100    -0.5430 N.pl3 1 <1>  -0.7000 
 14 N       -3.6880    -3.3010     0.3510 N.pl3 1 <1>  -0.7640 
 15 C       -5.6360    -3.0100    -0.6060 C.2   1 <1>   0.2000 
 16 C       -4.8470    -3.9700    -0.0540 C.2   1 <1>   0.2770 
 17 C       -5.1600    -5.3820     0.0720 C.2   1 <1>   0.7930 
 18 O       -4.4040    -6.1910     0.5710 O.2   1 <1>  -0.5700 
 19 O       -6.3450    -5.7870    -0.3890 O.3   1 <1>  -0.4300 
 20 C       -6.7510    -7.1380    -0.3140 C.3   1 <1>   0.1200 
 21 C       -8.1430    -7.2470    -0.9270 C.3   1 <1>  -0.2400 
 22 H       -2.5890    -0.3560    -0.5560 H     1 <1>   0.0800 
 23 H       -3.0170    -0.3510     1.1330 H     1 <1>   0.0800 
 24 H       -1.9280    -2.5180     2.5240 H     1 <1>   0.0800 
 25 H       -0.5690    -3.2770     1.7670 H     1 <1>   0.0800 
 26 H        1.6750    -2.9630    -1.9620 H     1 <1>   0.0800 
 27 H        3.1380    -2.0230    -2.0860 H     1 <1>   0.0800 
 28 H        1.6040    -1.2290    -2.2110 H     1 <1>   0.0800 
 29 H        2.6020    -3.8810     0.2080 H     1 <1>   0.0800 
 30 H        2.9840    -2.7940     1.5290 H     1 <1>   0.0800 
 31 H        4.0010    -2.8470     0.1150 H     1 <1>   0.0800 
 32 H        2.1590     0.3510    -0.2880 H     1 <1>   0.0800 
 33 H        3.7220    -0.3650    -0.0750 H     1 <1>   0.0800 
 34 H        2.6160    -0.3040     1.2720 H     1 <1>   0.0800 
 35 H       -2.7550    -4.6000     1.7540 H     1 <1>   0.0800 
 36 H       -1.9300    -4.4690     0.2270 H     1 <1>   0.0800 
 37 H       -5.3340    -0.9140    -0.8970 H     1 <1>   0.4500 
 38 H       -6.6190    -3.1300    -1.0360 H     1 <1>   0.1500 
 39 H       -6.7630    -7.4400     0.7210 H     1 <1>   0.0800 
 40 H       -6.0440    -7.7430    -0.8580 H     1 <1>   0.0800 
 41 H       -8.8430    -6.6390    -0.3820 H     1 <1>   0.0800 
 42 H       -8.4770    -8.2690    -0.8830 H     1 <1>   0.0800 
 43 H       -8.1240    -6.9420    -1.9580 H     1 <1>   0.0800 
@<TRIPOS>BOND
  1   1   2  2   
  2   2   3  1   
  3   2   4  am  
  4   3   5  1   
  5   4   6  1   
  6   4   7  1   
  7   5   8  1   
  8   5   9  1   
  9   5  10  1   
 10   6  11  1   
 11   6  22  1   
 12   6  23  1   
 13   7  12  1   
 14   7  24  1   
 15   7  25  1   
 16   8  26  1   
 17   8  27  1   
 18   8  28  1   
 19   9  29  1   
 20   9  30  1   
 21   9  31  1   
 22  10  32  1   
 23  10  33  1   
 24  10  34  1   
 25  11  13  ar  
 26  11  14  ar  
 27  12  14  1   
 28  12  35  1   
 29  12  36  1   
 30  13  15  1   
 31  13  37  1   
 32  14  16  1   
 33  15  16  2   
 34  15  38  1   
 35  16  17  1   
 36  17  18  2   
 37  17  19  1   
 38  19  20  1   
 39  20  21  1   
 40  20  39  1   
 41  20  40  1   
 42  21  41  1   
 43  21  42  1   
 44  21  43  1   
@<TRIPOS>SUBSTRUCTURE
  1 ****  12 GROUP 4 **** **** 0

# MOE 2024.06 (io_trps.svl 2023.06)
