@<TRIPOS>MOLECULE
NONAME
46 47 1 0 0 
SMALL
USER_CHARGES


@<TRIPOS>ATOM
  1 O       -2.1160    -2.3750     3.1860 O.2   1 <1>  -0.5700 
  2 C       -2.7930    -2.4110     2.1630 C.2   1 <1>   0.5410 
  3 C       -3.8930    -1.5380     1.9730 C.2   1 <1>  -0.1360 
  4 C       -2.5100    -3.3250     1.1180 C.2   1 <1>  -0.1360 
  5 C       -4.6470    -1.5980     0.8440 C.2   1 <1>  -0.0500 
  6 C       -3.2780    -3.3620    -0.0010 C.2   1 <1>  -0.0500 
  7 N       -4.3610    -2.5170    -0.1460 N.pl3 1 <1>  -0.5690 
  8 C       -5.2120    -2.6030    -1.3830 C.3   1 <1>   0.2700 
  9 C       -5.6350    -4.0300    -1.7640 C.2   1 <1>   0.5690 
 10 O       -5.1930    -4.4710    -2.8000 O.2   1 <1>  -0.5700 
 11 N       -6.4920    -4.7710    -0.9770 N.am  1 <1>  -0.6600 
 12 C       -6.8530    -6.1770    -1.3580 C.3   1 <1>   0.1400 
 13 C       -7.1370    -4.2150     0.2510 C.3   1 <1>   0.1400 
 14 C       -6.6940    -7.2070    -0.2040 C.3   1 <1>   0.0000 
 15 C       -7.8590    -5.2920     1.0640 C.3   1 <1>  -0.1600 
 16 C       -6.9520    -6.5140     1.1730 C.3   1 <1>   0.2000 
 17 C       -7.7390    -8.3330    -0.4400 C.3   1 <1>   0.1200 
 18 C       -5.2770    -7.8540    -0.1980 C.3   1 <1>  -0.1600 
 19 O       -7.5040    -7.3740     2.1110 O.3   1 <1>  -0.6800 
 20 O       -7.6150    -8.9140    -1.6990 O.3   1 <1>  -0.6800 
 21 C       -4.0830    -6.8800    -0.2210 C.3   1 <1>  -0.1600 
 22 C       -2.7590    -7.6340    -0.0710 C.3   1 <1>  -0.2400 
 23 H       -4.0910    -0.8370     2.7610 H     1 <1>   0.1500 
 24 H       -1.6680    -3.9740     1.2590 H     1 <1>   0.1500 
 25 H       -5.4810    -0.9330     0.6930 H     1 <1>   0.1500 
 26 H       -3.0640    -4.0520    -0.8040 H     1 <1>   0.1500 
 27 H       -6.0970    -2.0100    -1.2560 H     1 <1>   0.0800 
 28 H       -4.6560    -2.1870    -2.2030 H     1 <1>   0.0800 
 29 H       -7.8800    -6.1560    -1.6780 H     1 <1>   0.0800 
 30 H       -6.2710    -6.5040    -2.2030 H     1 <1>   0.0800 
 31 H       -6.3760    -3.7830     0.8760 H     1 <1>   0.0800 
 32 H       -7.8320    -3.4400    -0.0250 H     1 <1>   0.0800 
 33 H       -8.7900    -5.5440     0.5900 H     1 <1>   0.0800 
 34 H       -8.0660    -4.8990     2.0440 H     1 <1>   0.0800 
 35 H       -6.0170    -6.1870     1.5920 H     1 <1>   0.0800 
 36 H       -8.7410    -7.9500    -0.3550 H     1 <1>   0.0800 
 37 H       -7.6090    -9.1210     0.2820 H     1 <1>   0.0800 
 38 H       -5.1980    -8.4800     0.6750 H     1 <1>   0.0800 
 39 H       -5.1770    -8.5010    -1.0520 H     1 <1>   0.0800 
 40 H       -8.4370    -7.5630     1.9040 H     1 <1>   0.4000 
 41 H       -7.7480    -8.2640    -2.4150 H     1 <1>   0.4000 
 42 H       -4.0670    -6.3510    -1.1570 H     1 <1>   0.0800 
 43 H       -4.1580    -6.1570     0.5700 H     1 <1>   0.0800 
 44 H       -2.6410    -8.3480    -0.8660 H     1 <1>   0.0800 
 45 H       -2.7280    -8.1540     0.8710 H     1 <1>   0.0800 
 46 H       -1.9360    -6.9430    -0.1070 H     1 <1>   0.0800 
@<TRIPOS>BOND
  1   1   2  2   
  2   2   3  1   
  3   2   4  1   
  4   3   5  2   
  5   3  23  1   
  6   4   6  2   
  7   4  24  1   
  8   5   7  1   
  9   5  25  1   
 10   6   7  1   
 11   6  26  1   
 12   7   8  1   
 13   8   9  1   
 14   8  27  1   
 15   8  28  1   
 16   9  10  2   
 17   9  11  am  
 18  11  12  1   
 19  11  13  1   
 20  12  14  1   
 21  12  29  1   
 22  12  30  1   
 23  13  15  1   
 24  13  31  1   
 25  13  32  1   
 26  14  16  1   
 27  14  17  1   
 28  14  18  1   
 29  15  16  1   
 30  15  33  1   
 31  15  34  1   
 32  16  19  1   
 33  16  35  1   
 34  17  20  1   
 35  17  36  1   
 36  17  37  1   
 37  18  21  1   
 38  18  38  1   
 39  18  39  1   
 40  19  40  1   
 41  20  41  1   
 42  21  22  1   
 43  21  42  1   
 44  21  43  1   
 45  22  44  1   
 46  22  45  1   
 47  22  46  1   
@<TRIPOS>SUBSTRUCTURE
  1 ****  11 GROUP 4 **** **** 0

# MOE 2024.06 (io_trps.svl 2023.06)
