@<TRIPOS>MOLECULE
NONAME
51 54 1 0 0 
SMALL
USER_CHARGES


@<TRIPOS>ATOM
  1 O       -3.7380     2.7150    -2.2670 O.2   1 <1>  -0.5700 
  2 C       -3.1010     2.4980    -1.2490 C.2   1 <1>   0.5440 
  3 N       -2.7680     1.1820    -0.9760 N.am  1 <1>  -0.6600 
  4 C       -2.7510     3.6250    -0.3850 C.ar  1 <1>   0.3960 
  5 C       -2.6650     0.1550    -2.0530 C.3   1 <1>   0.1400 
  6 C       -2.2610     0.6740     0.3320 C.3   1 <1>   0.1400 
  7 N       -1.5590     3.6720     0.2330 N.ar  1 <1>  -0.6200 
  8 C       -3.6910     4.6460    -0.2340 C.ar  1 <1>   0.1600 
  9 C       -1.2330    -0.4080    -2.1060 C.3   1 <1>   0.1200 
 10 C       -0.8400     0.1200     0.1550 C.3   1 <1>   0.1200 
 11 C       -1.3740     4.7510     0.9740 C.ar  1 <1>   0.4100 
 12 N       -3.5430     5.7250     0.5220 N.ar  1 <1>  -0.6200 
 13 O       -0.8220    -0.8630    -0.8440 O.3   1 <1>  -0.5600 
 14 N       -0.1470     4.8440     1.6250 N.pl3 1 <1>  -0.8380 
 15 C       -2.3660     5.7400     1.1120 C.ar  1 <1>   0.1600 
 16 C        0.6230     6.1290     1.6830 C.3   1 <1>   0.4690 
 17 C        0.7860     3.6930     1.6960 C.3   1 <1>   0.2090 
 18 C        0.3540     7.0960     0.5230 C.2   1 <1>   0.2980 
 19 C        2.0930     5.7060     1.7680 C.3   1 <1>  -0.1600 
 20 C        2.0650     4.2700     2.2840 C.3   1 <1>  -0.1600 
 21 O        0.6270     6.7150    -0.7010 O.3   1 <1>  -0.0190 
 22 N       -0.1380     8.2670     0.6340 N.2   1 <1>  -0.5650 
 23 N        0.2720     7.7270    -1.4300 N.2   1 <1>  -0.4100 
 24 C       -0.1790     8.6230    -0.6440 C.2   1 <1>   0.3350 
 25 C       -0.7430     9.9830    -1.0570 C.3   1 <1>   0.1010 
 26 C       -2.2730     9.9200    -1.1570 C.3   1 <1>  -0.2400 
 27 C       -0.1490    10.4900    -2.3820 C.3   1 <1>  -0.2400 
 28 H       -3.3580    -0.6430    -1.8540 H     1 <1>   0.0800 
 29 H       -2.9140     0.5790    -3.0110 H     1 <1>   0.0800 
 30 H       -2.2680     1.4410     1.0830 H     1 <1>   0.0800 
 31 H       -2.9040    -0.1180     0.6740 H     1 <1>   0.0800 
 32 H       -4.6200     4.5560    -0.7700 H     1 <1>   0.1500 
 33 H       -0.5450     0.3520    -2.4370 H     1 <1>   0.0800 
 34 H       -1.1850    -1.2380    -2.7870 H     1 <1>   0.0800 
 35 H       -0.4990    -0.3330     1.0680 H     1 <1>   0.0800 
 36 H       -0.1600     0.9080    -0.1210 H     1 <1>   0.0800 
 37 H       -2.1520     6.5770     1.7490 H     1 <1>   0.1500 
 38 H        0.3570     6.6240     2.6010 H     1 <1>   0.0800 
 39 H        0.3810     2.9080     2.3120 H     1 <1>   0.0800 
 40 H        0.9720     3.3170     0.7030 H     1 <1>   0.0800 
 41 H        2.5360     5.7230     0.7880 H     1 <1>   0.0800 
 42 H        2.6530     6.3610     2.4110 H     1 <1>   0.0800 
 43 H        1.9920     4.2620     3.3580 H     1 <1>   0.0800 
 44 H        2.9320     3.7080     1.9840 H     1 <1>   0.0800 
 45 H       -0.4820    10.6880    -0.2870 H     1 <1>   0.0800 
 46 H       -2.5670     9.2150    -1.9160 H     1 <1>   0.0800 
 47 H       -2.6770    10.8860    -1.4000 H     1 <1>   0.0800 
 48 H       -2.6890     9.5990    -0.2180 H     1 <1>   0.0800 
 49 H       -0.4060     9.8240    -3.1870 H     1 <1>   0.0800 
 50 H        0.9230    10.5390    -2.3090 H     1 <1>   0.0800 
 51 H       -0.5240    11.4710    -2.6100 H     1 <1>   0.0800 
@<TRIPOS>BOND
  1   1   2  2   
  2   2   3  am  
  3   2   4  1   
  4   3   5  1   
  5   3   6  1   
  6   4   7  ar  
  7   4   8  ar  
  8   5   9  1   
  9   5  28  1   
 10   5  29  1   
 11   6  10  1   
 12   6  30  1   
 13   6  31  1   
 14   7  11  ar  
 15   8  12  ar  
 16   8  32  1   
 17   9  13  1   
 18   9  33  1   
 19   9  34  1   
 20  10  13  1   
 21  10  35  1   
 22  10  36  1   
 23  11  14  1   
 24  11  15  ar  
 25  12  15  ar  
 26  14  16  1   
 27  14  17  1   
 28  15  37  1   
 29  16  18  1   
 30  16  19  1   
 31  16  38  1   
 32  17  20  1   
 33  17  39  1   
 34  17  40  1   
 35  18  21  1   
 36  18  22  2   
 37  19  20  1   
 38  19  41  1   
 39  19  42  1   
 40  20  43  1   
 41  20  44  1   
 42  21  23  1   
 43  22  24  1   
 44  23  24  2   
 45  24  25  1   
 46  25  26  1   
 47  25  27  1   
 48  25  45  1   
 49  26  46  1   
 50  26  47  1   
 51  26  48  1   
 52  27  49  1   
 53  27  50  1   
 54  27  51  1   
@<TRIPOS>SUBSTRUCTURE
  1 ****  11 GROUP 4 **** **** 0

# MOE 2024.06 (io_trps.svl 2023.06)
