@<TRIPOS>MOLECULE
NONAME
45 48 1 0 0 
SMALL
USER_CHARGES


@<TRIPOS>ATOM
  1 O       -0.8280     0.5090    -0.7550 O.2   1 <1>  -0.5700 
  2 C       -1.8260     1.0770    -0.3460 C.2   1 <1>   0.7150 
  3 N       -3.0630     0.5720    -0.7070 N.am  1 <1>  -0.6600 
  4 C       -1.7050     2.2550     0.4880 C.2   1 <1>   0.0550 
  5 C       -3.2160    -0.4120    -1.8150 C.3   1 <1>   0.1400 
  6 C       -4.2940     0.7540     0.1090 C.3   1 <1>   0.1400 
  7 O       -0.7860     2.3290     1.4480 O.3   1 <1>  -0.2800 
  8 C       -2.4120     3.4220     0.4880 C.2   1 <1>  -0.1500 
  9 C       -3.6170    -1.7700    -1.2350 C.3   1 <1>  -0.1600 
 10 C       -4.7000    -0.5940     0.7090 C.3   1 <1>  -0.1600 
 11 C       -0.8870     3.4910     2.0490 C.2   1 <1>  -0.0100 
 12 C       -1.8820     4.2210     1.5010 C.2   1 <1>  -0.1500 
 13 C       -4.8840    -1.6740    -0.3720 C.3   1 <1>   0.4240 
 14 O       -5.8980    -1.2410    -1.2490 O.3   1 <1>  -0.5600 
 15 C       -5.2130    -3.0450     0.2570 C.ar  1 <1>  -0.1430 
 16 C       -7.2190    -1.4970    -0.8840 C.3   1 <1>   0.1200 
 17 C       -6.4270    -3.6780     0.0120 C.ar  1 <1>  -0.1430 
 18 C       -4.2950    -3.6750     1.0920 C.ar  1 <1>  -0.1500 
 19 C       -7.4480    -3.0050    -0.8840 C.3   1 <1>  -0.0170 
 20 C       -6.7120    -4.9100     0.5790 C.ar  1 <1>  -0.1500 
 21 C       -4.5780    -4.9030     1.6600 C.ar  1 <1>  -0.1500 
 22 C       -5.7850    -5.5310     1.4090 C.ar  1 <1>   0.0830 
 23 O       -5.9840    -6.7350     2.0020 O.3   1 <1>  -0.3630 
 24 C       -7.1700    -7.4670     1.7950 C.3   1 <1>   0.0400 
 25 H       -2.2980    -0.5100    -2.3690 H     1 <1>   0.0800 
 26 H       -3.9760    -0.0640    -2.4930 H     1 <1>   0.0800 
 27 H       -5.0820     1.1320    -0.5200 H     1 <1>   0.0800 
 28 H       -4.1300     1.4560     0.9070 H     1 <1>   0.0800 
 29 H       -3.2210     3.6960    -0.1660 H     1 <1>   0.1500 
 30 H       -2.7930    -2.1370    -0.6510 H     1 <1>   0.0800 
 31 H       -3.7850    -2.4720    -2.0300 H     1 <1>   0.0800 
 32 H       -5.6020    -0.4870     1.2800 H     1 <1>   0.0800 
 33 H       -3.9310    -0.9000     1.3930 H     1 <1>   0.0800 
 34 H       -0.2140     3.7220     2.8560 H     1 <1>   0.1500 
 35 H       -2.2130     5.2090     1.7660 H     1 <1>   0.1500 
 36 H       -7.8590    -1.0190    -1.6040 H     1 <1>   0.0800 
 37 H       -7.4070    -1.0770     0.0890 H     1 <1>   0.0800 
 38 H       -3.3470    -3.2160     1.3090 H     1 <1>   0.1500 
 39 H       -7.3530    -3.3810    -1.8870 H     1 <1>   0.0800 
 40 H       -8.4430    -3.2110    -0.5370 H     1 <1>   0.0800 
 41 H       -7.6550    -5.3740     0.3660 H     1 <1>   0.1500 
 42 H       -3.8630    -5.3840     2.3030 H     1 <1>   0.1500 
 43 H       -7.0990    -8.3830     2.3530 H     1 <1>   0.0800 
 44 H       -7.2660    -7.6850     0.7460 H     1 <1>   0.0800 
 45 H       -8.0050    -6.8870     2.1470 H     1 <1>   0.0800 
@<TRIPOS>BOND
  1   1   2  2   
  2   2   3  am  
  3   2   4  1   
  4   3   5  1   
  5   3   6  1   
  6   4   7  1   
  7   4   8  2   
  8   5   9  1   
  9   5  25  1   
 10   5  26  1   
 11   6  10  1   
 12   6  27  1   
 13   6  28  1   
 14   7  11  1   
 15   8  12  1   
 16   8  29  1   
 17   9  13  1   
 18   9  30  1   
 19   9  31  1   
 20  10  13  1   
 21  10  32  1   
 22  10  33  1   
 23  11  12  2   
 24  11  34  1   
 25  12  35  1   
 26  13  14  1   
 27  13  15  1   
 28  14  16  1   
 29  15  17  ar  
 30  15  18  ar  
 31  16  19  1   
 32  16  36  1   
 33  16  37  1   
 34  17  19  1   
 35  17  20  ar  
 36  18  21  ar  
 37  18  38  1   
 38  19  39  1   
 39  19  40  1   
 40  20  22  ar  
 41  20  41  1   
 42  21  22  ar  
 43  21  42  1   
 44  22  23  1   
 45  23  24  1   
 46  24  43  1   
 47  24  44  1   
 48  24  45  1   
@<TRIPOS>SUBSTRUCTURE
  1 ****  10 GROUP 4 **** **** 0

# MOE 2024.06 (io_trps.svl 2023.06)
