@<TRIPOS>MOLECULE
NONAME
57 60 1 0 0 
SMALL
USER_CHARGES


@<TRIPOS>ATOM
  1 O       -0.5960    -0.1270    -1.0300 O.2   1 <1>  -0.5700 
  2 C       -1.3880     0.7780    -0.9190 C.2   1 <1>   0.5690 
  3 N       -2.7430     0.5620    -0.8190 N.am  1 <1>  -0.6600 
  4 C       -0.8110     2.1860    -0.8970 C.3   1 <1>  -0.0990 
  5 C       -3.7090     1.6570    -0.5030 C.3   1 <1>   0.2200 
  6 C       -3.2980    -0.8140    -0.9860 C.3   1 <1>   0.0600 
  7 C       -0.6460     2.7240     0.5390 C.3   1 <1>  -0.0990 
  8 C       -4.7730     1.3320     0.5370 C.3   1 <1>  -0.1600 
  9 C       -4.5170     2.1320    -1.7000 C.3   1 <1>  -0.1600 
 10 C       -0.8750     4.2200     0.5900 C.2   1 <1>   0.5690 
 11 C       -5.7540     2.5040     0.3930 C.3   1 <1>  -0.0800 
 12 C       -5.5960     3.0150    -1.0540 C.3   1 <1>  -0.0800 
 13 O       -2.0130     4.6130     0.6870 O.2   1 <1>  -0.5700 
 14 N        0.2170     5.0340     0.4920 N.am  1 <1>  -0.5470 
 15 C       -5.4000     3.6780     1.3200 C.3   1 <1>  -0.1600 
 16 C       -5.1650     4.4880    -0.9620 C.3   1 <1>  -0.1600 
 17 C        0.3340     6.4330     0.4720 C.ar  1 <1>   0.1170 
 18 C       -5.4780     4.9300     0.4600 C.3   1 <1>   0.2000 
 19 C        1.5140     6.9850    -0.0200 C.ar  1 <1>  -0.1500 
 20 C       -0.6650     7.2940     0.9310 C.ar  1 <1>  -0.1500 
 21 O       -4.5300     5.8390     0.8810 O.3   1 <1>  -0.6800 
 22 C        1.6750     8.3570    -0.0520 C.ar  1 <1>  -0.1440 
 23 C       -0.4980     8.6680     0.8940 C.ar  1 <1>  -0.1500 
 24 C        0.6820     9.1880     0.3990 C.ar  1 <1>  -0.1440 
 25 C        2.8640     9.1440    -0.5460 C.3   1 <1>  -0.0170 
 26 C        1.0750    10.6380     0.2670 C.3   1 <1>  -0.0170 
 27 C        2.5790    10.5720    -0.0480 C.3   1 <1>  -0.1600 
 28 H        0.1450     2.1780    -1.3880 H     1 <1>   0.0800 
 29 H       -1.4500     2.8280    -1.4750 H     1 <1>   0.0800 
 30 H       -3.1800     2.5080    -0.1240 H     1 <1>   0.0800 
 31 H       -4.1820    -0.7890    -1.5980 H     1 <1>   0.0800 
 32 H       -3.5410    -1.2270    -0.0230 H     1 <1>   0.0800 
 33 H       -2.5780    -1.4580    -1.4620 H     1 <1>   0.0800 
 34 H        0.3300     2.4750     0.9140 H     1 <1>   0.0800 
 35 H       -1.3630     2.2610     1.1930 H     1 <1>   0.0800 
 36 H       -5.2880     0.4220     0.2870 H     1 <1>   0.0800 
 37 H       -4.3600     1.2530     1.5270 H     1 <1>   0.0800 
 38 H       -3.9130     2.6670    -2.4100 H     1 <1>   0.0800 
 39 H       -4.9850     1.2950    -2.1860 H     1 <1>   0.0800 
 40 H       -6.7670     2.1850     0.5740 H     1 <1>   0.0800 
 41 H       -6.5280     2.9350    -1.5890 H     1 <1>   0.0800 
 42 H        1.1020     4.5480     0.3660 H     1 <1>   0.3700 
 43 H       -4.4010     3.5670     1.7060 H     1 <1>   0.0800 
 44 H       -6.0870     3.7410     2.1450 H     1 <1>   0.0800 
 45 H       -5.7000     5.0920    -1.6720 H     1 <1>   0.0800 
 46 H       -4.1090     4.5850    -1.1460 H     1 <1>   0.0800 
 47 H       -6.4530     5.3840     0.5210 H     1 <1>   0.0800 
 48 H        2.3010     6.3510    -0.3800 H     1 <1>   0.1500 
 49 H       -1.5830     6.9000     1.3240 H     1 <1>   0.1500 
 50 H       -3.6300     5.4330     0.8120 H     1 <1>   0.4000 
 51 H       -1.2780     9.3200     1.2480 H     1 <1>   0.1500 
 52 H        3.7860     8.7620    -0.1450 H     1 <1>   0.0800 
 53 H        2.8900     9.1150    -1.6210 H     1 <1>   0.0800 
 54 H        0.5330    11.0820    -0.5500 H     1 <1>   0.0800 
 55 H        0.8830    11.1840     1.1740 H     1 <1>   0.0800 
 56 H        3.1300    10.7370     0.8620 H     1 <1>   0.0800 
 57 H        2.8690    11.3130    -0.7720 H     1 <1>   0.0800 
@<TRIPOS>BOND
  1   1   2  2   
  2   2   3  am  
  3   2   4  1   
  4   3   5  1   
  5   3   6  1   
  6   4   7  1   
  7   4  28  1   
  8   4  29  1   
  9   5   8  1   
 10   5   9  1   
 11   5  30  1   
 12   6  31  1   
 13   6  32  1   
 14   6  33  1   
 15   7  10  1   
 16   7  34  1   
 17   7  35  1   
 18   8  11  1   
 19   8  36  1   
 20   8  37  1   
 21   9  12  1   
 22   9  38  1   
 23   9  39  1   
 24  10  13  2   
 25  10  14  am  
 26  11  12  1   
 27  11  15  1   
 28  11  40  1   
 29  12  16  1   
 30  12  41  1   
 31  14  17  1   
 32  14  42  1   
 33  15  18  1   
 34  15  43  1   
 35  15  44  1   
 36  16  18  1   
 37  16  45  1   
 38  16  46  1   
 39  17  19  ar  
 40  17  20  ar  
 41  18  21  1   
 42  18  47  1   
 43  19  22  ar  
 44  19  48  1   
 45  20  23  ar  
 46  20  49  1   
 47  21  50  1   
 48  22  24  ar  
 49  22  25  1   
 50  23  24  ar  
 51  23  51  1   
 52  24  26  1   
 53  25  27  1   
 54  25  52  1   
 55  25  53  1   
 56  26  27  1   
 57  26  54  1   
 58  26  55  1   
 59  27  56  1   
 60  27  57  1   
@<TRIPOS>SUBSTRUCTURE
  1 ****  13 GROUP 4 **** **** 0

# MOE 2024.06 (io_trps.svl 2023.06)
