@<TRIPOS>MOLECULE
NONAME
45 46 1 0 0 
SMALL
USER_CHARGES


@<TRIPOS>ATOM
  1 O       -0.9600     0.0180    -0.9690 O.2   1 <1>  -0.5700 
  2 C       -1.8180     0.7380    -0.5030 C.2   1 <1>   0.5690 
  3 N       -3.1420     0.4780    -0.7990 N.am  1 <1>  -0.6600 
  4 C       -1.3510     1.8890     0.4450 C.3   1 <1>   0.2040 
  5 C       -3.5250    -0.8360    -1.3980 C.3   1 <1>   0.3200 
  6 C       -4.3270     1.3480    -0.4750 C.3   1 <1>   0.1400 
  7 C       -1.8510     3.2610    -0.0570 C.ar  1 <1>  -0.1440 
  8 C        0.1930     1.9940     0.4990 C.3   1 <1>  -0.2400 
  9 C       -1.7820     1.5600     1.8950 C.3   1 <1>  -0.2400 
 10 C       -4.0590    -1.7470    -0.3080 C.2   1 <1>  -0.3320 
 11 C       -4.7420     2.2930    -1.6190 C.3   1 <1>   0.1200 
 12 C       -1.5700     3.6310    -1.3690 C.ar  1 <1>  -0.1500 
 13 C       -2.5590     4.1580     0.7390 C.ar  1 <1>  -0.1500 
 14 N       -3.3020    -2.4190     0.5840 N.pl3 1 <1>   0.0480 
 15 C       -5.3440    -2.0610    -0.0320 C.2   1 <1>   0.0770 
 16 O       -4.5720     1.6960    -2.8580 O.3   1 <1>  -0.6800 
 17 C       -1.9860     4.8490    -1.8740 C.ar  1 <1>  -0.1500 
 18 C       -2.9790     5.3770     0.2340 C.ar  1 <1>  -0.1500 
 19 C       -4.1920    -3.0900     1.3490 C.2   1 <1>   0.0360 
 20 C       -1.8330    -2.4680     0.6970 C.3   1 <1>   0.0160 
 21 N       -5.4270    -2.9010     1.0150 N.2   1 <1>  -0.5650 
 22 C       -2.6950     5.7240    -1.0730 C.ar  1 <1>  -0.1500 
 23 H       -2.6910    -1.3020    -1.8930 H     1 <1>   0.0800 
 24 H       -4.2920    -0.6880    -2.1370 H     1 <1>   0.0800 
 25 H       -4.1400     1.9420     0.3960 H     1 <1>   0.0800 
 26 H       -5.1690     0.7220    -0.2340 H     1 <1>   0.0800 
 27 H        0.6000     2.1510    -0.4840 H     1 <1>   0.0800 
 28 H        0.6230     1.0900     0.8920 H     1 <1>   0.0800 
 29 H        0.4930     2.8180     1.1220 H     1 <1>   0.0800 
 30 H       -2.8480     1.5080     1.9960 H     1 <1>   0.0800 
 31 H       -1.4070     2.2970     2.5810 H     1 <1>   0.0800 
 32 H       -1.3820     0.6050     2.1860 H     1 <1>   0.0800 
 33 H       -4.1540     3.1910    -1.6000 H     1 <1>   0.0800 
 34 H       -5.7770     2.5700    -1.5180 H     1 <1>   0.0800 
 35 H       -1.0200     2.9660    -2.0140 H     1 <1>   0.1500 
 36 H       -2.7970     3.9340     1.7620 H     1 <1>   0.1500 
 37 H       -6.2320    -1.7200    -0.5390 H     1 <1>   0.1500 
 38 H       -3.6430     1.3920    -2.9270 H     1 <1>   0.4000 
 39 H       -1.7590     5.1160    -2.8920 H     1 <1>   0.1500 
 40 H       -3.5260     6.0600     0.8620 H     1 <1>   0.1500 
 41 H       -3.8810    -3.7250     2.1600 H     1 <1>   0.1500 
 42 H       -1.3980    -2.5310    -0.2840 H     1 <1>   0.0800 
 43 H       -1.5420    -3.3280     1.2710 H     1 <1>   0.0800 
 44 H       -1.4850    -1.5770     1.1840 H     1 <1>   0.0800 
 45 H       -3.0190     6.6730    -1.4640 H     1 <1>   0.1500 
@<TRIPOS>BOND
  1   1   2  2   
  2   2   3  am  
  3   2   4  1   
  4   3   5  1   
  5   3   6  1   
  6   4   7  1   
  7   4   8  1   
  8   4   9  1   
  9   5  10  1   
 10   5  23  1   
 11   5  24  1   
 12   6  11  1   
 13   6  25  1   
 14   6  26  1   
 15   7  12  ar  
 16   7  13  ar  
 17   8  27  1   
 18   8  28  1   
 19   8  29  1   
 20   9  30  1   
 21   9  31  1   
 22   9  32  1   
 23  10  14  1   
 24  10  15  2   
 25  11  16  1   
 26  11  33  1   
 27  11  34  1   
 28  12  17  ar  
 29  12  35  1   
 30  13  18  ar  
 31  13  36  1   
 32  14  19  1   
 33  14  20  1   
 34  15  21  1   
 35  15  37  1   
 36  16  38  1   
 37  17  22  ar  
 38  17  39  1   
 39  18  22  ar  
 40  18  40  1   
 41  19  21  2   
 42  19  41  1   
 43  20  42  1   
 44  20  43  1   
 45  20  44  1   
 46  22  45  1   
@<TRIPOS>SUBSTRUCTURE
  1 ****   3 GROUP 4 **** **** 0

# MOE 2024.06 (io_trps.svl 2023.06)
