@<TRIPOS>MOLECULE
NONAME
49 51 1 0 0 
SMALL
USER_CHARGES


@<TRIPOS>ATOM
  1 S        0.4390     0.0110     1.9040 S.o2  1 <1>   1.4470 
  2 O       -0.1200     1.0700     2.7190 O.2   1 <1>  -0.6500 
  3 O        1.1710    -1.0330     2.5900 O.2   1 <1>  -0.6500 
  4 N        1.5480     0.7630     0.8600 N.am  1 <1>  -0.8490 
  5 C       -0.8760    -0.5970     0.8060 C.ar  1 <1>  -0.0090 
  6 C        2.4710     1.6370     1.6190 C.3   1 <1>   0.1960 
  7 C        2.2500    -0.2140     0.0080 C.3   1 <1>   0.1960 
  8 C       -0.8700    -1.8770     0.2570 C.ar  1 <1>   0.0830 
  9 C       -1.9280     0.2450     0.4710 C.ar  1 <1>  -0.1500 
 10 C        3.3800     2.5720     0.7770 C.3   1 <1>   0.2200 
 11 C        3.1100     0.3940    -1.1170 C.3   1 <1>  -0.0190 
 12 O        0.1680    -2.6980     0.5500 O.3   1 <1>  -0.3620 
 13 C       -1.9030    -2.2860    -0.5830 C.ar  1 <1>  -0.1500 
 14 C       -2.9600    -0.1520    -0.3650 C.ar  1 <1>  -0.1430 
 15 N        2.8550     2.8260    -0.6010 N.am  1 <1>  -0.6600 
 16 C        4.8390     2.0760     0.7260 C.3   1 <1>   0.1200 
 17 C        2.7000     1.8040    -1.4980 C.2   1 <1>   0.5690 
 18 C        4.6190     0.3160    -0.8440 C.3   1 <1>   0.1200 
 19 C        0.0670    -4.0990     0.4290 C.3   1 <1>   0.0400 
 20 C       -2.9480    -1.4350    -0.8950 C.ar  1 <1>  -0.1440 
 21 C       -4.0770     0.8330    -0.6800 C.3   1 <1>  -0.0970 
 22 C        2.3540     4.2000    -0.8740 C.3   1 <1>   0.0600 
 23 O        4.9380     0.7090     0.4540 O.3   1 <1>  -0.5600 
 24 O        2.2790     1.9860    -2.6180 O.2   1 <1>  -0.5700 
 25 C       -4.0560    -1.9210    -1.8190 C.3   1 <1>  -0.0970 
 26 H        1.8860     2.2850     2.2470 H     1 <1>   0.0800 
 27 H        3.0740     1.0360     2.2790 H     1 <1>   0.0800 
 28 H        2.8490    -0.8700     0.6190 H     1 <1>   0.0800 
 29 H        1.5100    -0.8230    -0.4770 H     1 <1>   0.0800 
 30 H       -1.9350     1.2420     0.8800 H     1 <1>   0.1500 
 31 H        3.4140     3.5160     1.2910 H     1 <1>   0.0800 
 32 H        2.9470    -0.2120    -1.9880 H     1 <1>   0.0800 
 33 H       -1.8970    -3.2700    -1.0090 H     1 <1>   0.1500 
 34 H        5.2910     2.2250     1.6910 H     1 <1>   0.0800 
 35 H        5.4080     2.6270    -0.0020 H     1 <1>   0.0800 
 36 H        5.1740     0.9190    -1.5440 H     1 <1>   0.0800 
 37 H        4.9450    -0.7040    -0.9450 H     1 <1>   0.0800 
 38 H        0.9330    -4.5350     0.8960 H     1 <1>   0.0800 
 39 H        0.0430    -4.3620    -0.6130 H     1 <1>   0.0800 
 40 H       -0.8240    -4.4310     0.9330 H     1 <1>   0.0800 
 41 H       -3.9150     1.7730    -0.1840 H     1 <1>   0.0800 
 42 H       -5.0210     0.4370    -0.3510 H     1 <1>   0.0800 
 43 H       -4.1200     1.0150    -1.7380 H     1 <1>   0.0800 
 44 H        3.1500     4.9120    -0.7500 H     1 <1>   0.0800 
 45 H        1.5530     4.4340    -0.1950 H     1 <1>   0.0800 
 46 H        1.9800     4.2760    -1.8810 H     1 <1>   0.0800 
 47 H       -3.8880    -2.9370    -2.1270 H     1 <1>   0.0800 
 48 H       -4.0980    -1.3050    -2.6990 H     1 <1>   0.0800 
 49 H       -5.0040    -1.8760    -1.3140 H     1 <1>   0.0800 
@<TRIPOS>BOND
  1   1   2  2   
  2   1   3  2   
  3   1   4  am  
  4   1   5  1   
  5   4   6  1   
  6   4   7  1   
  7   5   8  ar  
  8   5   9  ar  
  9   6  10  1   
 10   6  26  1   
 11   6  27  1   
 12   7  11  1   
 13   7  28  1   
 14   7  29  1   
 15   8  12  1   
 16   8  13  ar  
 17   9  14  ar  
 18   9  30  1   
 19  10  15  1   
 20  10  16  1   
 21  10  31  1   
 22  11  17  1   
 23  11  18  1   
 24  11  32  1   
 25  12  19  1   
 26  13  20  ar  
 27  13  33  1   
 28  14  20  ar  
 29  14  21  1   
 30  15  17  am  
 31  15  22  1   
 32  16  23  1   
 33  16  34  1   
 34  16  35  1   
 35  17  24  2   
 36  18  23  1   
 37  18  36  1   
 38  18  37  1   
 39  19  38  1   
 40  19  39  1   
 41  19  40  1   
 42  20  25  1   
 43  21  41  1   
 44  21  42  1   
 45  21  43  1   
 46  22  44  1   
 47  22  45  1   
 48  22  46  1   
 49  25  47  1   
 50  25  48  1   
 51  25  49  1   
@<TRIPOS>SUBSTRUCTURE
  1 ****   4 GROUP 4 **** **** 0

# MOE 2024.06 (io_trps.svl 2023.06)
