@<TRIPOS>MOLECULE
NONAME
54 56 1 0 0 
SMALL
USER_CHARGES


@<TRIPOS>ATOM
  1 S       -0.7760    -0.5740     0.2680 S.3   1 <1>  -0.0800 
  2 C       -1.3580     1.0180     0.7370 C.2   1 <1>  -0.0130 
  3 C       -1.6000    -1.3860     1.5970 C.2   1 <1>  -0.0450 
  4 C       -1.0260     2.1310    -0.1160 C.ar  1 <1>   0.0530 
  5 C       -2.0750     0.8950     1.8850 C.2   1 <1>  -0.1810 
  6 C       -1.5410    -2.8190     1.7430 C.2   1 <1>   0.7150 
  7 C       -2.2050    -0.4390     2.3560 C.2   1 <1>  -0.1500 
  8 C       -1.9770     3.0970    -0.4420 C.ar  1 <1>  -0.1500 
  9 C        0.2500     2.2740    -0.6600 C.ar  1 <1>  -0.1500 
 10 C       -2.6940     2.0320     2.6810 C.3   1 <1>  -0.0590 
 11 O       -1.2020    -3.2800     2.8140 O.2   1 <1>  -0.5700 
 12 N       -1.9510    -3.6860     0.7420 N.am  1 <1>  -0.6600 
 13 C       -1.6720     4.1570    -1.2770 C.ar  1 <1>  -0.1500 
 14 C        0.5610     3.3300    -1.4970 C.ar  1 <1>  -0.1500 
 15 C       -2.0710    -5.1500     1.0230 C.3   1 <1>   0.3200 
 16 C       -2.5470    -3.2310    -0.5560 C.3   1 <1>   0.1400 
 17 C       -0.4000     4.2740    -1.8080 C.ar  1 <1>  -0.1500 
 18 C       -3.5360    -5.5200     0.9120 C.2   1 <1>  -0.3320 
 19 C       -3.9350    -2.5940    -0.3310 C.3   1 <1>   0.3430 
 20 N       -4.0460    -6.4120     0.0400 N.pl3 1 <1>   0.0330 
 21 C       -4.5830    -5.0300     1.6100 C.2   1 <1>   0.0770 
 22 N       -4.4100    -1.7540    -1.4800 N.4   1 <1>  -0.9590 
 23 C       -5.3820    -6.3670     0.2340 C.2   1 <1>   0.0060 
 24 N       -5.7420    -5.5320     1.1520 N.2   1 <1>  -0.5650 
 25 C       -3.6430    -0.4690    -1.5900 C.3   1 <1>   0.2630 
 26 C       -5.8690    -1.4720    -1.3050 C.3   1 <1>   0.2630 
 27 C       -6.3550    -7.2260    -0.5470 C.3   1 <1>  -0.0600 
 28 H       -2.7470    -0.6590     3.2610 H     1 <1>   0.1500 
 29 H       -2.9690     3.0190    -0.0380 H     1 <1>   0.1500 
 30 H        1.0120     1.5540    -0.4200 H     1 <1>   0.1500 
 31 H       -2.3430     2.9850     2.3290 H     1 <1>   0.0800 
 32 H       -2.4180     1.9420     3.7170 H     1 <1>   0.0800 
 33 H       -3.7650     2.0020     2.6050 H     1 <1>   0.0800 
 34 H       -2.4190     4.8950    -1.5140 H     1 <1>   0.1500 
 35 H        1.5540     3.4200    -1.9040 H     1 <1>   0.1500 
 36 H       -1.7120    -5.4030     2.0070 H     1 <1>   0.0800 
 37 H       -1.4820    -5.6980     0.3090 H     1 <1>   0.0800 
 38 H       -2.6510    -4.0740    -1.2160 H     1 <1>   0.0800 
 39 H       -1.8780    -2.5420    -1.0310 H     1 <1>   0.0800 
 40 H       -0.1580     5.0990    -2.4570 H     1 <1>   0.1500 
 41 H       -3.9010    -1.9840     0.5560 H     1 <1>   0.0800 
 42 H       -4.6440    -3.3870    -0.1590 H     1 <1>   0.0800 
 43 H       -3.5480    -7.0220    -0.6160 H     1 <1>   0.2700 
 44 H       -4.5620    -4.3180     2.4200 H     1 <1>   0.1500 
 45 H       -4.2960    -2.2910    -2.3530 H     1 <1>   0.4500 
 46 H       -3.7000     0.0830    -0.6650 H     1 <1>   0.0800 
 47 H       -4.0450     0.1420    -2.3820 H     1 <1>   0.0800 
 48 H       -2.6060    -0.6640    -1.8060 H     1 <1>   0.0800 
 49 H       -6.0360    -0.9070    -0.4020 H     1 <1>   0.0800 
 50 H       -6.4230    -2.3950    -1.2380 H     1 <1>   0.0800 
 51 H       -6.2450    -0.9060    -2.1420 H     1 <1>   0.0800 
 52 H       -6.2750    -7.0240    -1.5990 H     1 <1>   0.0800 
 53 H       -7.3610    -7.0160    -0.2300 H     1 <1>   0.0800 
 54 H       -6.1520    -8.2660    -0.3670 H     1 <1>   0.0800 
@<TRIPOS>BOND
  1   1   2  1   
  2   1   3  1   
  3   2   4  1   
  4   2   5  2   
  5   3   6  1   
  6   3   7  2   
  7   4   8  ar  
  8   4   9  ar  
  9   5   7  1   
 10   5  10  1   
 11   6  11  2   
 12   6  12  am  
 13   7  28  1   
 14   8  13  ar  
 15   8  29  1   
 16   9  14  ar  
 17   9  30  1   
 18  10  31  1   
 19  10  32  1   
 20  10  33  1   
 21  12  15  1   
 22  12  16  1   
 23  13  17  ar  
 24  13  34  1   
 25  14  17  ar  
 26  14  35  1   
 27  15  18  1   
 28  15  36  1   
 29  15  37  1   
 30  16  19  1   
 31  16  38  1   
 32  16  39  1   
 33  17  40  1   
 34  18  20  1   
 35  18  21  2   
 36  19  22  1   
 37  19  41  1   
 38  19  42  1   
 39  20  23  1   
 40  20  43  1   
 41  21  24  1   
 42  21  44  1   
 43  22  25  1   
 44  22  26  1   
 45  22  45  1   
 46  23  24  2   
 47  23  27  1   
 48  25  46  1   
 49  25  47  1   
 50  25  48  1   
 51  26  49  1   
 52  26  50  1   
 53  26  51  1   
 54  27  52  1   
 55  27  53  1   
 56  27  54  1   
@<TRIPOS>SUBSTRUCTURE
  1 ****   3 GROUP 4 **** **** 0

# MOE 2024.06 (io_trps.svl 2023.06)
