@<TRIPOS>MOLECULE
NONAME
48 50 1 0 0 
SMALL
USER_CHARGES


@<TRIPOS>ATOM
  1 S        1.3950     1.3290     1.0010 S.o2  1 <1>   1.3330 
  2 O        1.4770     2.6170     1.6520 O.2   1 <1>  -0.6500 
  3 O        1.3600     0.1240     1.8000 O.2   1 <1>  -0.6500 
  4 N        0.0190     1.3260     0.0070 N.am  1 <1>  -0.8490 
  5 C        2.7440     1.2180    -0.1730 C.3   1 <1>  -0.0550 
  6 C       -0.3940    -0.0150    -0.4180 C.3   1 <1>   0.1160 
  7 C       -1.1130     2.0250     0.6240 C.3   1 <1>   0.1160 
  8 C        4.1320     1.2630     0.4880 C.3   1 <1>  -0.0800 
  9 C        5.2570     1.2310    -0.5270 C.3   1 <1>   0.2200 
 10 C        4.4600     0.0590     1.3620 C.3   1 <1>   0.1200 
 11 N        5.5770     2.6000    -0.9770 N.am  1 <1>  -0.7300 
 12 C        6.4030     0.5640     0.2300 C.3   1 <1>   0.1200 
 13 O        5.8500    -0.0330     1.3670 O.3   1 <1>  -0.5600 
 14 C        5.1000     3.1820    -2.1070 C.2   1 <1>   0.5690 
 15 O        4.4390     2.5580    -2.9030 O.2   1 <1>  -0.5700 
 16 C        5.3700     4.6580    -2.3660 C.3   1 <1>   0.0820 
 17 C        5.9200     5.3970    -1.1500 C.2   1 <1>  -0.1810 
 18 C        5.2460     5.5090     0.0880 C.ar  1 <1>   0.0000 
 19 C        7.1070     6.0380    -1.0290 C.2   1 <1>  -0.3020 
 20 C        6.0920     6.2180     0.9330 C.ar  1 <1>  -0.1520 
 21 C        4.0100     5.0590     0.5680 C.ar  1 <1>  -0.1500 
 22 N        7.2240     6.5490     0.2330 N.pl3 1 <1>   0.0330 
 23 C        5.7310     6.4760     2.2580 C.ar  1 <1>  -0.1500 
 24 C        3.6580     5.3080     1.8730 C.ar  1 <1>  -0.1500 
 25 C        4.5190     6.0170     2.7190 C.ar  1 <1>  -0.1500 
 26 H        2.6510     0.3140    -0.7420 H     1 <1>   0.0800 
 27 H        2.6650     2.0400    -0.8580 H     1 <1>   0.0800 
 28 H       -1.2130     0.0530    -1.1140 H     1 <1>   0.0800 
 29 H       -0.7040    -0.6020     0.4320 H     1 <1>   0.0800 
 30 H        0.4230    -0.5180    -0.9060 H     1 <1>   0.0800 
 31 H       -1.9620     2.0190    -0.0380 H     1 <1>   0.0800 
 32 H       -0.8490     3.0510     0.8210 H     1 <1>   0.0800 
 33 H       -1.3830     1.5520     1.5540 H     1 <1>   0.0800 
 34 H        4.2170     2.1440     1.1020 H     1 <1>   0.0800 
 35 H        4.9940     0.6160    -1.3720 H     1 <1>   0.0800 
 36 H        4.0710    -0.8540     0.9440 H     1 <1>   0.0800 
 37 H        4.1100     0.1750     2.3750 H     1 <1>   0.0800 
 38 H        6.0100     3.2160    -0.2780 H     1 <1>   0.3700 
 39 H        7.1340     1.2810     0.5590 H     1 <1>   0.0800 
 40 H        6.8710    -0.2010    -0.3640 H     1 <1>   0.0800 
 41 H        6.0670     4.7340    -3.1790 H     1 <1>   0.0800 
 42 H        4.4520     5.1230    -2.6730 H     1 <1>   0.0800 
 43 H        7.8850     6.1640    -1.7640 H     1 <1>   0.1500 
 44 H        3.3460     4.5210    -0.0840 H     1 <1>   0.1500 
 45 H        8.0120     7.0890     0.6050 H     1 <1>   0.2700 
 46 H        6.3960     7.0240     2.9020 H     1 <1>   0.1500 
 47 H        2.7130     4.9570     2.2550 H     1 <1>   0.1500 
 48 H        4.2170     6.1980     3.7360 H     1 <1>   0.1500 
@<TRIPOS>BOND
  1   1   2  2   
  2   1   3  2   
  3   1   4  am  
  4   1   5  1   
  5   4   6  1   
  6   4   7  1   
  7   5   8  1   
  8   5  26  1   
  9   5  27  1   
 10   6  28  1   
 11   6  29  1   
 12   6  30  1   
 13   7  31  1   
 14   7  32  1   
 15   7  33  1   
 16   8   9  1   
 17   8  10  1   
 18   8  34  1   
 19   9  11  1   
 20   9  12  1   
 21   9  35  1   
 22  10  13  1   
 23  10  36  1   
 24  10  37  1   
 25  11  14  am  
 26  11  38  1   
 27  12  13  1   
 28  12  39  1   
 29  12  40  1   
 30  14  15  2   
 31  14  16  1   
 32  16  17  1   
 33  16  41  1   
 34  16  42  1   
 35  17  18  1   
 36  17  19  2   
 37  18  20  ar  
 38  18  21  ar  
 39  19  22  1   
 40  19  43  1   
 41  20  22  1   
 42  20  23  ar  
 43  21  24  ar  
 44  21  44  1   
 45  22  45  1   
 46  23  25  ar  
 47  23  46  1   
 48  24  25  ar  
 49  24  47  1   
 50  25  48  1   
@<TRIPOS>SUBSTRUCTURE
  1 ****   8 GROUP 4 **** **** 0

# MOE 2024.06 (io_trps.svl 2023.06)
