@<TRIPOS>MOLECULE
NONAME
48 49 1 0 0 
SMALL
USER_CHARGES


@<TRIPOS>ATOM
  1 O       -1.6370    -0.0210     2.2710 O.2   1 <1>  -0.5700 
  2 C       -1.9920     0.4260     1.2070 C.2   1 <1>   0.5690 
  3 N       -2.3080    -0.3900     0.1540 N.am  1 <1>  -0.6600 
  4 C       -2.0880     1.9410     1.0400 C.3   1 <1>  -0.0990 
  5 C       -2.2240    -1.8860     0.3000 C.3   1 <1>   0.3640 
  6 C       -2.8310     0.1140    -1.1560 C.3   1 <1>   0.1400 
  7 C       -1.5560     2.7520     2.2350 C.3   1 <1>  -0.1600 
  8 C       -0.9170    -2.4530    -0.2850 C.ar  1 <1>  -0.1440 
  9 C       -3.4760    -2.5890    -0.3200 C.3   1 <1>   0.2000 
 10 C       -3.2510    -1.0250    -2.0970 C.3   1 <1>   0.1200 
 11 C       -1.6700     4.2600     1.9870 C.3   1 <1>  -0.2400 
 12 C       -0.6390    -3.7990    -0.0770 C.ar  1 <1>  -0.1500 
 13 C        0.0080    -1.6930    -0.9970 C.ar  1 <1>  -0.1500 
 14 O       -4.0730    -1.9110    -1.4050 O.3   1 <1>  -0.5600 
 15 C       -4.5750    -2.7880     0.7300 C.3   1 <1>   0.1200 
 16 C        0.5060    -4.3880    -0.5860 C.ar  1 <1>   0.0820 
 17 C        1.1660    -2.2660    -1.4940 C.ar  1 <1>  -0.1500 
 18 O       -4.2090    -3.7880     1.6260 O.3   1 <1>  -0.6800 
 19 O        0.6660    -5.7180    -0.3760 O.3   1 <1>  -0.3630 
 20 C        1.4310    -3.6070    -1.2840 C.ar  1 <1>   0.0820 
 21 C        0.7020    -6.5400    -1.5230 C.3   1 <1>   0.0400 
 22 O        2.6010    -4.0970    -1.7620 O.3   1 <1>  -0.3630 
 23 C        3.5500    -4.4830    -0.7920 C.3   1 <1>   0.0400 
 24 H       -1.5310     2.2200     0.1650 H     1 <1>   0.0800 
 25 H       -3.1200     2.1940     0.8810 H     1 <1>   0.0800 
 26 H       -2.2040    -2.1340     1.3470 H     1 <1>   0.0800 
 27 H       -3.6890     0.7380    -0.9760 H     1 <1>   0.0800 
 28 H       -2.0780     0.7100    -1.6400 H     1 <1>   0.0800 
 29 H       -2.1140     2.4920     3.1200 H     1 <1>   0.0800 
 30 H       -0.5250     2.4940     2.4110 H     1 <1>   0.0800 
 31 H       -3.1970    -3.5570    -0.6940 H     1 <1>   0.0800 
 32 H       -2.3990    -1.5610    -2.4770 H     1 <1>   0.0800 
 33 H       -3.8110    -0.6340    -2.9280 H     1 <1>   0.0800 
 34 H       -2.6980     4.5400     1.8330 H     1 <1>   0.0800 
 35 H       -1.0970     4.5450     1.1230 H     1 <1>   0.0800 
 36 H       -1.2940     4.8000     2.8390 H     1 <1>   0.0800 
 37 H       -1.3160    -4.4150     0.4880 H     1 <1>   0.1500 
 38 H       -0.1500    -0.6450    -1.1660 H     1 <1>   0.1500 
 39 H       -5.4990    -3.0810     0.2630 H     1 <1>   0.0800 
 40 H       -4.7240    -1.8790     1.2880 H     1 <1>   0.0800 
 41 H        1.8770    -1.6710    -2.0390 H     1 <1>   0.1500 
 42 H       -4.3420    -4.6730     1.2330 H     1 <1>   0.4000 
 43 H        0.6720    -7.5650    -1.2020 H     1 <1>   0.0800 
 44 H        1.6100    -6.3550    -2.0670 H     1 <1>   0.0800 
 45 H       -0.1540    -6.3190    -2.1360 H     1 <1>   0.0800 
 46 H        4.4510    -4.7730    -1.3000 H     1 <1>   0.0800 
 47 H        3.1640    -5.3120    -0.2260 H     1 <1>   0.0800 
 48 H        3.7430    -3.6470    -0.1440 H     1 <1>   0.0800 
@<TRIPOS>BOND
  1   1   2  2   
  2   2   3  am  
  3   2   4  1   
  4   3   5  1   
  5   3   6  1   
  6   4   7  1   
  7   4  24  1   
  8   4  25  1   
  9   5   8  1   
 10   5   9  1   
 11   5  26  1   
 12   6  10  1   
 13   6  27  1   
 14   6  28  1   
 15   7  11  1   
 16   7  29  1   
 17   7  30  1   
 18   8  12  ar  
 19   8  13  ar  
 20   9  14  1   
 21   9  15  1   
 22   9  31  1   
 23  10  14  1   
 24  10  32  1   
 25  10  33  1   
 26  11  34  1   
 27  11  35  1   
 28  11  36  1   
 29  12  16  ar  
 30  12  37  1   
 31  13  17  ar  
 32  13  38  1   
 33  15  18  1   
 34  15  39  1   
 35  15  40  1   
 36  16  19  1   
 37  16  20  ar  
 38  17  20  ar  
 39  17  41  1   
 40  18  42  1   
 41  19  21  1   
 42  20  22  1   
 43  21  43  1   
 44  21  44  1   
 45  21  45  1   
 46  22  23  1   
 47  23  46  1   
 48  23  47  1   
 49  23  48  1   
@<TRIPOS>SUBSTRUCTURE
  1 ****   8 GROUP 4 **** **** 0

# MOE 2024.06 (io_trps.svl 2023.06)
