@<TRIPOS>MOLECULE
NONAME
40 41 1 0 0 
SMALL
USER_CHARGES


@<TRIPOS>ATOM
  1 S       -1.0350     0.7870     1.5590 S.o2  1 <1>   1.4470 
  2 O       -0.9840    -0.3200     2.4880 O.2   1 <1>  -0.6500 
  3 O       -1.7170     1.9990     1.9650 O.2   1 <1>  -0.6500 
  4 N       -1.7680     0.2820     0.1110 N.am  1 <1>  -0.8490 
  5 C        0.6500     1.2370     1.0500 C.ar  1 <1>  -0.0090 
  6 C       -1.1700    -0.8960    -0.5520 C.3   1 <1>   0.1960 
  7 C       -3.2330     0.2340     0.1480 C.3   1 <1>   0.1960 
  8 C        0.9200     2.4770     0.4790 C.ar  1 <1>  -0.1500 
  9 C        1.7090     0.3470     1.1930 C.ar  1 <1>  -0.1500 
 10 C       -1.6560    -2.2320     0.0240 C.3   1 <1>  -0.1860 
 11 C       -3.7510    -1.0580     0.7840 C.3   1 <1>  -0.1600 
 12 C        2.1970     2.8260     0.0740 C.ar  1 <1>  -0.1500 
 13 C        2.9890     0.6850     0.7900 C.ar  1 <1>  -0.1500 
 14 C       -1.1160    -3.3830    -0.7960 C.2   1 <1>   0.9060 
 15 C       -3.1820    -2.2620     0.0420 C.3   1 <1>   0.2000 
 16 C        3.2450     1.9240     0.2300 C.ar  1 <1>   0.0820 
 17 O       -0.2760    -3.1620    -1.6740 O.co2 1 <1>  -0.9000 
 18 O       -1.5470    -4.5210    -0.5680 O.co2 1 <1>  -0.9000 
 19 O       -3.5990    -3.4080     0.6780 O.3   1 <1>  -0.6800 
 20 O        4.5240     2.1790    -0.1380 O.3   1 <1>  -0.3630 
 21 C        4.8840     3.3920    -0.7560 C.3   1 <1>   0.1200 
 22 C        6.3790     3.3430    -1.0580 C.3   1 <1>  -0.2400 
 23 H       -1.4330    -0.8630    -1.5960 H     1 <1>   0.0800 
 24 H       -0.0950    -0.8530    -0.5040 H     1 <1>   0.0800 
 25 H       -3.6210     1.0860     0.6800 H     1 <1>   0.0800 
 26 H       -3.5990     0.2920    -0.8630 H     1 <1>   0.0800 
 27 H        0.1110     3.1770     0.3530 H     1 <1>   0.1500 
 28 H        1.5280    -0.6250     1.6230 H     1 <1>   0.1500 
 29 H       -1.2770    -2.3510     1.0190 H     1 <1>   0.0800 
 30 H       -4.8230    -1.0790     0.7250 H     1 <1>   0.0800 
 31 H       -3.4650    -1.0940     1.8200 H     1 <1>   0.0800 
 32 H        2.3540     3.7960    -0.3580 H     1 <1>   0.1500 
 33 H        3.7970    -0.0160     0.9050 H     1 <1>   0.1500 
 34 H       -3.5570    -2.2950    -0.9670 H     1 <1>   0.0800 
 35 H       -2.9930    -4.1330     0.3440 H     1 <1>   0.4000 
 36 H        4.3160     3.4930    -1.6650 H     1 <1>   0.0800 
 37 H        4.6580     4.1990    -0.0810 H     1 <1>   0.0800 
 38 H        6.5950     2.5220    -1.7180 H     1 <1>   0.0800 
 39 H        6.9370     3.2270    -0.1460 H     1 <1>   0.0800 
 40 H        6.6850     4.2560    -1.5340 H     1 <1>   0.0800 
@<TRIPOS>BOND
  1   1   2  2   
  2   1   3  2   
  3   1   4  am  
  4   1   5  1   
  5   4   6  1   
  6   4   7  1   
  7   5   8  ar  
  8   5   9  ar  
  9   6  10  1   
 10   6  23  1   
 11   6  24  1   
 12   7  11  1   
 13   7  25  1   
 14   7  26  1   
 15   8  12  ar  
 16   8  27  1   
 17   9  13  ar  
 18   9  28  1   
 19  10  14  1   
 20  10  15  1   
 21  10  29  1   
 22  11  15  1   
 23  11  30  1   
 24  11  31  1   
 25  12  16  ar  
 26  12  32  1   
 27  13  16  ar  
 28  13  33  1   
 29  14  17  ar  
 30  14  18  ar  
 31  15  19  1   
 32  15  34  1   
 33  16  20  1   
 34  19  35  1   
 35  20  21  1   
 36  21  22  1   
 37  21  36  1   
 38  21  37  1   
 39  22  38  1   
 40  22  39  1   
 41  22  40  1   
@<TRIPOS>SUBSTRUCTURE
  1 ****   5 GROUP 4 **** **** 0

# MOE 2024.06 (io_trps.svl 2023.06)
