@<TRIPOS>MOLECULE
NONAME
67 69 1 0 0 
SMALL
USER_CHARGES


@<TRIPOS>ATOM
  1 O       -0.0540     1.2410     1.9940 O.2   1 <1>  -0.5700 
  2 C       -0.5870     1.9430     1.1540 C.2   1 <1>   0.5440 
  3 N        0.1240     3.0130     0.7040 N.am  1 <1>  -0.7300 
  4 C       -1.9370     1.6600     0.6780 C.ar  1 <1>   0.0860 
  5 C        1.4300     3.5110     1.1900 C.3   1 <1>   0.2810 
  6 C       -2.6500     2.4770    -0.2190 C.ar  1 <1>   0.0830 
  7 C       -2.6040     0.5230     1.1450 C.ar  1 <1>  -0.1500 
  8 C        2.1090     4.4380     0.1560 C.2   1 <1>   0.5690 
  9 C        1.1900     4.2450     2.5150 C.3   1 <1>  -0.2400 
 10 O       -2.0850     3.5910    -0.7390 O.3   1 <1>  -0.3630 
 11 C       -3.9420     2.1560    -0.6150 C.ar  1 <1>  -0.1500 
 12 C       -3.8930     0.2100     0.7550 C.ar  1 <1>  -0.1500 
 13 O        1.4940     4.8310    -0.8150 O.2   1 <1>  -0.5700 
 14 N        3.3950     4.8430     0.3640 N.am  1 <1>  -0.7300 
 15 C       -2.6480     4.8630    -0.5030 C.3   1 <1>   0.1200 
 16 C       -4.5730     1.0270    -0.1290 C.ar  1 <1>  -0.1440 
 17 C        4.2290     5.5880    -0.6030 C.3   1 <1>   0.1400 
 18 C       -2.6460     5.1680     1.0030 C.3   1 <1>  -0.1600 
 19 C       -5.9850     0.6700    -0.5590 C.3   1 <1>  -0.0970 
 20 C        4.0530     7.0970    -0.4120 C.3   1 <1>  -0.1600 
 21 C       -2.7720     6.6670     1.3160 C.3   1 <1>   0.0960 
 22 C        2.6470     7.5440    -0.8280 C.3   1 <1>   0.3430 
 23 N       -1.5210     7.4040     1.0160 N.pl3 1 <1>   0.3140 
 24 N        2.4000     8.9860    -0.5170 N.4   1 <1>  -0.9590 
 25 N       -0.5930     7.6530     1.9470 N.2   1 <1>  -0.4180 
 26 C       -1.1390     7.9560    -0.1390 C.2   1 <1>  -0.3020 
 27 C        0.9640     9.3250    -0.7860 C.3   1 <1>   0.5240 
 28 C        3.3390     9.9240    -1.1940 C.3   1 <1>   0.3430 
 29 N        0.3530     8.3430     1.4160 N.2   1 <1>  -0.2270 
 30 C        0.0400     8.5390     0.1310 C.2   1 <1>   0.0460 
 31 C        3.2760    11.3110    -0.5500 C.3   1 <1>  -0.1600 
 32 C        4.3520    12.2320    -1.1340 C.3   1 <1>  -0.2400 
 33 H       -0.2540     3.5360    -0.0970 H     1 <1>   0.3700 
 34 H        2.0700     2.6640     1.3640 H     1 <1>   0.0800 
 35 H       -2.0980    -0.1320     1.8340 H     1 <1>   0.1500 
 36 H        0.5640     5.1040     2.3600 H     1 <1>   0.0800 
 37 H        2.1230     4.5750     2.9330 H     1 <1>   0.0800 
 38 H        0.7210     3.5860     3.2240 H     1 <1>   0.0800 
 39 H       -4.4510     2.7880    -1.3190 H     1 <1>   0.1500 
 40 H       -4.3650    -0.6770     1.1420 H     1 <1>   0.1500 
 41 H        3.8850     4.5050     1.1980 H     1 <1>   0.3700 
 42 H       -2.0340     5.5640    -1.0400 H     1 <1>   0.0800 
 43 H       -3.6430     4.8890    -0.9110 H     1 <1>   0.0800 
 44 H        5.2620     5.3170    -0.4510 H     1 <1>   0.0800 
 45 H        3.9570     5.3030    -1.6070 H     1 <1>   0.0800 
 46 H       -3.4750     4.6530     1.4550 H     1 <1>   0.0800 
 47 H       -1.7440     4.8030     1.4620 H     1 <1>   0.0800 
 48 H       -6.5880     0.4470     0.3030 H     1 <1>   0.0800 
 49 H       -5.9620    -0.1940    -1.1990 H     1 <1>   0.0800 
 50 H       -6.4420     1.4820    -1.0940 H     1 <1>   0.0800 
 51 H        4.7880     7.5820    -1.0270 H     1 <1>   0.0800 
 52 H        4.2400     7.3450     0.6170 H     1 <1>   0.0800 
 53 H       -2.9800     6.7930     2.3640 H     1 <1>   0.0800 
 54 H       -3.5800     7.1050     0.7590 H     1 <1>   0.0800 
 55 H        1.9310     6.9500    -0.2840 H     1 <1>   0.0800 
 56 H        2.5000     7.3530    -1.8790 H     1 <1>   0.0800 
 57 H        2.5010     9.0770     0.5050 H     1 <1>   0.4500 
 58 H       -1.7150     7.9020    -1.0440 H     1 <1>   0.1500 
 59 H        0.7970    10.3720    -0.6020 H     1 <1>   0.0800 
 60 H        0.7160     9.1170    -1.8130 H     1 <1>   0.0800 
 61 H        4.3480     9.5610    -1.0970 H     1 <1>   0.0800 
 62 H        3.1080     9.9920    -2.2450 H     1 <1>   0.0800 
 63 H        2.3170    11.7680    -0.7190 H     1 <1>   0.0800 
 64 H        3.4380    11.2280     0.5120 H     1 <1>   0.0800 
 65 H        4.2140    12.3630    -2.1940 H     1 <1>   0.0800 
 66 H        5.3370    11.8310    -0.9600 H     1 <1>   0.0800 
 67 H        4.2990    13.2010    -0.6670 H     1 <1>   0.0800 
@<TRIPOS>BOND
  1   1   2  2   
  2   2   3  am  
  3   2   4  1   
  4   3   5  1   
  5   3  33  1   
  6   4   6  ar  
  7   4   7  ar  
  8   5   8  1   
  9   5   9  1   
 10   5  34  1   
 11   6  10  1   
 12   6  11  ar  
 13   7  12  ar  
 14   7  35  1   
 15   8  13  2   
 16   8  14  am  
 17   9  36  1   
 18   9  37  1   
 19   9  38  1   
 20  10  15  1   
 21  11  16  ar  
 22  11  39  1   
 23  12  16  ar  
 24  12  40  1   
 25  14  17  1   
 26  14  41  1   
 27  15  18  1   
 28  15  42  1   
 29  15  43  1   
 30  16  19  1   
 31  17  20  1   
 32  17  44  1   
 33  17  45  1   
 34  18  21  1   
 35  18  46  1   
 36  18  47  1   
 37  19  48  1   
 38  19  49  1   
 39  19  50  1   
 40  20  22  1   
 41  20  51  1   
 42  20  52  1   
 43  21  23  1   
 44  21  53  1   
 45  21  54  1   
 46  22  24  1   
 47  22  55  1   
 48  22  56  1   
 49  23  25  1   
 50  23  26  1   
 51  24  27  1   
 52  24  28  1   
 53  24  57  1   
 54  25  29  2   
 55  26  30  2   
 56  26  58  1   
 57  27  30  1   
 58  27  59  1   
 59  27  60  1   
 60  28  31  1   
 61  28  61  1   
 62  28  62  1   
 63  29  30  1   
 64  31  32  1   
 65  31  63  1   
 66  31  64  1   
 67  32  65  1   
 68  32  66  1   
 69  32  67  1   
@<TRIPOS>SUBSTRUCTURE
  1 ****  13 GROUP 4 **** **** 0

# MOE 2024.06 (io_trps.svl 2023.06)
