@<TRIPOS>MOLECULE
NONAME
56 58 1 0 0 
SMALL
USER_CHARGES


@<TRIPOS>ATOM
  1 O       -0.3360     0.8270     0.1420 O.2   1 <1>  -0.5700 
  2 C       -0.3550     2.0330     0.2220 C.2   1 <1>   0.5690 
  3 N       -1.4560     2.7220     0.6540 N.am  1 <1>  -0.6600 
  4 C        0.8940     2.8000    -0.2130 C.3   1 <1>   0.1810 
  5 C       -1.4620     4.2220     0.7100 C.3   1 <1>   0.3640 
  6 C       -2.6580     2.0410     1.2170 C.3   1 <1>   0.0600 
  7 O        0.9680     4.0920     0.3370 O.3   1 <1>  -0.5600 
  8 C       -2.7200     4.7970     0.0340 C.ar  1 <1>  -0.1430 
  9 C       -0.1870     4.8860     0.1220 C.3   1 <1>   0.2610 
 10 C       -3.1750     4.4480    -1.2440 C.ar  1 <1>  -0.1430 
 11 C       -3.4360     5.7390     0.7620 C.ar  1 <1>  -0.1500 
 12 C        0.0350     6.3120     0.6640 C.2   1 <1>   0.5690 
 13 C       -4.3250     5.0440    -1.7440 C.ar  1 <1>  -0.1500 
 14 C       -2.4900     3.4220    -2.1420 C.3   1 <1>  -0.0960 
 15 C       -4.5780     6.3280     0.2530 C.ar  1 <1>  -0.1500 
 16 O       -0.5320     6.6430     1.6830 O.2   1 <1>  -0.5700 
 17 N        0.8650     7.1960     0.0050 N.am  1 <1>  -0.6600 
 18 C       -5.0240     5.9790    -1.0050 C.ar  1 <1>  -0.1500 
 19 C        1.1070     8.5670     0.5280 C.3   1 <1>   0.1400 
 20 C        1.7560     6.8430    -1.1320 C.3   1 <1>   0.1400 
 21 C        2.5600     8.6750     1.0060 C.3   1 <1>  -0.1600 
 22 C        3.2150     6.9140    -0.6700 C.3   1 <1>  -0.1600 
 23 C        3.6050     8.2810    -0.0640 C.3   1 <1>   0.0000 
 24 C        4.9850     8.1880     0.6350 C.3   1 <1>  -0.1600 
 25 C        3.6510     9.3610    -1.1660 C.3   1 <1>  -0.2400 
 26 C        6.1690     7.7740    -0.2550 C.3   1 <1>  -0.2400 
 27 H        0.9120     2.8820    -1.2830 H     1 <1>   0.0800 
 28 H        1.7670     2.2610     0.1090 H     1 <1>   0.0800 
 29 H       -1.5000     4.4690     1.7570 H     1 <1>   0.0800 
 30 H       -2.8350     2.3850     2.2200 H     1 <1>   0.0800 
 31 H       -2.5150     0.9740     1.2390 H     1 <1>   0.0800 
 32 H       -3.5210     2.2580     0.6130 H     1 <1>   0.0800 
 33 H       -0.3200     4.9760    -0.9370 H     1 <1>   0.0800 
 34 H       -3.1050     6.0340     1.7440 H     1 <1>   0.1500 
 35 H       -4.6910     4.7820    -2.7210 H     1 <1>   0.1500 
 36 H       -2.8470     3.4970    -3.1530 H     1 <1>   0.0800 
 37 H       -2.7010     2.4280    -1.7890 H     1 <1>   0.0800 
 38 H       -1.4290     3.5640    -2.1630 H     1 <1>   0.0800 
 39 H       -5.1140     7.0570     0.8350 H     1 <1>   0.1500 
 40 H       -5.9130     6.4320    -1.4080 H     1 <1>   0.1500 
 41 H        0.9090     9.2840    -0.2490 H     1 <1>   0.0800 
 42 H        0.4450     8.7870     1.3480 H     1 <1>   0.0800 
 43 H        1.5550     5.8550    -1.5000 H     1 <1>   0.0800 
 44 H        1.5870     7.5330    -1.9400 H     1 <1>   0.0800 
 45 H        2.7430     9.6800     1.3440 H     1 <1>   0.0800 
 46 H        2.6610     8.0300     1.8620 H     1 <1>   0.0800 
 47 H        3.3650     6.1400     0.0630 H     1 <1>   0.0800 
 48 H        3.8480     6.6870    -1.5090 H     1 <1>   0.0800 
 49 H        5.2160     9.1420     1.0780 H     1 <1>   0.0800 
 50 H        4.9180     7.4790     1.4420 H     1 <1>   0.0800 
 51 H        3.9950    10.2950    -0.7590 H     1 <1>   0.0800 
 52 H        2.6840     9.5250    -1.6020 H     1 <1>   0.0800 
 53 H        4.3180     9.0730    -1.9580 H     1 <1>   0.0800 
 54 H        6.3270     8.4830    -1.0470 H     1 <1>   0.0800 
 55 H        6.0130     6.8000    -0.6800 H     1 <1>   0.0800 
 56 H        7.0650     7.7360     0.3380 H     1 <1>   0.0800 
@<TRIPOS>BOND
  1   1   2  2   
  2   2   3  am  
  3   2   4  1   
  4   3   5  1   
  5   3   6  1   
  6   4   7  1   
  7   4  27  1   
  8   4  28  1   
  9   5   8  1   
 10   5   9  1   
 11   5  29  1   
 12   6  30  1   
 13   6  31  1   
 14   6  32  1   
 15   7   9  1   
 16   8  10  ar  
 17   8  11  ar  
 18   9  12  1   
 19   9  33  1   
 20  10  13  ar  
 21  10  14  1   
 22  11  15  ar  
 23  11  34  1   
 24  12  16  2   
 25  12  17  am  
 26  13  18  ar  
 27  13  35  1   
 28  14  36  1   
 29  14  37  1   
 30  14  38  1   
 31  15  18  ar  
 32  15  39  1   
 33  17  19  1   
 34  17  20  1   
 35  18  40  1   
 36  19  21  1   
 37  19  41  1   
 38  19  42  1   
 39  20  22  1   
 40  20  43  1   
 41  20  44  1   
 42  21  23  1   
 43  21  45  1   
 44  21  46  1   
 45  22  23  1   
 46  22  47  1   
 47  22  48  1   
 48  23  24  1   
 49  23  25  1   
 50  24  26  1   
 51  24  49  1   
 52  24  50  1   
 53  25  51  1   
 54  25  52  1   
 55  25  53  1   
 56  26  54  1   
 57  26  55  1   
 58  26  56  1   
@<TRIPOS>SUBSTRUCTURE
  1 ****   9 GROUP 4 **** **** 0

# MOE 2024.06 (io_trps.svl 2023.06)
