@<TRIPOS>MOLECULE
NONAME
50 53 1 0 0 
SMALL
USER_CHARGES


@<TRIPOS>ATOM
  1 O        4.0590    -1.3280    -1.8690 O.2   1 <1>  -0.5700 
  2 C        3.1080    -1.5020    -1.1290 C.2   1 <1>   0.5440 
  3 N        2.7480    -0.4290    -0.3570 N.am  1 <1>  -0.6600 
  4 C        2.4210    -2.7810    -1.0320 C.ar  1 <1>   0.0860 
  5 C        3.4020    -0.2990     0.9930 C.3   1 <1>   0.2200 
  6 C        2.2530     0.7970    -1.0540 C.3   1 <1>   0.1400 
  7 C        1.3040    -2.9590    -0.2390 C.ar  1 <1>  -0.1500 
  8 C        2.8780    -3.9040    -1.7530 C.ar  1 <1>  -0.1500 
  9 C        2.5920     0.5710     1.9670 C.3   1 <1>   0.1200 
 10 C        4.8590     0.2220     0.8700 C.3   1 <1>   0.3430 
 11 C        2.8900     2.1190    -0.5840 C.3   1 <1>  -0.0800 
 12 C        0.6410    -4.1860    -0.1240 C.ar  1 <1>   0.3100 
 13 C        2.2480    -5.1180    -1.6660 C.ar  1 <1>  -0.1500 
 14 O        2.9350     1.9170     1.8240 O.3   1 <1>  -0.5600 
 15 N        5.1380     0.8810    -0.4530 N.4   1 <1>  -0.9590 
 16 C        2.3310     2.5860     0.7690 C.3   1 <1>   0.1200 
 17 C        4.4310     2.1870    -0.6430 C.3   1 <1>   0.3430 
 18 N       -0.4400    -4.2720     0.6890 N.ar  1 <1>  -0.6200 
 19 C        1.1200    -5.2980    -0.8540 C.ar  1 <1>   0.3100 
 20 C        6.5990     0.9990    -0.7120 C.3   1 <1>   0.2630 
 21 C       -0.9900    -5.4460     0.7310 C.ar  1 <1>   0.1670 
 22 N        0.5250    -6.5130    -0.7880 N.ar  1 <1>  -0.6200 
 23 C       -0.5080    -6.5640    -0.0050 C.ar  1 <1>   0.1670 
 24 C       -2.2080    -5.5810     1.6300 C.3   1 <1>  -0.0970 
 25 C       -1.2040    -7.9120     0.0940 C.3   1 <1>  -0.0970 
 26 H        3.4420    -1.2820     1.4300 H     1 <1>   0.0800 
 27 H        2.4290     0.6900    -2.1130 H     1 <1>   0.0800 
 28 H        1.1860     0.8530    -0.9220 H     1 <1>   0.0800 
 29 H        0.8940    -2.1430     0.3260 H     1 <1>   0.1500 
 30 H        3.7430    -3.7940    -2.3860 H     1 <1>   0.1500 
 31 H        2.8450     0.2990     2.9770 H     1 <1>   0.0800 
 32 H        1.5310     0.4390     1.8400 H     1 <1>   0.0800 
 33 H        5.5170    -0.6230     0.9830 H     1 <1>   0.0800 
 34 H        5.0680     0.9040     1.6780 H     1 <1>   0.0800 
 35 H        2.5430     2.8620    -1.2800 H     1 <1>   0.0800 
 36 H        2.6010    -5.9700    -2.2190 H     1 <1>   0.1500 
 37 H        4.7350     0.2120    -1.1500 H     1 <1>   0.4500 
 38 H        1.2630     2.4500     0.8310 H     1 <1>   0.0800 
 39 H        2.5400     3.6330     0.9080 H     1 <1>   0.0800 
 40 H        4.7760     2.8920     0.0960 H     1 <1>   0.0800 
 41 H        4.7050     2.5750    -1.6100 H     1 <1>   0.0800 
 42 H        7.0570     1.6550     0.0100 H     1 <1>   0.0800 
 43 H        6.7710     1.3950    -1.7000 H     1 <1>   0.0800 
 44 H        7.0670     0.0300    -0.6490 H     1 <1>   0.0800 
 45 H       -2.0240    -6.3110     2.3960 H     1 <1>   0.0800 
 46 H       -3.0640    -5.8750     1.0510 H     1 <1>   0.0800 
 47 H       -2.4290    -4.6420     2.1050 H     1 <1>   0.0800 
 48 H       -2.2220    -7.8280    -0.2380 H     1 <1>   0.0800 
 49 H       -1.1830    -8.2660     1.1080 H     1 <1>   0.0800 
 50 H       -0.7050    -8.6360    -0.5260 H     1 <1>   0.0800 
@<TRIPOS>BOND
  1   1   2  2   
  2   2   3  am  
  3   2   4  1   
  4   3   5  1   
  5   3   6  1   
  6   4   7  ar  
  7   4   8  ar  
  8   5   9  1   
  9   5  10  1   
 10   5  26  1   
 11   6  11  1   
 12   6  27  1   
 13   6  28  1   
 14   7  12  ar  
 15   7  29  1   
 16   8  13  ar  
 17   8  30  1   
 18   9  14  1   
 19   9  31  1   
 20   9  32  1   
 21  10  15  1   
 22  10  33  1   
 23  10  34  1   
 24  11  16  1   
 25  11  17  1   
 26  11  35  1   
 27  12  18  ar  
 28  12  19  ar  
 29  13  19  ar  
 30  13  36  1   
 31  14  16  1   
 32  15  17  1   
 33  15  20  1   
 34  15  37  1   
 35  16  38  1   
 36  16  39  1   
 37  17  40  1   
 38  17  41  1   
 39  18  21  ar  
 40  19  22  ar  
 41  20  42  1   
 42  20  43  1   
 43  20  44  1   
 44  21  23  ar  
 45  21  24  1   
 46  22  23  ar  
 47  23  25  1   
 48  24  45  1   
 49  24  46  1   
 50  24  47  1   
 51  25  48  1   
 52  25  49  1   
 53  25  50  1   
@<TRIPOS>SUBSTRUCTURE
  1 ****   4 GROUP 4 **** **** 0

# MOE 2024.06 (io_trps.svl 2023.06)
