@<TRIPOS>MOLECULE
NONAME
48 51 1 0 0 
SMALL
USER_CHARGES


@<TRIPOS>ATOM
  1 O       -1.0560    -0.0270     2.9490 O.3   1 <1>  -0.5600 
  2 C        0.2140     0.1240     2.3820 C.3   1 <1>   0.1200 
  3 C       -2.0500     0.3940     2.0580 C.3   1 <1>   0.1200 
  4 C        0.0580     1.1020     1.2210 C.3   1 <1>   0.2890 
  5 C       -1.3470     0.7640     0.7520 C.3   1 <1>  -0.0800 
  6 N        0.1260     2.4910     1.7290 N.pl3 1 <1>  -0.8690 
  7 C       -2.0610     1.8600    -0.0630 C.3   1 <1>  -0.0170 
  8 C        0.8300     3.4950     1.1650 C.ar  1 <1>   0.7200 
  9 C       -3.4320     1.3880    -0.5240 C.ar  1 <1>  -0.1440 
 10 N        1.1820     3.3720    -0.1060 N.ar  1 <1>  -0.6200 
 11 N        1.0790     4.5050     1.9760 N.ar  1 <1>  -0.6200 
 12 C       -3.5890     0.5810    -1.6310 C.ar  1 <1>  -0.1500 
 13 C       -4.5870     1.7420     0.1420 C.ar  1 <1>  -0.1500 
 14 C        1.8500     4.3800    -0.6100 C.ar  1 <1>   0.1670 
 15 C        1.7510     5.5030     1.4580 C.ar  1 <1>   0.1670 
 16 C       -4.8590     0.1730    -2.0060 C.ar  1 <1>   0.1600 
 17 C       -5.8100     1.2800    -0.3160 C.ar  1 <1>   0.1600 
 18 C        2.1650     5.5010     0.1380 C.ar  1 <1>  -0.1430 
 19 C        2.2410     4.2460    -2.0750 C.3   1 <1>  -0.0170 
 20 C        2.0400     6.6570     2.4010 C.3   1 <1>  -0.0970 
 21 N       -5.9740     0.5010    -1.3730 N.ar  1 <1>  -0.6200 
 22 C        2.9430     6.6720    -0.4650 C.3   1 <1>  -0.0170 
 23 C        3.3050     5.2590    -2.5150 C.3   1 <1>  -0.1600 
 24 C        2.9540     6.6550    -1.9980 C.3   1 <1>  -0.1600 
 25 H        0.9050     0.4750     3.1280 H     1 <1>   0.0800 
 26 H        0.5240    -0.8400     2.0210 H     1 <1>   0.0800 
 27 H       -2.7660    -0.3980     1.9240 H     1 <1>   0.0800 
 28 H       -2.5310     1.2520     2.4950 H     1 <1>   0.0800 
 29 H        0.8000     0.9330     0.4590 H     1 <1>   0.0800 
 30 H       -1.2920    -0.1250     0.1500 H     1 <1>   0.0800 
 31 H       -0.0550     2.6170     2.7230 H     1 <1>   0.4000 
 32 H       -1.4610     2.1150    -0.9190 H     1 <1>   0.0800 
 33 H       -2.1700     2.7540     0.5260 H     1 <1>   0.0800 
 34 H       -2.7370     0.2660    -2.2050 H     1 <1>   0.1500 
 35 H       -4.5480     2.3730     1.0110 H     1 <1>   0.1500 
 36 H       -4.9630    -0.4570    -2.8730 H     1 <1>   0.1500 
 37 H       -6.7000     1.5660     0.2170 H     1 <1>   0.1500 
 38 H        2.6030     3.2500    -2.2560 H     1 <1>   0.0800 
 39 H        1.3520     4.3830    -2.6660 H     1 <1>   0.0800 
 40 H        3.0460     7.0110     2.2750 H     1 <1>   0.0800 
 41 H        1.9240     6.3400     3.4220 H     1 <1>   0.0800 
 42 H        1.3510     7.4590     2.2120 H     1 <1>   0.0800 
 43 H        2.5200     7.6050    -0.1390 H     1 <1>   0.0800 
 44 H        3.9570     6.6230    -0.1080 H     1 <1>   0.0800 
 45 H        4.2630     4.9620    -2.1230 H     1 <1>   0.0800 
 46 H        3.3730     5.2670    -3.5890 H     1 <1>   0.0800 
 47 H        1.9830     6.9390    -2.3660 H     1 <1>   0.0800 
 48 H        3.6700     7.3720    -2.3610 H     1 <1>   0.0800 
@<TRIPOS>BOND
  1   1   2  1   
  2   1   3  1   
  3   2   4  1   
  4   2  25  1   
  5   2  26  1   
  6   3   5  1   
  7   3  27  1   
  8   3  28  1   
  9   4   5  1   
 10   4   6  1   
 11   4  29  1   
 12   5   7  1   
 13   5  30  1   
 14   6   8  1   
 15   6  31  1   
 16   7   9  1   
 17   7  32  1   
 18   7  33  1   
 19   8  10  ar  
 20   8  11  ar  
 21   9  12  ar  
 22   9  13  ar  
 23  10  14  ar  
 24  11  15  ar  
 25  12  16  ar  
 26  12  34  1   
 27  13  17  ar  
 28  13  35  1   
 29  14  18  ar  
 30  14  19  1   
 31  15  18  ar  
 32  15  20  1   
 33  16  21  ar  
 34  16  36  1   
 35  17  21  ar  
 36  17  37  1   
 37  18  22  1   
 38  19  23  1   
 39  19  38  1   
 40  19  39  1   
 41  20  40  1   
 42  20  41  1   
 43  20  42  1   
 44  22  24  1   
 45  22  43  1   
 46  22  44  1   
 47  23  24  1   
 48  23  45  1   
 49  23  46  1   
 50  24  47  1   
 51  24  48  1   
@<TRIPOS>SUBSTRUCTURE
  1 ****   6 GROUP 4 **** **** 0

# MOE 2024.06 (io_trps.svl 2023.06)
