@<TRIPOS>MOLECULE
NONAME
45 49 1 0 0 
SMALL
USER_CHARGES


@<TRIPOS>ATOM
  1 CL      -0.0710    -0.3610     1.2200 Cl    1 <1>  -0.1770 
  2 C        1.5180    -1.0340     0.8950 C.ar  1 <1>   0.1770 
  3 C        1.6710    -2.3730     0.5550 C.ar  1 <1>   0.4100 
  4 C        2.6340    -0.2470     0.9710 C.ar  1 <1>   0.1600 
  5 N        2.8750    -2.8580     0.3140 N.ar  1 <1>  -0.6200 
  6 N        0.5750    -3.2100     0.4640 N.pl3 1 <1>  -0.8690 
  7 N        3.8420    -0.7280     0.7310 N.ar  1 <1>  -0.6200 
  8 C        3.8850    -2.0120     0.4150 C.ar  1 <1>   0.4770 
  9 C        0.4940    -4.6420     0.1230 C.3   1 <1>   0.3690 
 10 C        5.2590    -2.5740     0.1390 C.3   1 <1>  -0.0960 
 11 C       -0.9930    -5.0250     0.1820 C.3   1 <1>  -0.1600 
 12 C        1.0150    -4.9050    -1.3020 C.3   1 <1>  -0.1600 
 13 C        1.2670    -5.5010     1.1410 C.3   1 <1>  -0.1600 
 14 C       -1.1880    -6.5220    -0.1630 C.3   1 <1>   0.2560 
 15 C        0.8580    -6.3960    -1.6520 C.3   1 <1>  -0.0800 
 16 C        1.1100    -6.9940     0.7950 C.3   1 <1>  -0.0800 
 17 N       -2.6380    -6.9170    -0.1100 N.pl3 1 <1>   0.3140 
 18 C       -0.6320    -6.7760    -1.5830 C.3   1 <1>  -0.1600 
 19 C       -0.3820    -7.3690     0.8490 C.3   1 <1>  -0.1600 
 20 C        1.6430    -7.2420    -0.6290 C.3   1 <1>  -0.1600 
 21 N       -3.0650    -8.1540    -0.3690 N.2   1 <1>  -0.7070 
 22 C       -3.7110    -6.1690     0.1830 C.2   1 <1>   0.0360 
 23 C       -4.3430    -8.0550    -0.2130 C.2   1 <1>   0.3660 
 24 N       -4.8000    -6.8460     0.1300 N.2   1 <1>  -0.5650 
 25 H        2.5420     0.7920     1.2320 H     1 <1>   0.1500 
 26 H       -0.3300    -2.7790     0.6610 H     1 <1>   0.4000 
 27 H        5.2010    -3.6210    -0.0920 H     1 <1>   0.0800 
 28 H        5.8810    -2.4390     1.0040 H     1 <1>   0.0800 
 29 H        5.6960    -2.0550    -0.6940 H     1 <1>   0.0800 
 30 H       -1.5370    -4.4210    -0.5220 H     1 <1>   0.0800 
 31 H       -1.3620    -4.8350     1.1750 H     1 <1>   0.0800 
 32 H        2.0550    -4.6440    -1.3690 H     1 <1>   0.0800 
 33 H        0.4750    -4.3010    -2.0080 H     1 <1>   0.0800 
 34 H        0.9010    -5.3120     2.1340 H     1 <1>   0.0800 
 35 H        2.3110    -5.2510     1.1190 H     1 <1>   0.0800 
 36 H        1.2370    -6.5790    -2.6440 H     1 <1>   0.0800 
 37 H        1.6630    -7.5910     1.5010 H     1 <1>   0.0800 
 38 H       -1.1860    -6.2000    -2.3040 H     1 <1>   0.0800 
 39 H       -0.7430    -7.8170    -1.8370 H     1 <1>   0.0800 
 40 H       -0.4910    -8.4150     0.6160 H     1 <1>   0.0800 
 41 H       -0.7590    -7.2120     1.8440 H     1 <1>   0.0800 
 42 H        2.6880    -6.9890    -0.6750 H     1 <1>   0.0800 
 43 H        1.5530    -8.2860    -0.8750 H     1 <1>   0.0800 
 44 H       -3.6570    -5.1260     0.4330 H     1 <1>   0.1500 
 45 H       -5.0210    -8.8830    -0.3450 H     1 <1>   0.1500 
@<TRIPOS>BOND
  1   1   2  1   
  2   2   3  ar  
  3   2   4  ar  
  4   3   5  ar  
  5   3   6  1   
  6   4   7  ar  
  7   4  25  1   
  8   5   8  ar  
  9   6   9  1   
 10   6  26  1   
 11   7   8  ar  
 12   8  10  1   
 13   9  11  1   
 14   9  12  1   
 15   9  13  1   
 16  10  27  1   
 17  10  28  1   
 18  10  29  1   
 19  11  14  1   
 20  11  30  1   
 21  11  31  1   
 22  12  15  1   
 23  12  32  1   
 24  12  33  1   
 25  13  16  1   
 26  13  34  1   
 27  13  35  1   
 28  14  17  1   
 29  14  18  1   
 30  14  19  1   
 31  15  18  1   
 32  15  20  1   
 33  15  36  1   
 34  16  19  1   
 35  16  20  1   
 36  16  37  1   
 37  17  21  1   
 38  17  22  1   
 39  18  38  1   
 40  18  39  1   
 41  19  40  1   
 42  19  41  1   
 43  20  42  1   
 44  20  43  1   
 45  21  23  2   
 46  22  24  2   
 47  22  44  1   
 48  23  24  1   
 49  23  45  1   
@<TRIPOS>SUBSTRUCTURE
  1 ****   9 GROUP 4 **** **** 0

# MOE 2024.06 (io_trps.svl 2023.06)
