@<TRIPOS>MOLECULE
NONAME
53 56 1 0 0 
SMALL
USER_CHARGES


@<TRIPOS>ATOM
  1 O        0.6050     0.4630     2.2250 O.3   1 <1>  -0.6800 
  2 C        1.3200     0.1120     1.0900 C.3   1 <1>   0.2000 
  3 C        2.0130    -1.2310     1.3010 C.3   1 <1>  -0.0800 
  4 C        2.4610     1.1000     0.8330 C.3   1 <1>   0.2090 
  5 C        3.2410    -1.1630     0.3920 C.3   1 <1>   0.2090 
  6 C        1.1130    -2.4550     1.0530 C.3   1 <1>  -0.0170 
  7 N        3.6060     0.2770     0.3260 N.pl3 1 <1>  -0.8380 
  8 C        1.9460    -3.7350     1.0550 C.ar  1 <1>  -0.1440 
  9 C        4.7800     0.8430    -0.0470 C.ar  1 <1>   0.7710 
 10 C        2.4250    -4.3630    -0.1220 C.ar  1 <1>   0.0000 
 11 C        2.2790    -4.3010     2.2510 C.ar  1 <1>  -0.1500 
 12 N        4.8950     2.1580    -0.0180 N.ar  1 <1>  -0.6200 
 13 N        5.7900     0.0490    -0.4380 N.ar  1 <1>  -0.1790 
 14 C        3.2460    -5.5080     0.0360 C.ar  1 <1>   0.3100 
 15 C        2.1460    -3.9340    -1.4430 C.ar  1 <1>  -0.1500 
 16 C        3.0870    -5.4420     2.2940 C.ar  1 <1>   0.1600 
 17 C        6.0470     2.6980    -0.3660 C.ar  1 <1>   0.4100 
 18 C        6.9760     0.5620    -0.8400 C.ar  1 <1>   0.2110 
 19 N        3.5730    -6.0240     1.2460 N.ar  1 <1>  -0.6200 
 20 C        3.7590    -6.1450    -1.1050 C.ar  1 <1>  -0.1500 
 21 C        2.6610    -4.5790    -2.5340 C.ar  1 <1>  -0.1500 
 22 N        6.1300     4.0500    -0.2680 N.pl3 1 <1>  -0.8380 
 23 C        7.1350     1.9080    -0.8220 C.ar  1 <1>  -0.1430 
 24 C        3.4810    -5.6960    -2.3670 C.ar  1 <1>  -0.1500 
 25 C        7.1520     4.7320     0.5730 C.3   1 <1>   0.1290 
 26 C        4.9840     4.9250    -0.6480 C.3   1 <1>   0.1290 
 27 C        8.4370     2.5360    -1.3170 C.3   1 <1>  -0.0970 
 28 H       -0.1780    -0.1090     2.3440 H     1 <1>   0.4000 
 29 H        0.6510     0.0970     0.2460 H     1 <1>   0.0800 
 30 H        2.3820    -1.2710     2.3120 H     1 <1>   0.0800 
 31 H        2.7490     1.5860     1.7510 H     1 <1>   0.0800 
 32 H        2.1700     1.8390     0.1060 H     1 <1>   0.0800 
 33 H        2.9890    -1.5020    -0.5990 H     1 <1>   0.0800 
 34 H        4.0370    -1.7650     0.7960 H     1 <1>   0.0800 
 35 H        0.5630    -2.3480     0.1370 H     1 <1>   0.0800 
 36 H        0.3830    -2.5130     1.8410 H     1 <1>   0.0800 
 37 H        1.9410    -3.8890     3.1860 H     1 <1>   0.1500 
 38 H        5.5990    -0.9450    -0.4230 H     1 <1>   0.4570 
 39 H        1.5080    -3.0890    -1.6100 H     1 <1>   0.1500 
 40 H        3.3250    -5.8570     3.2600 H     1 <1>   0.1500 
 41 H        7.7500    -0.1130    -1.1690 H     1 <1>   0.1500 
 42 H        4.3800    -7.0090    -0.9520 H     1 <1>   0.1500 
 43 H        2.4370    -4.2450    -3.5340 H     1 <1>   0.1500 
 44 H        3.8780    -6.1990    -3.2330 H     1 <1>   0.1500 
 45 H        6.6690     5.3630     1.2990 H     1 <1>   0.0800 
 46 H        7.7900     5.3370    -0.0470 H     1 <1>   0.0800 
 47 H        7.7500     4.0100     1.1010 H     1 <1>   0.0800 
 48 H        5.3450     5.8100    -1.1420 H     1 <1>   0.0800 
 49 H        4.4330     5.2090     0.2320 H     1 <1>   0.0800 
 50 H        4.3210     4.4040    -1.3180 H     1 <1>   0.0800 
 51 H        9.0210     1.8320    -1.8830 H     1 <1>   0.0800 
 52 H        9.0300     2.8780    -0.4880 H     1 <1>   0.0800 
 53 H        8.2210     3.3760    -1.9550 H     1 <1>   0.0800 
@<TRIPOS>BOND
  1   1   2  1   
  2   1  28  1   
  3   2   3  1   
  4   2   4  1   
  5   2  29  1   
  6   3   5  1   
  7   3   6  1   
  8   3  30  1   
  9   4   7  1   
 10   4  31  1   
 11   4  32  1   
 12   5   7  1   
 13   5  33  1   
 14   5  34  1   
 15   6   8  1   
 16   6  35  1   
 17   6  36  1   
 18   7   9  1   
 19   8  10  ar  
 20   8  11  ar  
 21   9  12  ar  
 22   9  13  ar  
 23  10  14  ar  
 24  10  15  ar  
 25  11  16  ar  
 26  11  37  1   
 27  12  17  ar  
 28  13  18  ar  
 29  13  38  1   
 30  14  19  ar  
 31  14  20  ar  
 32  15  21  ar  
 33  15  39  1   
 34  16  19  ar  
 35  16  40  1   
 36  17  22  1   
 37  17  23  ar  
 38  18  23  ar  
 39  18  41  1   
 40  20  24  ar  
 41  20  42  1   
 42  21  24  ar  
 43  21  43  1   
 44  22  25  1   
 45  22  26  1   
 46  23  27  1   
 47  24  44  1   
 48  25  45  1   
 49  25  46  1   
 50  25  47  1   
 51  26  48  1   
 52  26  49  1   
 53  26  50  1   
 54  27  51  1   
 55  27  52  1   
 56  27  53  1   
@<TRIPOS>SUBSTRUCTURE
  1 ****   5 GROUP 4 **** **** 0

# MOE 2024.06 (io_trps.svl 2023.06)
