@<TRIPOS>MOLECULE
NONAME
42 43 1 0 0 
SMALL
USER_CHARGES


@<TRIPOS>ATOM
  1 S       -0.5560    -0.8990    -0.4320 S.3   1 <1>  -0.0800 
  2 C       -1.7970    -1.5910     0.5770 C.2   1 <1>  -0.1400 
  3 C       -1.1490     0.6930    -0.0240 C.2   1 <1>   0.2280 
  4 C       -2.5200    -0.5910     1.1110 C.2   1 <1>   0.0460 
  5 C       -1.8450    -3.1060     0.6760 C.3   1 <1>   0.0200 
  6 N       -2.1480     0.6970     0.7650 N.2   1 <1>  -0.5650 
  7 C       -3.7020    -0.7060     2.0500 C.3   1 <1>  -0.0590 
  8 C       -2.3260    -3.7120    -0.6470 C.3   1 <1>   0.1100 
  9 N       -2.5410    -5.1680    -0.5330 N.3   1 <1>  -0.8100 
 10 C       -3.3810    -5.6540    -1.6750 C.3   1 <1>   0.1710 
 11 C       -1.2580    -5.8970    -0.5050 C.3   1 <1>   0.0300 
 12 C       -3.9910    -7.0390    -1.4520 C.2   1 <1>   0.5690 
 13 O       -4.2660    -7.7260    -2.4060 O.2   1 <1>  -0.5700 
 14 N       -4.1790    -7.4220    -0.1560 N.am  1 <1>  -0.5470 
 15 C       -4.6340    -8.6380     0.3690 C.ar  1 <1>   0.1170 
 16 C       -5.9050    -9.1610     0.0910 C.ar  1 <1>  -0.1440 
 17 C       -3.7780    -9.3340     1.2190 C.ar  1 <1>  -0.1500 
 18 C       -6.2860   -10.3700     0.6510 C.ar  1 <1>  -0.1500 
 19 C       -6.8980    -8.4380    -0.8110 C.3   1 <1>  -0.0970 
 20 C       -4.1560   -10.5390     1.7840 C.ar  1 <1>  -0.1500 
 21 C       -5.4080   -11.0360     1.4850 C.ar  1 <1>   0.1900 
 22 F       -5.7770   -12.1750     2.0110 F     1 <1>  -0.1900 
 23 H       -0.6390     1.5340    -0.4580 H     1 <1>   0.1500 
 24 H       -2.5200    -3.3950     1.4590 H     1 <1>   0.0800 
 25 H       -0.8630    -3.4650     0.9220 H     1 <1>   0.0800 
 26 H       -3.9350    -1.7320     2.2580 H     1 <1>   0.0800 
 27 H       -4.5600    -0.2370     1.6040 H     1 <1>   0.0800 
 28 H       -3.4760    -0.2040     2.9730 H     1 <1>   0.0800 
 29 H       -1.6210    -3.4980    -1.4330 H     1 <1>   0.0800 
 30 H       -3.2580    -3.2330    -0.8990 H     1 <1>   0.0800 
 31 H       -2.7980    -5.6720    -2.5790 H     1 <1>   0.0800 
 32 H       -4.2030    -4.9790    -1.8280 H     1 <1>   0.0800 
 33 H       -0.6910    -5.6270     0.3690 H     1 <1>   0.0800 
 34 H       -0.6750    -5.6710    -1.3820 H     1 <1>   0.0800 
 35 H       -1.4290    -6.9590    -0.4710 H     1 <1>   0.0800 
 36 H       -3.7490    -6.7620     0.4980 H     1 <1>   0.3700 
 37 H       -2.8050    -8.9310     1.4340 H     1 <1>   0.1500 
 38 H       -7.2500   -10.8010     0.4510 H     1 <1>   0.1500 
 39 H       -6.8600    -7.3770    -0.6430 H     1 <1>   0.0800 
 40 H       -7.9020    -8.7710    -0.6190 H     1 <1>   0.0800 
 41 H       -6.6630    -8.6360    -1.8410 H     1 <1>   0.0800 
 42 H       -3.5010   -11.0840     2.4380 H     1 <1>   0.1500 
@<TRIPOS>BOND
  1   1   2  1   
  2   1   3  1   
  3   2   4  2   
  4   2   5  1   
  5   3   6  2   
  6   3  23  1   
  7   4   6  1   
  8   4   7  1   
  9   5   8  1   
 10   5  24  1   
 11   5  25  1   
 12   7  26  1   
 13   7  27  1   
 14   7  28  1   
 15   8   9  1   
 16   8  29  1   
 17   8  30  1   
 18   9  10  1   
 19   9  11  1   
 20  10  12  1   
 21  10  31  1   
 22  10  32  1   
 23  11  33  1   
 24  11  34  1   
 25  11  35  1   
 26  12  13  2   
 27  12  14  am  
 28  14  15  1   
 29  14  36  1   
 30  15  16  ar  
 31  15  17  ar  
 32  16  18  ar  
 33  16  19  1   
 34  17  20  ar  
 35  17  37  1   
 36  18  21  ar  
 37  18  38  1   
 38  19  39  1   
 39  19  40  1   
 40  19  41  1   
 41  20  21  ar  
 42  20  42  1   
 43  21  22  1   
@<TRIPOS>SUBSTRUCTURE
  1 ****   9 GROUP 4 **** **** 0

# MOE 2024.06 (io_trps.svl 2023.06)
