@<TRIPOS>MOLECULE
NONAME
37 39 1 0 0 
SMALL
USER_CHARGES


@<TRIPOS>ATOM
  1 O        1.6090    -0.6770    -1.6540 O.2   1 <1>  -0.5700 
  2 C        1.7050    -0.6940    -0.4400 C.2   1 <1>   0.7150 
  3 N        2.0230     0.4570     0.1940 N.am  1 <1>  -0.7300 
  4 C        1.5180    -1.8910     0.3370 C.2   1 <1>  -0.2370 
  5 C        2.2490     1.7640    -0.4380 C.3   1 <1>   0.4950 
  6 N        0.9980    -3.0710    -0.1440 N.pl3 1 <1>   0.0480 
  7 C        1.8100    -2.0880     1.6650 C.2   1 <1>  -0.1500 
  8 C        3.7370     2.1060    -0.3170 C.2   1 <1>   0.0070 
  9 C        1.3370     2.8270     0.2120 C.3   1 <1>  -0.1950 
 10 C        0.9740    -3.9670     0.8710 C.2   1 <1>  -0.3020 
 11 C        0.5200    -3.3580    -1.5120 C.3   1 <1>   0.0160 
 12 C        1.4670    -3.3930     1.9990 C.2   1 <1>  -0.1500 
 13 N        4.2450     2.9400     0.5430 N.2   1 <1>  -0.5650 
 14 N        4.6720     1.5330    -1.1200 N.pl3 1 <1>   0.0480 
 15 C        0.9580     2.8430     1.6640 C.3   1 <1>  -0.2000 
 16 C       -0.0830     2.5570     0.6170 C.3   1 <1>  -0.2000 
 17 C        5.5640     2.9120     0.2880 C.2   1 <1>   0.0770 
 18 C        5.8420     2.0610    -0.7210 C.2   1 <1>  -0.3020 
 19 C        4.5040     0.5280    -2.1870 C.3   1 <1>   0.0160 
 20 H        2.1660     0.4600     1.1990 H     1 <1>   0.3700 
 21 H        1.9930     1.7140    -1.4810 H     1 <1>   0.0800 
 22 H        2.2330    -1.3810     2.3570 H     1 <1>   0.1500 
 23 H        1.5350     3.7920    -0.2220 H     1 <1>   0.1000 
 24 H        0.6090    -4.9710     0.7500 H     1 <1>   0.1500 
 25 H       -0.2360    -2.6440    -1.7810 H     1 <1>   0.0800 
 26 H        0.1080    -4.3490    -1.5530 H     1 <1>   0.0800 
 27 H        1.3440    -3.2830    -2.1970 H     1 <1>   0.0800 
 28 H        1.5800    -3.8430     2.9710 H     1 <1>   0.1500 
 29 H        0.9490     3.7930     2.1700 H     1 <1>   0.1000 
 30 H        1.2820     2.0460     2.3090 H     1 <1>   0.1000 
 31 H       -0.4760     1.5570     0.5450 H     1 <1>   0.1000 
 32 H       -0.8280     3.3050     0.4110 H     1 <1>   0.1000 
 33 H        6.2550     3.5160     0.8530 H     1 <1>   0.1500 
 34 H        6.7890     1.8080    -1.1610 H     1 <1>   0.1500 
 35 H        3.6580     0.7820    -2.7990 H     1 <1>   0.0800 
 36 H        4.3470    -0.4380    -1.7430 H     1 <1>   0.0800 
 37 H        5.3870     0.5000    -2.7990 H     1 <1>   0.0800 
@<TRIPOS>BOND
  1   1   2  2   
  2   2   3  am  
  3   2   4  1   
  4   3   5  1   
  5   3  20  1   
  6   4   6  1   
  7   4   7  2   
  8   5   8  1   
  9   5   9  1   
 10   5  21  1   
 11   6  10  1   
 12   6  11  1   
 13   7  12  1   
 14   7  22  1   
 15   8  13  2   
 16   8  14  1   
 17   9  15  1   
 18   9  16  1   
 19   9  23  1   
 20  10  12  2   
 21  10  24  1   
 22  11  25  1   
 23  11  26  1   
 24  11  27  1   
 25  12  28  1   
 26  13  17  1   
 27  14  18  1   
 28  14  19  1   
 29  15  16  1   
 30  15  29  1   
 31  15  30  1   
 32  16  31  1   
 33  16  32  1   
 34  17  18  2   
 35  17  33  1   
 36  18  34  1   
 37  19  35  1   
 38  19  36  1   
 39  19  37  1   
@<TRIPOS>SUBSTRUCTURE
  1 ****   3 GROUP 4 **** **** 0

# MOE 2024.06 (io_trps.svl 2023.06)
