@<TRIPOS>MOLECULE
NONAME
49 50 1 0 0 
SMALL
USER_CHARGES


@<TRIPOS>ATOM
  1 S       -0.0650    -0.0060     1.4600 S.o2  1 <1>   1.5760 
  2 O       -0.9180     0.8480     2.2560 O.2   1 <1>  -0.6500 
  3 O        0.9170    -0.8550     2.0980 O.2   1 <1>  -0.6500 
  4 N        0.7320     0.9380     0.3100 N.am  1 <1>  -0.8490 
  5 N       -1.0480    -0.9450     0.4620 N.am  1 <1>  -0.8490 
  6 C        1.4480     2.0400     0.9560 C.3   1 <1>   0.1960 
  7 C        1.6390     0.1290    -0.5090 C.3   1 <1>   0.1960 
  8 C       -2.0830    -0.1340    -0.1830 C.3   1 <1>   0.1960 
  9 C       -1.6360    -2.0530     1.2140 C.3   1 <1>   0.1960 
 10 C        2.0710     2.9800    -0.0870 C.3   1 <1>  -0.0800 
 11 C        2.2540     0.9880    -1.6180 C.3   1 <1>  -0.1600 
 12 C       -2.8730    -0.9870    -1.1800 C.3   1 <1>  -0.1600 
 13 C       -2.4240    -2.9720     0.2770 C.3   1 <1>  -0.1600 
 14 C        2.9950     2.1990    -1.0380 C.3   1 <1>  -0.1600 
 15 C        2.8110     4.1210     0.6240 C.3   1 <1>   0.1200 
 16 C       -3.5120    -2.2020    -0.4910 C.3   1 <1>  -0.0800 
 17 O        3.3330     4.9930    -0.3270 O.3   1 <1>  -0.5600 
 18 C       -4.2250    -3.0940    -1.5230 C.3   1 <1>   0.1200 
 19 C        4.0230     6.0720     0.2120 C.3   1 <1>   0.0400 
 20 O       -4.7720    -4.2230    -0.9130 O.3   1 <1>  -0.5600 
 21 C       -6.0200    -4.0370    -0.3250 C.3   1 <1>   0.0400 
 22 H        2.2150     1.6430     1.6010 H     1 <1>   0.0800 
 23 H        0.7580     2.6050     1.5620 H     1 <1>   0.0800 
 24 H        1.0950    -0.6850    -0.9600 H     1 <1>   0.0800 
 25 H        2.4190    -0.2890     0.1050 H     1 <1>   0.0800 
 26 H       -1.6270     0.6870    -0.7110 H     1 <1>   0.0800 
 27 H       -2.7490     0.2750     0.5600 H     1 <1>   0.0800 
 28 H       -2.2830    -1.6690     1.9860 H     1 <1>   0.0800 
 29 H       -0.8540    -2.6270     1.6840 H     1 <1>   0.0800 
 30 H        1.2660     3.4150    -0.6550 H     1 <1>   0.0800 
 31 H        1.4680     1.3220    -2.2730 H     1 <1>   0.0800 
 32 H        2.9340     0.3910    -2.1970 H     1 <1>   0.0800 
 33 H       -2.2020    -1.3100    -1.9570 H     1 <1>   0.0800 
 34 H       -3.6360    -0.3800    -1.6330 H     1 <1>   0.0800 
 35 H       -2.8750    -3.7590     0.8550 H     1 <1>   0.0800 
 36 H       -1.7390    -3.4290    -0.4150 H     1 <1>   0.0800 
 37 H        3.8650     1.8620    -0.5010 H     1 <1>   0.0800 
 38 H        3.3250     2.8390    -1.8380 H     1 <1>   0.0800 
 39 H        3.6230     3.7340     1.2150 H     1 <1>   0.0800 
 40 H        2.1320     4.6720     1.2540 H     1 <1>   0.0800 
 41 H       -4.2390    -1.8350     0.2110 H     1 <1>   0.0800 
 42 H       -3.5120    -3.4450    -2.2500 H     1 <1>   0.0800 
 43 H       -5.0020    -2.5560    -2.0400 H     1 <1>   0.0800 
 44 H        4.3820     6.6780    -0.6010 H     1 <1>   0.0800 
 45 H        4.8560     5.7090     0.7890 H     1 <1>   0.0800 
 46 H        3.3550     6.6500     0.8270 H     1 <1>   0.0800 
 47 H       -6.3420    -4.9820     0.0760 H     1 <1>   0.0800 
 48 H       -6.7200    -3.7050    -1.0710 H     1 <1>   0.0800 
 49 H       -5.9410    -3.3180     0.4710 H     1 <1>   0.0800 
@<TRIPOS>BOND
  1   1   2  2   
  2   1   3  2   
  3   1   4  am  
  4   1   5  am  
  5   4   6  1   
  6   4   7  1   
  7   5   8  1   
  8   5   9  1   
  9   6  10  1   
 10   6  22  1   
 11   6  23  1   
 12   7  11  1   
 13   7  24  1   
 14   7  25  1   
 15   8  12  1   
 16   8  26  1   
 17   8  27  1   
 18   9  13  1   
 19   9  28  1   
 20   9  29  1   
 21  10  14  1   
 22  10  15  1   
 23  10  30  1   
 24  11  14  1   
 25  11  31  1   
 26  11  32  1   
 27  12  16  1   
 28  12  33  1   
 29  12  34  1   
 30  13  16  1   
 31  13  35  1   
 32  13  36  1   
 33  14  37  1   
 34  14  38  1   
 35  15  17  1   
 36  15  39  1   
 37  15  40  1   
 38  16  18  1   
 39  16  41  1   
 40  17  19  1   
 41  18  20  1   
 42  18  42  1   
 43  18  43  1   
 44  19  44  1   
 45  19  45  1   
 46  19  46  1   
 47  20  21  1   
 48  21  47  1   
 49  21  48  1   
 50  21  49  1   
@<TRIPOS>SUBSTRUCTURE
  1 ****   4 GROUP 4 **** **** 0

# MOE 2024.06 (io_trps.svl 2023.06)
