@<TRIPOS>MOLECULE
NONAME
49 50 1 0 0 
SMALL
USER_CHARGES


@<TRIPOS>ATOM
  1 F        2.9470    -2.3420    -4.3720 F     1 <1>  -0.3400 
  2 C        2.4290    -2.2510    -3.1490 C.3   1 <1>   1.1640 
  3 F        1.8780    -3.4350    -2.9020 F     1 <1>  -0.3400 
  4 F        1.4260    -1.3830    -3.2460 F     1 <1>  -0.3400 
  5 C        3.4770    -1.8340    -2.0800 C.ar  1 <1>   0.1660 
  6 N        3.1120    -1.7310    -0.8060 N.ar  1 <1>  -0.6200 
  7 C        4.7750    -1.5600    -2.4420 C.ar  1 <1>  -0.1500 
  8 C        4.0530    -1.3810     0.0590 C.ar  1 <1>   0.7200 
  9 C        5.6770    -1.1900    -1.4640 C.ar  1 <1>   0.4100 
 10 N        5.3150    -1.1130    -0.2090 N.ar  1 <1>  -0.6200 
 11 N        3.6970    -1.2650     1.3840 N.pl3 1 <1>  -0.8380 
 12 N        6.9870    -0.8500    -1.7650 N.pl3 1 <1>  -0.8380 
 13 C        2.2840    -0.9230     1.7210 C.3   1 <1>   0.1290 
 14 C        4.2960    -2.2520     2.3240 C.3   1 <1>   0.1290 
 15 C        7.8010    -0.0560    -0.7880 C.3   1 <1>   0.2090 
 16 C        7.7740    -1.7160    -2.6830 C.3   1 <1>   0.2090 
 17 C        7.1680     1.3340    -0.5590 C.3   1 <1>   0.3430 
 18 C        8.1290    -0.9140    -3.9300 C.3   1 <1>  -0.2400 
 19 N        7.1170     1.7670     0.8810 N.4   1 <1>  -0.9590 
 20 C        6.1650     0.9280     1.6960 C.3   1 <1>   0.3430 
 21 C        6.7510     3.2140     1.0260 C.3   1 <1>   0.3430 
 22 C        6.0480     1.4350     3.1490 C.3   1 <1>   0.1200 
 23 C        6.6240     3.6270     2.5120 C.3   1 <1>   0.1200 
 24 O        6.8770     2.5460     3.3690 O.3   1 <1>  -0.5600 
 25 H        5.1040    -1.6120    -3.4620 H     1 <1>   0.1500 
 26 H        1.9130    -0.1730     1.0430 H     1 <1>   0.0800 
 27 H        2.2230    -0.5420     2.7250 H     1 <1>   0.0800 
 28 H        1.6640    -1.8000     1.6370 H     1 <1>   0.0800 
 29 H        5.2920    -2.5180     2.0120 H     1 <1>   0.0800 
 30 H        3.6960    -3.1460     2.3450 H     1 <1>   0.0800 
 31 H        4.3420    -1.8360     3.3150 H     1 <1>   0.0800 
 32 H        8.7980     0.0760    -1.1710 H     1 <1>   0.0800 
 33 H        7.8670    -0.6070     0.1340 H     1 <1>   0.0800 
 34 H        7.2040    -2.5880    -2.9580 H     1 <1>   0.0800 
 35 H        8.6710    -2.0560    -2.1920 H     1 <1>   0.0800 
 36 H        6.1640     1.3100    -0.9480 H     1 <1>   0.0800 
 37 H        7.7260     2.0540    -1.1330 H     1 <1>   0.0800 
 38 H        7.2360    -0.5720    -4.4210 H     1 <1>   0.0800 
 39 H        8.6760    -1.5370    -4.6150 H     1 <1>   0.0800 
 40 H        8.7430    -0.0700    -3.6770 H     1 <1>   0.0800 
 41 H        8.0350     1.6600     1.3350 H     1 <1>   0.4500 
 42 H        6.4890    -0.0990     1.7080 H     1 <1>   0.0800 
 43 H        5.1850     0.9370     1.2450 H     1 <1>   0.0800 
 44 H        5.8110     3.4020     0.5340 H     1 <1>   0.0800 
 45 H        7.4950     3.8330     0.5520 H     1 <1>   0.0800 
 46 H        6.3440     0.6610     3.8350 H     1 <1>   0.0800 
 47 H        5.0310     1.7100     3.3720 H     1 <1>   0.0800 
 48 H        5.6370     4.0050     2.7180 H     1 <1>   0.0800 
 49 H        7.3350     4.4010     2.7430 H     1 <1>   0.0800 
@<TRIPOS>BOND
  1   1   2  1   
  2   2   3  1   
  3   2   4  1   
  4   2   5  1   
  5   5   6  ar  
  6   5   7  ar  
  7   6   8  ar  
  8   7   9  ar  
  9   7  25  1   
 10   8  10  ar  
 11   8  11  1   
 12   9  10  ar  
 13   9  12  1   
 14  11  13  1   
 15  11  14  1   
 16  12  15  1   
 17  12  16  1   
 18  13  26  1   
 19  13  27  1   
 20  13  28  1   
 21  14  29  1   
 22  14  30  1   
 23  14  31  1   
 24  15  17  1   
 25  15  32  1   
 26  15  33  1   
 27  16  18  1   
 28  16  34  1   
 29  16  35  1   
 30  17  19  1   
 31  17  36  1   
 32  17  37  1   
 33  18  38  1   
 34  18  39  1   
 35  18  40  1   
 36  19  20  1   
 37  19  21  1   
 38  19  41  1   
 39  20  22  1   
 40  20  42  1   
 41  20  43  1   
 42  21  23  1   
 43  21  44  1   
 44  21  45  1   
 45  22  24  1   
 46  22  46  1   
 47  22  47  1   
 48  23  24  1   
 49  23  48  1   
 50  23  49  1   
@<TRIPOS>SUBSTRUCTURE
  1 ****  10 GROUP 4 **** **** 0

# MOE 2024.06 (io_trps.svl 2023.06)
