@<TRIPOS>MOLECULE
NONAME
47 49 1 0 0 
SMALL
USER_CHARGES


@<TRIPOS>ATOM
  1 O       -0.8790     0.2710    -1.0290 O.2   1 <1>  -0.5700 
  2 C       -1.1780     1.2030    -0.2940 C.2   1 <1>   0.5440 
  3 N       -2.4010     1.1050     0.3610 N.am  1 <1>  -0.6600 
  4 C       -0.2690     2.3490    -0.1880 C.ar  1 <1>   0.3960 
  5 C       -3.0920    -0.2100     0.4770 C.3   1 <1>   0.1400 
  6 C       -3.0550     2.2790     1.0170 C.3   1 <1>   0.1400 
  7 N       -0.2210     3.0790     0.9310 N.ar  1 <1>  -0.6200 
  8 C        0.5330     2.6510    -1.2940 C.ar  1 <1>   0.1600 
  9 C       -4.0710    -0.4240    -0.6870 C.3   1 <1>   0.1400 
 10 C       -4.5830     2.2930     0.8750 C.3   1 <1>  -0.1600 
 11 C        0.6090     4.1220     0.8510 C.ar  1 <1>   0.1390 
 12 N        1.3870     3.6710    -1.3920 N.ar  1 <1>  -0.6200 
 13 N       -5.3190     0.3940    -0.5450 N.am  1 <1>  -0.6600 
 14 C       -5.0730     1.8690    -0.5130 C.3   1 <1>   0.1400 
 15 O        0.6620     4.8820     1.8400 O.3   1 <1>  -0.8290 
 16 C        1.3950     4.3870    -0.2930 C.ar  1 <1>   0.1600 
 17 C       -6.6130    -0.0740    -0.4380 C.2   1 <1>   0.5690 
 18 O       -7.5150     0.6820    -0.1640 O.2   1 <1>  -0.5700 
 19 C       -7.0200    -1.5390    -0.6330 C.3   1 <1>  -0.0190 
 20 C       -6.5850    -2.3810     0.5790 C.3   1 <1>   0.0960 
 21 C       -6.6420    -2.1240    -2.0140 C.3   1 <1>  -0.2400 
 22 N       -7.0550    -3.7760     0.4770 N.pl3 1 <1>   0.3140 
 23 N       -8.3200    -4.1220     0.7730 N.2   1 <1>  -0.7070 
 24 C       -6.3300    -4.8500     0.1040 C.2   1 <1>  -0.3020 
 25 C       -8.3710    -5.4050     0.5790 C.2   1 <1>   0.1390 
 26 C       -7.1510    -5.9200     0.1580 C.2   1 <1>  -0.1500 
 27 H       -3.6060    -0.2800     1.4190 H     1 <1>   0.0800 
 28 H       -2.3530    -0.9920     0.4550 H     1 <1>   0.0800 
 29 H       -2.6850     3.1840     0.5650 H     1 <1>   0.0800 
 30 H       -2.7770     2.3060     2.0570 H     1 <1>   0.0800 
 31 H        0.4620     2.0130    -2.1540 H     1 <1>   0.1500 
 32 H       -4.3030    -1.4660    -0.7200 H     1 <1>   0.0800 
 33 H       -3.5800    -0.1750    -1.6120 H     1 <1>   0.0800 
 34 H       -4.9070     3.3020     1.0550 H     1 <1>   0.0800 
 35 H       -5.0390     1.6830     1.6330 H     1 <1>   0.0800 
 36 H       -4.3540     2.1390    -1.2680 H     1 <1>   0.0800 
 37 H       -5.9840     2.3960    -0.7390 H     1 <1>   0.0800 
 38 H        2.0340     5.2470    -0.2300 H     1 <1>   0.1500 
 39 H       -8.0980    -1.5390    -0.6080 H     1 <1>   0.0800 
 40 H       -7.0070    -1.9580     1.4720 H     1 <1>   0.0800 
 41 H       -5.5200    -2.3940     0.6880 H     1 <1>   0.0800 
 42 H       -5.5950    -2.3370    -2.1050 H     1 <1>   0.0800 
 43 H       -6.9180    -1.4280    -2.7870 H     1 <1>   0.0800 
 44 H       -7.1840    -3.0380    -2.1870 H     1 <1>   0.0800 
 45 H       -5.2940    -4.7980    -0.1740 H     1 <1>   0.1500 
 46 H       -9.2610    -5.9910     0.7310 H     1 <1>   0.1500 
 47 H       -6.9420    -6.9500    -0.0670 H     1 <1>   0.1500 
@<TRIPOS>BOND
  1   1   2  2   
  2   2   3  am  
  3   2   4  1   
  4   3   5  1   
  5   3   6  1   
  6   4   7  ar  
  7   4   8  ar  
  8   5   9  1   
  9   5  27  1   
 10   5  28  1   
 11   6  10  1   
 12   6  29  1   
 13   6  30  1   
 14   7  11  ar  
 15   8  12  ar  
 16   8  31  1   
 17   9  13  1   
 18   9  32  1   
 19   9  33  1   
 20  10  14  1   
 21  10  34  1   
 22  10  35  1   
 23  11  15  1   
 24  11  16  ar  
 25  12  16  ar  
 26  13  14  1   
 27  13  17  am  
 28  14  36  1   
 29  14  37  1   
 30  16  38  1   
 31  17  18  2   
 32  17  19  1   
 33  19  20  1   
 34  19  21  1   
 35  19  39  1   
 36  20  22  1   
 37  20  40  1   
 38  20  41  1   
 39  21  42  1   
 40  21  43  1   
 41  21  44  1   
 42  22  23  1   
 43  22  24  1   
 44  23  25  2   
 45  24  26  2   
 46  24  45  1   
 47  25  26  1   
 48  25  46  1   
 49  26  47  1   
@<TRIPOS>SUBSTRUCTURE
  1 ****   5 GROUP 4 **** **** 0

# MOE 2024.06 (io_trps.svl 2023.06)
