@<TRIPOS>MOLECULE
NONAME
51 53 1 0 0 
SMALL
USER_CHARGES


@<TRIPOS>ATOM
  1 O       -2.3340     1.6900    -1.2480 O.2   1 <1>  -0.5700 
  2 C       -2.0260     1.3380    -0.1360 C.2   1 <1>   0.5690 
  3 N       -2.0730     0.0320     0.2250 N.am  1 <1>  -0.7300 
  4 C       -1.6350     2.3710     0.9010 C.3   1 <1>  -0.0990 
  5 C       -2.4260    -1.0830    -0.6780 C.3   1 <1>   0.2200 
  6 C       -0.1210     2.5520     1.1700 C.3   1 <1>   0.1430 
  7 C       -3.8020    -1.6080    -0.3060 C.3   1 <1>  -0.0800 
  8 C       -1.5420    -2.2850    -0.3690 C.3   1 <1>   0.1200 
  9 C        0.5850     3.1730    -0.0610 C.ar  1 <1>  -0.1440 
 10 C        0.5650     1.2230     1.5510 C.3   1 <1>  -0.2400 
 11 C        0.0020     3.4520     2.4180 C.3   1 <1>  -0.2400 
 12 C       -3.4840    -2.5890     0.8300 C.3   1 <1>   0.1200 
 13 C       -4.4830    -2.2980    -1.5030 C.3   1 <1>  -0.0170 
 14 O       -2.1260    -2.9130     0.7320 O.3   1 <1>  -0.5600 
 15 C        0.7790     2.4120    -1.2110 C.ar  1 <1>  -0.1500 
 16 C        1.0430     4.4900    -0.0830 C.ar  1 <1>  -0.1500 
 17 C       -5.8740    -2.7960    -1.1400 C.ar  1 <1>  -0.1440 
 18 C        1.4090     2.9340    -2.3280 C.ar  1 <1>  -0.1500 
 19 C        1.6740     5.0160    -1.1970 C.ar  1 <1>  -0.1500 
 20 C       -6.9390    -1.9290    -0.9990 C.ar  1 <1>  -0.1500 
 21 C       -6.1460    -4.1340    -0.9340 C.ar  1 <1>  -0.1500 
 22 C        1.8610     4.2380    -2.3230 C.ar  1 <1>  -0.1500 
 23 C       -8.1870    -2.4270    -0.6630 C.ar  1 <1>   0.1600 
 24 C       -7.4320    -4.5280    -0.6020 C.ar  1 <1>   0.1600 
 25 N       -8.4590    -3.7060    -0.4590 N.ar  1 <1>  -0.6200 
 26 H       -1.8300    -0.2560     1.1750 H     1 <1>   0.3700 
 27 H       -2.0370     3.3160     0.5830 H     1 <1>   0.0800 
 28 H       -2.1340     2.1100     1.8150 H     1 <1>   0.0800 
 29 H       -2.3500    -0.7730    -1.7080 H     1 <1>   0.0800 
 30 H       -4.4380    -0.8120     0.0390 H     1 <1>   0.0800 
 31 H       -0.5290    -2.0070    -0.1350 H     1 <1>   0.0800 
 32 H       -1.5480    -2.9840    -1.1870 H     1 <1>   0.0800 
 33 H        0.1030     0.7880     2.4180 H     1 <1>   0.0800 
 34 H        1.6030     1.4020     1.7720 H     1 <1>   0.0800 
 35 H        0.5250     0.5050     0.7550 H     1 <1>   0.0800 
 36 H       -0.4180     2.9690     3.2820 H     1 <1>   0.0800 
 37 H       -0.5220     4.3790     2.2750 H     1 <1>   0.0800 
 38 H        1.0360     3.6650     2.6270 H     1 <1>   0.0800 
 39 H       -4.0610    -3.4950     0.7780 H     1 <1>   0.0800 
 40 H       -3.6380    -2.1250     1.7880 H     1 <1>   0.0800 
 41 H       -3.8840    -3.1220    -1.8520 H     1 <1>   0.0800 
 42 H       -4.5720    -1.5960    -2.3150 H     1 <1>   0.0800 
 43 H        0.4340     1.3970    -1.2640 H     1 <1>   0.1500 
 44 H        0.9230     5.1430     0.7590 H     1 <1>   0.1500 
 45 H        1.5420     2.3220    -3.2030 H     1 <1>   0.1500 
 46 H        2.0200     6.0340    -1.1870 H     1 <1>   0.1500 
 47 H       -6.8100    -0.8730    -1.1470 H     1 <1>   0.1500 
 48 H       -5.3730    -4.8750    -1.0280 H     1 <1>   0.1500 
 49 H        2.3500     4.6460    -3.1900 H     1 <1>   0.1500 
 50 H       -9.0060    -1.7360    -0.5570 H     1 <1>   0.1500 
 51 H       -7.6250    -5.5750    -0.4440 H     1 <1>   0.1500 
@<TRIPOS>BOND
  1   1   2  2   
  2   2   3  am  
  3   2   4  1   
  4   3   5  1   
  5   3  26  1   
  6   4   6  1   
  7   4  27  1   
  8   4  28  1   
  9   5   7  1   
 10   5   8  1   
 11   5  29  1   
 12   6   9  1   
 13   6  10  1   
 14   6  11  1   
 15   7  12  1   
 16   7  13  1   
 17   7  30  1   
 18   8  14  1   
 19   8  31  1   
 20   8  32  1   
 21   9  15  ar  
 22   9  16  ar  
 23  10  33  1   
 24  10  34  1   
 25  10  35  1   
 26  11  36  1   
 27  11  37  1   
 28  11  38  1   
 29  12  14  1   
 30  12  39  1   
 31  12  40  1   
 32  13  17  1   
 33  13  41  1   
 34  13  42  1   
 35  15  18  ar  
 36  15  43  1   
 37  16  19  ar  
 38  16  44  1   
 39  17  20  ar  
 40  17  21  ar  
 41  18  22  ar  
 42  18  45  1   
 43  19  22  ar  
 44  19  46  1   
 45  20  23  ar  
 46  20  47  1   
 47  21  24  ar  
 48  21  48  1   
 49  22  49  1   
 50  23  25  ar  
 51  23  50  1   
 52  24  25  ar  
 53  24  51  1   
@<TRIPOS>SUBSTRUCTURE
  1 ****   3 GROUP 4 **** **** 0

# MOE 2024.06 (io_trps.svl 2023.06)
