@<TRIPOS>MOLECULE
NONAME
41 42 1 0 0 
SMALL
USER_CHARGES


@<TRIPOS>ATOM
  1 S        2.8060     1.2660     3.2460 S.3   1 <1>  -0.3320 
  2 C        3.2950     0.0150     2.0640 C.ar  1 <1>   0.7220 
  3 C        1.0830     0.8110     3.7330 C.3   1 <1>  -0.0100 
  4 N        4.5110     0.1550     1.5940 N.ar  1 <1>  -0.6200 
  5 N        2.3790    -0.9020     1.7970 N.ar  1 <1>  -0.6200 
  6 C        4.8810    -0.7580     0.7170 C.ar  1 <1>   0.4100 
  7 C        2.7740    -1.7900     0.9110 C.ar  1 <1>   0.1600 
  8 N        6.1700    -0.6270     0.2610 N.pl3 1 <1>  -0.8380 
  9 C        4.0110    -1.7660     0.3120 C.ar  1 <1>  -0.1790 
 10 C        6.3600     0.2390    -0.9470 C.3   1 <1>   0.2090 
 11 C        7.0630    -1.8080     0.3140 C.3   1 <1>   0.2090 
 12 C        4.3170    -2.7650    -0.6650 C.2   1 <1>   0.9790 
 13 C        6.2620     1.7370    -0.6050 C.3   1 <1>   0.2000 
 14 C        8.3950    -1.3930     0.9280 C.3   1 <1>  -0.2400 
 15 O        4.7550    -2.4800    -1.7930 O.co2 1 <1>  -0.9000 
 16 O        4.0960    -3.9580    -0.3970 O.co2 1 <1>  -0.9000 
 17 O        6.5100     2.4820    -1.7700 O.3   1 <1>  -0.5600 
 18 C        7.2630     2.1790     0.4790 C.3   1 <1>  -0.1600 
 19 C        6.2890     3.8510    -1.6370 C.3   1 <1>   0.1200 
 20 C        7.1860     3.6920     0.7160 C.3   1 <1>  -0.1600 
 21 C        7.2820     4.4310    -0.6230 C.3   1 <1>  -0.1600 
 22 H        0.7400     1.5350     4.4480 H     1 <1>   0.0800 
 23 H        1.1130    -0.1750     4.1610 H     1 <1>   0.0800 
 24 H        0.4770     0.8250     2.8440 H     1 <1>   0.0800 
 25 H        2.0900    -2.5790     0.6400 H     1 <1>   0.1500 
 26 H        5.6040    -0.0070    -1.6740 H     1 <1>   0.0800 
 27 H        7.3220     0.0460    -1.3850 H     1 <1>   0.0800 
 28 H        7.2030    -2.2080    -0.6780 H     1 <1>   0.0800 
 29 H        6.6150    -2.5770     0.9220 H     1 <1>   0.0800 
 30 H        5.2550     1.9470    -0.2880 H     1 <1>   0.0800 
 31 H        8.8810    -0.6630     0.3080 H     1 <1>   0.0800 
 32 H        9.0340    -2.2520     1.0160 H     1 <1>   0.0800 
 33 H        8.2280    -0.9800     1.9060 H     1 <1>   0.0800 
 34 H        8.2540     1.9000     0.1720 H     1 <1>   0.0800 
 35 H        7.0420     1.6610     1.3960 H     1 <1>   0.0800 
 36 H        5.2710     4.0060    -1.3200 H     1 <1>   0.0800 
 37 H        6.4280     4.3010    -2.6040 H     1 <1>   0.0800 
 38 H        7.9770     4.0040     1.3750 H     1 <1>   0.0800 
 39 H        6.2450     3.9230     1.1850 H     1 <1>   0.0800 
 40 H        7.0820     5.4780    -0.4790 H     1 <1>   0.0800 
 41 H        8.2770     4.3350    -1.0230 H     1 <1>   0.0800 
@<TRIPOS>BOND
  1   1   2  1   
  2   1   3  1   
  3   2   4  ar  
  4   2   5  ar  
  5   3  22  1   
  6   3  23  1   
  7   3  24  1   
  8   4   6  ar  
  9   5   7  ar  
 10   6   8  1   
 11   6   9  ar  
 12   7   9  ar  
 13   7  25  1   
 14   8  10  1   
 15   8  11  1   
 16   9  12  1   
 17  10  13  1   
 18  10  26  1   
 19  10  27  1   
 20  11  14  1   
 21  11  28  1   
 22  11  29  1   
 23  12  15  ar  
 24  12  16  ar  
 25  13  17  1   
 26  13  18  1   
 27  13  30  1   
 28  14  31  1   
 29  14  32  1   
 30  14  33  1   
 31  17  19  1   
 32  18  20  1   
 33  18  34  1   
 34  18  35  1   
 35  19  21  1   
 36  19  36  1   
 37  19  37  1   
 38  20  21  1   
 39  20  38  1   
 40  20  39  1   
 41  21  40  1   
 42  21  41  1   
@<TRIPOS>SUBSTRUCTURE
  1 ****   6 GROUP 4 **** **** 0

# MOE 2024.06 (io_trps.svl 2023.06)
