@<TRIPOS>MOLECULE
NONAME
46 47 1 0 0 
SMALL
USER_CHARGES


@<TRIPOS>ATOM
  1 S        0.8710     0.0480    -0.5830 S.o2  1 <1>   1.3330 
  2 O        0.3040    -0.1610    -1.8930 O.2   1 <1>  -0.6500 
  3 O        2.2510     0.4630    -0.4620 O.2   1 <1>  -0.6500 
  4 N        0.5960    -1.3120     0.3880 N.am  1 <1>  -0.8490 
  5 C       -0.0870     1.3320     0.2170 C.3   1 <1>  -0.0550 
  6 C       -0.5930    -2.0780    -0.0030 C.3   1 <1>   0.1160 
  7 C        1.7600    -2.2050     0.4480 C.3   1 <1>   0.1160 
  8 C       -0.0190     2.6730    -0.5490 C.3   1 <1>  -0.0800 
  9 C       -0.7770     3.8370     0.0870 C.3   1 <1>   0.2000 
 10 C        1.4130     3.2050    -0.7260 C.3   1 <1>   0.3430 
 11 O       -0.5180     3.8680     1.4560 O.3   1 <1>  -0.6800 
 12 C       -0.1100     5.0540    -0.5610 C.3   1 <1>   0.3430 
 13 N        1.3400     4.6980    -0.6930 N.4   1 <1>  -0.9590 
 14 C        2.1300     5.2260     0.4550 C.3   1 <1>   0.4860 
 15 C        2.1750     6.7420     0.3680 C.ar  1 <1>  -0.1440 
 16 C        2.9790     7.3720    -0.5690 C.ar  1 <1>  -0.1500 
 17 C        1.4140     7.5170     1.2340 C.ar  1 <1>  -0.1500 
 18 C        2.9950     8.7540    -0.6250 C.ar  1 <1>   0.1900 
 19 C        1.4450     8.9020     1.1620 C.ar  1 <1>  -0.1500 
 20 F        3.7610     9.3050    -1.5260 F     1 <1>  -0.1900 
 21 C        2.2430     9.5510     0.2230 C.ar  1 <1>  -0.1440 
 22 C        2.3130    11.0760     0.1030 C.3   1 <1>   1.1630 
 23 F        1.5330    11.6910     0.9840 F     1 <1>  -0.3400 
 24 F        3.5360    11.5480     0.3050 F     1 <1>  -0.3400 
 25 F        1.9260    11.5090    -1.0900 F     1 <1>  -0.3400 
 26 H       -1.1100     1.0160     0.2830 H     1 <1>   0.0800 
 27 H        0.2840     1.4590     1.2160 H     1 <1>   0.0800 
 28 H       -0.7660    -2.8780     0.6970 H     1 <1>   0.0800 
 29 H       -0.4640    -2.4980    -0.9880 H     1 <1>   0.0800 
 30 H       -1.4610    -1.4420    -0.0120 H     1 <1>   0.0800 
 31 H        1.5550    -3.0430     1.0930 H     1 <1>   0.0800 
 32 H        2.6110    -1.6780     0.8460 H     1 <1>   0.0800 
 33 H        2.0060    -2.5680    -0.5360 H     1 <1>   0.0800 
 34 H       -0.4210     2.5130    -1.5360 H     1 <1>   0.0800 
 35 H       -1.8420     3.8130    -0.0730 H     1 <1>   0.0800 
 36 H        1.8350     2.8520    -1.6550 H     1 <1>   0.0800 
 37 H        2.0310     2.8480     0.0840 H     1 <1>   0.0800 
 38 H       -1.1580     3.3140     1.9530 H     1 <1>   0.4000 
 39 H       -0.2660     5.9440     0.0250 H     1 <1>   0.0800 
 40 H       -0.5320     5.2020    -1.5410 H     1 <1>   0.0800 
 41 H        1.7240     5.1060    -1.5540 H     1 <1>   0.4500 
 42 H        1.6800     4.9210     1.3870 H     1 <1>   0.0800 
 43 H        3.1350     4.8380     0.4210 H     1 <1>   0.0800 
 44 H        3.5990     6.8190    -1.2530 H     1 <1>   0.1500 
 45 H        0.7890     7.0500     1.9790 H     1 <1>   0.1500 
 46 H        0.8400     9.4710     1.8530 H     1 <1>   0.1500 
@<TRIPOS>BOND
  1   1   2  2   
  2   1   3  2   
  3   1   4  am  
  4   1   5  1   
  5   4   6  1   
  6   4   7  1   
  7   5   8  1   
  8   5  26  1   
  9   5  27  1   
 10   6  28  1   
 11   6  29  1   
 12   6  30  1   
 13   7  31  1   
 14   7  32  1   
 15   7  33  1   
 16   8   9  1   
 17   8  10  1   
 18   8  34  1   
 19   9  11  1   
 20   9  12  1   
 21   9  35  1   
 22  10  13  1   
 23  10  36  1   
 24  10  37  1   
 25  11  38  1   
 26  12  13  1   
 27  12  39  1   
 28  12  40  1   
 29  13  14  1   
 30  13  41  1   
 31  14  15  1   
 32  14  42  1   
 33  14  43  1   
 34  15  16  ar  
 35  15  17  ar  
 36  16  18  ar  
 37  16  44  1   
 38  17  19  ar  
 39  17  45  1   
 40  18  20  1   
 41  18  21  ar  
 42  19  21  ar  
 43  19  46  1   
 44  21  22  1   
 45  22  23  1   
 46  22  24  1   
 47  22  25  1   
@<TRIPOS>SUBSTRUCTURE
  1 ****  13 GROUP 4 **** **** 0

# MOE 2024.06 (io_trps.svl 2023.06)
