@<TRIPOS>MOLECULE
NONAME
46 48 1 0 0 
SMALL
USER_CHARGES


@<TRIPOS>ATOM
  1 F       -2.8440    -0.2430     2.8050 F     1 <1>  -0.1900 
  2 C       -2.7120     0.5800     1.7980 C.ar  1 <1>   0.1900 
  3 C       -2.5970     0.0740     0.5100 C.ar  1 <1>  -0.1440 
  4 C       -2.7020     1.9350     2.0690 C.ar  1 <1>  -0.1500 
  5 C       -2.4680     0.9820    -0.5310 C.ar  1 <1>  -0.1500 
  6 C       -2.6160    -1.4230     0.2240 C.3   1 <1>  -0.0160 
  7 C       -2.5720     2.8250     1.0170 C.ar  1 <1>  -0.1500 
  8 C       -2.4560     2.3460    -0.2790 C.ar  1 <1>  -0.1500 
  9 C       -4.0600    -1.9430     0.1990 C.3   1 <1>  -0.0990 
 10 C       -4.1890    -3.4150    -0.1750 C.2   1 <1>   0.5690 
 11 O       -3.1740    -4.0630    -0.2880 O.2   1 <1>  -0.5700 
 12 N       -5.4270    -3.9770    -0.3840 N.am  1 <1>  -0.6600 
 13 C       -6.7090    -3.2380    -0.1610 C.3   1 <1>   0.2200 
 14 C       -5.5190    -5.3940    -0.8580 C.3   1 <1>   0.0600 
 15 C       -7.8010    -4.0350     0.5530 C.3   1 <1>  -0.1600 
 16 C       -7.3580    -2.7930    -1.4670 C.3   1 <1>  -0.1600 
 17 C       -9.0990    -3.2960     0.2030 C.3   1 <1>  -0.0800 
 18 C       -8.8200    -2.5140    -1.0940 C.3   1 <1>  -0.0800 
 19 C       -9.5160    -2.2580     1.2540 C.3   1 <1>  -0.1600 
 20 C       -9.0980    -1.0360    -0.7780 C.3   1 <1>  -0.1600 
 21 C      -10.0030    -1.0680     0.4430 C.3   1 <1>   0.2000 
 22 O       -9.8640     0.0930     1.1700 O.3   1 <1>  -0.6800 
 23 H       -2.7940     2.2810     3.0830 H     1 <1>   0.1500 
 24 H       -2.3760     0.6320    -1.5450 H     1 <1>   0.1500 
 25 H       -2.1450    -1.6200    -0.7240 H     1 <1>   0.0800 
 26 H       -2.0530    -1.9480     0.9770 H     1 <1>   0.0800 
 27 H       -2.5610     3.8850     1.2040 H     1 <1>   0.1500 
 28 H       -2.3550     3.0390    -1.0970 H     1 <1>   0.1500 
 29 H       -4.6180    -1.3620    -0.5120 H     1 <1>   0.0800 
 30 H       -4.4910    -1.8020     1.1730 H     1 <1>   0.0800 
 31 H       -6.5340    -2.3610     0.4350 H     1 <1>   0.0800 
 32 H       -6.3090    -5.5030    -1.5780 H     1 <1>   0.0800 
 33 H       -5.7070    -6.0420    -0.0200 H     1 <1>   0.0800 
 34 H       -4.5980    -5.7000    -1.3240 H     1 <1>   0.0800 
 35 H       -7.8760    -5.0310     0.1580 H     1 <1>   0.0800 
 36 H       -7.6280    -4.0880     1.6130 H     1 <1>   0.0800 
 37 H       -6.8670    -1.9320    -1.8840 H     1 <1>   0.0800 
 38 H       -7.3310    -3.5930    -2.1830 H     1 <1>   0.0800 
 39 H       -9.9050    -3.9950     0.0480 H     1 <1>   0.0800 
 40 H       -9.4810    -2.8470    -1.8780 H     1 <1>   0.0800 
 41 H       -8.6680    -1.9690     1.8500 H     1 <1>   0.0800 
 42 H      -10.2930    -2.6370     1.8940 H     1 <1>   0.0800 
 43 H       -9.5780    -0.5420    -1.6040 H     1 <1>   0.0800 
 44 H       -8.1810    -0.5270    -0.5370 H     1 <1>   0.0800 
 45 H      -11.0360    -1.1860     0.1600 H     1 <1>   0.0800 
 46 H       -8.9340     0.2120     1.4360 H     1 <1>   0.4000 
@<TRIPOS>BOND
  1   1   2  1   
  2   2   3  ar  
  3   2   4  ar  
  4   3   5  ar  
  5   3   6  1   
  6   4   7  ar  
  7   4  23  1   
  8   5   8  ar  
  9   5  24  1   
 10   6   9  1   
 11   6  25  1   
 12   6  26  1   
 13   7   8  ar  
 14   7  27  1   
 15   8  28  1   
 16   9  10  1   
 17   9  29  1   
 18   9  30  1   
 19  10  11  2   
 20  10  12  am  
 21  12  13  1   
 22  12  14  1   
 23  13  15  1   
 24  13  16  1   
 25  13  31  1   
 26  14  32  1   
 27  14  33  1   
 28  14  34  1   
 29  15  17  1   
 30  15  35  1   
 31  15  36  1   
 32  16  18  1   
 33  16  37  1   
 34  16  38  1   
 35  17  18  1   
 36  17  19  1   
 37  17  39  1   
 38  18  20  1   
 39  18  40  1   
 40  19  21  1   
 41  19  41  1   
 42  19  42  1   
 43  20  21  1   
 44  20  43  1   
 45  20  44  1   
 46  21  22  1   
 47  21  45  1   
 48  22  46  1   
@<TRIPOS>SUBSTRUCTURE
  1 ****   9 GROUP 4 **** **** 0

# MOE 2024.06 (io_trps.svl 2023.06)
