@<TRIPOS>MOLECULE
NONAME
50 51 1 0 0 
SMALL
USER_CHARGES


@<TRIPOS>ATOM
  1 O       -1.5170     1.1320    -1.7240 O.2   1 <1>  -0.5700 
  2 C       -2.0280     1.0960    -0.6200 C.2   1 <1>   0.5440 
  3 N       -1.5840     1.9800     0.3480 N.am  1 <1>  -0.6600 
  4 C       -3.0660     0.1250    -0.3610 C.ar  1 <1>   0.0860 
  5 C       -0.7160     3.1380    -0.0050 C.3   1 <1>   0.0600 
  6 C       -1.7390     1.7480     1.8100 C.3   1 <1>   0.0600 
  7 C       -2.9250    -1.1880    -0.8010 C.ar  1 <1>   0.1600 
  8 C       -4.2420     0.4360     0.3150 C.ar  1 <1>  -0.1500 
  9 N       -3.7910    -2.1700    -0.6130 N.ar  1 <1>  -0.6200 
 10 C       -5.1560    -0.5700     0.5160 C.ar  1 <1>  -0.1500 
 11 C       -4.8990    -1.8540     0.0440 C.ar  1 <1>   0.4100 
 12 N       -5.8130    -2.8480     0.2550 N.pl3 1 <1>  -0.8690 
 13 C       -5.7790    -4.1410    -0.4510 C.3   1 <1>   0.3530 
 14 C       -7.2000    -4.6730    -0.5140 C.ar  1 <1>  -0.1430 
 15 C       -7.6690    -5.5460     0.4580 C.ar  1 <1>  -0.1500 
 16 C       -8.0440    -4.2870    -1.5450 C.ar  1 <1>  -0.1500 
 17 C       -8.9620    -6.0370     0.4000 C.ar  1 <1>   0.0830 
 18 C       -9.3440    -4.7620    -1.6020 C.ar  1 <1>  -0.1500 
 19 O       -9.3430    -6.9160     1.3600 O.3   1 <1>  -0.3620 
 20 C       -9.8170    -5.6230    -0.6270 C.ar  1 <1>   0.0830 
 21 C       -9.5840    -8.2380     0.9320 C.3   1 <1>   0.0400 
 22 O      -11.1080    -6.0300    -0.7200 O.3   1 <1>  -0.3630 
 23 C      -11.9970    -5.6210     0.2970 C.3   1 <1>   0.2000 
 24 C      -13.1730    -6.5940     0.2930 C.3   1 <1>  -0.2400 
 25 C      -12.4540    -4.1920     0.0020 C.3   1 <1>  -0.2400 
 26 H       -0.8010     3.3690    -1.0530 H     1 <1>   0.0800 
 27 H        0.3100     2.9000     0.2140 H     1 <1>   0.0800 
 28 H       -1.0110     4.0040     0.5600 H     1 <1>   0.0800 
 29 H       -2.0780     0.7470     2.0080 H     1 <1>   0.0800 
 30 H       -2.4480     2.4490     2.2160 H     1 <1>   0.0800 
 31 H       -0.7910     1.8840     2.3020 H     1 <1>   0.0800 
 32 H       -2.0270    -1.4320    -1.3440 H     1 <1>   0.1500 
 33 H       -4.4210     1.4380     0.6630 H     1 <1>   0.1500 
 34 H       -6.0760    -0.3800     1.0360 H     1 <1>   0.1500 
 35 H       -6.7520    -2.5960     0.5670 H     1 <1>   0.4000 
 36 H       -5.1390    -4.8220     0.0830 H     1 <1>   0.0800 
 37 H       -5.3880    -4.0130    -1.4460 H     1 <1>   0.0800 
 38 H       -7.0320    -5.8560     1.2680 H     1 <1>   0.1500 
 39 H       -7.6910    -3.6110    -2.3050 H     1 <1>   0.1500 
 40 H      -10.0000    -4.4620    -2.3990 H     1 <1>   0.1500 
 41 H       -9.8210    -8.8330     1.7950 H     1 <1>   0.0800 
 42 H       -8.6960    -8.6140     0.4550 H     1 <1>   0.0800 
 43 H      -10.4090    -8.2460     0.2430 H     1 <1>   0.0800 
 44 H      -11.4920    -5.6640     1.2470 H     1 <1>   0.0800 
 45 H      -13.6670    -6.5800    -0.6620 H     1 <1>   0.0800 
 46 H      -13.8810    -6.3180     1.0530 H     1 <1>   0.0800 
 47 H      -12.8250    -7.5900     0.4990 H     1 <1>   0.0800 
 48 H      -12.9190    -4.1400    -0.9660 H     1 <1>   0.0800 
 49 H      -11.6150    -3.5210     0.0340 H     1 <1>   0.0800 
 50 H      -13.1650    -3.8750     0.7440 H     1 <1>   0.0800 
@<TRIPOS>BOND
  1   1   2  2   
  2   2   3  am  
  3   2   4  1   
  4   3   5  1   
  5   3   6  1   
  6   4   7  ar  
  7   4   8  ar  
  8   5  26  1   
  9   5  27  1   
 10   5  28  1   
 11   6  29  1   
 12   6  30  1   
 13   6  31  1   
 14   7   9  ar  
 15   7  32  1   
 16   8  10  ar  
 17   8  33  1   
 18   9  11  ar  
 19  10  11  ar  
 20  10  34  1   
 21  11  12  1   
 22  12  13  1   
 23  12  35  1   
 24  13  14  1   
 25  13  36  1   
 26  13  37  1   
 27  14  15  ar  
 28  14  16  ar  
 29  15  17  ar  
 30  15  38  1   
 31  16  18  ar  
 32  16  39  1   
 33  17  19  1   
 34  17  20  ar  
 35  18  20  ar  
 36  18  40  1   
 37  19  21  1   
 38  20  22  1   
 39  21  41  1   
 40  21  42  1   
 41  21  43  1   
 42  22  23  1   
 43  23  24  1   
 44  23  25  1   
 45  23  44  1   
 46  24  45  1   
 47  24  46  1   
 48  24  47  1   
 49  25  48  1   
 50  25  49  1   
 51  25  50  1   
@<TRIPOS>SUBSTRUCTURE
  1 ****  12 GROUP 4 **** **** 0

# MOE 2024.06 (io_trps.svl 2023.06)
