@<TRIPOS>MOLECULE
NONAME
47 50 1 0 0 
SMALL
USER_CHARGES


@<TRIPOS>ATOM
  1 O       -0.9880     0.4910     0.5120 O.2   1 <1>  -0.5700 
  2 C       -2.0050    -0.1540     0.4520 C.2   1 <1>   0.5690 
  3 N       -3.0080     0.2010    -0.3860 N.am  1 <1>  -0.5470 
  4 C       -2.1810    -1.4140     1.2990 C.3   1 <1>   0.1810 
  5 C       -4.2170    -0.4860    -0.4280 C.ar  1 <1>   0.1170 
  6 O       -3.5460    -1.8120     1.4650 O.3   1 <1>  -0.3630 
  7 C       -4.4650    -1.4940     0.5090 C.ar  1 <1>   0.0830 
  8 C       -5.1910    -0.1950    -1.3720 C.ar  1 <1>  -0.1500 
  9 C       -5.6610    -2.1830     0.4960 C.ar  1 <1>  -0.1500 
 10 C       -6.3860    -0.8920    -1.3770 C.ar  1 <1>  -0.1500 
 11 C       -6.6530    -1.8940    -0.4410 C.ar  1 <1>   0.0860 
 12 C       -7.9090    -2.6170    -0.4390 C.2   1 <1>   0.5440 
 13 O       -7.8960    -3.8350    -0.4470 O.2   1 <1>  -0.5700 
 14 N       -9.1240    -1.9650    -0.4180 N.am  1 <1>  -0.6600 
 15 C       -9.2610    -0.5360    -0.0040 C.3   1 <1>   0.1400 
 16 C      -10.3870    -2.7310    -0.6450 C.3   1 <1>   0.1400 
 17 C      -10.5710    -0.3400     0.7550 C.3   1 <1>  -0.1600 
 18 C      -11.5000    -1.7990    -1.1270 C.3   1 <1>  -0.1600 
 19 C      -11.7810    -0.6480    -0.1430 C.3   1 <1>   0.4180 
 20 O      -12.0370     0.4740    -0.9530 O.3   1 <1>  -0.5600 
 21 C      -13.0020    -0.9870     0.7100 C.2   1 <1>  -0.2880 
 22 C      -12.7960     1.5200    -0.4090 C.3   1 <1>   0.1200 
 23 C      -14.1140    -0.2490     0.7620 C.2   1 <1>  -0.2760 
 24 C      -14.2030     1.0370    -0.0360 C.3   1 <1>  -0.0220 
 25 C      -15.3470    -0.6030     1.5730 C.3   1 <1>  -0.1020 
 26 H       -2.8450     1.0240    -0.9660 H     1 <1>   0.3700 
 27 H       -1.7670    -1.2520     2.2770 H     1 <1>   0.0800 
 28 H       -1.6610    -2.2270     0.8290 H     1 <1>   0.0800 
 29 H       -5.0140     0.5730    -2.1030 H     1 <1>   0.1500 
 30 H       -5.8350    -2.9590     1.2200 H     1 <1>   0.1500 
 31 H       -7.1330    -0.6660    -2.1190 H     1 <1>   0.1500 
 32 H       -9.2540     0.0910    -0.8800 H     1 <1>   0.0800 
 33 H       -8.4370    -0.2540     0.6290 H     1 <1>   0.0800 
 34 H      -10.6750    -3.2110     0.2750 H     1 <1>   0.0800 
 35 H      -10.2140    -3.4980    -1.3810 H     1 <1>   0.0800 
 36 H      -10.6290     0.6590     1.1410 H     1 <1>   0.0800 
 37 H      -10.5680    -1.0040     1.6000 H     1 <1>   0.0800 
 38 H      -12.3970    -2.3690    -1.2850 H     1 <1>   0.0800 
 39 H      -11.1990    -1.4010    -2.0790 H     1 <1>   0.0800 
 40 H      -12.8800    -1.9010     1.2630 H     1 <1>   0.1500 
 41 H      -12.8520     2.3020    -1.1450 H     1 <1>   0.0800 
 42 H      -12.2900     1.8990     0.4610 H     1 <1>   0.0800 
 43 H      -14.7820     0.8740    -0.9280 H     1 <1>   0.0800 
 44 H      -14.6850     1.8040     0.5430 H     1 <1>   0.0800 
 45 H      -15.5490     0.1640     2.2990 H     1 <1>   0.0800 
 46 H      -15.2020    -1.5340     2.0920 H     1 <1>   0.0800 
 47 H      -16.1990    -0.7040     0.9250 H     1 <1>   0.0800 
@<TRIPOS>BOND
  1   1   2  2   
  2   2   3  am  
  3   2   4  1   
  4   3   5  1   
  5   3  26  1   
  6   4   6  1   
  7   4  27  1   
  8   4  28  1   
  9   5   7  ar  
 10   5   8  ar  
 11   6   7  1   
 12   7   9  ar  
 13   8  10  ar  
 14   8  29  1   
 15   9  11  ar  
 16   9  30  1   
 17  10  11  ar  
 18  10  31  1   
 19  11  12  1   
 20  12  13  2   
 21  12  14  am  
 22  14  15  1   
 23  14  16  1   
 24  15  17  1   
 25  15  32  1   
 26  15  33  1   
 27  16  18  1   
 28  16  34  1   
 29  16  35  1   
 30  17  19  1   
 31  17  36  1   
 32  17  37  1   
 33  18  19  1   
 34  18  38  1   
 35  18  39  1   
 36  19  20  1   
 37  19  21  1   
 38  20  22  1   
 39  21  23  2   
 40  21  40  1   
 41  22  24  1   
 42  22  41  1   
 43  22  42  1   
 44  23  24  1   
 45  23  25  1   
 46  24  43  1   
 47  24  44  1   
 48  25  45  1   
 49  25  46  1   
 50  25  47  1   
@<TRIPOS>SUBSTRUCTURE
  1 ****  15 GROUP 4 **** **** 0

# MOE 2024.06 (io_trps.svl 2023.06)
