@<TRIPOS>MOLECULE
NONAME
44 46 1 0 0 
SMALL
USER_CHARGES


@<TRIPOS>ATOM
  1 O        0.2850    -0.2670    -1.2000 O.2   1 <1>  -0.5700 
  2 C        1.1160    -0.7280    -0.4420 C.2   1 <1>   0.5440 
  3 N        1.9920     0.0940     0.2250 N.am  1 <1>  -0.4940 
  4 C        1.2190    -2.1570    -0.2280 C.ar  1 <1>   0.0860 
  5 C        2.2400     1.4870     0.1480 C.2   1 <1>  -0.0880 
  6 C        0.1500    -2.9380     0.2400 C.ar  1 <1>  -0.1430 
  7 C        2.4360    -2.7930    -0.4800 C.ar  1 <1>  -0.1500 
  8 N        1.3490     2.4930    -0.0850 N.pl3 1 <1>   0.3140 
  9 C        3.4460     2.0820     0.3170 C.2   1 <1>  -0.1810 
 10 C        0.3110    -4.3000     0.4420 C.ar  1 <1>  -0.1500 
 11 C       -1.2060    -2.3100     0.5370 C.3   1 <1>  -0.0960 
 12 C        2.5980    -4.1460    -0.2670 C.ar  1 <1>   0.0830 
 13 N        1.9570     3.7010    -0.0680 N.2   1 <1>  -0.7070 
 14 C       -0.1090     2.4220    -0.2410 C.3   1 <1>   0.0160 
 15 C        3.2030     3.4440     0.1630 C.2   1 <1>   0.1080 
 16 C        4.7850     1.4230     0.6020 C.3   1 <1>   0.0210 
 17 C        1.5240    -4.9110     0.1870 C.ar  1 <1>   0.0830 
 18 O        3.8110    -4.7080    -0.5020 O.3   1 <1>  -0.3630 
 19 C        4.2360     4.5450     0.2500 C.3   1 <1>  -0.0590 
 20 C        5.4650     1.0140    -0.7050 C.3   1 <1>  -0.2400 
 21 O        1.6450    -6.2450     0.3780 O.3   1 <1>  -0.3630 
 22 C        4.0270    -6.0110     0.0110 C.3   1 <1>   0.1200 
 23 C        2.7770    -6.8790    -0.1880 C.3   1 <1>   0.1200 
 24 H        2.6750    -0.4100     0.7880 H     1 <1>   0.3700 
 25 H        3.2710    -2.2270    -0.8520 H     1 <1>   0.1500 
 26 H       -0.5030    -4.9080     0.7950 H     1 <1>   0.1500 
 27 H       -1.0930    -1.4670     1.1950 H     1 <1>   0.0800 
 28 H       -1.8680    -3.0160     1.0040 H     1 <1>   0.0800 
 29 H       -1.6610    -1.9740    -0.3790 H     1 <1>   0.0800 
 30 H       -0.4970     1.6450     0.3890 H     1 <1>   0.0800 
 31 H       -0.3380     2.2110    -1.2680 H     1 <1>   0.0800 
 32 H       -0.5400     3.3650     0.0390 H     1 <1>   0.0800 
 33 H        4.6350     0.5540     1.2170 H     1 <1>   0.0800 
 34 H        5.4170     2.1020     1.1470 H     1 <1>   0.0800 
 35 H        5.1150     4.2710    -0.3030 H     1 <1>   0.0800 
 36 H        4.4960     4.7160     1.2780 H     1 <1>   0.0800 
 37 H        3.8350     5.4520    -0.1640 H     1 <1>   0.0800 
 38 H        4.8390     0.3270    -1.2480 H     1 <1>   0.0800 
 39 H        6.4090     0.5400    -0.5030 H     1 <1>   0.0800 
 40 H        5.6340     1.8790    -1.3210 H     1 <1>   0.0800 
 41 H        4.2570    -5.9240     1.0580 H     1 <1>   0.0800 
 42 H        4.8710    -6.4330    -0.5030 H     1 <1>   0.0800 
 43 H        2.5870    -7.0270    -1.2370 H     1 <1>   0.0800 
 44 H        2.8940    -7.8350     0.2880 H     1 <1>   0.0800 
@<TRIPOS>BOND
  1   1   2  2   
  2   2   3  am  
  3   2   4  1   
  4   3   5  1   
  5   3  24  1   
  6   4   6  ar  
  7   4   7  ar  
  8   5   8  1   
  9   5   9  2   
 10   6  10  ar  
 11   6  11  1   
 12   7  12  ar  
 13   7  25  1   
 14   8  13  1   
 15   8  14  1   
 16   9  15  1   
 17   9  16  1   
 18  10  17  ar  
 19  10  26  1   
 20  11  27  1   
 21  11  28  1   
 22  11  29  1   
 23  12  17  ar  
 24  12  18  1   
 25  13  15  2   
 26  14  30  1   
 27  14  31  1   
 28  14  32  1   
 29  15  19  1   
 30  16  20  1   
 31  16  33  1   
 32  16  34  1   
 33  17  21  1   
 34  18  22  1   
 35  19  35  1   
 36  19  36  1   
 37  19  37  1   
 38  20  38  1   
 39  20  39  1   
 40  20  40  1   
 41  21  23  1   
 42  22  23  1   
 43  22  41  1   
 44  22  42  1   
 45  23  43  1   
 46  23  44  1   
@<TRIPOS>SUBSTRUCTURE
  1 ****   2 GROUP 4 **** **** 0

# MOE 2024.06 (io_trps.svl 2023.06)
