@<TRIPOS>MOLECULE
NONAME
54 56 1 0 0 
SMALL
USER_CHARGES


@<TRIPOS>ATOM
  1 O       -1.4040    -0.3810     1.3060 O.3   1 <1>  -0.3630 
  2 C       -2.4020    -1.1540     0.8140 C.ar  1 <1>   0.0830 
  3 C       -0.8460     0.6750     0.5550 C.3   1 <1>   0.0400 
  4 C       -2.9270    -2.1100     1.6650 C.ar  1 <1>  -0.1500 
  5 C       -2.9110    -1.0370    -0.4750 C.ar  1 <1>  -0.1500 
  6 C       -3.9470    -2.9440     1.2440 C.ar  1 <1>  -0.1500 
  7 C       -3.9300    -1.8720    -0.8980 C.ar  1 <1>  -0.1500 
  8 C       -4.4580    -2.8350    -0.0420 C.ar  1 <1>  -0.1430 
  9 C       -5.5670    -3.7930    -0.4690 C.3   1 <1>   0.5660 
 10 N       -5.0790    -4.7400    -1.5110 N.4   1 <1>  -0.9590 
 11 C       -6.7640    -3.0110    -1.0140 C.3   1 <1>  -0.2400 
 12 C       -5.9840    -5.9150    -1.6880 C.3   1 <1>   0.5230 
 13 C       -3.6700    -5.1910    -1.2410 C.3   1 <1>   0.2630 
 14 C       -6.1100    -6.6890    -0.3900 C.2   1 <1>  -0.3320 
 15 N       -7.1890    -6.7000     0.4350 N.pl3 1 <1>   0.0480 
 16 C       -5.2010    -7.5230     0.1670 C.2   1 <1>   0.0770 
 17 C       -6.8260    -7.5180     1.4490 C.2   1 <1>   0.0360 
 18 C       -8.5260    -6.0620     0.2820 C.3   1 <1>   0.1760 
 19 N       -5.6430    -8.0200     1.3270 N.2   1 <1>  -0.5650 
 20 C       -8.7770    -5.0480     1.4110 C.3   1 <1>  -0.1600 
 21 C       -9.6380    -7.1230     0.2370 C.3   1 <1>  -0.1600 
 22 C      -10.1520    -4.3830     1.2520 C.3   1 <1>  -0.1600 
 23 C      -11.0160    -6.4650     0.0790 C.3   1 <1>  -0.1600 
 24 C      -11.2690    -5.4330     1.1870 C.3   1 <1>  -0.1600 
 25 H       -0.1010     1.1580     1.1610 H     1 <1>   0.0800 
 26 H       -1.6230     1.3750     0.3050 H     1 <1>   0.0800 
 27 H       -0.3890     0.2710    -0.3310 H     1 <1>   0.0800 
 28 H       -2.5290    -2.1920     2.6620 H     1 <1>   0.1500 
 29 H       -2.5240    -0.3020    -1.1560 H     1 <1>   0.1500 
 30 H       -4.3320    -3.6760     1.9350 H     1 <1>   0.1500 
 31 H       -4.3000    -1.7530    -1.9010 H     1 <1>   0.1500 
 32 H       -5.8740    -4.3490     0.4030 H     1 <1>   0.0800 
 33 H       -5.0640    -4.2100    -2.3870 H     1 <1>   0.4500 
 34 H       -6.5070    -2.4680    -1.9040 H     1 <1>   0.0800 
 35 H       -7.0790    -2.2970    -0.2730 H     1 <1>   0.0800 
 36 H       -7.5970    -3.6500    -1.2220 H     1 <1>   0.0800 
 37 H       -5.5790    -6.5680    -2.4450 H     1 <1>   0.0800 
 38 H       -6.9570    -5.5940    -2.0210 H     1 <1>   0.0800 
 39 H       -3.5970    -5.6190    -0.2540 H     1 <1>   0.0800 
 40 H       -2.9880    -4.3570    -1.2960 H     1 <1>   0.0800 
 41 H       -3.3630    -5.9290    -1.9640 H     1 <1>   0.0800 
 42 H       -4.2280    -7.8080    -0.2000 H     1 <1>   0.1500 
 43 H       -7.4810    -7.7300     2.2780 H     1 <1>   0.1500 
 44 H       -8.5470    -5.5420    -0.6550 H     1 <1>   0.0800 
 45 H       -8.0160    -4.2890     1.4110 H     1 <1>   0.0800 
 46 H       -8.7490    -5.5510     2.3630 H     1 <1>   0.0800 
 47 H       -9.6360    -7.6980     1.1480 H     1 <1>   0.0800 
 48 H       -9.4710    -7.7960    -0.5860 H     1 <1>   0.0800 
 49 H      -10.1690    -3.7890     0.3540 H     1 <1>   0.0800 
 50 H      -10.3320    -3.7230     2.0840 H     1 <1>   0.0800 
 51 H      -11.7830    -7.2200     0.1130 H     1 <1>   0.0800 
 52 H      -11.0790    -5.9800    -0.8810 H     1 <1>   0.0800 
 53 H      -12.2130    -4.9440     1.0140 H     1 <1>   0.0800 
 54 H      -11.3370    -5.9400     2.1350 H     1 <1>   0.0800 
@<TRIPOS>BOND
  1   1   2  1   
  2   1   3  1   
  3   2   4  ar  
  4   2   5  ar  
  5   3  25  1   
  6   3  26  1   
  7   3  27  1   
  8   4   6  ar  
  9   4  28  1   
 10   5   7  ar  
 11   5  29  1   
 12   6   8  ar  
 13   6  30  1   
 14   7   8  ar  
 15   7  31  1   
 16   8   9  1   
 17   9  10  1   
 18   9  11  1   
 19   9  32  1   
 20  10  12  1   
 21  10  13  1   
 22  10  33  1   
 23  11  34  1   
 24  11  35  1   
 25  11  36  1   
 26  12  14  1   
 27  12  37  1   
 28  12  38  1   
 29  13  39  1   
 30  13  40  1   
 31  13  41  1   
 32  14  15  1   
 33  14  16  2   
 34  15  17  1   
 35  15  18  1   
 36  16  19  1   
 37  16  42  1   
 38  17  19  2   
 39  17  43  1   
 40  18  20  1   
 41  18  21  1   
 42  18  44  1   
 43  20  22  1   
 44  20  45  1   
 45  20  46  1   
 46  21  23  1   
 47  21  47  1   
 48  21  48  1   
 49  22  24  1   
 50  22  49  1   
 51  22  50  1   
 52  23  24  1   
 53  23  51  1   
 54  23  52  1   
 55  24  53  1   
 56  24  54  1   
@<TRIPOS>SUBSTRUCTURE
  1 ****   9 GROUP 4 **** **** 0

# MOE 2024.06 (io_trps.svl 2023.06)
