@<TRIPOS>MOLECULE
NONAME
41 43 1 0 0 
SMALL
USER_CHARGES


@<TRIPOS>ATOM
  1 O       -1.4330     0.3030     2.1620 O.2   1 <1>  -0.5700 
  2 C       -1.7410     0.7170     1.0690 C.2   1 <1>   0.6300 
  3 N       -2.1370    -0.1220     0.0610 N.am  1 <1>  -0.6600 
  4 C       -1.6930     2.2370     0.8510 C.3   1 <1>  -0.0950 
  5 C       -2.1830    -1.6080     0.2880 C.3   1 <1>   0.3640 
  6 C       -2.6590     0.3590    -1.2580 C.3   1 <1>   0.1400 
  7 C       -0.8210     2.8300    -0.2210 C.3   1 <1>  -0.2000 
  8 C       -0.4250     2.9510     1.2190 C.3   1 <1>  -0.2000 
  9 C       -3.0110     2.9290     1.2270 C.3   1 <1>  -0.1450 
 10 C       -0.9600    -2.3280    -0.3090 C.ar  1 <1>  -0.1440 
 11 C       -3.5160    -2.2310    -0.2400 C.3   1 <1>   0.2000 
 12 C       -3.2800    -0.7710    -2.0920 C.3   1 <1>   0.1200 
 13 C       -0.7710    -3.6650     0.0190 C.ar  1 <1>  -0.1500 
 14 C       -0.0280    -1.7170    -1.1420 C.ar  1 <1>  -0.1500 
 15 O       -4.1370    -1.5150    -1.2870 O.3   1 <1>  -0.5600 
 16 C       -4.5530    -2.3540     0.8820 C.3   1 <1>   0.1200 
 17 C        0.3000    -4.3800    -0.4890 C.ar  1 <1>  -0.1500 
 18 C        1.0440    -2.4290    -1.6520 C.ar  1 <1>  -0.1500 
 19 O       -4.1980    -3.3820     1.7510 O.3   1 <1>  -0.6800 
 20 C        1.2070    -3.7630    -1.3290 C.ar  1 <1>  -0.1500 
 21 H       -2.1400    -1.8010     1.3470 H     1 <1>   0.0800 
 22 H       -3.4130     1.1070    -1.0900 H     1 <1>   0.0800 
 23 H       -1.8630     0.8110    -1.8210 H     1 <1>   0.0800 
 24 H       -0.2220     2.1870    -0.8410 H     1 <1>   0.1000 
 25 H       -1.1510     3.7140    -0.7380 H     1 <1>   0.1000 
 26 H       -0.4860     3.9120     1.7000 H     1 <1>   0.1000 
 27 H        0.3980     2.3610     1.5880 H     1 <1>   0.1000 
 28 H       -2.9360     3.9940     1.1010 H     1 <1>   0.0800 
 29 H       -3.2430     2.7220     2.2570 H     1 <1>   0.0800 
 30 H       -3.8170     2.5650     0.6170 H     1 <1>   0.0800 
 31 H       -3.3240    -3.2150    -0.6270 H     1 <1>   0.0800 
 32 H       -2.5250    -1.4230    -2.4970 H     1 <1>   0.0800 
 33 H       -3.8550    -0.3630    -2.9030 H     1 <1>   0.0800 
 34 H       -1.4590    -4.1610     0.6820 H     1 <1>   0.1500 
 35 H       -0.1140    -0.6780    -1.3990 H     1 <1>   0.1500 
 36 H       -5.5260    -2.5780     0.4800 H     1 <1>   0.0800 
 37 H       -4.5980    -1.4390     1.4480 H     1 <1>   0.0800 
 38 H        0.4290    -5.4150    -0.2260 H     1 <1>   0.1500 
 39 H        1.7540    -1.9420    -2.2960 H     1 <1>   0.1500 
 40 H       -4.4520    -4.2500     1.3800 H     1 <1>   0.4000 
 41 H        2.0410    -4.3160    -1.7240 H     1 <1>   0.1500 
@<TRIPOS>BOND
  1   1   2  2   
  2   2   3  am  
  3   2   4  1   
  4   3   5  1   
  5   3   6  1   
  6   4   7  1   
  7   4   8  1   
  8   4   9  1   
  9   5  10  1   
 10   5  11  1   
 11   5  21  1   
 12   6  12  1   
 13   6  22  1   
 14   6  23  1   
 15   7   8  1   
 16   7  24  1   
 17   7  25  1   
 18   8  26  1   
 19   8  27  1   
 20   9  28  1   
 21   9  29  1   
 22   9  30  1   
 23  10  13  ar  
 24  10  14  ar  
 25  11  15  1   
 26  11  16  1   
 27  11  31  1   
 28  12  15  1   
 29  12  32  1   
 30  12  33  1   
 31  13  17  ar  
 32  13  34  1   
 33  14  18  ar  
 34  14  35  1   
 35  16  19  1   
 36  16  36  1   
 37  16  37  1   
 38  17  20  ar  
 39  17  38  1   
 40  18  20  ar  
 41  18  39  1   
 42  19  40  1   
 43  20  41  1   
@<TRIPOS>SUBSTRUCTURE
  1 ****   3 GROUP 4 **** **** 0

# MOE 2024.06 (io_trps.svl 2023.06)
