@<TRIPOS>MOLECULE
NONAME
36 37 1 0 0 
SMALL
USER_CHARGES


@<TRIPOS>ATOM
  1 N        0.1610    -0.3300    -0.6920 N.ar  1 <1>  -0.6200 
  2 C        0.3710    -1.5990    -0.4290 C.ar  1 <1>   0.7710 
  3 C        1.1290     0.5290    -0.4320 C.ar  1 <1>   0.4100 
  4 N        1.5300    -2.0590     0.0730 N.ar  1 <1>  -0.1790 
  5 N       -0.6460    -2.4230    -0.6940 N.pl3 1 <1>  -0.8690 
  6 N        0.8490     1.8360    -0.6700 N.pl3 1 <1>  -0.8380 
  7 C        2.3900     0.1050     0.0630 C.ar  1 <1>  -0.1430 
  8 C        2.5620    -1.2170     0.3170 C.ar  1 <1>   0.2110 
  9 C       -0.8830    -3.8680    -0.4890 C.3   1 <1>   0.3530 
 10 C        0.0560     2.2550    -1.8620 C.3   1 <1>   0.1290 
 11 C        0.9580     2.8900     0.3770 C.3   1 <1>   0.1290 
 12 C        3.5470     1.0820     0.2710 C.3   1 <1>  -0.0970 
 13 C       -2.3400    -4.0690    -0.1250 C.ar  1 <1>  -0.1430 
 14 C       -3.1590    -4.8540    -0.9250 C.ar  1 <1>   0.1600 
 15 C       -2.8810    -3.4840     1.0040 C.ar  1 <1>  -0.1500 
 16 N       -4.4370    -5.0970    -0.6920 N.ar  1 <1>  -0.6200 
 17 C       -4.2130    -3.7260     1.2600 C.ar  1 <1>  -0.1500 
 18 C       -4.9360    -4.5280     0.3940 C.ar  1 <1>   0.1600 
 19 H        1.5960    -3.0560     0.2340 H     1 <1>   0.4570 
 20 H       -1.4760    -1.9430    -1.0660 H     1 <1>   0.4000 
 21 H        3.4870    -1.6220     0.6940 H     1 <1>   0.1500 
 22 H       -0.2650    -4.2500     0.3050 H     1 <1>   0.0800 
 23 H       -0.6520    -4.4010    -1.3970 H     1 <1>   0.0800 
 24 H        0.0890     1.4930    -2.6210 H     1 <1>   0.0800 
 25 H        0.4610     3.1640    -2.2720 H     1 <1>   0.0800 
 26 H       -0.9700     2.4190    -1.5790 H     1 <1>   0.0800 
 27 H        1.2160     2.4550     1.3260 H     1 <1>   0.0800 
 28 H        0.0150     3.3990     0.4860 H     1 <1>   0.0800 
 29 H        1.7110     3.6070     0.0970 H     1 <1>   0.0800 
 30 H        3.6170     1.7540    -0.5670 H     1 <1>   0.0800 
 31 H        4.4860     0.5650     0.3600 H     1 <1>   0.0800 
 32 H        3.3960     1.6610     1.1650 H     1 <1>   0.0800 
 33 H       -2.7500    -5.3120    -1.8100 H     1 <1>   0.1500 
 34 H       -2.3000    -2.8610     1.6630 H     1 <1>   0.1500 
 35 H       -4.6940    -3.2990     2.1220 H     1 <1>   0.1500 
 36 H       -5.9760    -4.7120     0.6040 H     1 <1>   0.1500 
@<TRIPOS>BOND
  1   1   2  ar  
  2   1   3  ar  
  3   2   4  ar  
  4   2   5  1   
  5   3   6  1   
  6   3   7  ar  
  7   4   8  ar  
  8   4  19  1   
  9   5   9  1   
 10   5  20  1   
 11   6  10  1   
 12   6  11  1   
 13   7   8  ar  
 14   7  12  1   
 15   8  21  1   
 16   9  13  1   
 17   9  22  1   
 18   9  23  1   
 19  10  24  1   
 20  10  25  1   
 21  10  26  1   
 22  11  27  1   
 23  11  28  1   
 24  11  29  1   
 25  12  30  1   
 26  12  31  1   
 27  12  32  1   
 28  13  14  ar  
 29  13  15  ar  
 30  14  16  ar  
 31  14  33  1   
 32  15  17  ar  
 33  15  34  1   
 34  16  18  ar  
 35  17  18  ar  
 36  17  35  1   
 37  18  36  1   
@<TRIPOS>SUBSTRUCTURE
  1 ****   2 GROUP 4 **** **** 0

# MOE 2024.06 (io_trps.svl 2023.06)
