@<TRIPOS>MOLECULE
NONAME
51 55 1 0 0 
SMALL
USER_CHARGES


@<TRIPOS>ATOM
  1 F       -0.9720    -0.5680     0.5820 F     1 <1>  -0.1900 
  2 C       -1.3850    -1.8100     0.6060 C.ar  1 <1>   0.1900 
  3 C       -2.3930    -2.1930    -0.2400 C.ar  1 <1>  -0.1500 
  4 C       -0.7680    -2.6870     1.5020 C.ar  1 <1>  -0.1500 
  5 C       -2.8170    -3.5260    -0.1890 C.ar  1 <1>   0.0000 
  6 C       -1.1840    -3.9980     1.5490 C.ar  1 <1>  -0.1500 
  7 C       -2.2180    -4.4170     0.6980 C.ar  1 <1>  -0.1520 
  8 C       -3.7950    -4.2530    -0.8830 C.2   1 <1>  -0.1500 
  9 N       -2.8200    -5.6440     0.5440 N.pl3 1 <1>   0.0480 
 10 C       -3.8000    -5.5370    -0.4180 C.2   1 <1>  -0.2370 
 11 C       -2.4530    -6.8890     1.2500 C.3   1 <1>   0.0160 
 12 C       -4.6370    -6.6450    -0.8030 C.2   1 <1>   0.7150 
 13 O       -4.1210    -7.6610    -1.2310 O.2   1 <1>  -0.5700 
 14 N       -6.0050    -6.5990    -0.6610 N.am  1 <1>  -0.6600 
 15 C       -6.7140    -5.5410     0.1250 C.3   1 <1>   0.1400 
 16 C       -6.8400    -7.7630    -1.0880 C.3   1 <1>   0.1400 
 17 C       -7.9600    -5.0110    -0.6200 C.3   1 <1>   0.1440 
 18 C       -8.3360    -7.5470    -0.8060 C.3   1 <1>  -0.1600 
 19 C       -8.7510    -4.1890     0.3840 C.ar  1 <1>   0.1670 
 20 C       -8.7900    -6.1530    -1.2680 C.3   1 <1>  -0.1600 
 21 C       -7.5760    -3.9350    -1.6690 C.3   1 <1>  -0.1600 
 22 N       -9.5170    -4.6730     1.3370 N.ar  1 <1>  -0.6200 
 23 C       -8.5550    -2.8520     0.2010 C.ar  1 <1>  -0.1430 
 24 C       -7.6180    -2.5770    -0.9480 C.3   1 <1>  -0.0170 
 25 C      -10.0940    -3.7530     2.0970 C.ar  1 <1>   0.4770 
 26 C       -9.2000    -1.9870     1.0490 C.ar  1 <1>   0.1600 
 27 N       -9.9820    -2.4340     2.0100 N.ar  1 <1>  -0.6200 
 28 C      -10.9920    -4.2660     3.1960 C.3   1 <1>  -0.0970 
 29 H       -2.8480    -1.5000    -0.9220 H     1 <1>   0.1500 
 30 H        0.0200    -2.3220     2.1350 H     1 <1>   0.1500 
 31 H       -0.7230    -4.6930     2.2280 H     1 <1>   0.1500 
 32 H       -4.4120    -3.8350    -1.6550 H     1 <1>   0.1500 
 33 H       -1.8300    -6.6670     2.0950 H     1 <1>   0.0800 
 34 H       -1.9240    -7.5330     0.5710 H     1 <1>   0.0800 
 35 H       -3.3440    -7.3850     1.5880 H     1 <1>   0.0800 
 36 H       -6.0610    -4.7230     0.3680 H     1 <1>   0.0800 
 37 H       -7.0280    -5.9760     1.0590 H     1 <1>   0.0800 
 38 H       -6.4990    -8.6500    -0.5820 H     1 <1>   0.0800 
 39 H       -6.6940    -7.9110    -2.1450 H     1 <1>   0.0800 
 40 H       -8.5240    -7.6610     0.2470 H     1 <1>   0.0800 
 41 H       -8.9040    -8.3030    -1.3170 H     1 <1>   0.0800 
 42 H       -8.6830    -6.1210    -2.3380 H     1 <1>   0.0800 
 43 H       -9.8350    -6.0210    -1.0480 H     1 <1>   0.0800 
 44 H       -8.3220    -3.9090    -2.4430 H     1 <1>   0.0800 
 45 H       -6.6250    -4.1320    -2.1280 H     1 <1>   0.0800 
 46 H       -7.9880    -1.7970    -1.5910 H     1 <1>   0.0800 
 47 H       -6.6460    -2.3130    -0.5690 H     1 <1>   0.0800 
 48 H       -9.0760    -0.9240     0.9440 H     1 <1>   0.1500 
 49 H      -10.7430    -5.2820     3.4380 H     1 <1>   0.0800 
 50 H      -12.0130    -4.2210     2.8680 H     1 <1>   0.0800 
 51 H      -10.8770    -3.6590     4.0750 H     1 <1>   0.0800 
@<TRIPOS>BOND
  1   1   2  1   
  2   2   3  ar  
  3   2   4  ar  
  4   3   5  ar  
  5   3  29  1   
  6   4   6  ar  
  7   4  30  1   
  8   5   7  ar  
  9   5   8  1   
 10   6   7  ar  
 11   6  31  1   
 12   7   9  1   
 13   8  10  2   
 14   8  32  1   
 15   9  10  1   
 16   9  11  1   
 17  10  12  1   
 18  11  33  1   
 19  11  34  1   
 20  11  35  1   
 21  12  13  2   
 22  12  14  am  
 23  14  15  1   
 24  14  16  1   
 25  15  17  1   
 26  15  36  1   
 27  15  37  1   
 28  16  18  1   
 29  16  38  1   
 30  16  39  1   
 31  17  19  1   
 32  17  20  1   
 33  17  21  1   
 34  18  20  1   
 35  18  40  1   
 36  18  41  1   
 37  19  22  ar  
 38  19  23  ar  
 39  20  42  1   
 40  20  43  1   
 41  21  24  1   
 42  21  44  1   
 43  21  45  1   
 44  22  25  ar  
 45  23  24  1   
 46  23  26  ar  
 47  24  46  1   
 48  24  47  1   
 49  25  27  ar  
 50  25  28  1   
 51  26  27  ar  
 52  26  48  1   
 53  28  49  1   
 54  28  50  1   
 55  28  51  1   
@<TRIPOS>SUBSTRUCTURE
  1 ****  15 GROUP 4 **** **** 0

# MOE 2024.06 (io_trps.svl 2023.06)
