@<TRIPOS>MOLECULE
NONAME
49 50 1 0 0 
SMALL
USER_CHARGES


@<TRIPOS>ATOM
  1 O        1.7550     0.1940    -2.8680 O.2   1 <1>  -0.5700 
  2 C        1.2950    -0.5430    -2.0260 C.2   1 <1>   0.5690 
  3 N        1.5590    -0.4400    -0.6960 N.am  1 <1>  -0.4930 
  4 C        0.3590    -1.6760    -2.4510 C.3   1 <1>   0.1710 
  5 C        2.3580     0.4850     0.0160 C.2   1 <1>   0.0630 
  6 N       -0.5190    -2.1780    -1.3470 N.3   1 <1>  -0.8100 
  7 C        2.5370     0.5300     1.3540 C.2   1 <1>  -0.3320 
  8 C        3.1250     1.5390    -0.4810 C.2   1 <1>   0.1390 
  9 C       -1.0340    -3.5190    -1.6530 C.3   1 <1>   0.1100 
 10 C       -1.6100    -1.2180    -1.0850 C.3   1 <1>   0.0300 
 11 N        3.3740     1.5710     1.5950 N.pl3 1 <1>   0.3140 
 12 C        1.9560    -0.3690     2.4360 C.3   1 <1>  -0.0600 
 13 N        3.7360     2.1930     0.4610 N.2   1 <1>  -0.7070 
 14 C       -1.4980    -4.2130    -0.3710 C.3   1 <1>  -0.1600 
 15 C        3.8710     2.0270     2.8990 C.3   1 <1>   0.0160 
 16 C       -1.8990    -5.6670    -0.6520 C.3   1 <1>   0.0960 
 17 N       -2.3130    -6.3420     0.5920 N.pl3 1 <1>   0.3140 
 18 N       -1.4210    -7.0140     1.3420 N.2   1 <1>  -0.7070 
 19 C       -3.5500    -6.3900     1.1400 C.2   1 <1>  -0.3320 
 20 C       -2.1010    -7.4700     2.3430 C.2   1 <1>   0.1080 
 21 C       -3.4420    -7.1130     2.2740 C.2   1 <1>  -0.1500 
 22 C       -4.7960    -5.7430     0.5590 C.3   1 <1>  -0.0600 
 23 C       -1.4700    -8.2930     3.4410 C.3   1 <1>  -0.0590 
 24 H        1.0380    -1.1220    -0.1380 H     1 <1>   0.3700 
 25 H        0.9880    -2.4740    -2.8030 H     1 <1>   0.0800 
 26 H       -0.2410    -1.3410    -3.2790 H     1 <1>   0.0800 
 27 H        3.2030     1.7840    -1.5270 H     1 <1>   0.1500 
 28 H       -0.2450    -4.1120    -2.0840 H     1 <1>   0.0800 
 29 H       -1.8380    -3.4570    -2.3690 H     1 <1>   0.0800 
 30 H       -1.2090    -0.2360    -0.8960 H     1 <1>   0.0800 
 31 H       -2.1710    -1.5130    -0.2160 H     1 <1>   0.0800 
 32 H       -2.2750    -1.1610    -1.9300 H     1 <1>   0.0800 
 33 H        1.3240    -1.1240     2.0050 H     1 <1>   0.0800 
 34 H        1.3690     0.2120     3.1250 H     1 <1>   0.0800 
 35 H        2.7470    -0.8580     2.9760 H     1 <1>   0.0800 
 36 H       -2.3410    -3.6960     0.0480 H     1 <1>   0.0800 
 37 H       -0.6910    -4.2090     0.3410 H     1 <1>   0.0800 
 38 H        4.4230     1.2320     3.3620 H     1 <1>   0.0800 
 39 H        3.0390     2.3090     3.5140 H     1 <1>   0.0800 
 40 H        4.5150     2.8740     2.7520 H     1 <1>   0.0800 
 41 H       -1.0630    -6.2080    -1.0570 H     1 <1>   0.0800 
 42 H       -2.7090    -5.7100    -1.3540 H     1 <1>   0.0800 
 43 H       -4.2040    -7.3730     2.9860 H     1 <1>   0.1500 
 44 H       -4.6590    -4.6800     0.4730 H     1 <1>   0.0800 
 45 H       -5.6390    -5.9270     1.1990 H     1 <1>   0.0800 
 46 H       -5.0100    -6.1520    -0.4120 H     1 <1>   0.0800 
 47 H       -0.6860    -7.7250     3.9060 H     1 <1>   0.0800 
 48 H       -1.0510    -9.1870     3.0190 H     1 <1>   0.0800 
 49 H       -2.2020    -8.5580     4.1800 H     1 <1>   0.0800 
@<TRIPOS>BOND
  1   1   2  2   
  2   2   3  am  
  3   2   4  1   
  4   3   5  1   
  5   3  24  1   
  6   4   6  1   
  7   4  25  1   
  8   4  26  1   
  9   5   7  2   
 10   5   8  1   
 11   6   9  1   
 12   6  10  1   
 13   7  11  1   
 14   7  12  1   
 15   8  13  2   
 16   8  27  1   
 17   9  14  1   
 18   9  28  1   
 19   9  29  1   
 20  10  30  1   
 21  10  31  1   
 22  10  32  1   
 23  11  13  1   
 24  11  15  1   
 25  12  33  1   
 26  12  34  1   
 27  12  35  1   
 28  14  16  1   
 29  14  36  1   
 30  14  37  1   
 31  15  38  1   
 32  15  39  1   
 33  15  40  1   
 34  16  17  1   
 35  16  41  1   
 36  16  42  1   
 37  17  18  1   
 38  17  19  1   
 39  18  20  2   
 40  19  21  2   
 41  19  22  1   
 42  20  21  1   
 43  20  23  1   
 44  21  43  1   
 45  22  44  1   
 46  22  45  1   
 47  22  46  1   
 48  23  47  1   
 49  23  48  1   
 50  23  49  1   
@<TRIPOS>SUBSTRUCTURE
  1 ****   6 GROUP 4 **** **** 0

# MOE 2024.06 (io_trps.svl 2023.06)
