@<TRIPOS>MOLECULE
NONAME
37 39 1 0 0 
SMALL
USER_CHARGES


@<TRIPOS>ATOM
  1 O        0.7210     0.3890     0.4170 O.2   1 <1>  -0.5700 
  2 C        1.7280    -0.2460     0.6720 C.2   1 <1>   0.7150 
  3 N        2.9120     0.4150     0.7610 N.am  1 <1>  -0.7300 
  4 C        1.7130    -1.6730     0.8700 C.2   1 <1>  -0.2370 
  5 C        3.1350     1.8500     0.4840 C.3   1 <1>   0.2350 
  6 N        0.5870    -2.4640     0.8260 N.pl3 1 <1>   0.0480 
  7 C        2.7790    -2.5020     1.1310 C.2   1 <1>  -0.1500 
  8 C        4.1140     2.0530    -0.6960 C.3   1 <1>  -0.1900 
  9 C        0.9610    -3.7460     1.0540 C.2   1 <1>  -0.3020 
 10 C       -0.8070    -2.0430     0.5800 C.3   1 <1>   0.0160 
 11 C        2.3030    -3.8040     1.2460 C.2   1 <1>  -0.1500 
 12 C        4.1270     1.0940    -1.8480 C.3   1 <1>  -0.2000 
 13 C        5.2940     1.1500    -0.8940 C.3   1 <1>  -0.2000 
 14 C        4.2720     3.5510    -1.0250 C.3   1 <1>   0.1910 
 15 N        4.8800     4.2950     0.0980 N.pl3 1 <1>   0.3140 
 16 N        4.1320     4.9580     1.0020 N.2   1 <1>  -0.7070 
 17 C        6.1940     4.4140     0.3750 C.2   1 <1>  -0.3020 
 18 C        4.9890     5.4810     1.8260 C.2   1 <1>   0.1390 
 19 C        6.3000     5.1740     1.4850 C.2   1 <1>  -0.1500 
 20 H        3.7500    -0.1350     0.9180 H     1 <1>   0.3700 
 21 H        3.5300     2.3100     1.3740 H     1 <1>   0.0800 
 22 H        2.1960     2.3280     0.2590 H     1 <1>   0.0800 
 23 H        3.8140    -2.2300     1.2360 H     1 <1>   0.1500 
 24 H        0.2580    -4.5600     1.0700 H     1 <1>   0.1500 
 25 H       -1.1000    -1.3330     1.3320 H     1 <1>   0.0800 
 26 H       -1.4580    -2.8960     0.6160 H     1 <1>   0.0800 
 27 H       -0.8710    -1.5820    -0.3890 H     1 <1>   0.0800 
 28 H        2.9020    -4.6760     1.4480 H     1 <1>   0.1500 
 29 H        4.2670     1.4670    -2.8490 H     1 <1>   0.1000 
 30 H        3.4860     0.2290    -1.8310 H     1 <1>   0.1000 
 31 H        5.4530     0.3140    -0.2350 H     1 <1>   0.1000 
 32 H        6.2230     1.5630    -1.2480 H     1 <1>   0.1000 
 33 H        3.3110     3.9830    -1.2360 H     1 <1>   0.0800 
 34 H        4.8960     3.6810    -1.8890 H     1 <1>   0.0800 
 35 H        6.9650     3.9590    -0.2200 H     1 <1>   0.1500 
 36 H        4.7040     6.0810     2.6740 H     1 <1>   0.1500 
 37 H        7.1830     5.4890     2.0120 H     1 <1>   0.1500 
@<TRIPOS>BOND
  1   1   2  2   
  2   2   3  am  
  3   2   4  1   
  4   3   5  1   
  5   3  20  1   
  6   4   6  1   
  7   4   7  2   
  8   5   8  1   
  9   5  21  1   
 10   5  22  1   
 11   6   9  1   
 12   6  10  1   
 13   7  11  1   
 14   7  23  1   
 15   8  12  1   
 16   8  13  1   
 17   8  14  1   
 18   9  11  2   
 19   9  24  1   
 20  10  25  1   
 21  10  26  1   
 22  10  27  1   
 23  11  28  1   
 24  12  13  1   
 25  12  29  1   
 26  12  30  1   
 27  13  31  1   
 28  13  32  1   
 29  14  15  1   
 30  14  33  1   
 31  14  34  1   
 32  15  16  1   
 33  15  17  1   
 34  16  18  2   
 35  17  19  2   
 36  17  35  1   
 37  18  19  1   
 38  18  36  1   
 39  19  37  1   
@<TRIPOS>SUBSTRUCTURE
  1 ****   3 GROUP 4 **** **** 0

# MOE 2024.06 (io_trps.svl 2023.06)
