@<TRIPOS>MOLECULE
NONAME
47 49 1 0 0 
SMALL
USER_CHARGES


@<TRIPOS>ATOM
  1 O        1.6870    -3.3450     2.1420 O.2   1 <1>  -0.5700 
  2 C        1.5100    -2.9330     1.0160 C.2   1 <1>   0.6900 
  3 N        0.3040    -2.3760     0.6520 N.am  1 <1>  -0.4200 
  4 N        2.4870    -3.0810     0.0740 N.am  1 <1>  -0.5390 
  5 C        0.0390    -2.1270    -0.6830 C.2   1 <1>   0.6160 
  6 C       -0.6510    -1.9460     1.7190 C.3   1 <1>   0.1400 
  7 C        2.3020    -2.7470    -1.2520 C.2   1 <1>  -0.0290 
  8 O       -1.0940    -1.8450    -1.0240 O.2   1 <1>  -0.5700 
  9 C        1.0930    -2.2790    -1.6310 C.2   1 <1>  -0.1360 
 10 C       -1.2720    -3.1210     2.5110 C.3   1 <1>   0.3430 
 11 C        3.4820    -2.9390    -2.1840 C.3   1 <1>  -0.1020 
 12 N       -2.0600    -4.1220     1.7060 N.4   1 <1>  -0.9590 
 13 C       -1.1960    -5.0000     0.8790 C.3   1 <1>   0.5230 
 14 C       -3.1430    -3.4980     0.8760 C.3   1 <1>   0.2630 
 15 C       -2.0440    -6.1700     0.4470 C.2   1 <1>  -0.3320 
 16 N       -2.2920    -7.2450     1.2620 N.pl3 1 <1>   0.0330 
 17 C       -2.6610    -6.3620    -0.7460 C.2   1 <1>  -0.1810 
 18 C       -3.0990    -8.1170     0.5830 C.ar  1 <1>  -0.1520 
 19 C       -3.3480    -7.5940    -0.6800 C.ar  1 <1>   0.0000 
 20 C       -2.6690    -5.4830    -1.9860 C.3   1 <1>  -0.0590 
 21 C       -3.6390    -9.3460     0.9730 C.ar  1 <1>  -0.1500 
 22 C       -4.1530    -8.3070    -1.5740 C.ar  1 <1>  -0.1500 
 23 C       -4.4300   -10.0350     0.0840 C.ar  1 <1>  -0.1500 
 24 C       -4.6870    -9.5160    -1.1900 C.ar  1 <1>  -0.1500 
 25 H        3.3780    -3.4490     0.4170 H     1 <1>   0.3700 
 26 H       -1.4310    -1.3330     1.3050 H     1 <1>   0.0800 
 27 H       -0.1110    -1.3260     2.4140 H     1 <1>   0.0800 
 28 H        0.8650    -2.0060    -2.6450 H     1 <1>   0.1500 
 29 H       -1.9220    -2.6980     3.2590 H     1 <1>   0.0800 
 30 H       -0.4820    -3.6300     3.0390 H     1 <1>   0.0800 
 31 H        4.3120    -2.3380    -1.8580 H     1 <1>   0.0800 
 32 H        3.2250    -2.6480    -3.1870 H     1 <1>   0.0800 
 33 H        3.7830    -3.9710    -2.1950 H     1 <1>   0.0800 
 34 H       -2.5300    -4.7650     2.3540 H     1 <1>   0.4500 
 35 H       -0.3430    -5.3430     1.4420 H     1 <1>   0.0800 
 36 H       -0.8470    -4.4670     0.0110 H     1 <1>   0.0800 
 37 H       -2.7220    -2.8780     0.1030 H     1 <1>   0.0800 
 38 H       -3.7890    -2.8930     1.4900 H     1 <1>   0.0800 
 39 H       -3.7390    -4.2640     0.4060 H     1 <1>   0.0800 
 40 H       -1.9140    -7.4410     2.1950 H     1 <1>   0.2700 
 41 H       -2.0840    -4.5930    -1.8430 H     1 <1>   0.0800 
 42 H       -3.6780    -5.2000    -2.2270 H     1 <1>   0.0800 
 43 H       -2.2600    -6.0290    -2.8170 H     1 <1>   0.0800 
 44 H       -3.4370    -9.7430     1.9520 H     1 <1>   0.1500 
 45 H       -4.3440    -7.9030    -2.5510 H     1 <1>   0.1500 
 46 H       -4.8590   -10.9840     0.3580 H     1 <1>   0.1500 
 47 H       -5.3080   -10.0750    -1.8670 H     1 <1>   0.1500 
@<TRIPOS>BOND
  1   1   2  2   
  2   2   3  am  
  3   2   4  am  
  4   3   5  am  
  5   3   6  1   
  6   4   7  1   
  7   4  25  1   
  8   5   8  2   
  9   5   9  1   
 10   6  10  1   
 11   6  26  1   
 12   6  27  1   
 13   7   9  2   
 14   7  11  1   
 15   9  28  1   
 16  10  12  1   
 17  10  29  1   
 18  10  30  1   
 19  11  31  1   
 20  11  32  1   
 21  11  33  1   
 22  12  13  1   
 23  12  14  1   
 24  12  34  1   
 25  13  15  1   
 26  13  35  1   
 27  13  36  1   
 28  14  37  1   
 29  14  38  1   
 30  14  39  1   
 31  15  16  1   
 32  15  17  2   
 33  16  18  1   
 34  16  40  1   
 35  17  19  1   
 36  17  20  1   
 37  18  19  ar  
 38  18  21  ar  
 39  19  22  ar  
 40  20  41  1   
 41  20  42  1   
 42  20  43  1   
 43  21  23  ar  
 44  21  44  1   
 45  22  24  ar  
 46  22  45  1   
 47  23  24  ar  
 48  23  46  1   
 49  24  47  1   
@<TRIPOS>SUBSTRUCTURE
  1 ****  13 GROUP 4 **** **** 0

# MOE 2024.06 (io_trps.svl 2023.06)
