@<TRIPOS>MOLECULE
NONAME
50 51 1 0 0 
SMALL
USER_CHARGES


@<TRIPOS>ATOM
  1 O        0.7460     0.3520     2.1750 O.2   1 <1>  -0.5700 
  2 C        1.1100    -0.5180     1.4160 C.2   1 <1>   0.5690 
  3 N        1.7570    -0.2230     0.2390 N.am  1 <1>  -0.6600 
  4 C        0.8270    -1.9580     1.8250 C.3   1 <1>   0.0440 
  5 C        1.9650     1.1870    -0.1840 C.3   1 <1>   0.1400 
  6 C        2.1950    -1.2530    -0.7440 C.3   1 <1>   0.0600 
  7 C       -0.2090    -2.6350     0.9250 C.ar  1 <1>  -0.1440 
  8 C        3.3640     1.6430     0.2350 C.3   1 <1>  -0.1600 
  9 C        0.0750    -3.7910     0.1990 C.ar  1 <1>   0.0830 
 10 C       -1.4720    -2.0690     0.8370 C.ar  1 <1>  -0.1500 
 11 C        3.6370     3.0840    -0.2250 C.3   1 <1>  -0.1600 
 12 O        1.3220    -4.3240     0.3040 O.3   1 <1>  -0.3630 
 13 C       -0.9110    -4.3580    -0.6030 C.ar  1 <1>  -0.1500 
 14 C       -2.4490    -2.6350     0.0390 C.ar  1 <1>  -0.1500 
 15 C        4.9970     3.6010     0.2520 C.3   1 <1>   0.2000 
 16 C        1.6480    -5.5620    -0.2880 C.3   1 <1>   0.0400 
 17 C       -2.1690    -3.7870    -0.6880 C.ar  1 <1>   0.0830 
 18 O        5.1620     4.8960    -0.2090 O.3   1 <1>  -0.5600 
 19 C        6.2030     2.8540    -0.2990 C.3   1 <1>  -0.1600 
 20 O       -3.0660    -4.4070    -1.4960 O.3   1 <1>  -0.3620 
 21 C        6.5120     5.2350    -0.2300 C.3   1 <1>   0.1200 
 22 C        7.2850     3.9200    -0.3130 C.3   1 <1>  -0.1600 
 23 C       -4.3770    -3.9100    -1.6490 C.3   1 <1>   0.0400 
 24 H        0.4490    -1.9570     2.8300 H     1 <1>   0.0800 
 25 H        1.7560    -2.4930     1.8480 H     1 <1>   0.0800 
 26 H        1.2250     1.8200     0.2760 H     1 <1>   0.0800 
 27 H        1.8480     1.2650    -1.2510 H     1 <1>   0.0800 
 28 H        2.6330    -2.0940    -0.2370 H     1 <1>   0.0800 
 29 H        2.9300    -0.8450    -1.4150 H     1 <1>   0.0800 
 30 H        1.3470    -1.5890    -1.3160 H     1 <1>   0.0800 
 31 H        4.0960     0.9810    -0.1910 H     1 <1>   0.0800 
 32 H        3.4350     1.5920     1.3080 H     1 <1>   0.0800 
 33 H       -1.6990    -1.1750     1.3950 H     1 <1>   0.1500 
 34 H        2.8750     3.7310     0.1730 H     1 <1>   0.0800 
 35 H        3.5980     3.1340    -1.2990 H     1 <1>   0.0800 
 36 H       -0.7330    -5.2440    -1.1780 H     1 <1>   0.1500 
 37 H       -3.4130    -2.1660    -0.0030 H     1 <1>   0.1500 
 38 H        5.0350     3.6340     1.3290 H     1 <1>   0.0800 
 39 H        2.6620    -5.8040    -0.0220 H     1 <1>   0.0800 
 40 H        1.5610    -5.4740    -1.3560 H     1 <1>   0.0800 
 41 H        0.9820    -6.3170     0.0920 H     1 <1>   0.0800 
 42 H        5.9990     2.5230    -1.3020 H     1 <1>   0.0800 
 43 H        6.4630     2.0080     0.3110 H     1 <1>   0.0800 
 44 H        6.7390     5.7670     0.6780 H     1 <1>   0.0800 
 45 H        6.6890     5.8650    -1.0830 H     1 <1>   0.0800 
 46 H        7.8800     3.8730    -1.2080 H     1 <1>   0.0800 
 47 H        7.9300     3.8280     0.5430 H     1 <1>   0.0800 
 48 H       -4.9020    -4.5560    -2.3300 H     1 <1>   0.0800 
 49 H       -4.3280    -2.9150    -2.0550 H     1 <1>   0.0800 
 50 H       -4.8660    -3.9130    -0.6910 H     1 <1>   0.0800 
@<TRIPOS>BOND
  1   1   2  2   
  2   2   3  am  
  3   2   4  1   
  4   3   5  1   
  5   3   6  1   
  6   4   7  1   
  7   4  24  1   
  8   4  25  1   
  9   5   8  1   
 10   5  26  1   
 11   5  27  1   
 12   6  28  1   
 13   6  29  1   
 14   6  30  1   
 15   7   9  ar  
 16   7  10  ar  
 17   8  11  1   
 18   8  31  1   
 19   8  32  1   
 20   9  12  1   
 21   9  13  ar  
 22  10  14  ar  
 23  10  33  1   
 24  11  15  1   
 25  11  34  1   
 26  11  35  1   
 27  12  16  1   
 28  13  17  ar  
 29  13  36  1   
 30  14  17  ar  
 31  14  37  1   
 32  15  18  1   
 33  15  19  1   
 34  15  38  1   
 35  16  39  1   
 36  16  40  1   
 37  16  41  1   
 38  17  20  1   
 39  18  21  1   
 40  19  22  1   
 41  19  42  1   
 42  19  43  1   
 43  20  23  1   
 44  21  22  1   
 45  21  44  1   
 46  21  45  1   
 47  22  46  1   
 48  22  47  1   
 49  23  48  1   
 50  23  49  1   
 51  23  50  1   
@<TRIPOS>SUBSTRUCTURE
  1 ****   3 GROUP 4 **** **** 0

# MOE 2024.06 (io_trps.svl 2023.06)
