@<TRIPOS>MOLECULE
NONAME
47 49 1 0 0 
SMALL
USER_CHARGES


@<TRIPOS>ATOM
  1 O        0.1990    -0.0200     0.1660 O.2   1 <1>  -0.5700 
  2 C        1.1930    -0.7200     0.1600 C.2   1 <1>   0.5440 
  3 N        1.0100    -2.0700     0.2170 N.am  1 <1>  -0.7300 
  4 C        2.5260    -0.1400     0.0860 C.ar  1 <1>   0.0860 
  5 C       -0.3160    -2.7490     0.2630 C.3   1 <1>   0.2010 
  6 C        2.7100     1.1730    -0.3530 C.ar  1 <1>  -0.1500 
  7 C        3.6710    -0.8550     0.4450 C.ar  1 <1>  -0.1500 
  8 C       -0.2160    -4.2760     0.1450 C.2   1 <1>   0.5690 
  9 C        3.9680     1.7420    -0.4380 C.ar  1 <1>  -0.1500 
 10 C        4.9330    -0.2930     0.3620 C.ar  1 <1>  -0.1500 
 11 O        0.8820    -4.7840     0.0700 O.2   1 <1>  -0.5700 
 12 N       -1.3530    -5.0370     0.1240 N.am  1 <1>  -0.6600 
 13 C        5.0840     1.0080    -0.0810 C.ar  1 <1>  -0.1500 
 14 C       -2.7510    -4.5370     0.1650 C.3   1 <1>   0.1400 
 15 C       -1.3250    -6.5180     0.0300 C.3   1 <1>   0.1400 
 16 C       -3.6110    -5.7650    -0.1350 C.3   1 <1>   0.2000 
 17 C       -2.7660    -6.9640     0.2870 C.3   1 <1>  -0.0800 
 18 O       -4.8000    -5.7380     0.5740 O.3   1 <1>  -0.6800 
 19 C       -3.1490    -8.2610    -0.4420 C.3   1 <1>   0.0210 
 20 C       -2.2280    -9.3970    -0.0440 C.2   1 <1>   0.1080 
 21 N       -2.1830    -9.8740     1.1610 N.2   1 <1>  -0.7070 
 22 C       -1.3360   -10.0380    -0.8970 C.2   1 <1>  -0.1500 
 23 N       -1.2530   -10.8450     1.1080 N.pl3 1 <1>   0.3000 
 24 C       -0.7240   -10.9620    -0.1280 C.2   1 <1>  -0.3320 
 25 C        0.3510   -11.9650    -0.5040 C.3   1 <1>  -0.0600 
 26 H        1.7920    -2.7250     0.1130 H     1 <1>   0.3700 
 27 H       -0.7960    -2.5030     1.1920 H     1 <1>   0.0800 
 28 H       -0.9220    -2.3750    -0.5420 H     1 <1>   0.0800 
 29 H        1.8470     1.7540    -0.6310 H     1 <1>   0.1500 
 30 H        3.5800    -1.8650     0.8020 H     1 <1>   0.1500 
 31 H        4.0780     2.7570    -0.7810 H     1 <1>   0.1500 
 32 H        5.7990    -0.8670     0.6440 H     1 <1>   0.1500 
 33 H        6.0650     1.4480    -0.1460 H     1 <1>   0.1500 
 34 H       -2.9630    -4.1550     1.1480 H     1 <1>   0.0800 
 35 H       -2.9070    -3.7750    -0.5780 H     1 <1>   0.0800 
 36 H       -1.0020    -6.7980    -0.9580 H     1 <1>   0.0800 
 37 H       -0.6490    -6.9380     0.7560 H     1 <1>   0.0800 
 38 H       -3.8430    -5.7950    -1.1860 H     1 <1>   0.0800 
 39 H       -2.8610    -7.1180     1.3480 H     1 <1>   0.0800 
 40 H       -4.6360    -5.9240     1.5200 H     1 <1>   0.4000 
 41 H       -3.1010    -8.1180    -1.5060 H     1 <1>   0.0800 
 42 H       -4.1580    -8.5310    -0.1860 H     1 <1>   0.0800 
 43 H       -1.1860    -9.8220    -1.9400 H     1 <1>   0.1500 
 44 H       -1.0030   -11.4080     1.9290 H     1 <1>   0.2700 
 45 H        0.6070   -11.8600    -1.5440 H     1 <1>   0.0800 
 46 H        0.0000   -12.9680    -0.3370 H     1 <1>   0.0800 
 47 H        1.2370   -11.7990     0.0840 H     1 <1>   0.0800 
@<TRIPOS>BOND
  1   1   2  2   
  2   2   3  am  
  3   2   4  1   
  4   3   5  1   
  5   3  26  1   
  6   4   6  ar  
  7   4   7  ar  
  8   5   8  1   
  9   5  27  1   
 10   5  28  1   
 11   6   9  ar  
 12   6  29  1   
 13   7  10  ar  
 14   7  30  1   
 15   8  11  2   
 16   8  12  am  
 17   9  13  ar  
 18   9  31  1   
 19  10  13  ar  
 20  10  32  1   
 21  12  14  1   
 22  12  15  1   
 23  13  33  1   
 24  14  16  1   
 25  14  34  1   
 26  14  35  1   
 27  15  17  1   
 28  15  36  1   
 29  15  37  1   
 30  16  17  1   
 31  16  18  1   
 32  16  38  1   
 33  17  19  1   
 34  17  39  1   
 35  18  40  1   
 36  19  20  1   
 37  19  41  1   
 38  19  42  1   
 39  20  21  2   
 40  20  22  1   
 41  21  23  1   
 42  22  24  2   
 43  22  43  1   
 44  23  24  1   
 45  23  44  1   
 46  24  25  1   
 47  25  45  1   
 48  25  46  1   
 49  25  47  1   
@<TRIPOS>SUBSTRUCTURE
  1 ****   8 GROUP 4 **** **** 0

# MOE 2024.06 (io_trps.svl 2023.06)
