@<TRIPOS>MOLECULE
NONAME
61 63 1 0 0 
SMALL
USER_CHARGES


@<TRIPOS>ATOM
  1 O        0.2550    -0.3630    -0.6040 O.2   1 <1>  -0.5700 
  2 C        1.3060    -0.9160    -0.4050 C.2   1 <1>   0.4230 
  3 C        2.5690    -0.2050    -0.3390 C.ar  1 <1>   0.0860 
  4 C        1.2690    -2.4340    -0.2140 C.3   1 <1>  -0.0990 
  5 C        3.8120    -0.8410    -0.3400 C.ar  1 <1>  -0.1500 
  6 C        2.5890     1.1880    -0.2710 C.ar  1 <1>  -0.1500 
  7 C       -0.1530    -2.9800     0.0310 C.3   1 <1>  -0.1600 
  8 C        4.9930    -0.1270    -0.2690 C.ar  1 <1>  -0.1500 
  9 C        3.7690     1.9040    -0.2000 C.ar  1 <1>  -0.1500 
 10 C       -0.1690    -4.4990     0.1990 C.3   1 <1>   0.3430 
 11 C        5.0020     1.2610    -0.1960 C.ar  1 <1>  -0.1440 
 12 N       -1.5370    -4.9530     0.5630 N.4   1 <1>  -0.9590 
 13 C        6.3490     2.0140    -0.1170 C.3   1 <1>   0.1430 
 14 C       -2.6070    -4.6980    -0.4410 C.3   1 <1>   0.3430 
 15 C       -1.6330    -6.4030     0.9040 C.3   1 <1>   0.3430 
 16 C        7.1160     1.5670     1.1360 C.3   1 <1>  -0.2400 
 17 C        7.1850     1.7020    -1.3670 C.3   1 <1>  -0.2400 
 18 C        6.1840     3.5420    -0.0390 C.3   1 <1>  -0.2400 
 19 C       -3.7540    -5.5920     0.0290 C.3   1 <1>   0.2000 
 20 C       -3.0400    -6.8650     0.4850 C.3   1 <1>  -0.0800 
 21 O       -4.3190    -4.9950     1.1500 O.3   1 <1>  -0.6800 
 22 C       -2.9860    -7.9250    -0.6350 C.3   1 <1>   0.0200 
 23 C       -2.0220    -9.0420    -0.2860 C.2   1 <1>  -0.0400 
 24 O       -2.0320    -9.5570     0.9140 O.3   1 <1>  -0.0190 
 25 C       -1.0630    -9.6600    -0.9930 C.2   1 <1>  -0.1500 
 26 N       -1.1210   -10.4720     1.0540 N.2   1 <1>  -0.4100 
 27 C       -0.5270   -10.5660    -0.0810 C.2   1 <1>   0.1080 
 28 C        0.5990   -11.5330    -0.3740 C.3   1 <1>  -0.0590 
 29 H        1.6830    -2.8890    -1.0960 H     1 <1>   0.0800 
 30 H        1.8910    -2.6870     0.6270 H     1 <1>   0.0800 
 31 H        3.8780    -1.9110    -0.4030 H     1 <1>   0.1500 
 32 H        1.6540     1.7230    -0.2740 H     1 <1>   0.1500 
 33 H       -0.7700    -2.7030    -0.8060 H     1 <1>   0.0800 
 34 H       -0.5490    -2.5130     0.9160 H     1 <1>   0.0800 
 35 H        5.9220    -0.6700    -0.2720 H     1 <1>   0.1500 
 36 H        3.6960     2.9750    -0.1500 H     1 <1>   0.1500 
 37 H        0.5200    -4.7760     0.9800 H     1 <1>   0.0800 
 38 H        0.1470    -4.9720    -0.7170 H     1 <1>   0.0800 
 39 H       -1.8540    -4.4420     1.4040 H     1 <1>   0.4500 
 40 H       -2.9040    -3.6620    -0.4650 H     1 <1>   0.0800 
 41 H       -2.2790    -5.0070    -1.4200 H     1 <1>   0.0800 
 42 H       -0.8830    -6.9650     0.3710 H     1 <1>   0.0800 
 43 H       -1.4880    -6.5520     1.9620 H     1 <1>   0.0800 
 44 H        8.0410     2.1080     1.2280 H     1 <1>   0.0800 
 45 H        7.3470     0.5190     1.0970 H     1 <1>   0.0800 
 46 H        6.5230     1.7500     2.0140 H     1 <1>   0.0800 
 47 H        8.1120     2.2470    -1.3500 H     1 <1>   0.0800 
 48 H        6.6410     1.9810    -2.2520 H     1 <1>   0.0800 
 49 H        7.4160     0.6550    -1.4290 H     1 <1>   0.0800 
 50 H        7.1430     4.0240     0.0150 H     1 <1>   0.0800 
 51 H        5.6240     3.8170     0.8370 H     1 <1>   0.0800 
 52 H        5.6750     3.9120    -0.9110 H     1 <1>   0.0800 
 53 H       -4.5180    -5.7380    -0.7170 H     1 <1>   0.0800 
 54 H       -3.5390    -7.3060     1.3310 H     1 <1>   0.0800 
 55 H       -5.1430    -5.4520     1.4240 H     1 <1>   0.4000 
 56 H       -2.6810    -7.4860    -1.5680 H     1 <1>   0.0800 
 57 H       -3.9670    -8.3490    -0.7720 H     1 <1>   0.0800 
 58 H       -0.7490    -9.5270    -2.0120 H     1 <1>   0.1500 
 59 H        1.4680   -10.9980    -0.7070 H     1 <1>   0.0800 
 60 H        0.2950   -12.2260    -1.1370 H     1 <1>   0.0800 
 61 H        0.8490   -12.0850     0.5140 H     1 <1>   0.0800 
@<TRIPOS>BOND
  1   1   2  2   
  2   2   3  1   
  3   2   4  1   
  4   3   5  ar  
  5   3   6  ar  
  6   4   7  1   
  7   4  29  1   
  8   4  30  1   
  9   5   8  ar  
 10   5  31  1   
 11   6   9  ar  
 12   6  32  1   
 13   7  10  1   
 14   7  33  1   
 15   7  34  1   
 16   8  11  ar  
 17   8  35  1   
 18   9  11  ar  
 19   9  36  1   
 20  10  12  1   
 21  10  37  1   
 22  10  38  1   
 23  11  13  1   
 24  12  14  1   
 25  12  15  1   
 26  12  39  1   
 27  13  16  1   
 28  13  17  1   
 29  13  18  1   
 30  14  19  1   
 31  14  40  1   
 32  14  41  1   
 33  15  20  1   
 34  15  42  1   
 35  15  43  1   
 36  16  44  1   
 37  16  45  1   
 38  16  46  1   
 39  17  47  1   
 40  17  48  1   
 41  17  49  1   
 42  18  50  1   
 43  18  51  1   
 44  18  52  1   
 45  19  20  1   
 46  19  21  1   
 47  19  53  1   
 48  20  22  1   
 49  20  54  1   
 50  21  55  1   
 51  22  23  1   
 52  22  56  1   
 53  22  57  1   
 54  23  24  1   
 55  23  25  2   
 56  24  26  1   
 57  25  27  1   
 58  25  58  1   
 59  26  27  2   
 60  27  28  1   
 61  28  59  1   
 62  28  60  1   
 63  28  61  1   
@<TRIPOS>SUBSTRUCTURE
  1 ****   4 GROUP 4 **** **** 0

# MOE 2024.06 (io_trps.svl 2023.06)
