@<TRIPOS>MOLECULE
NONAME
48 51 1 0 0 
SMALL
USER_CHARGES


@<TRIPOS>ATOM
  1 CL      -0.4420     1.5890     1.4770 Cl    1 <1>  -0.1770 
  2 C        0.2200     3.0100     0.6970 C.ar  1 <1>   0.1770 
  3 C        1.5420     2.9830     0.2010 C.ar  1 <1>   0.3100 
  4 C       -0.5840     4.1110     0.5930 C.ar  1 <1>  -0.1500 
  5 N        2.2670     1.8380     0.2780 N.ar  1 <1>  -0.6200 
  6 C        2.0590     4.1660    -0.3830 C.ar  1 <1>   0.0000 
  7 C       -0.0930     5.2580    -0.0310 C.ar  1 <1>  -0.1500 
  8 C        3.4640     1.8300    -0.2070 C.ar  1 <1>   0.1670 
  9 C        3.4110     4.1600    -0.8220 C.ar  1 <1>   0.0860 
 10 C        1.1890     5.2760    -0.5100 C.ar  1 <1>  -0.1500 
 11 C        4.0700     2.9580    -0.7590 C.ar  1 <1>  -0.1500 
 12 C        4.2200     0.5190    -0.1430 C.3   1 <1>  -0.0960 
 13 C        4.1190     5.3390    -1.2850 C.2   1 <1>   0.5440 
 14 O        4.9760     5.2600    -2.1460 O.2   1 <1>  -0.5700 
 15 N        3.9980     6.5640    -0.6760 N.am  1 <1>  -0.6600 
 16 C        4.5060     6.6700     0.7360 C.3   1 <1>   0.2200 
 17 C        3.9710     7.7990    -1.5270 C.3   1 <1>   0.1400 
 18 C        3.9340     7.8780     1.4980 C.3   1 <1>   0.1200 
 19 C        6.0590     6.6880     0.7540 C.3   1 <1>   0.3430 
 20 C        4.9710     8.8980    -1.1180 C.3   1 <1>  -0.0800 
 21 O        4.7220     9.0100     1.2840 O.3   1 <1>  -0.5600 
 22 N        6.6550     7.0340    -0.5870 N.4   1 <1>  -0.9590 
 23 C        4.4870     9.6980     0.1020 C.3   1 <1>   0.1200 
 24 C        6.4460     8.4600    -0.9890 C.3   1 <1>   0.3430 
 25 C        8.0900     6.6450    -0.6740 C.3   1 <1>   0.2630 
 26 H       -1.5880     4.0930     0.9800 H     1 <1>   0.1500 
 27 H       -0.7390     6.1150    -0.1310 H     1 <1>   0.1500 
 28 H        1.5290     6.1650    -1.0060 H     1 <1>   0.1500 
 29 H        5.0760     2.8730    -1.1280 H     1 <1>   0.1500 
 30 H        5.1780     0.5920    -0.6220 H     1 <1>   0.0800 
 31 H        3.6470    -0.2480    -0.6330 H     1 <1>   0.0800 
 32 H        4.3620     0.2350     0.8840 H     1 <1>   0.0800 
 33 H        4.1790     5.7960     1.2730 H     1 <1>   0.0800 
 34 H        4.1620     7.5270    -2.5530 H     1 <1>   0.0800 
 35 H        2.9740     8.2060    -1.5010 H     1 <1>   0.0800 
 36 H        3.9730     7.6780     2.5550 H     1 <1>   0.0800 
 37 H        2.9100     8.0760     1.2310 H     1 <1>   0.0800 
 38 H        6.3930     5.7060     1.0420 H     1 <1>   0.0800 
 39 H        6.4050     7.3790     1.5050 H     1 <1>   0.0800 
 40 H        4.9520     9.6110    -1.9220 H     1 <1>   0.0800 
 41 H        6.1140     6.4600    -1.2740 H     1 <1>   0.4500 
 42 H        3.4380     9.9350     0.0350 H     1 <1>   0.0800 
 43 H        5.0320    10.6240     0.1690 H     1 <1>   0.0800 
 44 H        6.9410     9.1090    -0.2830 H     1 <1>   0.0800 
 45 H        6.9160     8.6090    -1.9470 H     1 <1>   0.0800 
 46 H        8.6760     7.2120     0.0310 H     1 <1>   0.0800 
 47 H        8.4660     6.8310    -1.6680 H     1 <1>   0.0800 
 48 H        8.2050     5.5950    -0.4580 H     1 <1>   0.0800 
@<TRIPOS>BOND
  1   1   2  1   
  2   2   3  ar  
  3   2   4  ar  
  4   3   5  ar  
  5   3   6  ar  
  6   4   7  ar  
  7   4  26  1   
  8   5   8  ar  
  9   6   9  ar  
 10   6  10  ar  
 11   7  10  ar  
 12   7  27  1   
 13   8  11  ar  
 14   8  12  1   
 15   9  11  ar  
 16   9  13  1   
 17  10  28  1   
 18  11  29  1   
 19  12  30  1   
 20  12  31  1   
 21  12  32  1   
 22  13  14  2   
 23  13  15  am  
 24  15  16  1   
 25  15  17  1   
 26  16  18  1   
 27  16  19  1   
 28  16  33  1   
 29  17  20  1   
 30  17  34  1   
 31  17  35  1   
 32  18  21  1   
 33  18  36  1   
 34  18  37  1   
 35  19  22  1   
 36  19  38  1   
 37  19  39  1   
 38  20  23  1   
 39  20  24  1   
 40  20  40  1   
 41  21  23  1   
 42  22  24  1   
 43  22  25  1   
 44  22  41  1   
 45  23  42  1   
 46  23  43  1   
 47  24  44  1   
 48  24  45  1   
 49  25  46  1   
 50  25  47  1   
 51  25  48  1   
@<TRIPOS>SUBSTRUCTURE
  1 ****  13 GROUP 4 **** **** 0

# MOE 2024.06 (io_trps.svl 2023.06)
