@<TRIPOS>MOLECULE
NONAME
49 52 1 0 0 
SMALL
USER_CHARGES


@<TRIPOS>ATOM
  1 S       -1.8890     2.1630    -1.0140 S.3   1 <1>  -0.0800 
  2 C       -0.7050     3.3430    -0.4950 C.2   1 <1>  -0.1400 
  3 C       -0.6140     1.1320    -1.6450 C.2   1 <1>  -0.1100 
  4 C        0.5460     2.9550    -0.7740 C.2   1 <1>  -0.1810 
  5 C       -1.0960     4.6340     0.1740 C.3   1 <1>   0.0200 
  6 C        0.5990     1.6850    -1.4440 C.2   1 <1>  -0.1500 
  7 C        1.7380     3.8280    -0.3910 C.3   1 <1>   0.4610 
  8 C        0.1100     5.5800     0.0710 C.3   1 <1>   0.1200 
  9 O        1.3110     4.9180     0.4130 O.3   1 <1>  -0.5600 
 10 C        2.7410     3.0450     0.4720 C.3   1 <1>  -0.1600 
 11 C        2.4620     4.3830    -1.6230 C.3   1 <1>  -0.1600 
 12 C        4.1020     3.7370     0.6320 C.3   1 <1>   0.3430 
 13 C        3.6500     5.2820    -1.2610 C.3   1 <1>   0.3430 
 14 N        4.0090     5.1450     0.1820 N.4   1 <1>  -0.9590 
 15 C        5.1280     6.0170     0.5860 C.3   1 <1>   0.5230 
 16 C        4.6270     7.4470     0.5230 C.2   1 <1>  -0.3320 
 17 N        5.4590     8.5220     0.3960 N.pl3 1 <1>   0.0480 
 18 C        3.3440     7.8980     0.5860 C.2   1 <1>  -0.1500 
 19 C        4.6830     9.6270     0.3640 C.2   1 <1>  -0.3020 
 20 C        6.9340     8.5260     0.3130 C.3   1 <1>   0.0160 
 21 C        3.3550     9.2980     0.4720 C.2   1 <1>  -0.0860 
 22 C        2.1710    10.1150     0.4730 C.2   1 <1>   0.5950 
 23 O        1.0580     9.6520     0.4880 O.2   1 <1>  -0.5700 
 24 C        2.3160    11.6200     0.4410 C.3   1 <1>  -0.1790 
 25 H       -0.9150     0.2080    -2.1060 H     1 <1>   0.1500 
 26 H       -1.3470     4.4550     1.2040 H     1 <1>   0.0800 
 27 H       -1.9460     5.0710    -0.3180 H     1 <1>   0.0800 
 28 H        1.5290     1.2390    -1.7480 H     1 <1>   0.1500 
 29 H       -0.0160     6.4140     0.7420 H     1 <1>   0.0800 
 30 H        0.2000     5.9600    -0.9310 H     1 <1>   0.0800 
 31 H        2.9180     2.0790     0.0360 H     1 <1>   0.0800 
 32 H        2.3030     2.8680     1.4380 H     1 <1>   0.0800 
 33 H        1.7740     4.9200    -2.2500 H     1 <1>   0.0800 
 34 H        2.8250     3.5590    -2.2100 H     1 <1>   0.0800 
 35 H        4.8430     3.2190     0.0440 H     1 <1>   0.0800 
 36 H        4.4000     3.6950     1.6680 H     1 <1>   0.0800 
 37 H        3.3830     6.3080    -1.4600 H     1 <1>   0.0800 
 38 H        4.4950     5.0330    -1.8820 H     1 <1>   0.0800 
 39 H        3.1810     5.5250     0.6780 H     1 <1>   0.4500 
 40 H        5.9640     5.8790    -0.0800 H     1 <1>   0.0800 
 41 H        5.4380     5.7920     1.5930 H     1 <1>   0.0800 
 42 H        2.4250     7.3490     0.7030 H     1 <1>   0.1500 
 43 H        5.0990    10.6150     0.2640 H     1 <1>   0.1500 
 44 H        7.3460     8.0670     1.1930 H     1 <1>   0.0800 
 45 H        7.2870     9.5390     0.2500 H     1 <1>   0.0800 
 46 H        7.2480     7.9900    -0.5630 H     1 <1>   0.0800 
 47 H        2.9600    11.9410     1.2390 H     1 <1>   0.0800 
 48 H        1.3540    12.0830     0.5640 H     1 <1>   0.0800 
 49 H        2.7330    11.9230    -0.5000 H     1 <1>   0.0800 
@<TRIPOS>BOND
  1   1   2  1   
  2   1   3  1   
  3   2   4  2   
  4   2   5  1   
  5   3   6  2   
  6   3  25  1   
  7   4   6  1   
  8   4   7  1   
  9   5   8  1   
 10   5  26  1   
 11   5  27  1   
 12   6  28  1   
 13   7   9  1   
 14   7  10  1   
 15   7  11  1   
 16   8   9  1   
 17   8  29  1   
 18   8  30  1   
 19  10  12  1   
 20  10  31  1   
 21  10  32  1   
 22  11  13  1   
 23  11  33  1   
 24  11  34  1   
 25  12  14  1   
 26  12  35  1   
 27  12  36  1   
 28  13  14  1   
 29  13  37  1   
 30  13  38  1   
 31  14  15  1   
 32  14  39  1   
 33  15  16  1   
 34  15  40  1   
 35  15  41  1   
 36  16  17  1   
 37  16  18  2   
 38  17  19  1   
 39  17  20  1   
 40  18  21  1   
 41  18  42  1   
 42  19  21  2   
 43  19  43  1   
 44  20  44  1   
 45  20  45  1   
 46  20  46  1   
 47  21  22  1   
 48  22  23  2   
 49  22  24  1   
 50  24  47  1   
 51  24  48  1   
 52  24  49  1   
@<TRIPOS>SUBSTRUCTURE
  1 ****   9 GROUP 4 **** **** 0

# MOE 2024.06 (io_trps.svl 2023.06)
