@<TRIPOS>MOLECULE
NONAME
51 53 1 0 0 
SMALL
USER_CHARGES


@<TRIPOS>ATOM
  1 O       -2.3510     1.3270     1.9340 O.2   1 <1>  -0.5700 
  2 C       -2.6030     1.6540     0.7950 C.2   1 <1>   0.5690 
  3 N       -2.9340     0.7220    -0.1560 N.am  1 <1>  -0.6600 
  4 C       -2.5000     3.1540     0.4610 C.3   1 <1>   0.1710 
  5 C       -2.5620    -0.7110     0.1060 C.3   1 <1>   0.3640 
  6 C       -3.7770     1.0490    -1.3460 C.3   1 <1>   0.1400 
  7 N       -1.1800     3.6120    -0.0690 N.3   1 <1>  -0.8100 
  8 C       -1.0390    -0.8310    -0.0240 C.ar  1 <1>  -0.1440 
  9 C       -3.2650    -1.7790    -0.7870 C.3   1 <1>   0.2000 
 10 C       -4.0000    -0.1420    -2.2850 C.3   1 <1>   0.1200 
 11 C       -0.0820     3.1450     0.8060 C.3   1 <1>   0.2540 
 12 C       -0.9630     3.1990    -1.4620 C.3   1 <1>   0.0300 
 13 C       -0.2850    -1.2010     1.0800 C.ar  1 <1>  -0.1500 
 14 C       -0.3870    -0.5670    -1.2220 C.ar  1 <1>  -0.1500 
 15 O       -4.3310    -1.2670    -1.5410 O.3   1 <1>  -0.5600 
 16 C       -3.8220    -2.9470     0.0400 C.3   1 <1>   0.1200 
 17 C        1.2540     3.7510     0.4020 C.ar  1 <1>  -0.1440 
 18 C        1.0920    -1.3100     0.9900 C.ar  1 <1>  -0.1500 
 19 C        0.9900    -0.6750    -1.3150 C.ar  1 <1>  -0.1500 
 20 O       -2.8170    -3.5480     0.7950 O.3   1 <1>  -0.6800 
 21 C        2.3610     2.9650     0.1510 C.ar  1 <1>  -0.1500 
 22 C        1.4290     5.1130     0.2640 C.ar  1 <1>  -0.1500 
 23 C        1.7310    -1.0480    -0.2080 C.ar  1 <1>  -0.1500 
 24 C        3.5550     3.5640    -0.2130 C.ar  1 <1>   0.1600 
 25 C        2.6660     5.6100    -0.1070 C.ar  1 <1>   0.1600 
 26 N        3.7360     4.8680    -0.3490 N.ar  1 <1>  -0.6200 
 27 H       -2.6930     3.6930     1.3710 H     1 <1>   0.0800 
 28 H       -3.2770     3.4310    -0.2270 H     1 <1>   0.0800 
 29 H       -2.8260    -0.9290     1.1270 H     1 <1>   0.0800 
 30 H       -4.7380     1.3870    -0.9990 H     1 <1>   0.0800 
 31 H       -3.3300     1.8490    -1.9050 H     1 <1>   0.0800 
 32 H       -2.5580    -2.1810    -1.4900 H     1 <1>   0.0800 
 33 H       -3.1230    -0.3500    -2.8720 H     1 <1>   0.0800 
 34 H       -4.8180     0.0650    -2.9530 H     1 <1>   0.0800 
 35 H       -0.2930     3.4260     1.8240 H     1 <1>   0.0800 
 36 H       -0.0110     2.0700     0.7680 H     1 <1>   0.0800 
 37 H       -0.0500     3.6290    -1.8380 H     1 <1>   0.0800 
 38 H       -1.7710     3.5490    -2.0790 H     1 <1>   0.0800 
 39 H       -0.8930     2.1280    -1.5310 H     1 <1>   0.0800 
 40 H       -0.7710    -1.4000     2.0210 H     1 <1>   0.1500 
 41 H       -0.9470    -0.2710    -2.0880 H     1 <1>   0.1500 
 42 H       -4.2490    -3.6950    -0.6050 H     1 <1>   0.0800 
 43 H       -4.5740    -2.5910     0.7230 H     1 <1>   0.0800 
 44 H        1.6630    -1.5980     1.8560 H     1 <1>   0.1500 
 45 H        1.4850    -0.4680    -2.2480 H     1 <1>   0.1500 
 46 H       -2.1320    -3.9460     0.2230 H     1 <1>   0.4000 
 47 H        2.3010     1.8950     0.2360 H     1 <1>   0.1500 
 48 H        0.6040     5.7800     0.4380 H     1 <1>   0.1500 
 49 H        2.8010    -1.1360    -0.2780 H     1 <1>   0.1500 
 50 H        4.4080     2.9360    -0.4040 H     1 <1>   0.1500 
 51 H        2.7810     6.6750    -0.2110 H     1 <1>   0.1500 
@<TRIPOS>BOND
  1   1   2  2   
  2   2   3  am  
  3   2   4  1   
  4   3   5  1   
  5   3   6  1   
  6   4   7  1   
  7   4  27  1   
  8   4  28  1   
  9   5   8  1   
 10   5   9  1   
 11   5  29  1   
 12   6  10  1   
 13   6  30  1   
 14   6  31  1   
 15   7  11  1   
 16   7  12  1   
 17   8  13  ar  
 18   8  14  ar  
 19   9  15  1   
 20   9  16  1   
 21   9  32  1   
 22  10  15  1   
 23  10  33  1   
 24  10  34  1   
 25  11  17  1   
 26  11  35  1   
 27  11  36  1   
 28  12  37  1   
 29  12  38  1   
 30  12  39  1   
 31  13  18  ar  
 32  13  40  1   
 33  14  19  ar  
 34  14  41  1   
 35  16  20  1   
 36  16  42  1   
 37  16  43  1   
 38  17  21  ar  
 39  17  22  ar  
 40  18  23  ar  
 41  18  44  1   
 42  19  23  ar  
 43  19  45  1   
 44  20  46  1   
 45  21  24  ar  
 46  21  47  1   
 47  22  25  ar  
 48  22  48  1   
 49  23  49  1   
 50  24  26  ar  
 51  24  50  1   
 52  25  26  ar  
 53  25  51  1   
@<TRIPOS>SUBSTRUCTURE
  1 ****   8 GROUP 4 **** **** 0

# MOE 2024.06 (io_trps.svl 2023.06)
