@<TRIPOS>MOLECULE
NONAME
51 54 1 0 0 
SMALL
USER_CHARGES


@<TRIPOS>ATOM
  1 O        1.4310    -0.1690    -2.5730 O.2   1 <1>  -0.5700 
  2 C        2.0760    -0.8220    -1.7940 C.2   1 <1>   0.5690 
  3 N        2.4610    -0.3120    -0.6070 N.am  1 <1>  -0.7300 
  4 C        2.5000    -2.2330    -2.1530 C.3   1 <1>  -0.0990 
  5 C        3.2040    -1.0820     0.4070 C.3   1 <1>   0.1400 
  6 C        2.6370    -3.1840    -0.9370 C.3   1 <1>  -0.0800 
  7 C        2.6310    -2.5070     0.4480 C.3   1 <1>  -0.0800 
  8 C        3.9330    -3.9970    -0.9620 C.3   1 <1>  -0.1600 
  9 C        3.4420    -3.4340     1.3730 C.3   1 <1>  -0.1600 
 10 C        4.1080    -4.4820     0.4770 C.3   1 <1>   0.2200 
 11 N        5.5220    -4.7890     0.8550 N.am  1 <1>  -0.6600 
 12 C        6.6130    -4.0750     0.4000 C.2   1 <1>   0.7150 
 13 C        5.7240    -6.1940     1.3080 C.3   1 <1>   0.0600 
 14 O        7.5490    -4.6770    -0.0890 O.2   1 <1>  -0.5700 
 15 C        6.6750    -2.6430     0.5270 C.2   1 <1>  -0.2370 
 16 N        6.5750    -2.0380     1.7540 N.pl3 1 <1>   0.0330 
 17 C        6.8510    -1.6590    -0.4060 C.2   1 <1>  -0.1810 
 18 C        6.6290    -0.6800     1.5960 C.ar  1 <1>  -0.1520 
 19 C        6.8040    -0.4110     0.2450 C.ar  1 <1>   0.0000 
 20 C        7.0650    -1.8250    -1.8990 C.3   1 <1>  -0.0590 
 21 C        6.5300     0.3520     2.5310 C.ar  1 <1>  -0.1500 
 22 C        6.8740     0.9170    -0.1930 C.ar  1 <1>  -0.1500 
 23 C        6.5980     1.6520     2.0880 C.ar  1 <1>  -0.1500 
 24 C        6.7670     1.9430     0.7270 C.ar  1 <1>   0.0820 
 25 O        6.8110     3.2650     0.4050 O.3   1 <1>  -0.3630 
 26 C        6.9280     3.6670    -0.9420 C.3   1 <1>   0.0400 
 27 H        2.2350     0.6650    -0.4110 H     1 <1>   0.3700 
 28 H        1.7850    -2.6390    -2.8450 H     1 <1>   0.0800 
 29 H        3.4350    -2.1500    -2.6740 H     1 <1>   0.0800 
 30 H        4.2420    -1.1030     0.1340 H     1 <1>   0.0800 
 31 H        3.1070    -0.6080     1.3680 H     1 <1>   0.0800 
 32 H        1.8110    -3.8750    -0.9550 H     1 <1>   0.0800 
 33 H        1.6190    -2.4400     0.8100 H     1 <1>   0.0800 
 34 H        4.7410    -3.3540    -1.2490 H     1 <1>   0.0800 
 35 H        3.8720    -4.8220    -1.6500 H     1 <1>   0.0800 
 36 H        2.7770    -3.9320     2.0550 H     1 <1>   0.0800 
 37 H        4.1550    -2.8800     1.9500 H     1 <1>   0.0800 
 38 H        3.5260    -5.3850     0.5660 H     1 <1>   0.0800 
 39 H        5.0670    -6.4130     2.1310 H     1 <1>   0.0800 
 40 H        6.7410    -6.3400     1.6310 H     1 <1>   0.0800 
 41 H        5.5210    -6.8700     0.4960 H     1 <1>   0.0800 
 42 H        6.4870    -2.5320     2.6470 H     1 <1>   0.2700 
 43 H        7.9890    -1.3590    -2.1870 H     1 <1>   0.0800 
 44 H        6.2560    -1.3660    -2.4390 H     1 <1>   0.0800 
 45 H        7.1130    -2.8670    -2.1610 H     1 <1>   0.0800 
 46 H        6.4020     0.1280     3.5750 H     1 <1>   0.1500 
 47 H        7.0070     1.0920    -1.2420 H     1 <1>   0.1500 
 48 H        6.5240     2.4740     2.7770 H     1 <1>   0.1500 
 49 H        6.9250     4.7420    -0.9710 H     1 <1>   0.0800 
 50 H        6.0880     3.2840    -1.4950 H     1 <1>   0.0800 
 51 H        7.8550     3.2930    -1.3390 H     1 <1>   0.0800 
@<TRIPOS>BOND
  1   1   2  2   
  2   2   3  am  
  3   2   4  1   
  4   3   5  1   
  5   3  27  1   
  6   4   6  1   
  7   4  28  1   
  8   4  29  1   
  9   5   7  1   
 10   5  30  1   
 11   5  31  1   
 12   6   7  1   
 13   6   8  1   
 14   6  32  1   
 15   7   9  1   
 16   7  33  1   
 17   8  10  1   
 18   8  34  1   
 19   8  35  1   
 20   9  10  1   
 21   9  36  1   
 22   9  37  1   
 23  10  11  1   
 24  10  38  1   
 25  11  12  am  
 26  11  13  1   
 27  12  14  2   
 28  12  15  1   
 29  13  39  1   
 30  13  40  1   
 31  13  41  1   
 32  15  16  1   
 33  15  17  2   
 34  16  18  1   
 35  16  42  1   
 36  17  19  1   
 37  17  20  1   
 38  18  19  ar  
 39  18  21  ar  
 40  19  22  ar  
 41  20  43  1   
 42  20  44  1   
 43  20  45  1   
 44  21  23  ar  
 45  21  46  1   
 46  22  24  ar  
 47  22  47  1   
 48  23  24  ar  
 49  23  48  1   
 50  24  25  1   
 51  25  26  1   
 52  26  49  1   
 53  26  50  1   
 54  26  51  1   
@<TRIPOS>SUBSTRUCTURE
  1 ****  17 GROUP 4 **** **** 0

# MOE 2024.06 (io_trps.svl 2023.06)
