@<TRIPOS>MOLECULE
NONAME
59 62 1 0 0 
SMALL
USER_CHARGES


@<TRIPOS>ATOM
  1 O       -0.2530     0.8170     1.2660 O.2   1 <1>  -0.5700 
  2 C       -0.8100     0.9230     0.1990 C.2   1 <1>   0.5690 
  3 N       -1.3550    -0.1690    -0.3940 N.am  1 <1>  -0.7300 
  4 C       -0.9040     2.2780    -0.5210 C.3   1 <1>   0.0610 
  5 C       -1.5010    -1.4960     0.2370 C.3   1 <1>   0.3210 
  6 C       -0.7750     3.5020     0.4230 C.3   1 <1>   0.2200 
  7 C       -2.3130     2.5400    -1.1440 C.3   1 <1>  -0.1600 
  8 C        0.1690     2.3270    -1.6430 C.3   1 <1>  -0.0170 
  9 C       -2.8900    -2.0370    -0.0650 C.2   1 <1>   0.1080 
 10 N       -1.4310     4.5250    -0.3900 N.am  1 <1>  -0.6600 
 11 C       -1.7790     3.4640     1.5920 C.3   1 <1>  -0.1600 
 12 C       -2.7290     3.8990    -0.5630 C.3   1 <1>   0.2200 
 13 C        1.6060     2.2040    -1.1480 C.ar  1 <1>  -0.1430 
 14 N       -3.5010    -1.8870    -1.1900 N.2   1 <1>  -0.4100 
 15 C       -3.6820    -2.7520     0.8300 C.2   1 <1>  -0.1500 
 16 C       -0.9600     5.7650    -0.7140 C.2   1 <1>   0.5690 
 17 C       -3.1330     3.7090     0.9010 C.3   1 <1>  -0.1600 
 18 C        2.3600     3.3410    -0.8990 C.ar  1 <1>  -0.1500 
 19 C        2.1830     0.9570    -0.9550 C.ar  1 <1>  -0.1500 
 20 O       -4.6530    -2.4770    -1.0570 O.3   1 <1>  -0.0190 
 21 C       -4.8010    -3.0030     0.1310 C.2   1 <1>  -0.0400 
 22 O        0.1730     6.1000    -0.4460 O.2   1 <1>  -0.5700 
 23 C       -1.8590     6.7650    -1.4490 C.3   1 <1>   0.1810 
 24 C        3.6670     3.2350    -0.4580 C.ar  1 <1>  -0.1500 
 25 C        3.4900     0.8480    -0.5140 C.ar  1 <1>  -0.1500 
 26 C       -6.0920    -3.7370     0.4680 C.3   1 <1>   0.1000 
 27 O       -1.4660     8.0810    -1.2040 O.3   1 <1>  -0.6800 
 28 C        4.2340     1.9870    -0.2650 C.ar  1 <1>  -0.1500 
 29 C       -7.2670    -2.7540     0.4900 C.3   1 <1>  -0.2400 
 30 C       -5.9910    -4.4660     1.8130 C.3   1 <1>  -0.2400 
 31 H       -1.8890    -0.0890    -1.2640 H     1 <1>   0.3700 
 32 H       -0.7600    -2.1640    -0.1660 H     1 <1>   0.0800 
 33 H       -1.3570    -1.4200     1.3010 H     1 <1>   0.0800 
 34 H        0.2310     3.7460     0.7210 H     1 <1>   0.0800 
 35 H       -3.0390     1.7900    -0.8830 H     1 <1>   0.0800 
 36 H       -2.2700     2.6050    -2.2170 H     1 <1>   0.0800 
 37 H       -0.0150     1.5320    -2.3430 H     1 <1>   0.0800 
 38 H        0.0810     3.2470    -2.1930 H     1 <1>   0.0800 
 39 H       -1.7640     2.5450     2.1480 H     1 <1>   0.0800 
 40 H       -1.5550     4.2680     2.2710 H     1 <1>   0.0800 
 41 H       -3.4330     4.4530    -1.1610 H     1 <1>   0.0800 
 42 H       -3.4270    -3.0200     1.8390 H     1 <1>   0.1500 
 43 H       -3.5930     4.6050     1.2790 H     1 <1>   0.0800 
 44 H       -3.8120     2.8840     1.0290 H     1 <1>   0.0800 
 45 H        1.9340     4.3190    -1.0440 H     1 <1>   0.1500 
 46 H        1.6160     0.0630    -1.1410 H     1 <1>   0.1500 
 47 H       -2.8800     6.6660    -1.1320 H     1 <1>   0.0800 
 48 H       -1.7900     6.5920    -2.5070 H     1 <1>   0.0800 
 49 H        4.2400     4.1240    -0.2640 H     1 <1>   0.1500 
 50 H        3.9260    -0.1230    -0.3620 H     1 <1>   0.1500 
 51 H       -6.2690    -4.4690    -0.3030 H     1 <1>   0.0800 
 52 H       -0.5240     8.0580    -0.9170 H     1 <1>   0.4000 
 53 H        5.2500     1.9040     0.0800 H     1 <1>   0.1500 
 54 H       -7.1070    -1.9970     1.2380 H     1 <1>   0.0800 
 55 H       -8.1850    -3.2690     0.7060 H     1 <1>   0.0800 
 56 H       -7.3640    -2.2720    -0.4670 H     1 <1>   0.0800 
 57 H       -5.8300    -3.7650     2.6120 H     1 <1>   0.0800 
 58 H       -5.1740    -5.1650     1.7930 H     1 <1>   0.0800 
 59 H       -6.8970    -5.0100     2.0100 H     1 <1>   0.0800 
@<TRIPOS>BOND
  1   1   2  2   
  2   2   3  am  
  3   2   4  1   
  4   3   5  1   
  5   3  31  1   
  6   4   6  1   
  7   4   7  1   
  8   4   8  1   
  9   5   9  1   
 10   5  32  1   
 11   5  33  1   
 12   6  10  1   
 13   6  11  1   
 14   6  34  1   
 15   7  12  1   
 16   7  35  1   
 17   7  36  1   
 18   8  13  1   
 19   8  37  1   
 20   8  38  1   
 21   9  14  2   
 22   9  15  1   
 23  10  12  1   
 24  10  16  am  
 25  11  17  1   
 26  11  39  1   
 27  11  40  1   
 28  12  17  1   
 29  12  41  1   
 30  13  18  ar  
 31  13  19  ar  
 32  14  20  1   
 33  15  21  2   
 34  15  42  1   
 35  16  22  2   
 36  16  23  1   
 37  17  43  1   
 38  17  44  1   
 39  18  24  ar  
 40  18  45  1   
 41  19  25  ar  
 42  19  46  1   
 43  20  21  1   
 44  21  26  1   
 45  23  27  1   
 46  23  47  1   
 47  23  48  1   
 48  24  28  ar  
 49  24  49  1   
 50  25  28  ar  
 51  25  50  1   
 52  26  29  1   
 53  26  30  1   
 54  26  51  1   
 55  27  52  1   
 56  28  53  1   
 57  29  54  1   
 58  29  55  1   
 59  29  56  1   
 60  30  57  1   
 61  30  58  1   
 62  30  59  1   
@<TRIPOS>SUBSTRUCTURE
  1 ****   2 GROUP 4 **** **** 0

# MOE 2024.06 (io_trps.svl 2023.06)
