@<TRIPOS>MOLECULE
NONAME
50 52 1 0 0 
SMALL
USER_CHARGES


@<TRIPOS>ATOM
  1 O       -1.2490    -0.4190    -0.0110 O.3   1 <1>  -0.3630 
  2 C       -1.9760     0.6270     0.4650 C.ar  1 <1>   0.0820 
  3 C       -0.0280    -0.2140    -0.6920 C.3   1 <1>   0.1200 
  4 C       -3.0360     0.3370     1.3210 C.ar  1 <1>  -0.1440 
  5 C       -1.7100     1.9510     0.1250 C.ar  1 <1>  -0.1500 
  6 C        0.5930    -1.5820    -0.9780 C.3   1 <1>  -0.1600 
  7 C       -3.8160     1.3650     1.8280 C.ar  1 <1>  -0.1500 
  8 C       -3.3340    -1.1000     1.7020 C.3   1 <1>   0.4870 
  9 C       -2.4950     2.9690     0.6340 C.ar  1 <1>  -0.1500 
 10 C        1.9290    -1.4400    -1.7150 C.3   1 <1>  -0.2400 
 11 C       -3.5460     2.6780     1.4840 C.ar  1 <1>  -0.1500 
 12 N       -3.6270    -1.8550     0.4600 N.4   1 <1>  -0.9590 
 13 C       -4.8440    -1.3880    -0.2640 C.3   1 <1>   0.3430 
 14 C       -3.7090    -3.3320     0.6320 C.3   1 <1>   0.3430 
 15 C       -5.3530    -2.6260    -1.0000 C.3   1 <1>   0.2000 
 16 C       -4.9700    -3.8010    -0.1050 C.3   1 <1>  -0.0800 
 17 O       -6.7250    -2.5930    -1.1970 O.3   1 <1>  -0.6800 
 18 C       -4.7730    -5.1070    -0.8980 C.3   1 <1>  -0.0170 
 19 C       -4.4480    -6.2890     0.0050 C.ar  1 <1>   0.1670 
 20 N       -3.3070    -6.2260     0.6750 N.ar  1 <1>  -0.6200 
 21 C       -5.3320    -7.3650     0.0910 C.ar  1 <1>   0.1600 
 22 C       -3.1050    -7.3060     1.4160 C.ar  1 <1>   0.1600 
 23 N       -5.1360    -8.4350     0.8420 N.ar  1 <1>  -0.6200 
 24 C       -3.9910    -8.3740     1.4970 C.ar  1 <1>   0.1600 
 25 H       -0.2290     0.3100    -1.6100 H     1 <1>   0.0800 
 26 H        0.6200     0.3730    -0.0630 H     1 <1>   0.0800 
 27 H       -0.9030     2.2130    -0.5330 H     1 <1>   0.1500 
 28 H        0.7600    -2.0990    -0.0490 H     1 <1>   0.0800 
 29 H       -0.0800    -2.1630    -1.5850 H     1 <1>   0.0800 
 30 H       -4.6360     1.1640     2.4970 H     1 <1>   0.1500 
 31 H       -4.1720    -1.1450     2.3780 H     1 <1>   0.0800 
 32 H       -2.4690    -1.5180     2.1910 H     1 <1>   0.0800 
 33 H       -2.2870     3.9930     0.3700 H     1 <1>   0.1500 
 34 H        2.6300    -0.8770    -1.1230 H     1 <1>   0.0800 
 35 H        1.7910    -0.9390    -2.6580 H     1 <1>   0.0800 
 36 H        2.3500    -2.4120    -1.9050 H     1 <1>   0.0800 
 37 H       -4.1510     3.4770     1.8780 H     1 <1>   0.1500 
 38 H       -2.8070    -1.6390    -0.1380 H     1 <1>   0.4500 
 39 H       -5.5870    -1.0590     0.4420 H     1 <1>   0.0800 
 40 H       -4.6090    -0.5890    -0.9490 H     1 <1>   0.0800 
 41 H       -2.8350    -3.7990     0.2030 H     1 <1>   0.0800 
 42 H       -3.7650    -3.6090     1.6720 H     1 <1>   0.0800 
 43 H       -4.8780    -2.6900    -1.9650 H     1 <1>   0.0800 
 44 H       -5.7330    -3.9550     0.6390 H     1 <1>   0.0800 
 45 H       -7.2340    -2.6970    -0.3680 H     1 <1>   0.4000 
 46 H       -3.9720    -4.9920    -1.6080 H     1 <1>   0.0800 
 47 H       -5.6680    -5.3170    -1.4580 H     1 <1>   0.0800 
 48 H       -6.2400    -7.3460    -0.4860 H     1 <1>   0.1500 
 49 H       -2.1950    -7.3540     1.9880 H     1 <1>   0.1500 
 50 H       -3.7410    -9.2090     2.1280 H     1 <1>   0.1500 
@<TRIPOS>BOND
  1   1   2  1   
  2   1   3  1   
  3   2   4  ar  
  4   2   5  ar  
  5   3   6  1   
  6   3  25  1   
  7   3  26  1   
  8   4   7  ar  
  9   4   8  1   
 10   5   9  ar  
 11   5  27  1   
 12   6  10  1   
 13   6  28  1   
 14   6  29  1   
 15   7  11  ar  
 16   7  30  1   
 17   8  12  1   
 18   8  31  1   
 19   8  32  1   
 20   9  11  ar  
 21   9  33  1   
 22  10  34  1   
 23  10  35  1   
 24  10  36  1   
 25  11  37  1   
 26  12  13  1   
 27  12  14  1   
 28  12  38  1   
 29  13  15  1   
 30  13  39  1   
 31  13  40  1   
 32  14  16  1   
 33  14  41  1   
 34  14  42  1   
 35  15  16  1   
 36  15  17  1   
 37  15  43  1   
 38  16  18  1   
 39  16  44  1   
 40  17  45  1   
 41  18  19  1   
 42  18  46  1   
 43  18  47  1   
 44  19  20  ar  
 45  19  21  ar  
 46  20  22  ar  
 47  21  23  ar  
 48  21  48  1   
 49  22  24  ar  
 50  22  49  1   
 51  23  24  ar  
 52  24  50  1   
@<TRIPOS>SUBSTRUCTURE
  1 ****  12 GROUP 4 **** **** 0

# MOE 2024.06 (io_trps.svl 2023.06)
