@<TRIPOS>MOLECULE
NONAME
47 50 1 0 0 
SMALL
USER_CHARGES


@<TRIPOS>ATOM
  1 O       -0.7790     0.1820    -0.4710 O.2   1 <1>  -0.5700 
  2 C       -1.1900     1.3200    -0.3720 C.2   1 <1>   0.6160 
  3 N       -2.5060     1.4540    -0.0730 N.am  1 <1>  -0.7300 
  4 C       -0.3400     2.4930    -0.5180 C.2   1 <1>   0.1230 
  5 C       -3.1450     2.7740     0.1230 C.3   1 <1>   0.2810 
  6 N       -1.0190     3.6970    -0.8980 N.am  1 <1>  -0.2780 
  7 C        1.0000     2.3780    -0.2680 C.2   1 <1>  -0.1040 
  8 C       -2.3580     3.8980    -0.5760 C.2   1 <1>   0.5690 
  9 C       -3.2790     3.0120     1.6280 C.3   1 <1>  -0.2400 
 10 C       -0.4280     4.5720    -1.8230 C.2   1 <1>  -0.0410 
 11 C        2.1600     3.2360    -0.1880 C.2   1 <1>  -0.0460 
 12 O       -2.9510     4.9200    -0.8430 O.2   1 <1>  -0.5700 
 13 C        0.5620     5.4430    -1.5920 C.2   1 <1>  -0.2880 
 14 C        3.4690     2.6750    -0.0630 C.ar  1 <1>   0.0000 
 15 C        2.3370     4.5990    -0.1630 C.2   1 <1>  -0.3320 
 16 C        1.3010     5.7060    -0.2910 C.3   1 <1>   0.3180 
 17 C        4.3680     3.7270     0.0530 C.ar  1 <1>  -0.1520 
 18 C        3.9710     1.3660    -0.0440 C.ar  1 <1>  -0.1500 
 19 N        3.6600     4.8890    -0.0090 N.pl3 1 <1>   0.0330 
 20 C        1.9440     7.1000    -0.3980 C.3   1 <1>  -0.2400 
 21 C        0.4000     5.7170     0.9520 C.3   1 <1>  -0.2400 
 22 C        5.7410     3.5160     0.2000 C.ar  1 <1>  -0.1500 
 23 C        5.3220     1.1490     0.0990 C.ar  1 <1>  -0.1500 
 24 C        6.2170     2.2170     0.2240 C.ar  1 <1>   0.0830 
 25 O        7.5280     1.8870     0.3620 O.3   1 <1>  -0.3630 
 26 C        8.5140     2.8860     0.4960 C.3   1 <1>   0.0400 
 27 H       -3.0490     0.6040     0.0850 H     1 <1>   0.3700 
 28 H       -4.1270     2.7460    -0.3180 H     1 <1>   0.0800 
 29 H        1.2980     1.3740    -0.0370 H     1 <1>   0.1500 
 30 H       -2.3090     3.0450     2.0930 H     1 <1>   0.0800 
 31 H       -3.8690     2.2360     2.0810 H     1 <1>   0.0800 
 32 H       -3.7690     3.9550     1.8010 H     1 <1>   0.0800 
 33 H       -0.8640     4.5030    -2.8060 H     1 <1>   0.1500 
 34 H        0.9370     6.0420    -2.4010 H     1 <1>   0.1500 
 35 H        3.3020     0.5320    -0.1440 H     1 <1>   0.1500 
 36 H        4.0700     5.8260     0.0370 H     1 <1>   0.2700 
 37 H        1.1800     7.8430    -0.5400 H     1 <1>   0.0800 
 38 H        2.6180     7.1460    -1.2340 H     1 <1>   0.0800 
 39 H        2.4850     7.3430     0.4990 H     1 <1>   0.0800 
 40 H       -0.4560     6.3460     0.7840 H     1 <1>   0.0800 
 41 H        0.9420     6.0870     1.8020 H     1 <1>   0.0800 
 42 H        0.0630     4.7300     1.1980 H     1 <1>   0.0800 
 43 H        6.3900     4.3640     0.2890 H     1 <1>   0.1500 
 44 H        5.7180     0.1500     0.1170 H     1 <1>   0.1500 
 45 H        9.4690     2.4010     0.5910 H     1 <1>   0.0800 
 46 H        8.3080     3.4640     1.3790 H     1 <1>   0.0800 
 47 H        8.5050     3.5050    -0.3840 H     1 <1>   0.0800 
@<TRIPOS>BOND
  1   1   2  2   
  2   2   3  am  
  3   2   4  1   
  4   3   5  1   
  5   3  27  1   
  6   4   6  1   
  7   4   7  2   
  8   5   8  1   
  9   5   9  1   
 10   5  28  1   
 11   6   8  am  
 12   6  10  1   
 13   7  11  1   
 14   7  29  1   
 15   8  12  2   
 16   9  30  1   
 17   9  31  1   
 18   9  32  1   
 19  10  13  2   
 20  10  33  1   
 21  11  14  1   
 22  11  15  2   
 23  13  16  1   
 24  13  34  1   
 25  14  17  ar  
 26  14  18  ar  
 27  15  16  1   
 28  15  19  1   
 29  16  20  1   
 30  16  21  1   
 31  17  19  1   
 32  17  22  ar  
 33  18  23  ar  
 34  18  35  1   
 35  19  36  1   
 36  20  37  1   
 37  20  38  1   
 38  20  39  1   
 39  21  40  1   
 40  21  41  1   
 41  21  42  1   
 42  22  24  ar  
 43  22  43  1   
 44  23  24  ar  
 45  23  44  1   
 46  24  25  1   
 47  25  26  1   
 48  26  45  1   
 49  26  46  1   
 50  26  47  1   
@<TRIPOS>SUBSTRUCTURE
  1 ****  11 GROUP 4 **** **** 0

# MOE 2024.06 (io_trps.svl 2023.06)
