@<TRIPOS>MOLECULE
NONAME
46 47 1 0 0 
SMALL
USER_CHARGES


@<TRIPOS>ATOM
  1 O       -0.2450     0.9090    -0.2430 O.3   1 <1>  -0.3630 
  2 C        0.1870     2.1820    -0.1560 C.ar  1 <1>   0.3920 
  3 C       -1.5120     0.4900     0.2130 C.3   1 <1>   0.0400 
  4 N        1.4040     2.3790    -0.6030 N.ar  1 <1>  -0.6200 
  5 C       -0.5810     3.2040     0.3600 C.ar  1 <1>  -0.1500 
  6 C        1.8370     3.6150    -0.5170 C.ar  1 <1>   0.7200 
  7 C       -0.0080     4.4570     0.3840 C.ar  1 <1>   0.3920 
  8 N        1.2070     4.6770    -0.0530 N.ar  1 <1>  -0.6200 
  9 N        3.0970     3.7980    -0.9810 N.pl3 1 <1>  -0.8690 
 10 O       -0.6320     5.5580     0.8470 O.3   1 <1>  -0.3630 
 11 C        3.5920     5.0930    -1.5060 C.3   1 <1>   0.2090 
 12 C       -1.9290     5.5170     1.4060 C.3   1 <1>   0.0400 
 13 C        3.9470     6.0400    -0.3350 C.3   1 <1>   0.3430 
 14 N        3.4920     7.4700    -0.5230 N.4   1 <1>  -0.9590 
 15 C        4.0920     8.4020     0.4990 C.3   1 <1>   0.4230 
 16 C        1.9930     7.5050    -0.4580 C.3   1 <1>   0.3430 
 17 C        3.5850     9.8340     0.2390 C.3   1 <1>  -0.1600 
 18 C        5.6440     8.3700     0.4940 C.3   1 <1>   0.1200 
 19 C        1.4740     8.9090    -0.7540 C.3   1 <1>  -0.1600 
 20 C        2.0560     9.9270     0.2260 C.3   1 <1>  -0.1600 
 21 O        6.1650     9.2030     1.4770 O.3   1 <1>  -0.6800 
 22 H       -1.5950    -0.5680     0.0350 H     1 <1>   0.0800 
 23 H       -2.2750     1.0110    -0.3390 H     1 <1>   0.0800 
 24 H       -1.5900     0.6880     1.2670 H     1 <1>   0.0800 
 25 H       -1.5720     3.0320     0.7200 H     1 <1>   0.1500 
 26 H        3.4200     2.9510    -1.4600 H     1 <1>   0.4000 
 27 H        2.8330     5.5220    -2.1370 H     1 <1>   0.0800 
 28 H        4.4700     4.9170    -2.1030 H     1 <1>   0.0800 
 29 H       -2.1910     6.5130     1.7170 H     1 <1>   0.0800 
 30 H       -1.9240     4.8610     2.2590 H     1 <1>   0.0800 
 31 H       -2.6240     5.1750     0.6590 H     1 <1>   0.0800 
 32 H        5.0130     6.0000    -0.2020 H     1 <1>   0.0800 
 33 H        3.4920     5.6470     0.5600 H     1 <1>   0.0800 
 34 H        3.7670     7.8060    -1.4520 H     1 <1>   0.4500 
 35 H        3.7610     8.0920     1.4780 H     1 <1>   0.0800 
 36 H        1.6620     7.1960     0.5220 H     1 <1>   0.0800 
 37 H        1.5700     6.8200    -1.1740 H     1 <1>   0.0800 
 38 H        3.9770    10.1930    -0.6970 H     1 <1>   0.0800 
 39 H        3.9490    10.4870     1.0120 H     1 <1>   0.0800 
 40 H        6.0410     8.6850    -0.4550 H     1 <1>   0.0800 
 41 H        6.0030     7.3840     0.7250 H     1 <1>   0.0800 
 42 H        0.4010     8.9070    -0.6700 H     1 <1>   0.0800 
 43 H        1.7190     9.1800    -1.7660 H     1 <1>   0.0800 
 44 H        1.7490    10.9220    -0.0510 H     1 <1>   0.0800 
 45 H        1.6750     9.7310     1.2160 H     1 <1>   0.0800 
 46 H        6.3170    10.1160     1.1550 H     1 <1>   0.4000 
@<TRIPOS>BOND
  1   1   2  1   
  2   1   3  1   
  3   2   4  ar  
  4   2   5  ar  
  5   3  22  1   
  6   3  23  1   
  7   3  24  1   
  8   4   6  ar  
  9   5   7  ar  
 10   5  25  1   
 11   6   8  ar  
 12   6   9  1   
 13   7   8  ar  
 14   7  10  1   
 15   9  11  1   
 16   9  26  1   
 17  10  12  1   
 18  11  13  1   
 19  11  27  1   
 20  11  28  1   
 21  12  29  1   
 22  12  30  1   
 23  12  31  1   
 24  13  14  1   
 25  13  32  1   
 26  13  33  1   
 27  14  15  1   
 28  14  16  1   
 29  14  34  1   
 30  15  17  1   
 31  15  18  1   
 32  15  35  1   
 33  16  19  1   
 34  16  36  1   
 35  16  37  1   
 36  17  20  1   
 37  17  38  1   
 38  17  39  1   
 39  18  21  1   
 40  18  40  1   
 41  18  41  1   
 42  19  20  1   
 43  19  42  1   
 44  19  43  1   
 45  20  44  1   
 46  20  45  1   
 47  21  46  1   
@<TRIPOS>SUBSTRUCTURE
  1 ****   8 GROUP 4 **** **** 0

# MOE 2024.06 (io_trps.svl 2023.06)
