@<TRIPOS>MOLECULE
NONAME
46 48 1 0 0 
SMALL
USER_CHARGES


@<TRIPOS>ATOM
  1 S       -0.1730     0.0130    -0.1600 S.o2  1 <1>   1.0900 
  2 O        0.6240    -0.3000    -1.3240 O.2   1 <1>  -0.6500 
  3 O        0.3330     0.8340     0.9140 O.2   1 <1>  -0.6500 
  4 C       -0.8220    -1.5100     0.4650 C.3   1 <1>  -0.0550 
  5 C       -1.7550     0.6210    -0.7270 C.3   1 <1>  -0.0550 
  6 C       -1.9570    -1.8530    -0.4960 C.3   1 <1>   0.1760 
  7 C       -2.7500    -0.5540    -0.7490 C.3   1 <1>  -0.1600 
  8 N       -2.8150    -2.9320     0.0520 N.pl3 1 <1>   0.3140 
  9 N       -3.3700    -2.8220     1.2730 N.2   1 <1>  -0.7070 
 10 C       -3.1340    -4.1140    -0.5350 C.2   1 <1>  -0.3320 
 11 C       -4.0190    -3.9310     1.4480 C.2   1 <1>   0.1080 
 12 C       -3.9080    -4.7850     0.3460 C.2   1 <1>   0.0630 
 13 C       -2.6660    -4.5520    -1.9160 C.3   1 <1>  -0.0600 
 14 C       -4.7970    -4.2040     2.7150 C.3   1 <1>  -0.0590 
 15 N       -4.4790    -6.0660     0.1360 N.am  1 <1>  -0.4930 
 16 C       -4.5260    -7.1590     0.9570 C.2   1 <1>   0.5440 
 17 O       -4.0380    -7.0810     2.0700 O.2   1 <1>  -0.5700 
 18 C       -5.1580    -8.3990     0.5270 C.ar  1 <1>   0.0860 
 19 C       -5.3780    -8.7570    -0.8220 C.ar  1 <1>   0.0820 
 20 C       -5.5800    -9.3040     1.5070 C.ar  1 <1>  -0.1500 
 21 O       -4.9650    -7.9070    -1.8000 O.3   1 <1>  -0.3630 
 22 C       -6.0030    -9.9640    -1.1480 C.ar  1 <1>  -0.1500 
 23 C       -6.1900   -10.4860     1.1540 C.ar  1 <1>   0.1900 
 24 C       -5.0560    -8.2090    -3.1770 C.3   1 <1>   0.0400 
 25 C       -6.4140   -10.8370    -0.1600 C.ar  1 <1>  -0.1500 
 26 F       -6.5750   -11.3060     2.0960 F     1 <1>  -0.1900 
 27 H       -1.2130    -1.3560     1.4530 H     1 <1>   0.0800 
 28 H       -0.0750    -2.2790     0.4850 H     1 <1>   0.0800 
 29 H       -1.6520     1.0470    -1.7070 H     1 <1>   0.0800 
 30 H       -2.1170     1.3840    -0.0630 H     1 <1>   0.0800 
 31 H       -1.5260    -2.1840    -1.4230 H     1 <1>   0.0800 
 32 H       -3.2720    -0.6010    -1.6890 H     1 <1>   0.0800 
 33 H       -3.4690    -0.4080     0.0410 H     1 <1>   0.0800 
 34 H       -3.0250    -3.8690    -2.6650 H     1 <1>   0.0800 
 35 H       -3.0350    -5.5350    -2.1460 H     1 <1>   0.0800 
 36 H       -1.5920    -4.5830    -1.9510 H     1 <1>   0.0800 
 37 H       -5.1250    -3.2780     3.1500 H     1 <1>   0.0800 
 38 H       -4.1660    -4.7180     3.4160 H     1 <1>   0.0800 
 39 H       -5.6540    -4.8130     2.5000 H     1 <1>   0.0800 
 40 H       -4.7350    -6.2670    -0.8320 H     1 <1>   0.3700 
 41 H       -5.4310    -9.0830     2.5490 H     1 <1>   0.1500 
 42 H       -6.1810   -10.2480    -2.1680 H     1 <1>   0.1500 
 43 H       -4.6270    -7.3930    -3.7300 H     1 <1>   0.0800 
 44 H       -6.0920    -8.3230    -3.4450 H     1 <1>   0.0800 
 45 H       -4.5050    -9.1120    -3.3760 H     1 <1>   0.0800 
 46 H       -6.8950   -11.7700    -0.3950 H     1 <1>   0.1500 
@<TRIPOS>BOND
  1   1   2  2   
  2   1   3  2   
  3   1   4  1   
  4   1   5  1   
  5   4   6  1   
  6   4  27  1   
  7   4  28  1   
  8   5   7  1   
  9   5  29  1   
 10   5  30  1   
 11   6   7  1   
 12   6   8  1   
 13   6  31  1   
 14   7  32  1   
 15   7  33  1   
 16   8   9  1   
 17   8  10  1   
 18   9  11  2   
 19  10  12  2   
 20  10  13  1   
 21  11  12  1   
 22  11  14  1   
 23  12  15  1   
 24  13  34  1   
 25  13  35  1   
 26  13  36  1   
 27  14  37  1   
 28  14  38  1   
 29  14  39  1   
 30  15  16  am  
 31  15  40  1   
 32  16  17  2   
 33  16  18  1   
 34  18  19  ar  
 35  18  20  ar  
 36  19  21  1   
 37  19  22  ar  
 38  20  23  ar  
 39  20  41  1   
 40  21  24  1   
 41  22  25  ar  
 42  22  42  1   
 43  23  25  ar  
 44  23  26  1   
 45  24  43  1   
 46  24  44  1   
 47  24  45  1   
 48  25  46  1   
@<TRIPOS>SUBSTRUCTURE
  1 ****  12 GROUP 4 **** **** 0

# MOE 2024.06 (io_trps.svl 2023.06)
