@<TRIPOS>MOLECULE
NONAME
58 61 1 0 0 
SMALL
USER_CHARGES


@<TRIPOS>ATOM
  1 O       -0.7200     0.1670    -1.4530 O.2   1 <1>  -0.5700 
  2 C       -1.5880    -0.5620    -1.0270 C.2   1 <1>   0.5690 
  3 N       -1.4050    -1.9280    -0.9330 N.am  1 <1>  -0.6600 
  4 C       -2.8730     0.1110    -0.5720 C.3   1 <1>   0.0440 
  5 C       -0.0500    -2.6000    -0.8650 C.3   1 <1>   0.2200 
  6 C       -2.5890    -2.8460    -0.8210 C.3   1 <1>   0.1400 
  7 C       -2.7930     0.3750     0.9240 C.ar  1 <1>   0.1660 
  8 C       -0.0460    -3.6570     0.2730 C.3   1 <1>   0.0000 
  9 C        1.1390    -1.6170    -0.6970 C.3   1 <1>   0.3430 
 10 C       -2.1990    -4.3170    -0.9990 C.3   1 <1>  -0.1600 
 11 N       -3.1530    -0.6530     1.6830 N.ar  1 <1>  -0.6200 
 12 C       -2.3650     1.6030     1.4320 C.ar  1 <1>  -0.1440 
 13 C        1.3610    -4.3060     0.3200 C.3   1 <1>  -0.1600 
 14 C       -1.0960    -4.7640    -0.0230 C.3   1 <1>  -0.1600 
 15 C       -0.3900    -2.9510     1.6220 C.3   1 <1>   0.1200 
 16 N        2.4760    -2.2680    -0.4680 N.4   1 <1>  -0.9590 
 17 C       -3.1040    -0.4590     2.9900 C.ar  1 <1>   0.1600 
 18 C       -2.3180     1.7760     2.8010 C.ar  1 <1>  -0.1500 
 19 C       -1.9450     2.7710     0.5450 C.3   1 <1>  -0.0970 
 20 C        2.4440    -3.2770     0.6260 C.3   1 <1>   0.3430 
 21 O        0.0360    -3.7060     2.7060 O.3   1 <1>  -0.6800 
 22 C        3.5180    -1.2380    -0.2230 C.3   1 <1>   0.5240 
 23 C       -2.6990     0.7160     3.5910 C.ar  1 <1>  -0.1500 
 24 C        3.8100    -0.5310    -1.5280 C.2   1 <1>  -0.1810 
 25 C        4.8200    -0.7690    -2.3940 C.2   1 <1>  -0.0100 
 26 C        3.0780     0.5290    -2.0910 C.2   1 <1>  -0.1500 
 27 O        4.7480     0.0450    -3.4260 O.3   1 <1>  -0.2800 
 28 C        3.7050     0.8280    -3.2470 C.2   1 <1>  -0.0100 
 29 H       -2.9990     1.0250    -1.1180 H     1 <1>   0.0800 
 30 H       -3.7320    -0.4910    -0.7880 H     1 <1>   0.0800 
 31 H        0.1000    -3.1050    -1.8040 H     1 <1>   0.0800 
 32 H       -3.0510    -2.7210     0.1430 H     1 <1>   0.0800 
 33 H       -3.3140    -2.5870    -1.5740 H     1 <1>   0.0800 
 34 H        0.9170    -0.9620     0.1290 H     1 <1>   0.0800 
 35 H        1.1920    -1.0140    -1.5880 H     1 <1>   0.0800 
 36 H       -3.0710    -4.9340    -0.8610 H     1 <1>   0.0800 
 37 H       -1.8710    -4.4610    -2.0140 H     1 <1>   0.0800 
 38 H        1.5860    -4.7910    -0.6140 H     1 <1>   0.0800 
 39 H        1.3910    -5.0700     1.0780 H     1 <1>   0.0800 
 40 H       -0.6250    -5.6340    -0.4480 H     1 <1>   0.0800 
 41 H       -1.5530    -5.0860     0.8970 H     1 <1>   0.0800 
 42 H       -1.4480    -2.7850     1.7250 H     1 <1>   0.0800 
 43 H        0.0950    -1.9950     1.7050 H     1 <1>   0.0800 
 44 H        2.7420    -2.7360    -1.3450 H     1 <1>   0.4500 
 45 H       -3.4040    -1.2800     3.6180 H     1 <1>   0.1500 
 46 H       -1.9990     2.7040     3.2460 H     1 <1>   0.1500 
 47 H       -1.5400     3.5750     1.1320 H     1 <1>   0.0800 
 48 H       -2.7940     3.1470     0.0030 H     1 <1>   0.0800 
 49 H       -1.1900     2.4610    -0.1550 H     1 <1>   0.0800 
 50 H        3.3990    -3.7720     0.7050 H     1 <1>   0.0800 
 51 H        2.2290    -2.8010     1.5710 H     1 <1>   0.0800 
 52 H       -0.6180    -4.4040     2.9180 H     1 <1>   0.4000 
 53 H        3.1880    -0.5310     0.5220 H     1 <1>   0.0800 
 54 H        4.4220    -1.7080     0.1270 H     1 <1>   0.0800 
 55 H       -2.6850     0.8000     4.6630 H     1 <1>   0.1500 
 56 H        5.6270    -1.4820    -2.3690 H     1 <1>   0.1500 
 57 H        2.2010     1.0040    -1.6810 H     1 <1>   0.1500 
 58 H        3.4830     1.5730    -3.9930 H     1 <1>   0.1500 
@<TRIPOS>BOND
  1   1   2  2   
  2   2   3  am  
  3   2   4  1   
  4   3   5  1   
  5   3   6  1   
  6   4   7  1   
  7   4  29  1   
  8   4  30  1   
  9   5   8  1   
 10   5   9  1   
 11   5  31  1   
 12   6  10  1   
 13   6  32  1   
 14   6  33  1   
 15   7  11  ar  
 16   7  12  ar  
 17   8  13  1   
 18   8  14  1   
 19   8  15  1   
 20   9  16  1   
 21   9  34  1   
 22   9  35  1   
 23  10  14  1   
 24  10  36  1   
 25  10  37  1   
 26  11  17  ar  
 27  12  18  ar  
 28  12  19  1   
 29  13  20  1   
 30  13  38  1   
 31  13  39  1   
 32  14  40  1   
 33  14  41  1   
 34  15  21  1   
 35  15  42  1   
 36  15  43  1   
 37  16  20  1   
 38  16  22  1   
 39  16  44  1   
 40  17  23  ar  
 41  17  45  1   
 42  18  23  ar  
 43  18  46  1   
 44  19  47  1   
 45  19  48  1   
 46  19  49  1   
 47  20  50  1   
 48  20  51  1   
 49  21  52  1   
 50  22  24  1   
 51  22  53  1   
 52  22  54  1   
 53  23  55  1   
 54  24  25  2   
 55  24  26  1   
 56  25  27  1   
 57  25  56  1   
 58  26  28  2   
 59  26  57  1   
 60  27  28  1   
 61  28  58  1   
@<TRIPOS>SUBSTRUCTURE
  1 ****   9 GROUP 4 **** **** 0

# MOE 2024.06 (io_trps.svl 2023.06)
