@<TRIPOS>MOLECULE
NONAME
59 62 1 0 0 
SMALL
USER_CHARGES


@<TRIPOS>ATOM
  1 O        0.5140    -1.8480     2.6390 O.2   1 <1>  -0.5700 
  2 C        1.0850    -2.1120     1.5990 C.2   1 <1>   0.5440 
  3 N        1.7100    -1.1050     0.8960 N.am  1 <1>  -0.6600 
  4 C        1.0840    -3.4850     1.1330 C.ar  1 <1>   0.0860 
  5 C        2.8610    -1.3210    -0.0220 C.3   1 <1>   0.1400 
  6 C        1.4180     0.3280     1.1750 C.3   1 <1>   0.1400 
  7 C        0.7710    -3.8390    -0.1650 C.ar  1 <1>  -0.1500 
  8 C        1.3790    -4.5460     1.9750 C.ar  1 <1>  -0.1500 
  9 C        2.5980    -0.6130    -1.3550 C.3   1 <1>  -0.1600 
 10 C        1.1480     1.0620    -0.1440 C.3   1 <1>  -0.1600 
 11 C        0.7780    -5.1680    -0.5620 C.ar  1 <1>   0.4100 
 12 C        1.3580    -5.8390     1.4960 C.ar  1 <1>   0.1600 
 13 C        2.2970     0.8780    -1.1460 C.3   1 <1>  -0.1600 
 14 N        1.0610    -6.1770     0.2490 N.ar  1 <1>  -0.6200 
 15 N        0.4470    -5.4940    -1.8570 N.pl3 1 <1>  -0.8690 
 16 C        1.1130    -6.6190    -2.5940 C.3   1 <1>   0.2090 
 17 C        0.1810    -7.8450    -2.6770 C.3   1 <1>   0.3430 
 18 N       -0.4150    -8.1020    -1.3390 N.4   1 <1>  -0.9590 
 19 C        0.2710    -9.2130    -0.5850 C.3   1 <1>   0.3430 
 20 C       -1.9150    -8.2410    -1.3620 C.3   1 <1>   0.3430 
 21 C       -0.3440    -9.4280     0.8120 C.3   1 <1>   0.2090 
 22 C       -2.5070    -8.4850     0.0430 C.3   1 <1>   0.2090 
 23 N       -1.8170    -9.6410     0.6880 N.pl3 1 <1>  -0.8380 
 24 C       -2.3330   -10.9080     0.5260 C.ar  1 <1>   0.7200 
 25 N       -3.6510   -11.0320     0.6370 N.ar  1 <1>  -0.6200 
 26 N       -1.4690   -11.8800     0.2370 N.ar  1 <1>  -0.6200 
 27 C       -4.1330   -12.2420     0.4940 C.ar  1 <1>   0.1600 
 28 C       -1.9800   -13.0810     0.0990 C.ar  1 <1>   0.1600 
 29 C       -3.3260   -13.3200     0.2220 C.ar  1 <1>  -0.1500 
 30 H        3.0350    -2.3690    -0.1870 H     1 <1>   0.0800 
 31 H        3.7460    -0.9100     0.4340 H     1 <1>   0.0800 
 32 H        2.2620     0.7680     1.6770 H     1 <1>   0.0800 
 33 H        0.5580     0.4210     1.8180 H     1 <1>   0.0800 
 34 H        0.5130    -3.0710    -0.8690 H     1 <1>   0.1500 
 35 H        1.6200    -4.3480     3.0060 H     1 <1>   0.1500 
 36 H        1.7660    -1.0840    -1.8480 H     1 <1>   0.0800 
 37 H        3.4600    -0.7200    -1.9910 H     1 <1>   0.0800 
 38 H        1.0060     2.1090     0.0560 H     1 <1>   0.0800 
 39 H        0.2320     0.6840    -0.5660 H     1 <1>   0.0800 
 40 H        1.5960    -6.6370     2.1800 H     1 <1>   0.1500 
 41 H        2.0370     1.3340    -2.0860 H     1 <1>   0.0800 
 42 H        3.1770     1.3700    -0.7700 H     1 <1>   0.0800 
 43 H        0.2760    -4.6760    -2.4540 H     1 <1>   0.4000 
 44 H        2.0250    -6.8960    -2.0920 H     1 <1>   0.0800 
 45 H        1.3730    -6.2970    -3.5870 H     1 <1>   0.0800 
 46 H        0.7240    -8.7070    -3.0260 H     1 <1>   0.0800 
 47 H       -0.6000    -7.6290    -3.3870 H     1 <1>   0.0800 
 48 H       -0.1950    -7.2240    -0.8120 H     1 <1>   0.4500 
 49 H        1.3180    -8.9850    -0.4740 H     1 <1>   0.0800 
 50 H        0.1810   -10.1360    -1.1340 H     1 <1>   0.0800 
 51 H       -2.1890    -9.0740    -1.9880 H     1 <1>   0.0800 
 52 H       -2.3560    -7.3500    -1.7780 H     1 <1>   0.0800 
 53 H       -0.1590    -8.5660     1.4280 H     1 <1>   0.0800 
 54 H        0.1210   -10.2720     1.2930 H     1 <1>   0.0800 
 55 H       -3.5650    -8.6640    -0.0410 H     1 <1>   0.0800 
 56 H       -2.3770    -7.6070     0.6510 H     1 <1>   0.0800 
 57 H       -5.1970   -12.3790     0.5960 H     1 <1>   0.1500 
 58 H       -1.3100   -13.8960    -0.1180 H     1 <1>   0.1500 
 59 H       -3.7330   -14.3080     0.1100 H     1 <1>   0.1500 
@<TRIPOS>BOND
  1   1   2  2   
  2   2   3  am  
  3   2   4  1   
  4   3   5  1   
  5   3   6  1   
  6   4   7  ar  
  7   4   8  ar  
  8   5   9  1   
  9   5  30  1   
 10   5  31  1   
 11   6  10  1   
 12   6  32  1   
 13   6  33  1   
 14   7  11  ar  
 15   7  34  1   
 16   8  12  ar  
 17   8  35  1   
 18   9  13  1   
 19   9  36  1   
 20   9  37  1   
 21  10  13  1   
 22  10  38  1   
 23  10  39  1   
 24  11  14  ar  
 25  11  15  1   
 26  12  14  ar  
 27  12  40  1   
 28  13  41  1   
 29  13  42  1   
 30  15  16  1   
 31  15  43  1   
 32  16  17  1   
 33  16  44  1   
 34  16  45  1   
 35  17  18  1   
 36  17  46  1   
 37  17  47  1   
 38  18  19  1   
 39  18  20  1   
 40  18  48  1   
 41  19  21  1   
 42  19  49  1   
 43  19  50  1   
 44  20  22  1   
 45  20  51  1   
 46  20  52  1   
 47  21  23  1   
 48  21  53  1   
 49  21  54  1   
 50  22  23  1   
 51  22  55  1   
 52  22  56  1   
 53  23  24  1   
 54  24  25  ar  
 55  24  26  ar  
 56  25  27  ar  
 57  26  28  ar  
 58  27  29  ar  
 59  27  57  1   
 60  28  29  ar  
 61  28  58  1   
 62  29  59  1   
@<TRIPOS>SUBSTRUCTURE
  1 ****  14 GROUP 4 **** **** 0

# MOE 2024.06 (io_trps.svl 2023.06)
