@<TRIPOS>MOLECULE
NONAME
39 41 1 0 0 
SMALL
USER_CHARGES


@<TRIPOS>ATOM
  1 F        2.1550     0.1030    -1.7670 F     1 <1>  -0.1900 
  2 C        2.4190    -0.4960    -0.6330 C.ar  1 <1>   0.1900 
  3 C        2.6700     0.2790     0.4910 C.ar  1 <1>  -0.1440 
  4 C        2.4210    -1.8880    -0.6160 C.ar  1 <1>  -0.1440 
  5 C        2.9000    -0.4180     1.6670 C.ar  1 <1>   0.1900 
  6 C        2.6640     1.8070     0.4440 C.3   1 <1>   0.2540 
  7 C        2.6740    -2.5370     0.5840 C.ar  1 <1>  -0.1500 
  8 C        2.1500    -2.6910    -1.8800 C.3   1 <1>  -0.0960 
  9 F        3.1090     0.2370     2.7790 F     1 <1>  -0.1900 
 10 C        2.9110    -1.8010     1.7330 C.ar  1 <1>  -0.1500 
 11 N        3.9860     2.3980     0.1490 N.3   1 <1>  -0.8100 
 12 C        4.9840     2.1370     1.2170 C.3   1 <1>   0.1100 
 13 C        4.4510     2.0970    -1.2230 C.3   1 <1>   0.1100 
 14 C        6.2930     2.9700     1.1490 C.3   1 <1>   0.2200 
 15 C        5.6420     2.9560    -1.7000 C.3   1 <1>  -0.0190 
 16 N        6.1400     4.2260     0.3690 N.am  1 <1>  -0.7300 
 17 C        7.4780     2.1420     0.6060 C.3   1 <1>   0.1200 
 18 C        5.7900     4.2560    -0.9330 C.2   1 <1>   0.5690 
 19 C        6.9720     2.1850    -1.7170 C.3   1 <1>   0.1200 
 20 O        7.1680     1.4300    -0.5590 O.3   1 <1>  -0.5600 
 21 O        5.6280     5.3110    -1.4970 O.2   1 <1>  -0.5700 
 22 H        2.3160     2.1930     1.3860 H     1 <1>   0.0800 
 23 H        1.9610     2.1410    -0.3000 H     1 <1>   0.0800 
 24 H        2.6840    -3.6120     0.6310 H     1 <1>   0.1500 
 25 H        2.1880    -3.7480    -1.6850 H     1 <1>   0.0800 
 26 H        2.8860    -2.4550    -2.6280 H     1 <1>   0.0800 
 27 H        1.1760    -2.4490    -2.2670 H     1 <1>   0.0800 
 28 H        3.1010    -2.2910     2.6710 H     1 <1>   0.1500 
 29 H        4.5220     2.3610     2.1630 H     1 <1>   0.0800 
 30 H        5.2320     1.0900     1.2300 H     1 <1>   0.0800 
 31 H        4.7000     1.0520    -1.3020 H     1 <1>   0.0800 
 32 H        3.6330     2.2870    -1.8960 H     1 <1>   0.0800 
 33 H        6.5530     3.2460     2.1550 H     1 <1>   0.0800 
 34 H        5.4460     3.2250    -2.7210 H     1 <1>   0.0800 
 35 H        6.0670     5.1050     0.8800 H     1 <1>   0.3700 
 36 H        7.7550     1.4100     1.3420 H     1 <1>   0.0800 
 37 H        8.3310     2.7710     0.4190 H     1 <1>   0.0800 
 38 H        7.8070     2.8520    -1.8500 H     1 <1>   0.0800 
 39 H        6.9640     1.4880    -2.5370 H     1 <1>   0.0800 
@<TRIPOS>BOND
  1   1   2  1   
  2   2   3  ar  
  3   2   4  ar  
  4   3   5  ar  
  5   3   6  1   
  6   4   7  ar  
  7   4   8  1   
  8   5   9  1   
  9   5  10  ar  
 10   6  11  1   
 11   6  22  1   
 12   6  23  1   
 13   7  10  ar  
 14   7  24  1   
 15   8  25  1   
 16   8  26  1   
 17   8  27  1   
 18  10  28  1   
 19  11  12  1   
 20  11  13  1   
 21  12  14  1   
 22  12  29  1   
 23  12  30  1   
 24  13  15  1   
 25  13  31  1   
 26  13  32  1   
 27  14  16  1   
 28  14  17  1   
 29  14  33  1   
 30  15  18  1   
 31  15  19  1   
 32  15  34  1   
 33  16  18  am  
 34  16  35  1   
 35  17  20  1   
 36  17  36  1   
 37  17  37  1   
 38  18  21  2   
 39  19  20  1   
 40  19  38  1   
 41  19  39  1   
@<TRIPOS>SUBSTRUCTURE
  1 ****  11 GROUP 4 **** **** 0

# MOE 2024.06 (io_trps.svl 2023.06)
