@<TRIPOS>MOLECULE
NONAME
44 46 1 0 0 
SMALL
USER_CHARGES


@<TRIPOS>ATOM
  1 O       -1.2290     0.2220    -1.3030 O.2   1 <1>  -0.5700 
  2 C       -2.1790     0.9820    -1.3560 C.2   1 <1>   0.5440 
  3 N       -3.3980     0.4920    -1.7810 N.am  1 <1>  -0.6600 
  4 C       -1.9850     2.3660    -0.9680 C.ar  1 <1>   0.0860 
  5 C       -3.5360    -0.9190    -2.2310 C.3   1 <1>   0.3200 
  6 C       -4.6570     1.3080    -1.8010 C.3   1 <1>   0.1400 
  7 C       -1.2280     3.2260    -1.7600 C.ar  1 <1>  -0.1500 
  8 C       -2.5330     2.8870     0.2030 C.ar  1 <1>  -0.1500 
  9 C       -3.7080    -1.7960    -1.0100 C.2   1 <1>  -0.3320 
 10 C       -5.6940     0.8530    -0.7590 C.3   1 <1>   0.1200 
 11 C       -1.0370     4.5510    -1.4100 C.ar  1 <1>  -0.1500 
 12 C       -2.3470     4.2100     0.5600 C.ar  1 <1>  -0.1500 
 13 N       -2.7490    -1.9000    -0.0750 N.pl3 1 <1>   0.0330 
 14 C       -4.7250    -2.5860    -0.6020 C.2   1 <1>   0.0770 
 15 O       -5.0920     0.6100     0.4660 O.3   1 <1>  -0.6800 
 16 C       -1.5980     5.0530    -0.2460 C.ar  1 <1>  -0.1430 
 17 C       -3.2490    -2.7380     0.8570 C.2   1 <1>   0.0060 
 18 N       -4.4350    -3.1700     0.5750 N.2   1 <1>  -0.5650 
 19 C       -1.3850     6.5120     0.1460 C.3   1 <1>   0.2390 
 20 C       -2.4850    -3.1190     2.1050 C.3   1 <1>  -0.0600 
 21 N       -0.0990     6.7160     0.8410 N.pl3 1 <1>   0.3140 
 22 N        0.3610     7.9140     1.1330 N.2   1 <1>  -0.4180 
 23 C        0.7810     5.8380     1.2860 C.2   1 <1>   0.0360 
 24 N        1.4840     7.7360     1.7330 N.2   1 <1>   0.0000 
 25 N        1.7620     6.4410     1.8380 N.2   1 <1>  -0.3380 
 26 H       -2.6550    -1.2180    -2.7740 H     1 <1>   0.0800 
 27 H       -4.3830    -1.0200    -2.8870 H     1 <1>   0.0800 
 28 H       -5.0980     1.2510    -2.7810 H     1 <1>   0.0800 
 29 H       -4.4350     2.3450    -1.6250 H     1 <1>   0.0800 
 30 H       -0.7830     2.8410    -2.6620 H     1 <1>   0.1500 
 31 H       -3.1140     2.2410     0.8400 H     1 <1>   0.1500 
 32 H       -6.1830    -0.0520    -1.0750 H     1 <1>   0.0800 
 33 H       -6.4400     1.6160    -0.6180 H     1 <1>   0.0800 
 34 H       -0.4450     5.1840    -2.0500 H     1 <1>   0.1500 
 35 H       -2.7910     4.5720     1.4730 H     1 <1>   0.1500 
 36 H       -1.8430    -1.4090    -0.0940 H     1 <1>   0.2700 
 37 H       -5.6670    -2.7690    -1.0920 H     1 <1>   0.1500 
 38 H       -4.5630    -0.2190     0.4000 H     1 <1>   0.4000 
 39 H       -2.1740     6.8420     0.7960 H     1 <1>   0.0800 
 40 H       -1.3940     7.1320    -0.7320 H     1 <1>   0.0800 
 41 H       -1.5630    -3.6020     1.8390 H     1 <1>   0.0800 
 42 H       -3.0720    -3.7980     2.6970 H     1 <1>   0.0800 
 43 H       -2.2750    -2.2430     2.6900 H     1 <1>   0.0800 
 44 H        0.6720     4.7730     1.1890 H     1 <1>   0.1500 
@<TRIPOS>BOND
  1   1   2  2   
  2   2   3  am  
  3   2   4  1   
  4   3   5  1   
  5   3   6  1   
  6   4   7  ar  
  7   4   8  ar  
  8   5   9  1   
  9   5  26  1   
 10   5  27  1   
 11   6  10  1   
 12   6  28  1   
 13   6  29  1   
 14   7  11  ar  
 15   7  30  1   
 16   8  12  ar  
 17   8  31  1   
 18   9  13  1   
 19   9  14  2   
 20  10  15  1   
 21  10  32  1   
 22  10  33  1   
 23  11  16  ar  
 24  11  34  1   
 25  12  16  ar  
 26  12  35  1   
 27  13  17  1   
 28  13  36  1   
 29  14  18  1   
 30  14  37  1   
 31  15  38  1   
 32  16  19  1   
 33  17  18  2   
 34  17  20  1   
 35  19  21  1   
 36  19  39  1   
 37  19  40  1   
 38  20  41  1   
 39  20  42  1   
 40  20  43  1   
 41  21  22  1   
 42  21  23  1   
 43  22  24  2   
 44  23  25  2   
 45  23  44  1   
 46  24  25  1   
@<TRIPOS>SUBSTRUCTURE
  1 ****   4 GROUP 4 **** **** 0

# MOE 2024.06 (io_trps.svl 2023.06)
