@<TRIPOS>MOLECULE
NONAME
44 47 1 0 0 
SMALL
USER_CHARGES


@<TRIPOS>ATOM
  1 O        0.8280     0.0320     1.8030 O.2   1 <1>  -0.5700 
  2 C        1.4520    -0.3060     0.8130 C.2   1 <1>   0.5440 
  3 N        1.7710     0.6490    -0.1360 N.am  1 <1>  -0.6600 
  4 C        1.8170    -1.7000     0.6620 C.ar  1 <1>   0.0860 
  5 C        2.1620     0.2930    -1.5420 C.3   1 <1>   0.1400 
  6 C        1.6790     2.1010     0.1920 C.3   1 <1>   0.1400 
  7 C        0.8350    -2.6960     0.6670 C.ar  1 <1>  -0.1500 
  8 C        3.1540    -2.0930     0.5150 C.ar  1 <1>  -0.1500 
  9 C        3.2390     1.2060    -2.1520 C.3   1 <1>   0.1400 
 10 C        3.0380     2.6210     0.6790 C.3   1 <1>  -0.1600 
 11 C        1.1930    -4.0190     0.5070 C.ar  1 <1>  -0.1440 
 12 C        3.5090    -3.4210     0.3520 C.ar  1 <1>  -0.1500 
 13 N        4.3170     1.5290    -1.1690 N.am  1 <1>  -0.6600 
 14 C        4.0870     2.7980    -0.4280 C.3   1 <1>   0.1400 
 15 C        2.5070    -4.3720     0.3500 C.ar  1 <1>   0.0820 
 16 C        0.3570    -5.2640     0.4720 C.3   1 <1>  -0.0170 
 17 C        5.3450     0.6270    -0.9330 C.2   1 <1>   0.7160 
 18 O        2.6800    -5.6920     0.2060 O.3   1 <1>  -0.3630 
 19 C        1.4250    -6.3550     0.2700 C.3   1 <1>   0.1200 
 20 O        5.4380    -0.3180    -1.7000 O.2   1 <1>  -0.5700 
 21 C        6.3160     0.7100     0.1520 C.2   1 <1>   0.1410 
 22 N        6.1910     1.4400     1.2870 N.2   1 <1>  -0.2270 
 23 C        7.4970     0.0510     0.2380 C.2   1 <1>  -0.3020 
 24 N        7.2260     1.2590     2.0250 N.2   1 <1>  -0.4180 
 25 N        8.0340     0.4070     1.3980 N.pl3 1 <1>   0.3000 
 26 H        1.2840     0.3320    -2.1630 H     1 <1>   0.0800 
 27 H        2.5290    -0.7160    -1.5850 H     1 <1>   0.0800 
 28 H        0.9510     2.2500     0.9710 H     1 <1>   0.0800 
 29 H        1.3430     2.6540    -0.6670 H     1 <1>   0.0800 
 30 H       -0.1950    -2.4160     0.7990 H     1 <1>   0.1500 
 31 H        3.9190    -1.3370     0.5290 H     1 <1>   0.1500 
 32 H        2.7800     2.1130    -2.5010 H     1 <1>   0.0800 
 33 H        3.6630     0.7210    -3.0150 H     1 <1>   0.0800 
 34 H        3.4170     1.9680     1.4450 H     1 <1>   0.0800 
 35 H        2.8830     3.5810     1.1370 H     1 <1>   0.0800 
 36 H        4.5340    -3.7200     0.2310 H     1 <1>   0.1500 
 37 H        5.0070     3.1630    -0.0090 H     1 <1>   0.0800 
 38 H        3.7480     3.5510    -1.1190 H     1 <1>   0.0800 
 39 H       -0.3370    -5.2460    -0.3480 H     1 <1>   0.0800 
 40 H       -0.1700    -5.4060     1.3980 H     1 <1>   0.0800 
 41 H        1.2790    -6.8860    -0.6540 H     1 <1>   0.0800 
 42 H        1.4510    -7.0410     1.0970 H     1 <1>   0.0800 
 43 H        7.9450    -0.6320    -0.4600 H     1 <1>   0.1500 
 44 H        8.9280     0.0980     1.7970 H     1 <1>   0.2700 
@<TRIPOS>BOND
  1   1   2  2   
  2   2   3  am  
  3   2   4  1   
  4   3   5  1   
  5   3   6  1   
  6   4   7  ar  
  7   4   8  ar  
  8   5   9  1   
  9   5  26  1   
 10   5  27  1   
 11   6  10  1   
 12   6  28  1   
 13   6  29  1   
 14   7  11  ar  
 15   7  30  1   
 16   8  12  ar  
 17   8  31  1   
 18   9  13  1   
 19   9  32  1   
 20   9  33  1   
 21  10  14  1   
 22  10  34  1   
 23  10  35  1   
 24  11  15  ar  
 25  11  16  1   
 26  12  15  ar  
 27  12  36  1   
 28  13  14  1   
 29  13  17  am  
 30  14  37  1   
 31  14  38  1   
 32  15  18  1   
 33  16  19  1   
 34  16  39  1   
 35  16  40  1   
 36  17  20  2   
 37  17  21  1   
 38  18  19  1   
 39  19  41  1   
 40  19  42  1   
 41  21  22  1   
 42  21  23  2   
 43  22  24  2   
 44  23  25  1   
 45  23  43  1   
 46  24  25  1   
 47  25  44  1   
@<TRIPOS>SUBSTRUCTURE
  1 ****   8 GROUP 4 **** **** 0

# MOE 2024.06 (io_trps.svl 2023.06)
