@<TRIPOS>MOLECULE
NONAME
38 40 1 0 0 
SMALL
USER_CHARGES


@<TRIPOS>ATOM
  1 O       -0.1160     0.2590     0.1520 O.2   1 <1>  -0.5700 
  2 C        0.8990    -0.3790     0.0250 C.2   1 <1>   0.6300 
  3 N        2.1540     0.1480     0.0890 N.am  1 <1>  -0.4940 
  4 C        0.7920    -1.8690    -0.2360 C.3   1 <1>  -0.1000 
  5 C        2.5580     1.4670     0.3210 C.2   1 <1>   0.2040 
  6 C        0.0980    -2.7430     0.7670 C.3   1 <1>  -0.0680 
  7 C        1.5750    -2.8820     0.5510 C.3   1 <1>  -0.2000 
  8 O        1.6990     2.4360     0.5330 O.3   1 <1>  -0.0190 
  9 C        3.7950     2.0000     0.3780 C.2   1 <1>  -0.1810 
 10 C       -0.8680    -3.8010     0.2660 C.ar  1 <1>  -0.0320 
 11 N        2.2970     3.5830     0.7280 N.2   1 <1>  -0.4100 
 12 C        3.5570     3.3490     0.6390 C.2   1 <1>   0.1080 
 13 C        5.1510     1.3340     0.2060 C.3   1 <1>  -0.0590 
 14 C       -1.9810    -3.4220    -0.4660 C.ar  1 <1>  -0.1500 
 15 C       -0.6550    -5.1420     0.5390 C.ar  1 <1>  -0.1500 
 16 C        4.6130     4.4290     0.8030 C.3   1 <1>   0.0210 
 17 C       -2.8700    -4.3760    -0.9310 C.ar  1 <1>  -0.1500 
 18 C       -1.5420    -6.0990     0.0750 C.ar  1 <1>  -0.1500 
 19 C        5.0210     5.0180    -0.5520 C.3   1 <1>  -0.2400 
 20 C       -2.6500    -5.7150    -0.6610 C.ar  1 <1>  -0.1500 
 21 H        2.9050    -0.5200    -0.0500 H     1 <1>   0.3700 
 22 H        0.5980    -2.0760    -1.2730 H     1 <1>   0.1000 
 23 H       -0.2390    -2.2750     1.6760 H     1 <1>   0.1000 
 24 H        1.9410    -3.7570     0.0430 H     1 <1>   0.1000 
 25 H        2.2210    -2.5670     1.3520 H     1 <1>   0.1000 
 26 H        5.6810     1.7870    -0.6120 H     1 <1>   0.0800 
 27 H        5.0380     0.2850     0.0030 H     1 <1>   0.0800 
 28 H        5.7320     1.4490     1.1040 H     1 <1>   0.0800 
 29 H       -2.1540    -2.3790    -0.6730 H     1 <1>   0.1500 
 30 H        0.2020    -5.4440     1.1140 H     1 <1>   0.1500 
 31 H        4.2140     5.2110     1.4250 H     1 <1>   0.0800 
 32 H        5.4740     4.0200     1.3000 H     1 <1>   0.0800 
 33 H       -3.7320    -4.0750    -1.5010 H     1 <1>   0.1500 
 34 H       -1.3720    -7.1400     0.2880 H     1 <1>   0.1500 
 35 H        4.1590     5.4410    -1.0390 H     1 <1>   0.0800 
 36 H        5.4330     4.2550    -1.1860 H     1 <1>   0.0800 
 37 H        5.7540     5.7920    -0.4140 H     1 <1>   0.0800 
 38 H       -3.3400    -6.4570    -1.0220 H     1 <1>   0.1500 
@<TRIPOS>BOND
  1   1   2  2   
  2   2   3  am  
  3   2   4  1   
  4   3   5  1   
  5   3  21  1   
  6   4   6  1   
  7   4   7  1   
  8   4  22  1   
  9   5   8  1   
 10   5   9  2   
 11   6   7  1   
 12   6  10  1   
 13   6  23  1   
 14   7  24  1   
 15   7  25  1   
 16   8  11  1   
 17   9  12  1   
 18   9  13  1   
 19  10  14  ar  
 20  10  15  ar  
 21  11  12  2   
 22  12  16  1   
 23  13  26  1   
 24  13  27  1   
 25  13  28  1   
 26  14  17  ar  
 27  14  29  1   
 28  15  18  ar  
 29  15  30  1   
 30  16  19  1   
 31  16  31  1   
 32  16  32  1   
 33  17  20  ar  
 34  17  33  1   
 35  18  20  ar  
 36  18  34  1   
 37  19  35  1   
 38  19  36  1   
 39  19  37  1   
 40  20  38  1   
@<TRIPOS>SUBSTRUCTURE
  1 ****   2 GROUP 4 **** **** 0

# MOE 2024.06 (io_trps.svl 2023.06)
