@<TRIPOS>MOLECULE
NONAME
48 51 1 0 0 
SMALL
USER_CHARGES


@<TRIPOS>ATOM
  1 O        0.5830     1.4560     2.3510 O.2   1 <1>  -0.5700 
  2 C        1.2370     2.3880     1.9660 C.2   1 <1>   0.4230 
  3 C        2.1210     2.4430     0.8440 C.ar  1 <1>   0.0860 
  4 C        1.2170     3.7380     2.6500 C.3   1 <1>  -0.0990 
  5 C        2.6890     3.6960     0.7210 C.ar  1 <1>  -0.1440 
  6 C        2.4410     1.4470    -0.0690 C.ar  1 <1>  -0.1500 
  7 C        2.1900     4.6110     1.8300 C.3   1 <1>  -0.0160 
  8 C        3.5810     4.0100    -0.3040 C.ar  1 <1>   0.0860 
  9 C        3.3270     1.7240    -1.0930 C.ar  1 <1>  -0.1500 
 10 C        4.1660     5.3290    -0.4510 C.2   1 <1>   0.5440 
 11 C        3.8880     2.9860    -1.2060 C.ar  1 <1>  -0.1500 
 12 O        4.6380     5.9110     0.5080 O.2   1 <1>  -0.5700 
 13 N        4.1740     5.9190    -1.6940 N.am  1 <1>  -0.4940 
 14 C        4.5790     7.2040    -2.1360 C.2   1 <1>  -0.0880 
 15 N        5.6480     7.9560    -1.7380 N.pl3 1 <1>   0.3140 
 16 C        3.9460     7.9290    -3.0880 C.2   1 <1>  -0.1500 
 17 N        5.6930     9.1360    -2.4080 N.2   1 <1>  -0.7070 
 18 C        6.7070     7.6270    -0.7480 C.3   1 <1>   0.1760 
 19 C        4.6740     9.1040    -3.2070 C.2   1 <1>   0.1390 
 20 C        6.5080     8.4710     0.5200 C.3   1 <1>  -0.1600 
 21 C        8.1140     7.8570    -1.3250 C.3   1 <1>  -0.1600 
 22 C        7.5930     8.1650     1.5420 C.3   1 <1>   0.3430 
 23 C        9.1800     7.5780    -0.2690 C.3   1 <1>   0.3430 
 24 N        8.9320     8.4260     0.9340 N.4   1 <1>  -0.9590 
 25 C       10.0170     8.2520     1.9450 C.3   1 <1>   0.2630 
 26 H        1.5470     3.6340     3.6670 H     1 <1>   0.0800 
 27 H        0.2200     4.1390     2.6310 H     1 <1>   0.0800 
 28 H        1.9940     0.4720     0.0360 H     1 <1>   0.1500 
 29 H        3.0100     4.9410     2.4440 H     1 <1>   0.0800 
 30 H        1.6840     5.4680     1.4180 H     1 <1>   0.0800 
 31 H        3.5820     0.9520    -1.8020 H     1 <1>   0.1500 
 32 H        4.5830     3.1730    -2.0070 H     1 <1>   0.1500 
 33 H        3.6140     5.4110    -2.3820 H     1 <1>   0.3700 
 34 H        3.0640     7.6820    -3.6490 H     1 <1>   0.1500 
 35 H        6.6280     6.5850    -0.5100 H     1 <1>   0.0800 
 36 H        4.4270     9.9060    -3.8850 H     1 <1>   0.1500 
 37 H        5.5490     8.2520     0.9550 H     1 <1>   0.0800 
 38 H        6.5260     9.5190     0.2760 H     1 <1>   0.0800 
 39 H        8.2210     8.8690    -1.6730 H     1 <1>   0.0800 
 40 H        8.2670     7.2000    -2.1630 H     1 <1>   0.0800 
 41 H        7.5200     7.1330     1.8480 H     1 <1>   0.0800 
 42 H        7.4520     8.7880     2.4100 H     1 <1>   0.0800 
 43 H       10.1530     7.7940    -0.6800 H     1 <1>   0.0800 
 44 H        9.1510     6.5360     0.0070 H     1 <1>   0.0800 
 45 H        8.9320     9.4090     0.6180 H     1 <1>   0.4500 
 46 H       10.0410     7.2330     2.2980 H     1 <1>   0.0800 
 47 H        9.8520     8.9050     2.7870 H     1 <1>   0.0800 
 48 H       10.9750     8.4890     1.5120 H     1 <1>   0.0800 
@<TRIPOS>BOND
  1   1   2  2   
  2   2   3  1   
  3   2   4  1   
  4   3   5  ar  
  5   3   6  ar  
  6   4   7  1   
  7   4  26  1   
  8   4  27  1   
  9   5   7  1   
 10   5   8  ar  
 11   6   9  ar  
 12   6  28  1   
 13   7  29  1   
 14   7  30  1   
 15   8  10  1   
 16   8  11  ar  
 17   9  11  ar  
 18   9  31  1   
 19  10  12  2   
 20  10  13  am  
 21  11  32  1   
 22  13  14  1   
 23  13  33  1   
 24  14  15  1   
 25  14  16  2   
 26  15  17  1   
 27  15  18  1   
 28  16  19  1   
 29  16  34  1   
 30  17  19  2   
 31  18  20  1   
 32  18  21  1   
 33  18  35  1   
 34  19  36  1   
 35  20  22  1   
 36  20  37  1   
 37  20  38  1   
 38  21  23  1   
 39  21  39  1   
 40  21  40  1   
 41  22  24  1   
 42  22  41  1   
 43  22  42  1   
 44  23  24  1   
 45  23  43  1   
 46  23  44  1   
 47  24  25  1   
 48  24  45  1   
 49  25  46  1   
 50  25  47  1   
 51  25  48  1   
@<TRIPOS>SUBSTRUCTURE
  1 ****  12 GROUP 4 **** **** 0

# MOE 2024.06 (io_trps.svl 2023.06)
