@<TRIPOS>MOLECULE
NONAME
44 45 1 0 0 
SMALL
USER_CHARGES


@<TRIPOS>ATOM
  1 O        0.7760    -0.5650    -1.7940 O.2   1 <1>  -0.5700 
  2 C        1.5090    -1.0640    -0.9600 C.2   1 <1>   0.5440 
  3 N        2.4160    -0.2580    -0.3080 N.am  1 <1>  -0.6600 
  4 C        1.4320    -2.4840    -0.6880 C.ar  1 <1>   0.0860 
  5 C        2.5220     1.2030    -0.5630 C.3   1 <1>   0.1400 
  6 C        3.6490    -0.7580     0.3420 C.3   1 <1>   0.1400 
  7 C        1.3030    -2.9760     0.6130 C.ar  1 <1>  -0.1500 
  8 C        1.4840    -3.4180    -1.7230 C.ar  1 <1>  -0.1500 
  9 C        3.9970     1.5370    -0.3640 C.3   1 <1>   0.2000 
 10 C        4.5070     0.4760     0.6080 C.3   1 <1>  -0.1600 
 11 C        1.2550    -4.3320     0.8680 C.ar  1 <1>  -0.1500 
 12 C        1.4360    -4.7740    -1.4700 C.ar  1 <1>  -0.1500 
 13 O        4.1260     2.8110     0.1890 O.3   1 <1>  -0.5600 
 14 C        1.3260    -5.2520    -0.1710 C.ar  1 <1>   0.1000 
 15 C        5.4070     3.3530     0.1220 C.3   1 <1>   0.0400 
 16 N        1.2770    -6.6150     0.0640 N.pl3 1 <1>  -0.8380 
 17 C        2.3550    -7.2110     0.8910 C.3   1 <1>   0.2090 
 18 C       -0.0690    -7.2230     0.2080 C.3   1 <1>   0.2090 
 19 C        2.8790    -8.4660     0.2040 C.3   1 <1>  -0.2400 
 20 C       -0.4670    -7.8540    -1.1210 C.3   1 <1>  -0.2400 
 21 H        1.9180     1.7270     0.1560 H     1 <1>   0.0800 
 22 H        2.2040     1.4480    -1.5610 H     1 <1>   0.0800 
 23 H        4.1550    -1.4330    -0.3280 H     1 <1>   0.0800 
 24 H        3.4180    -1.2680     1.2620 H     1 <1>   0.0800 
 25 H        1.2350    -2.2760     1.4270 H     1 <1>   0.1500 
 26 H        1.5620    -3.0630    -2.7360 H     1 <1>   0.1500 
 27 H        4.5060     1.4930    -1.3120 H     1 <1>   0.0800 
 28 H        5.5500     0.2620     0.4630 H     1 <1>   0.0800 
 29 H        4.3400     0.7990     1.6200 H     1 <1>   0.0800 
 30 H        1.1540    -4.6930     1.8750 H     1 <1>   0.1500 
 31 H        1.4830    -5.4860    -2.2730 H     1 <1>   0.1500 
 32 H        5.3760     4.3350     0.5610 H     1 <1>   0.0800 
 33 H        5.7090     3.4280    -0.9080 H     1 <1>   0.0800 
 34 H        6.0910     2.7330     0.6750 H     1 <1>   0.0800 
 35 H        1.9830    -7.4450     1.8740 H     1 <1>   0.0800 
 36 H        3.1600    -6.5020     0.9940 H     1 <1>   0.0800 
 37 H       -0.7830    -6.4630     0.4760 H     1 <1>   0.0800 
 38 H       -0.0620    -7.9710     0.9820 H     1 <1>   0.0800 
 39 H        2.1090    -9.2130     0.1480 H     1 <1>   0.0800 
 40 H        3.7050    -8.8680     0.7620 H     1 <1>   0.0800 
 41 H        3.2160    -8.2240    -0.7870 H     1 <1>   0.0800 
 42 H       -0.5180    -7.0970    -1.8830 H     1 <1>   0.0800 
 43 H       -1.4320    -8.3160    -1.0300 H     1 <1>   0.0800 
 44 H        0.2510    -8.6000    -1.4090 H     1 <1>   0.0800 
@<TRIPOS>BOND
  1   1   2  2   
  2   2   3  am  
  3   2   4  1   
  4   3   5  1   
  5   3   6  1   
  6   4   7  ar  
  7   4   8  ar  
  8   5   9  1   
  9   5  21  1   
 10   5  22  1   
 11   6  10  1   
 12   6  23  1   
 13   6  24  1   
 14   7  11  ar  
 15   7  25  1   
 16   8  12  ar  
 17   8  26  1   
 18   9  10  1   
 19   9  13  1   
 20   9  27  1   
 21  10  28  1   
 22  10  29  1   
 23  11  14  ar  
 24  11  30  1   
 25  12  14  ar  
 26  12  31  1   
 27  13  15  1   
 28  14  16  1   
 29  15  32  1   
 30  15  33  1   
 31  15  34  1   
 32  16  17  1   
 33  16  18  1   
 34  17  19  1   
 35  17  35  1   
 36  17  36  1   
 37  18  20  1   
 38  18  37  1   
 39  18  38  1   
 40  19  39  1   
 41  19  40  1   
 42  19  41  1   
 43  20  42  1   
 44  20  43  1   
 45  20  44  1   
@<TRIPOS>SUBSTRUCTURE
  1 ****   4 GROUP 4 **** **** 0

# MOE 2024.06 (io_trps.svl 2023.06)
