@<TRIPOS>MOLECULE
NONAME
46 48 1 0 0 
SMALL
USER_CHARGES


@<TRIPOS>ATOM
  1 O       -1.7630     0.8980     2.6510 O.2   1 <1>  -0.5700 
  2 C       -1.9360     1.3690     1.5510 C.2   1 <1>   0.5690 
  3 N       -2.2730     0.5740     0.4880 N.am  1 <1>  -0.6600 
  4 C       -1.7950     2.8690     1.4050 C.3   1 <1>   0.1570 
  5 C       -2.4680     1.0100    -0.9230 C.3   1 <1>   0.1400 
  6 C       -2.3260    -0.9070     0.5720 C.3   1 <1>   0.1400 
  7 N       -0.6870     3.2010     0.4990 N.pl3 1 <1>   0.3140 
  8 C       -3.1380    -0.1850    -1.5960 C.3   1 <1>   0.2000 
  9 C       -2.5240    -1.3860    -0.8710 C.3   1 <1>  -0.0800 
 10 N       -0.9210     3.8270    -0.6730 N.2   1 <1>  -0.7070 
 11 C        0.6360     2.9720     0.6730 C.2   1 <1>  -0.3320 
 12 O       -4.4980    -0.1240    -1.3220 O.3   1 <1>  -0.6800 
 13 C       -3.3070    -2.7060    -0.9860 C.3   1 <1>   0.0210 
 14 C        0.2470     3.9800    -1.2100 C.2   1 <1>   0.1080 
 15 C        1.2620     3.4650    -0.4160 C.2   1 <1>  -0.1500 
 16 C        1.2540     2.2850     1.8810 C.3   1 <1>  -0.0600 
 17 C       -2.6170    -3.8110    -0.2110 C.2   1 <1>   0.1080 
 18 C        0.4410     4.6510    -2.5490 C.3   1 <1>  -0.0590 
 19 N       -1.4300    -4.2420    -0.5050 N.2   1 <1>  -0.7070 
 20 C       -3.1570    -4.4680     0.8900 C.2   1 <1>  -0.1500 
 21 N       -1.1790    -5.1980     0.4090 N.pl3 1 <1>   0.3000 
 22 C       -2.2100    -5.3520     1.2670 C.2   1 <1>  -0.3320 
 23 C       -2.2260    -6.3490     2.4110 C.3   1 <1>  -0.0600 
 24 H       -1.5970     3.3090     2.3620 H     1 <1>   0.0800 
 25 H       -2.7040     3.2810     1.0120 H     1 <1>   0.0800 
 26 H       -3.0660     1.9020    -0.9990 H     1 <1>   0.0800 
 27 H       -1.5050     1.1860    -1.3710 H     1 <1>   0.0800 
 28 H       -1.4150    -1.3010     0.9920 H     1 <1>   0.0800 
 29 H       -3.1560    -1.1960     1.1950 H     1 <1>   0.0800 
 30 H       -2.9990    -0.2070    -2.6630 H     1 <1>   0.0800 
 31 H       -1.5440    -1.5490    -1.2850 H     1 <1>   0.0800 
 32 H       -4.6110     0.0500    -0.3660 H     1 <1>   0.4000 
 33 H       -3.3710    -2.9970    -2.0190 H     1 <1>   0.0800 
 34 H       -4.3080    -2.5890    -0.6110 H     1 <1>   0.0800 
 35 H        2.3130     3.4700    -0.6440 H     1 <1>   0.1500 
 36 H        2.3270     2.2990     1.8050 H     1 <1>   0.0800 
 37 H        0.9310     1.2600     1.9340 H     1 <1>   0.0800 
 38 H        0.9690     2.7880     2.7870 H     1 <1>   0.0800 
 39 H        1.4850     4.6970    -2.7990 H     1 <1>   0.0800 
 40 H        0.0430     5.6480    -2.5100 H     1 <1>   0.0800 
 41 H       -0.0800     4.0960    -3.3070 H     1 <1>   0.0800 
 42 H       -4.1240    -4.2890     1.3250 H     1 <1>   0.1500 
 43 H       -0.2980    -5.7250     0.4210 H     1 <1>   0.2700 
 44 H       -3.1560    -6.2790     2.9480 H     1 <1>   0.0800 
 45 H       -1.4210    -6.1450     3.0940 H     1 <1>   0.0800 
 46 H       -2.1230    -7.3500     2.0330 H     1 <1>   0.0800 
@<TRIPOS>BOND
  1   1   2  2   
  2   2   3  am  
  3   2   4  1   
  4   3   5  1   
  5   3   6  1   
  6   4   7  1   
  7   4  24  1   
  8   4  25  1   
  9   5   8  1   
 10   5  26  1   
 11   5  27  1   
 12   6   9  1   
 13   6  28  1   
 14   6  29  1   
 15   7  10  1   
 16   7  11  1   
 17   8   9  1   
 18   8  12  1   
 19   8  30  1   
 20   9  13  1   
 21   9  31  1   
 22  10  14  2   
 23  11  15  2   
 24  11  16  1   
 25  12  32  1   
 26  13  17  1   
 27  13  33  1   
 28  13  34  1   
 29  14  15  1   
 30  14  18  1   
 31  15  35  1   
 32  16  36  1   
 33  16  37  1   
 34  16  38  1   
 35  17  19  2   
 36  17  20  1   
 37  18  39  1   
 38  18  40  1   
 39  18  41  1   
 40  19  21  1   
 41  20  22  2   
 42  20  42  1   
 43  21  22  1   
 44  21  43  1   
 45  22  23  1   
 46  23  44  1   
 47  23  45  1   
 48  23  46  1   
@<TRIPOS>SUBSTRUCTURE
  1 ****   3 GROUP 4 **** **** 0

# MOE 2024.06 (io_trps.svl 2023.06)
