@<TRIPOS>MOLECULE
NONAME
48 51 1 0 0 
SMALL
USER_CHARGES


@<TRIPOS>ATOM
  1 O       -0.3760     0.4610     0.5870 O.2   1 <1>  -0.5700 
  2 C       -1.3320     1.0030     0.0520 C.2   1 <1>   0.7150 
  3 N       -2.4840     0.2510    -0.0670 N.am  1 <1>  -0.6600 
  4 C       -1.2170     2.3750    -0.4190 C.2   1 <1>   0.1020 
  5 C       -3.8020     0.7290    -0.5600 C.3   1 <1>   0.1400 
  6 C       -2.6040    -1.1430     0.4130 C.3   1 <1>   0.1400 
  7 N       -2.0470     3.0020    -1.2180 N.2   1 <1>  -0.3380 
  8 N       -0.2140     3.2140    -0.0820 N.pl3 1 <1>   0.0480 
  9 C       -4.7970    -0.3990    -0.2540 C.3   1 <1>   0.2000 
 10 C       -3.9170    -1.6510    -0.1880 C.3   1 <1>  -0.0800 
 11 N       -1.6080     4.2410    -1.3890 N.2   1 <1>  -0.3380 
 12 C       -0.5240     4.3470    -0.7050 C.2   1 <1>   0.0070 
 13 C        0.9480     3.0290     0.8270 C.3   1 <1>   0.0960 
 14 O       -5.3850    -0.1990     1.0010 O.3   1 <1>  -0.5600 
 15 C       -4.5340    -2.8290     0.5880 C.3   1 <1>   0.0200 
 16 C        0.3210     5.6050    -0.6030 C.3   1 <1>   0.0200 
 17 C        1.9480     4.1940     0.7170 C.3   1 <1>  -0.1600 
 18 C       -6.4760     0.6690     1.0150 C.3   1 <1>   0.0400 
 19 C       -3.7170    -4.1060     0.4840 C.2   1 <1>  -0.0400 
 20 C        1.2370     5.5550     0.6290 C.3   1 <1>  -0.1600 
 21 O       -4.0900    -5.1470     1.1820 O.3   1 <1>  -0.0190 
 22 C       -2.6210    -4.4540    -0.2100 C.2   1 <1>  -0.1500 
 23 N       -3.3030    -6.1670     0.9950 N.2   1 <1>  -0.4100 
 24 C       -2.4080    -5.7780     0.1620 C.2   1 <1>   0.1080 
 25 C       -1.2780    -6.6490    -0.3410 C.3   1 <1>  -0.0590 
 26 H       -4.0820     1.6510    -0.0830 H     1 <1>   0.0800 
 27 H       -3.7380     0.8790    -1.6230 H     1 <1>   0.0800 
 28 H       -1.7590    -1.7310     0.1000 H     1 <1>   0.0800 
 29 H       -2.6580    -1.1350     1.4890 H     1 <1>   0.0800 
 30 H       -5.5700    -0.4860    -0.9990 H     1 <1>   0.0800 
 31 H       -3.7190    -1.9640    -1.1980 H     1 <1>   0.0800 
 32 H        0.5730     2.9630     1.8330 H     1 <1>   0.0800 
 33 H        1.4460     2.1070     0.5870 H     1 <1>   0.0800 
 34 H       -5.5200    -3.0270     0.2080 H     1 <1>   0.0800 
 35 H       -4.6320    -2.5690     1.6270 H     1 <1>   0.0800 
 36 H        0.9160     5.6830    -1.4960 H     1 <1>   0.0800 
 37 H       -0.3210     6.4670    -0.5540 H     1 <1>   0.0800 
 38 H        2.6060     4.1770     1.5690 H     1 <1>   0.0800 
 39 H        2.5550     4.0510    -0.1610 H     1 <1>   0.0800 
 40 H       -6.8350     0.7350     2.0270 H     1 <1>   0.0800 
 41 H       -7.2520     0.2750     0.3820 H     1 <1>   0.0800 
 42 H       -6.1700     1.6440     0.6790 H     1 <1>   0.0800 
 43 H        1.9620     6.3490     0.5720 H     1 <1>   0.0800 
 44 H        0.6460     5.7060     1.5160 H     1 <1>   0.0800 
 45 H       -2.0210    -3.8870    -0.8960 H     1 <1>   0.1500 
 46 H       -1.3250    -6.7250    -1.4120 H     1 <1>   0.0800 
 47 H       -1.3590    -7.6340     0.0820 H     1 <1>   0.0800 
 48 H       -0.3350    -6.2230    -0.0550 H     1 <1>   0.0800 
@<TRIPOS>BOND
  1   1   2  2   
  2   2   3  am  
  3   2   4  1   
  4   3   5  1   
  5   3   6  1   
  6   4   7  2   
  7   4   8  1   
  8   5   9  1   
  9   5  26  1   
 10   5  27  1   
 11   6  10  1   
 12   6  28  1   
 13   6  29  1   
 14   7  11  1   
 15   8  12  1   
 16   8  13  1   
 17   9  10  1   
 18   9  14  1   
 19   9  30  1   
 20  10  15  1   
 21  10  31  1   
 22  11  12  2   
 23  12  16  1   
 24  13  17  1   
 25  13  32  1   
 26  13  33  1   
 27  14  18  1   
 28  15  19  1   
 29  15  34  1   
 30  15  35  1   
 31  16  20  1   
 32  16  36  1   
 33  16  37  1   
 34  17  20  1   
 35  17  38  1   
 36  17  39  1   
 37  18  40  1   
 38  18  41  1   
 39  18  42  1   
 40  19  21  1   
 41  19  22  2   
 42  20  43  1   
 43  20  44  1   
 44  21  23  1   
 45  22  24  1   
 46  22  45  1   
 47  23  24  2   
 48  24  25  1   
 49  25  46  1   
 50  25  47  1   
 51  25  48  1   
@<TRIPOS>SUBSTRUCTURE
  1 ****   3 GROUP 4 **** **** 0

# MOE 2024.06 (io_trps.svl 2023.06)
