@<TRIPOS>MOLECULE
NONAME
49 51 1 0 0 
SMALL
USER_CHARGES


@<TRIPOS>ATOM
  1 S       -0.0230    -0.4140     0.8610 S.3   1 <1>  -0.0800 
  2 C       -1.5830    -0.9460     0.3190 C.2   1 <1>   0.4420 
  3 C       -0.4270     1.1520     0.2470 C.2   1 <1>   0.1980 
  4 N       -2.2460     0.0010    -0.2400 N.2   1 <1>  -0.3380 
  5 N       -1.9010    -2.2700     0.5410 N.am  1 <1>  -0.4940 
  6 N       -1.5820     1.1940    -0.2770 N.2   1 <1>  -0.3380 
  7 C        0.5790     2.2730     0.3840 C.3   1 <1>   0.0200 
  8 C       -3.0690    -2.9260     0.2710 C.2   1 <1>   0.5690 
  9 C       -0.0060     3.5400    -0.2530 C.3   1 <1>   0.3430 
 10 O       -4.0490    -2.3900    -0.1720 O.2   1 <1>  -0.5700 
 11 C       -3.1370    -4.4150     0.5540 C.3   1 <1>  -0.0990 
 12 N        0.9420     4.7040    -0.2280 N.4   1 <1>  -0.9590 
 13 C       -3.6480    -5.2020    -0.6650 C.3   1 <1>  -0.0220 
 14 C        1.1760     5.2260     1.1580 C.3   1 <1>   0.2630 
 15 C        0.4110     5.7980    -1.1000 C.3   1 <1>   0.2630 
 16 C       -3.7380    -6.7010    -0.3550 C.2   1 <1>  -0.1240 
 17 C       -2.6330    -7.5670    -0.6760 C.2   1 <1>   0.3750 
 18 C       -4.8550    -7.2400     0.2270 C.2   1 <1>  -0.1690 
 19 N       -2.6340    -8.8370    -0.4460 N.2   1 <1>  -0.5760 
 20 C       -1.3710    -7.0220    -1.3210 C.3   1 <1>  -0.1790 
 21 N       -4.8450    -8.6100     0.4560 N.pl3 1 <1>   0.6010 
 22 C       -6.1230    -6.4990     0.6620 C.3   1 <1>  -0.1020 
 23 C       -3.7600    -9.3620     0.1280 C.2   1 <1>   0.3120 
 24 N       -5.7660    -9.4060     0.9950 N.2   1 <1>  -0.7070 
 25 N       -3.9510   -10.6060     0.4340 N.2   1 <1>  -0.5650 
 26 C       -5.1770   -10.5600     0.9510 C.2   1 <1>   0.3660 
 27 H       -1.1660    -2.8190     0.9760 H     1 <1>   0.3700 
 28 H        1.4840     1.9880    -0.1190 H     1 <1>   0.0800 
 29 H        0.7770     2.4270     1.4280 H     1 <1>   0.0800 
 30 H       -0.9200     3.8010     0.2570 H     1 <1>   0.0800 
 31 H       -0.2640     3.3110    -1.2750 H     1 <1>   0.0800 
 32 H       -3.8070    -4.5640     1.3810 H     1 <1>   0.0800 
 33 H       -2.1700    -4.7830     0.8430 H     1 <1>   0.0800 
 34 H        1.8460     4.4010    -0.6250 H     1 <1>   0.4500 
 35 H       -3.0140    -5.0130    -1.5110 H     1 <1>   0.0800 
 36 H       -4.6160    -4.8310    -0.9520 H     1 <1>   0.0800 
 37 H        0.2440     5.5380     1.6030 H     1 <1>   0.0800 
 38 H        1.8430     6.0730     1.1310 H     1 <1>   0.0800 
 39 H        1.6180     4.4650     1.7800 H     1 <1>   0.0800 
 40 H       -0.5390     6.1470    -0.7290 H     1 <1>   0.0800 
 41 H        0.2740     5.4410    -2.1090 H     1 <1>   0.0800 
 42 H        1.0980     6.6290    -1.1220 H     1 <1>   0.0800 
 43 H       -0.9640    -6.2180    -0.7390 H     1 <1>   0.0800 
 44 H       -1.5860    -6.6790    -2.3160 H     1 <1>   0.0800 
 45 H       -0.6260    -7.7950    -1.3900 H     1 <1>   0.0800 
 46 H       -6.3400    -6.7250     1.6920 H     1 <1>   0.0800 
 47 H       -6.9570    -6.8280     0.0660 H     1 <1>   0.0800 
 48 H       -6.0440    -5.4330     0.5730 H     1 <1>   0.0800 
 49 H       -5.6460   -11.4620     1.3140 H     1 <1>   0.1500 
@<TRIPOS>BOND
  1   1   2  1   
  2   1   3  1   
  3   2   4  2   
  4   2   5  1   
  5   3   6  2   
  6   3   7  1   
  7   4   6  1   
  8   5   8  am  
  9   5  27  1   
 10   7   9  1   
 11   7  28  1   
 12   7  29  1   
 13   8  10  2   
 14   8  11  1   
 15   9  12  1   
 16   9  30  1   
 17   9  31  1   
 18  11  13  1   
 19  11  32  1   
 20  11  33  1   
 21  12  14  1   
 22  12  15  1   
 23  12  34  1   
 24  13  16  1   
 25  13  35  1   
 26  13  36  1   
 27  14  37  1   
 28  14  38  1   
 29  14  39  1   
 30  15  40  1   
 31  15  41  1   
 32  15  42  1   
 33  16  17  1   
 34  16  18  2   
 35  17  19  2   
 36  17  20  1   
 37  18  21  1   
 38  18  22  1   
 39  19  23  1   
 40  20  43  1   
 41  20  44  1   
 42  20  45  1   
 43  21  23  1   
 44  21  24  1   
 45  22  46  1   
 46  22  47  1   
 47  22  48  1   
 48  23  25  2   
 49  24  26  2   
 50  25  26  1   
 51  26  49  1   
@<TRIPOS>SUBSTRUCTURE
  1 ****   8 GROUP 4 **** **** 0

# MOE 2024.06 (io_trps.svl 2023.06)
