@<TRIPOS>MOLECULE
NONAME
25 25 1 0 0 
SMALL
USER_CHARGES


@<TRIPOS>ATOM
  1 O        6.6160     1.9340     0.6740 O.3   1 <1>  -0.5600 
  2 C        6.5800     0.7360    -0.0330 C.3   1 <1>   0.2000 
  3 C        6.2690     3.0800    -0.0450 C.3   1 <1>   0.0400 
  4 C        5.4230    -0.1330     0.5070 C.3   1 <1>  -0.0800 
  5 C        7.9400     0.0520     0.1920 C.3   1 <1>   0.3430 
  6 C        5.5250    -1.5680    -0.0430 C.3   1 <1>  -0.1600 
  7 C        4.0410     0.4530     0.1780 C.3   1 <1>  -0.2400 
  8 N        7.9670    -1.3530    -0.3370 N.4   1 <1>  -0.9060 
  9 C        6.8890    -2.1980     0.2470 C.3   1 <1>   0.3430 
 10 H        6.4470     0.9390    -1.0830 H     1 <1>   0.0800 
 11 H        6.2920     3.9190     0.6300 H     1 <1>   0.0800 
 12 H        5.2770     2.9710    -0.4470 H     1 <1>   0.0800 
 13 H        6.9820     3.2360    -0.8360 H     1 <1>   0.0800 
 14 H        5.5170    -0.1810     1.5800 H     1 <1>   0.0800 
 15 H        8.1330     0.0370     1.2520 H     1 <1>   0.0800 
 16 H        8.7080     0.6400    -0.2840 H     1 <1>   0.0800 
 17 H        5.3430    -1.5760    -1.1040 H     1 <1>   0.0800 
 18 H        4.7650    -2.1770     0.4160 H     1 <1>   0.0800 
 19 H        3.9140     0.5760    -0.8840 H     1 <1>   0.0800 
 20 H        3.9200     1.4110     0.6530 H     1 <1>   0.0800 
 21 H        3.2610    -0.1920     0.5440 H     1 <1>   0.0800 
 22 H        7.8620    -1.3340    -1.3590 H     1 <1>   0.4500 
 23 H        8.8830    -1.7740    -0.1370 H     1 <1>   0.4500 
 24 H        6.9270    -3.1910    -0.1720 H     1 <1>   0.0800 
 25 H        7.0260    -2.2760     1.3150 H     1 <1>   0.0800 
@<TRIPOS>BOND
  1   1   2  1   
  2   1   3  1   
  3   2   4  1   
  4   2   5  1   
  5   2  10  1   
  6   3  11  1   
  7   3  12  1   
  8   3  13  1   
  9   4   6  1   
 10   4   7  1   
 11   4  14  1   
 12   5   8  1   
 13   5  15  1   
 14   5  16  1   
 15   6   9  1   
 16   6  17  1   
 17   6  18  1   
 18   7  19  1   
 19   7  20  1   
 20   7  21  1   
 21   8   9  1   
 22   8  22  1   
 23   8  23  1   
 24   9  24  1   
 25   9  25  1   
@<TRIPOS>SUBSTRUCTURE
  1 ****   2 GROUP 4 **** **** 0

# MOE 2024.06 (io_trps.svl 2023.06)
