@<TRIPOS>MOLECULE
NONAME
46 47 1 0 0 
SMALL
USER_CHARGES


@<TRIPOS>ATOM
  1 O       -0.6080     0.1420     0.1910 O.3   1 <1>  -0.3630 
  2 C       -0.3810     1.4780     0.0760 C.ar  1 <1>   0.0830 
  3 C       -1.8290    -0.4330    -0.1940 C.3   1 <1>   0.1200 
  4 C        0.8290     1.9690     0.5570 C.ar  1 <1>  -0.1440 
  5 C       -1.3000     2.3560    -0.4960 C.ar  1 <1>  -0.1500 
  6 C       -1.7340    -1.9290     0.1170 C.3   1 <1>   0.3430 
  7 C        1.1010     3.3250     0.4660 C.ar  1 <1>  -0.1500 
  8 C        1.8580     1.0380     1.1830 C.3   1 <1>  -0.0960 
  9 C       -1.0140     3.7060    -0.5800 C.ar  1 <1>  -0.1500 
 10 N       -2.9880    -2.6820    -0.2250 N.4   1 <1>  -0.9590 
 11 C        0.1860     4.1980    -0.0980 C.ar  1 <1>  -0.1430 
 12 C       -2.7060    -4.1530    -0.1790 C.3   1 <1>   0.3430 
 13 C       -4.1380    -2.3020     0.6540 C.3   1 <1>   0.3430 
 14 C        0.5030     5.6800    -0.1900 C.3   1 <1>  -0.0970 
 15 C       -3.9340    -4.9580    -0.6130 C.3   1 <1>  -0.0800 
 16 C       -5.3920    -3.0720     0.2420 C.3   1 <1>  -0.1600 
 17 C       -5.1660    -4.5850     0.2230 C.3   1 <1>   0.2000 
 18 C       -3.6400    -6.4630    -0.5660 C.3   1 <1>   0.1200 
 19 O       -5.0070    -5.0230     1.5270 O.3   1 <1>  -0.6800 
 20 O       -2.4510    -6.6840    -1.2400 O.3   1 <1>  -0.6800 
 21 H       -2.6080     0.0400     0.3750 H     1 <1>   0.0800 
 22 H       -1.9590    -0.2660    -1.2490 H     1 <1>   0.0800 
 23 H       -2.2410     2.0190    -0.8840 H     1 <1>   0.1500 
 24 H       -1.5140    -2.0520     1.1650 H     1 <1>   0.0800 
 25 H       -0.9110    -2.3330    -0.4490 H     1 <1>   0.0800 
 26 H        2.0360     3.7090     0.8360 H     1 <1>   0.1500 
 27 H        2.7300     1.5800     1.4990 H     1 <1>   0.0800 
 28 H        2.1600     0.2950     0.4670 H     1 <1>   0.0800 
 29 H        1.4330     0.5460     2.0390 H     1 <1>   0.0800 
 30 H       -1.7290     4.3770    -1.0240 H     1 <1>   0.1500 
 31 H       -3.2360    -2.4610    -1.2000 H     1 <1>   0.4500 
 32 H       -1.8850    -4.3910    -0.8370 H     1 <1>   0.0800 
 33 H       -2.4250    -4.4450     0.8190 H     1 <1>   0.0800 
 34 H       -3.9010    -2.5270     1.6820 H     1 <1>   0.0800 
 35 H       -4.3320    -1.2440     0.5790 H     1 <1>   0.0800 
 36 H       -0.4020     6.2600    -0.2180 H     1 <1>   0.0800 
 37 H        1.0690     5.8750    -1.0830 H     1 <1>   0.0800 
 38 H        1.0790     5.9930     0.6620 H     1 <1>   0.0800 
 39 H       -4.1460    -4.7170    -1.6400 H     1 <1>   0.0800 
 40 H       -5.6950    -2.7480    -0.7370 H     1 <1>   0.0800 
 41 H       -6.2010    -2.8410     0.9130 H     1 <1>   0.0800 
 42 H       -6.0400    -5.0810    -0.1690 H     1 <1>   0.0800 
 43 H       -4.4220    -7.0240    -1.0520 H     1 <1>   0.0800 
 44 H       -3.5230    -6.8180     0.4450 H     1 <1>   0.0800 
 45 H       -4.2820    -4.5830     2.0050 H     1 <1>   0.4000 
 46 H       -2.2740    -7.6450    -1.3260 H     1 <1>   0.4000 
@<TRIPOS>BOND
  1   1   2  1   
  2   1   3  1   
  3   2   4  ar  
  4   2   5  ar  
  5   3   6  1   
  6   3  21  1   
  7   3  22  1   
  8   4   7  ar  
  9   4   8  1   
 10   5   9  ar  
 11   5  23  1   
 12   6  10  1   
 13   6  24  1   
 14   6  25  1   
 15   7  11  ar  
 16   7  26  1   
 17   8  27  1   
 18   8  28  1   
 19   8  29  1   
 20   9  11  ar  
 21   9  30  1   
 22  10  12  1   
 23  10  13  1   
 24  10  31  1   
 25  11  14  1   
 26  12  15  1   
 27  12  32  1   
 28  12  33  1   
 29  13  16  1   
 30  13  34  1   
 31  13  35  1   
 32  14  36  1   
 33  14  37  1   
 34  14  38  1   
 35  15  17  1   
 36  15  18  1   
 37  15  39  1   
 38  16  17  1   
 39  16  40  1   
 40  16  41  1   
 41  17  19  1   
 42  17  42  1   
 43  18  20  1   
 44  18  43  1   
 45  18  44  1   
 46  19  45  1   
 47  20  46  1   
@<TRIPOS>SUBSTRUCTURE
  1 ****   3 GROUP 4 **** **** 0

# MOE 2024.06 (io_trps.svl 2023.06)
