@<TRIPOS>MOLECULE
NONAME
48 50 1 0 0 
SMALL
USER_CHARGES


@<TRIPOS>ATOM
  1 O       -0.4420    -0.0610    -1.2960 O.2   1 <1>  -0.5700 
  2 C       -1.3830     0.6710    -1.0560 C.2   1 <1>   0.5440 
  3 N       -2.6080     0.1060    -0.7820 N.am  1 <1>  -0.6600 
  4 C       -1.1950     2.1090    -1.0430 C.ar  1 <1>   0.0860 
  5 C       -3.7530     0.8320    -0.1760 C.3   1 <1>   0.1400 
  6 C       -2.8180    -1.3590    -0.7030 C.3   1 <1>   0.1400 
  7 C       -0.2350     2.6920    -0.2180 C.ar  1 <1>  -0.1500 
  8 C       -1.9590     2.9550    -1.8450 C.ar  1 <1>  -0.1500 
  9 C       -4.7220    -0.2580     0.2870 C.3   1 <1>   0.2000 
 10 C       -3.9030    -1.5470     0.3560 C.3   1 <1>  -0.0800 
 11 C       -0.0490     4.0640    -0.1640 C.ar  1 <1>  -0.1440 
 12 C       -1.7870     4.3250    -1.8050 C.ar  1 <1>  -0.1500 
 13 O       -5.2530     0.0320     1.5330 O.3   1 <1>  -0.6800 
 14 C       -4.7570    -2.8080     0.1520 C.3   1 <1>  -0.0170 
 15 C       -0.8370     4.8780    -0.9650 C.ar  1 <1>  -0.1500 
 16 C        1.0130     4.6520     0.7620 C.3   1 <1>   0.0630 
 17 C       -3.9070    -4.0660     0.2300 C.ar  1 <1>  -0.1430 
 18 C        0.3770     5.5660     1.8140 C.3   1 <1>  -0.2400 
 19 C        2.0810     5.4050    -0.0380 C.3   1 <1>  -0.2400 
 20 C       -3.5640    -4.6330     1.4400 C.ar  1 <1>  -0.1500 
 21 C       -3.4330    -4.7050    -0.8980 C.ar  1 <1>  -0.1500 
 22 C       -2.7840    -5.7780     1.4640 C.ar  1 <1>   0.1600 
 23 C       -2.6590    -5.8460    -0.7640 C.ar  1 <1>   0.1600 
 24 N       -2.3230    -6.3980     0.3900 N.ar  1 <1>  -0.6200 
 25 H       -3.4060     1.4230     0.6530 H     1 <1>   0.0800 
 26 H       -4.2240     1.4620    -0.9090 H     1 <1>   0.0800 
 27 H       -3.1490    -1.7120    -1.6640 H     1 <1>   0.0800 
 28 H       -1.9120    -1.8740    -0.4290 H     1 <1>   0.0800 
 29 H        0.3700     2.0400     0.3870 H     1 <1>   0.1500 
 30 H       -2.6910     2.5280    -2.5070 H     1 <1>   0.1500 
 31 H       -5.5330    -0.3450    -0.4150 H     1 <1>   0.0800 
 32 H       -3.4050    -1.6040     1.3090 H     1 <1>   0.0800 
 33 H       -2.3870     4.9650    -2.4290 H     1 <1>   0.1500 
 34 H       -4.5410     0.0990     2.1980 H     1 <1>   0.4000 
 35 H       -5.2560    -2.7650    -0.8000 H     1 <1>   0.0800 
 36 H       -5.5180    -2.8480     0.9130 H     1 <1>   0.0800 
 37 H       -0.7120     5.9460    -0.9430 H     1 <1>   0.1500 
 38 H        1.5030     3.8460     1.2820 H     1 <1>   0.0800 
 39 H       -0.0860     6.4190     1.3520 H     1 <1>   0.0800 
 40 H        1.1230     5.9130     2.5060 H     1 <1>   0.0800 
 41 H       -0.3730     5.0240     2.3630 H     1 <1>   0.0800 
 42 H        1.6570     6.2540    -0.5410 H     1 <1>   0.0800 
 43 H        2.5120     4.7500    -0.7750 H     1 <1>   0.0800 
 44 H        2.8640     5.7460     0.6150 H     1 <1>   0.0800 
 45 H       -3.8950    -4.1970     2.3650 H     1 <1>   0.1500 
 46 H       -3.6560    -4.3300    -1.8800 H     1 <1>   0.1500 
 47 H       -2.5260    -6.2060     2.4180 H     1 <1>   0.1500 
 48 H       -2.2960    -6.3300    -1.6550 H     1 <1>   0.1500 
@<TRIPOS>BOND
  1   1   2  2   
  2   2   3  am  
  3   2   4  1   
  4   3   5  1   
  5   3   6  1   
  6   4   7  ar  
  7   4   8  ar  
  8   5   9  1   
  9   5  25  1   
 10   5  26  1   
 11   6  10  1   
 12   6  27  1   
 13   6  28  1   
 14   7  11  ar  
 15   7  29  1   
 16   8  12  ar  
 17   8  30  1   
 18   9  10  1   
 19   9  13  1   
 20   9  31  1   
 21  10  14  1   
 22  10  32  1   
 23  11  15  ar  
 24  11  16  1   
 25  12  15  ar  
 26  12  33  1   
 27  13  34  1   
 28  14  17  1   
 29  14  35  1   
 30  14  36  1   
 31  15  37  1   
 32  16  18  1   
 33  16  19  1   
 34  16  38  1   
 35  17  20  ar  
 36  17  21  ar  
 37  18  39  1   
 38  18  40  1   
 39  18  41  1   
 40  19  42  1   
 41  19  43  1   
 42  19  44  1   
 43  20  22  ar  
 44  20  45  1   
 45  21  23  ar  
 46  21  46  1   
 47  22  24  ar  
 48  22  47  1   
 49  23  24  ar  
 50  23  48  1   
@<TRIPOS>SUBSTRUCTURE
  1 ****   3 GROUP 4 **** **** 0

# MOE 2024.06 (io_trps.svl 2023.06)
