@<TRIPOS>MOLECULE
NONAME
64 67 1 0 0 
SMALL
USER_CHARGES


@<TRIPOS>ATOM
  1 O       -2.7000     2.7070     1.9890 O.2   1 <1>  -0.5700 
  2 C       -2.8620     2.2050     0.9030 C.2   1 <1>   0.5690 
  3 N       -3.9390     1.4060     0.6240 N.am  1 <1>  -0.6600 
  4 C       -1.8070     2.5090    -0.1420 C.3   1 <1>  -0.0990 
  5 C       -4.3500     0.9010    -0.7170 C.3   1 <1>   0.1400 
  6 C       -4.8820     0.9830     1.7000 C.3   1 <1>   0.1400 
  7 C       -0.4460     2.7310     0.5410 C.3   1 <1>   0.4230 
  8 C       -4.3500    -0.6290    -0.6910 C.3   1 <1>  -0.1600 
  9 C       -4.9060    -0.5470     1.7670 C.3   1 <1>  -0.1600 
 10 N        0.5720     3.3330    -0.3920 N.4   1 <1>  -0.9590 
 11 C        0.0980     1.3940     1.0830 C.3   1 <1>  -0.1600 
 12 C       -5.2720    -1.1770     0.4110 C.3   1 <1>   0.4240 
 13 C        1.8790     3.5580     0.2980 C.3   1 <1>   0.3430 
 14 C        0.1310     4.6310    -0.9950 C.3   1 <1>   0.2630 
 15 C        1.4660     1.5450     1.7570 C.3   1 <1>  -0.1600 
 16 O       -6.5620    -0.7370     0.0580 O.3   1 <1>  -0.5600 
 17 C       -5.1850    -2.7170     0.4640 C.ar  1 <1>  -0.1440 
 18 C        2.4470     2.2350     0.8070 C.3   1 <1>  -0.1600 
 19 C       -7.6480    -1.4380     0.5820 C.3   1 <1>   0.1200 
 20 C       -6.3060    -3.5110     0.2680 C.ar  1 <1>  -0.1440 
 21 C       -3.9720    -3.3450     0.7140 C.ar  1 <1>  -0.1500 
 22 C       -7.6460    -2.8520     0.0070 C.3   1 <1>  -0.0170 
 23 C       -6.2080    -4.8920     0.3150 C.ar  1 <1>  -0.1500 
 24 C       -3.8510    -4.7230     0.7600 C.ar  1 <1>   0.0820 
 25 C       -4.9910    -5.5210     0.5640 C.ar  1 <1>   0.0820 
 26 O       -2.5800    -5.1610     1.0010 O.3   1 <1>  -0.3630 
 27 O       -4.9020    -6.8830     0.6340 O.3   1 <1>  -0.3620 
 28 C       -2.1540    -6.4670     0.6870 C.3   1 <1>   0.0400 
 29 C       -6.0330    -7.7210     0.5470 C.3   1 <1>   0.0400 
 30 H       -2.1450     3.3870    -0.6540 H     1 <1>   0.0800 
 31 H       -1.7220     1.6970    -0.8380 H     1 <1>   0.0800 
 32 H       -3.7030     1.2570    -1.4960 H     1 <1>   0.0800 
 33 H       -5.3430     1.2580    -0.9350 H     1 <1>   0.0800 
 34 H       -5.8670     1.3590     1.4780 H     1 <1>   0.0800 
 35 H       -4.5820     1.3800     2.6550 H     1 <1>   0.0800 
 36 H       -0.5880     3.4040     1.3730 H     1 <1>   0.0800 
 37 H       -3.3440    -0.9680    -0.5370 H     1 <1>   0.0800 
 38 H       -4.6790    -1.0120    -1.6400 H     1 <1>   0.0800 
 39 H       -5.5970    -0.8700     2.5220 H     1 <1>   0.0800 
 40 H       -3.9330    -0.8830     2.0700 H     1 <1>   0.0800 
 41 H        0.7400     2.6470    -1.1390 H     1 <1>   0.4500 
 42 H        0.1690     0.6770     0.2840 H     1 <1>   0.0800 
 43 H       -0.5890     0.9940     1.8090 H     1 <1>   0.0800 
 44 H        1.7390     4.2300     1.1310 H     1 <1>   0.0800 
 45 H        2.5840     4.0070    -0.3830 H     1 <1>   0.0800 
 46 H       -0.1310     5.3340    -0.2200 H     1 <1>   0.0800 
 47 H       -0.7250     4.4840    -1.6330 H     1 <1>   0.0800 
 48 H        0.9240     5.0550    -1.5900 H     1 <1>   0.0800 
 49 H        1.8450     0.5760     2.0380 H     1 <1>   0.0800 
 50 H        1.3600     2.1280     2.6570 H     1 <1>   0.0800 
 51 H        3.3690     2.4260     1.3280 H     1 <1>   0.0800 
 52 H        2.6740     1.5930    -0.0260 H     1 <1>   0.0800 
 53 H       -8.5450    -0.9180     0.2990 H     1 <1>   0.0800 
 54 H       -7.5750    -1.4570     1.6550 H     1 <1>   0.0800 
 55 H       -3.0830    -2.7670     0.8800 H     1 <1>   0.1500 
 56 H       -7.8290    -2.8070    -1.0520 H     1 <1>   0.0800 
 57 H       -8.4370    -3.4190     0.4630 H     1 <1>   0.0800 
 58 H       -7.1010    -5.4640     0.1530 H     1 <1>   0.1500 
 59 H       -1.0820    -6.4930     0.7420 H     1 <1>   0.0800 
 60 H       -2.4790    -6.7120    -0.3090 H     1 <1>   0.0800 
 61 H       -2.5710    -7.1500     1.4050 H     1 <1>   0.0800 
 62 H       -5.7050    -8.7370     0.6720 H     1 <1>   0.0800 
 63 H       -6.4840    -7.6010    -0.4220 H     1 <1>   0.0800 
 64 H       -6.7220    -7.4610     1.3310 H     1 <1>   0.0800 
@<TRIPOS>BOND
  1   1   2  2   
  2   2   3  am  
  3   2   4  1   
  4   3   5  1   
  5   3   6  1   
  6   4   7  1   
  7   4  30  1   
  8   4  31  1   
  9   5   8  1   
 10   5  32  1   
 11   5  33  1   
 12   6   9  1   
 13   6  34  1   
 14   6  35  1   
 15   7  10  1   
 16   7  11  1   
 17   7  36  1   
 18   8  12  1   
 19   8  37  1   
 20   8  38  1   
 21   9  12  1   
 22   9  39  1   
 23   9  40  1   
 24  10  13  1   
 25  10  14  1   
 26  10  41  1   
 27  11  15  1   
 28  11  42  1   
 29  11  43  1   
 30  12  16  1   
 31  12  17  1   
 32  13  18  1   
 33  13  44  1   
 34  13  45  1   
 35  14  46  1   
 36  14  47  1   
 37  14  48  1   
 38  15  18  1   
 39  15  49  1   
 40  15  50  1   
 41  16  19  1   
 42  17  20  ar  
 43  17  21  ar  
 44  18  51  1   
 45  18  52  1   
 46  19  22  1   
 47  19  53  1   
 48  19  54  1   
 49  20  22  1   
 50  20  23  ar  
 51  21  24  ar  
 52  21  55  1   
 53  22  56  1   
 54  22  57  1   
 55  23  25  ar  
 56  23  58  1   
 57  24  25  ar  
 58  24  26  1   
 59  25  27  1   
 60  26  28  1   
 61  27  29  1   
 62  28  59  1   
 63  28  60  1   
 64  28  61  1   
 65  29  62  1   
 66  29  63  1   
 67  29  64  1   
@<TRIPOS>SUBSTRUCTURE
  1 ****   8 GROUP 4 **** **** 0

# MOE 2024.06 (io_trps.svl 2023.06)
