@<TRIPOS>MOLECULE
NONAME
46 48 1 0 0 
SMALL
USER_CHARGES


@<TRIPOS>ATOM
  1 S        0.3240     0.9470     0.1020 S.o2  1 <1>   1.3330 
  2 O        0.2510     2.2460     0.7350 O.2   1 <1>  -0.6500 
  3 O        0.3610     0.9420    -1.3430 O.2   1 <1>  -0.6500 
  4 N        1.7850     0.2690     0.6430 N.am  1 <1>  -0.8490 
  5 C       -0.9620    -0.1450     0.7240 C.3   1 <1>   0.0890 
  6 C        2.5850     1.0200     1.6540 C.3   1 <1>   0.1960 
  7 C        2.5640    -0.4830    -0.3550 C.3   1 <1>   0.1960 
  8 C       -0.7930    -1.5880     0.2600 C.ar  1 <1>  -0.1440 
  9 C        3.5110     2.1420     1.0940 C.3   1 <1>   0.4230 
 10 C        3.5740     0.3440    -1.1940 C.3   1 <1>  -0.0800 
 11 C       -0.2250    -2.5310     1.1080 C.ar  1 <1>  -0.1500 
 12 C       -1.1880    -1.9540    -1.0210 C.ar  1 <1>  -0.1500 
 13 N        2.9610     2.6560    -0.2160 N.4   1 <1>  -0.9590 
 14 C        4.9910     1.6660     1.0770 C.3   1 <1>   0.1200 
 15 C        5.0220     0.1540    -0.7190 C.3   1 <1>   0.1200 
 16 C        3.2770     1.8370    -1.4310 C.3   1 <1>   0.3430 
 17 C       -0.0530    -3.8380     0.6820 C.ar  1 <1>  -0.1500 
 18 C       -1.0210    -3.2570    -1.4570 C.ar  1 <1>  -0.1500 
 19 C        3.3360     4.1130    -0.4600 C.3   1 <1>   0.2370 
 20 O        5.1200     0.3400     0.6520 O.3   1 <1>  -0.5600 
 21 C       -0.4550    -4.1760    -0.5950 C.ar  1 <1>   0.1900 
 22 C        4.8340     4.4080    -0.5370 C.2   1 <1>   0.9060 
 23 F       -0.2920    -5.4050    -1.0020 F     1 <1>  -0.1900 
 24 O        5.4350     4.1070    -1.5720 O.co2 1 <1>  -0.9000 
 25 O        5.3960     4.7780     0.4970 O.co2 1 <1>  -0.9000 
 26 H       -0.9570    -0.1190     1.7960 H     1 <1>   0.0800 
 27 H       -1.9190     0.2150     0.3980 H     1 <1>   0.0800 
 28 H        1.9170     1.4650     2.3710 H     1 <1>   0.0800 
 29 H        3.1810     0.3170     2.2110 H     1 <1>   0.0800 
 30 H        3.0990    -1.2660     0.1560 H     1 <1>   0.0800 
 31 H        1.8810    -0.9820    -1.0240 H     1 <1>   0.0800 
 32 H        3.4800     2.9590     1.7950 H     1 <1>   0.0800 
 33 H        3.5620    -0.0940    -2.1750 H     1 <1>   0.0800 
 34 H        0.0890    -2.2580     2.1010 H     1 <1>   0.1500 
 35 H       -1.6240    -1.2290    -1.6890 H     1 <1>   0.1500 
 36 H        1.9360     2.6350    -0.0930 H     1 <1>   0.4500 
 37 H        5.3640     1.6960     2.0850 H     1 <1>   0.0800 
 38 H        5.6340     2.2900     0.4860 H     1 <1>   0.0800 
 39 H        5.7020     0.8280    -1.2180 H     1 <1>   0.0800 
 40 H        5.3410    -0.8540    -0.9180 H     1 <1>   0.0800 
 41 H        2.4480     1.9150    -2.1150 H     1 <1>   0.0800 
 42 H        4.1350     2.2650    -1.9270 H     1 <1>   0.0800 
 43 H        0.3840    -4.5830     1.3240 H     1 <1>   0.1500 
 44 H       -1.3210    -3.5590    -2.4450 H     1 <1>   0.1500 
 45 H        2.9020     4.4470    -1.3840 H     1 <1>   0.0800 
 46 H        2.9430     4.7230     0.3330 H     1 <1>   0.0800 
@<TRIPOS>BOND
  1   1   2  2   
  2   1   3  2   
  3   1   4  am  
  4   1   5  1   
  5   4   6  1   
  6   4   7  1   
  7   5   8  1   
  8   5  26  1   
  9   5  27  1   
 10   6   9  1   
 11   6  28  1   
 12   6  29  1   
 13   7  10  1   
 14   7  30  1   
 15   7  31  1   
 16   8  11  ar  
 17   8  12  ar  
 18   9  13  1   
 19   9  14  1   
 20   9  32  1   
 21  10  15  1   
 22  10  16  1   
 23  10  33  1   
 24  11  17  ar  
 25  11  34  1   
 26  12  18  ar  
 27  12  35  1   
 28  13  16  1   
 29  13  19  1   
 30  13  36  1   
 31  14  20  1   
 32  14  37  1   
 33  14  38  1   
 34  15  20  1   
 35  15  39  1   
 36  15  40  1   
 37  16  41  1   
 38  16  42  1   
 39  17  21  ar  
 40  17  43  1   
 41  18  21  ar  
 42  18  44  1   
 43  19  22  1   
 44  19  45  1   
 45  19  46  1   
 46  21  23  1   
 47  22  24  ar  
 48  22  25  ar  
@<TRIPOS>SUBSTRUCTURE
  1 ****   4 GROUP 4 **** **** 0

# MOE 2024.06 (io_trps.svl 2023.06)
