@<TRIPOS>MOLECULE
NONAME
59 61 1 0 0 
SMALL
USER_CHARGES


@<TRIPOS>ATOM
  1 O       -0.7360     0.1130    -0.2860 O.2   1 <1>  -0.5700 
  2 C       -1.2540     1.1850    -0.5200 C.2   1 <1>   0.5690 
  3 N       -2.4780     1.2260    -1.1560 N.am  1 <1>  -0.6600 
  4 C       -0.5260     2.4810    -0.0650 C.3   1 <1>   0.2610 
  5 C       -3.0790    -0.0340    -1.6830 C.3   1 <1>   0.1400 
  6 C       -3.2830     2.4690    -1.3520 C.3   1 <1>   0.1400 
  7 O       -0.3820     3.3930    -1.1210 O.3   1 <1>  -0.6800 
  8 C        0.8650     2.2710     0.5920 C.3   1 <1>  -0.0800 
  9 C       -3.8980    -0.7550    -0.6020 C.3   1 <1>   0.1400 
 10 C       -4.7710     2.2900    -1.0150 C.3   1 <1>  -0.1600 
 11 C        1.3410     3.5510     1.3110 C.3   1 <1>  -0.1600 
 12 C        1.9560     1.7820    -0.3900 C.3   1 <1>  -0.1600 
 13 N       -5.1860    -0.0490    -0.2940 N.am  1 <1>  -0.6600 
 14 C       -5.0430     1.3610     0.1740 C.3   1 <1>   0.1400 
 15 C        2.6820     3.3310     2.0260 C.3   1 <1>  -0.1600 
 16 C        3.2910     1.5540     0.3310 C.3   1 <1>  -0.1600 
 17 C       -6.4490    -0.5760    -0.4750 C.2   1 <1>   0.5690 
 18 C        3.7540     2.8240     1.0540 C.3   1 <1>  -0.1600 
 19 O       -7.4080     0.1600    -0.5410 O.2   1 <1>  -0.5700 
 20 C       -6.6780    -2.0940    -0.6360 C.3   1 <1>   0.1240 
 21 C       -7.8970    -2.6330     0.1270 C.ar  1 <1>  -0.1440 
 22 C       -6.7630    -2.4940    -2.1190 C.3   1 <1>  -0.2400 
 23 C       -9.1870    -2.2270    -0.1900 C.ar  1 <1>  -0.1500 
 24 C       -7.7230    -3.5580     1.1490 C.ar  1 <1>  -0.1500 
 25 C      -10.2770    -2.7340     0.4960 C.ar  1 <1>  -0.1500 
 26 C       -8.8120    -4.0660     1.8370 C.ar  1 <1>  -0.1500 
 27 C      -10.0910    -3.6550     1.5100 C.ar  1 <1>  -0.1500 
 28 H       -1.1640     2.9510     0.6610 H     1 <1>   0.0800 
 29 H       -3.6970     0.1720    -2.5390 H     1 <1>   0.0800 
 30 H       -2.2890    -0.6890    -2.0080 H     1 <1>   0.0800 
 31 H       -2.9000     3.2520    -0.7230 H     1 <1>   0.0800 
 32 H       -3.1810     2.7980    -2.3720 H     1 <1>   0.0800 
 33 H        0.2430     3.0210    -1.7730 H     1 <1>   0.4000 
 34 H        0.7420     1.5130     1.3480 H     1 <1>   0.0800 
 35 H       -3.3090    -0.8410     0.2950 H     1 <1>   0.0800 
 36 H       -4.0860    -1.7470    -0.9620 H     1 <1>   0.0800 
 37 H       -5.1670     3.2620    -0.7830 H     1 <1>   0.0800 
 38 H       -5.3100     1.9400    -1.8770 H     1 <1>   0.0800 
 39 H        1.4530     4.3480     0.5950 H     1 <1>   0.0800 
 40 H        0.6060     3.8600     2.0320 H     1 <1>   0.0800 
 41 H        1.6530     0.8610    -0.8550 H     1 <1>   0.0800 
 42 H        2.1080     2.5110    -1.1660 H     1 <1>   0.0800 
 43 H       -5.9550     1.6690     0.6570 H     1 <1>   0.0800 
 44 H       -4.2550     1.4300     0.9040 H     1 <1>   0.0800 
 45 H        3.0080     4.2540     2.4730 H     1 <1>   0.0800 
 46 H        2.5500     2.6110     2.8160 H     1 <1>   0.0800 
 47 H        3.1770     0.7560     1.0460 H     1 <1>   0.0800 
 48 H        4.0380     1.2520    -0.3820 H     1 <1>   0.0800 
 49 H        4.6630     2.6210     1.5940 H     1 <1>   0.0800 
 50 H        3.9660     3.5900     0.3280 H     1 <1>   0.0800 
 51 H       -5.8290    -2.5960    -0.2170 H     1 <1>   0.0800 
 52 H       -7.5920    -1.9960    -2.5890 H     1 <1>   0.0800 
 53 H       -6.9040    -3.5560    -2.2070 H     1 <1>   0.0800 
 54 H       -5.8630    -2.2170    -2.6350 H     1 <1>   0.0800 
 55 H       -9.3480    -1.5050    -0.9710 H     1 <1>   0.1500 
 56 H       -6.7380    -3.8920     1.4220 H     1 <1>   0.1500 
 57 H      -11.2700    -2.4060     0.2390 H     1 <1>   0.1500 
 58 H       -8.6640    -4.7810     2.6270 H     1 <1>   0.1500 
 59 H      -10.9380    -4.0480     2.0430 H     1 <1>   0.1500 
@<TRIPOS>BOND
  1   1   2  2   
  2   2   3  am  
  3   2   4  1   
  4   3   5  1   
  5   3   6  1   
  6   4   7  1   
  7   4   8  1   
  8   4  28  1   
  9   5   9  1   
 10   5  29  1   
 11   5  30  1   
 12   6  10  1   
 13   6  31  1   
 14   6  32  1   
 15   7  33  1   
 16   8  11  1   
 17   8  12  1   
 18   8  34  1   
 19   9  13  1   
 20   9  35  1   
 21   9  36  1   
 22  10  14  1   
 23  10  37  1   
 24  10  38  1   
 25  11  15  1   
 26  11  39  1   
 27  11  40  1   
 28  12  16  1   
 29  12  41  1   
 30  12  42  1   
 31  13  14  1   
 32  13  17  am  
 33  14  43  1   
 34  14  44  1   
 35  15  18  1   
 36  15  45  1   
 37  15  46  1   
 38  16  18  1   
 39  16  47  1   
 40  16  48  1   
 41  17  19  2   
 42  17  20  1   
 43  18  49  1   
 44  18  50  1   
 45  20  21  1   
 46  20  22  1   
 47  20  51  1   
 48  21  23  ar  
 49  21  24  ar  
 50  22  52  1   
 51  22  53  1   
 52  22  54  1   
 53  23  25  ar  
 54  23  55  1   
 55  24  26  ar  
 56  24  56  1   
 57  25  27  ar  
 58  25  57  1   
 59  26  27  ar  
 60  26  58  1   
 61  27  59  1   
@<TRIPOS>SUBSTRUCTURE
  1 ****   9 GROUP 4 **** **** 0

# MOE 2024.06 (io_trps.svl 2023.06)
