@<TRIPOS>MOLECULE
NONAME
50 51 1 0 0 
SMALL
USER_CHARGES


@<TRIPOS>ATOM
  1 S       -0.2990    -0.0400     0.2480 S.o2  1 <1>   1.3330 
  2 O       -0.1710    -0.5830     1.5820 O.2   1 <1>  -0.6500 
  3 O       -1.0900     1.1510     0.0360 O.2   1 <1>  -0.6500 
  4 N       -0.9040    -1.2680    -0.7560 N.am  1 <1>  -0.8490 
  5 C        1.3290     0.2590    -0.4430 C.3   1 <1>  -0.0550 
  6 C       -2.3630    -1.2120    -0.8870 C.3   1 <1>   0.1160 
  7 C       -0.4920    -2.6140    -0.3420 C.3   1 <1>   0.1160 
  8 C        2.0880     1.4150     0.2410 C.3   1 <1>  -0.0800 
  9 C        3.3490     1.7720    -0.5260 C.3   1 <1>   0.2200 
 10 C        2.6440     1.0100     1.6120 C.3   1 <1>   0.1200 
 11 N        3.7270     3.1680    -0.2180 N.am  1 <1>  -0.7300 
 12 C        4.3670     0.8220     0.0910 C.3   1 <1>   0.1200 
 13 O        3.9870     0.6690     1.4250 O.3   1 <1>  -0.5600 
 14 C        3.7870     4.1720    -1.1240 C.2   1 <1>   0.5690 
 15 O        3.5290     3.9980    -2.2890 O.2   1 <1>  -0.5700 
 16 C        4.2040     5.5470    -0.6560 C.3   1 <1>  -0.0990 
 17 C        5.6970     5.7850    -0.9020 C.3   1 <1>  -0.0170 
 18 C        6.1110     7.1470    -0.3700 C.ar  1 <1>  -0.1440 
 19 C        6.6540     7.2720     0.8990 C.ar  1 <1>  -0.1500 
 20 C        5.9450     8.2800    -1.1500 C.ar  1 <1>  -0.1500 
 21 C        7.0250     8.5150     1.3820 C.ar  1 <1>  -0.1500 
 22 C        6.3160     9.5230    -0.6670 C.ar  1 <1>  -0.1500 
 23 C        6.8570     9.6480     0.6020 C.ar  1 <1>  -0.1440 
 24 C        7.2670    11.0110     1.1310 C.3   1 <1>  -0.0970 
 25 H        1.9130    -0.6390    -0.3870 H     1 <1>   0.0800 
 26 H        1.2030     0.5030    -1.4800 H     1 <1>   0.0800 
 27 H       -2.7110    -1.9930    -1.5400 H     1 <1>   0.0800 
 28 H       -2.6590    -0.2660    -1.3090 H     1 <1>   0.0800 
 29 H       -2.8310    -1.3210     0.0780 H     1 <1>   0.0800 
 30 H       -0.8240    -3.3410    -1.0650 H     1 <1>   0.0800 
 31 H       -0.9130    -2.8590     0.6200 H     1 <1>   0.0800 
 32 H        0.5800    -2.6700    -0.2730 H     1 <1>   0.0800 
 33 H        1.4290     2.2640     0.3180 H     1 <1>   0.0800 
 34 H        3.2570     1.6330    -1.5910 H     1 <1>   0.0800 
 35 H        2.1360     0.1700     2.0530 H     1 <1>   0.0800 
 36 H        2.6130     1.8400     2.2970 H     1 <1>   0.0800 
 37 H        3.9870     3.3290     0.7570 H     1 <1>   0.3700 
 38 H        5.3730     1.2010     0.0400 H     1 <1>   0.0800 
 39 H        4.3190    -0.1460    -0.3760 H     1 <1>   0.0800 
 40 H        3.6300     6.2810    -1.1920 H     1 <1>   0.0800 
 41 H        3.9850     5.6550     0.3900 H     1 <1>   0.0800 
 42 H        5.9020     5.7310    -1.9580 H     1 <1>   0.0800 
 43 H        6.2740     5.0160    -0.4190 H     1 <1>   0.0800 
 44 H        6.7920     6.4040     1.5180 H     1 <1>   0.1500 
 45 H        5.5260     8.1990    -2.1370 H     1 <1>   0.1500 
 46 H        7.4470     8.5960     2.3680 H     1 <1>   0.1500 
 47 H        6.1820    10.3920    -1.2850 H     1 <1>   0.1500 
 48 H        7.1660    11.0450     2.2010 H     1 <1>   0.0800 
 49 H        6.6460    11.7800     0.7070 H     1 <1>   0.0800 
 50 H        8.2910    11.2080     0.8710 H     1 <1>   0.0800 
@<TRIPOS>BOND
  1   1   2  2   
  2   1   3  2   
  3   1   4  am  
  4   1   5  1   
  5   4   6  1   
  6   4   7  1   
  7   5   8  1   
  8   5  25  1   
  9   5  26  1   
 10   6  27  1   
 11   6  28  1   
 12   6  29  1   
 13   7  30  1   
 14   7  31  1   
 15   7  32  1   
 16   8   9  1   
 17   8  10  1   
 18   8  33  1   
 19   9  11  1   
 20   9  12  1   
 21   9  34  1   
 22  10  13  1   
 23  10  35  1   
 24  10  36  1   
 25  11  14  am  
 26  11  37  1   
 27  12  13  1   
 28  12  38  1   
 29  12  39  1   
 30  14  15  2   
 31  14  16  1   
 32  16  17  1   
 33  16  40  1   
 34  16  41  1   
 35  17  18  1   
 36  17  42  1   
 37  17  43  1   
 38  18  19  ar  
 39  18  20  ar  
 40  19  21  ar  
 41  19  44  1   
 42  20  22  ar  
 43  20  45  1   
 44  21  23  ar  
 45  21  46  1   
 46  22  23  ar  
 47  22  47  1   
 48  23  24  1   
 49  24  48  1   
 50  24  49  1   
 51  24  50  1   
@<TRIPOS>SUBSTRUCTURE
  1 ****  11 GROUP 4 **** **** 0

# MOE 2024.06 (io_trps.svl 2023.06)
