@<TRIPOS>MOLECULE
NONAME
38 38 1 0 0 
SMALL
USER_CHARGES


@<TRIPOS>ATOM
  1 S       -0.0930     0.5530     0.6400 S.3   1 <1>  -0.4600 
  2 C        1.6470     0.9200     0.2960 C.3   1 <1>   0.0700 
  3 C       -0.0900    -1.2410     0.8890 C.3   1 <1>  -0.0100 
  4 C        1.7510     2.4150    -0.0130 C.3   1 <1>  -0.1600 
  5 C        3.1980     2.8900    -0.2010 C.3   1 <1>   0.2890 
  6 N        3.1560     4.3530    -0.4190 N.pl3 1 <1>  -0.8690 
  7 C        3.9270     2.2270    -1.3890 C.3   1 <1>   0.1200 
  8 C        4.1560     5.2180    -0.0450 C.ar  1 <1>   0.4100 
  9 O        4.3870     0.9560    -1.0500 O.3   1 <1>  -0.6800 
 10 N        5.3120     4.6860     0.2940 N.ar  1 <1>  -0.6200 
 11 C        3.9560     6.5940    -0.0320 C.ar  1 <1>  -0.1440 
 12 C        6.2570     5.5300     0.6470 C.ar  1 <1>   0.4770 
 13 C        5.0270     7.3620     0.3590 C.ar  1 <1>   0.1600 
 14 C        2.6010     7.1830    -0.4390 C.3   1 <1>  -0.0170 
 15 N        6.1890     6.8450     0.7040 N.ar  1 <1>  -0.6200 
 16 C        7.5780     4.9110     1.0340 C.3   1 <1>  -0.0970 
 17 C        2.5230     8.7150    -0.4360 C.3   1 <1>  -0.2400 
 18 H        2.2140     0.6510     1.1700 H     1 <1>   0.0800 
 19 H        1.9410     0.3140    -0.5430 H     1 <1>   0.0800 
 20 H       -1.1010    -1.5440     1.0940 H     1 <1>   0.0800 
 21 H        0.5520    -1.4600     1.7230 H     1 <1>   0.0800 
 22 H        0.2730    -1.7010    -0.0130 H     1 <1>   0.0800 
 23 H        1.1850     2.6210    -0.9040 H     1 <1>   0.0800 
 24 H        1.3170     2.9580     0.8080 H     1 <1>   0.0800 
 25 H        3.7550     2.6980     0.7010 H     1 <1>   0.0800 
 26 H        2.2180     4.7350    -0.5370 H     1 <1>   0.4000 
 27 H        4.7810     2.8160    -1.6750 H     1 <1>   0.0800 
 28 H        3.2640     2.1320    -2.2300 H     1 <1>   0.0800 
 29 H        5.1660     1.0350    -0.4630 H     1 <1>   0.4000 
 30 H        4.9550     8.4340     0.3980 H     1 <1>   0.1500 
 31 H        2.3640     6.8360    -1.4310 H     1 <1>   0.0800 
 32 H        1.8480     6.8030     0.2300 H     1 <1>   0.0800 
 33 H        8.2830     5.6700     1.3170 H     1 <1>   0.0800 
 34 H        7.9710     4.3610     0.2000 H     1 <1>   0.0800 
 35 H        7.4300     4.2430     1.8610 H     1 <1>   0.0800 
 36 H        3.2430     9.1310    -1.1180 H     1 <1>   0.0800 
 37 H        2.7030     9.1010     0.5530 H     1 <1>   0.0800 
 38 H        1.5420     9.0300    -0.7460 H     1 <1>   0.0800 
@<TRIPOS>BOND
  1   1   2  1   
  2   1   3  1   
  3   2   4  1   
  4   2  18  1   
  5   2  19  1   
  6   3  20  1   
  7   3  21  1   
  8   3  22  1   
  9   4   5  1   
 10   4  23  1   
 11   4  24  1   
 12   5   6  1   
 13   5   7  1   
 14   5  25  1   
 15   6   8  1   
 16   6  26  1   
 17   7   9  1   
 18   7  27  1   
 19   7  28  1   
 20   8  10  ar  
 21   8  11  ar  
 22   9  29  1   
 23  10  12  ar  
 24  11  13  ar  
 25  11  14  1   
 26  12  15  ar  
 27  12  16  1   
 28  13  15  ar  
 29  13  30  1   
 30  14  17  1   
 31  14  31  1   
 32  14  32  1   
 33  16  33  1   
 34  16  34  1   
 35  16  35  1   
 36  17  36  1   
 37  17  37  1   
 38  17  38  1   
@<TRIPOS>SUBSTRUCTURE
  1 ****   6 GROUP 4 **** **** 0

# MOE 2024.06 (io_trps.svl 2023.06)
