@<TRIPOS>MOLECULE
NONAME
41 43 1 0 0 
SMALL
USER_CHARGES


@<TRIPOS>ATOM
  1 CL      -0.6570     0.6650    -0.0780 Cl    1 <1>  -0.1240 
  2 C       -1.4410    -0.8560     0.2460 C.2   1 <1>   0.1640 
  3 S       -0.6070    -2.2990    -0.2880 S.3   1 <1>  -0.0800 
  4 C       -2.6060    -1.1440     0.8500 C.2   1 <1>  -0.1500 
  5 C       -1.9050    -3.3130     0.3380 C.2   1 <1>  -0.1400 
  6 C       -2.8690    -2.5520     0.9040 C.2   1 <1>  -0.1500 
  7 C       -1.7090    -4.8040     0.1410 C.3   1 <1>   0.5230 
  8 N       -3.0130    -5.5030     0.2570 N.4   1 <1>  -0.9590 
  9 C       -4.0060    -5.1640    -0.8000 C.3   1 <1>   0.3430 
 10 C       -2.9270    -6.9910     0.2770 C.3   1 <1>   0.3430 
 11 C       -5.0480    -6.2720    -0.6640 C.3   1 <1>   0.2000 
 12 C       -4.1740    -7.5110    -0.4530 C.3   1 <1>  -0.0800 
 13 O       -5.7670    -6.0350     0.5120 O.3   1 <1>  -0.5600 
 14 C       -4.8650    -8.6810     0.2770 C.3   1 <1>   0.0200 
 15 C       -7.0220    -5.4500     0.3340 C.3   1 <1>   0.0400 
 16 C       -3.9440    -9.8830     0.3550 C.2   1 <1>  -0.0400 
 17 O       -2.8300    -9.8090     1.0340 O.3   1 <1>  -0.0190 
 18 C       -4.0220   -11.1150    -0.1700 C.2   1 <1>  -0.1500 
 19 N       -2.1510   -10.9140     0.9780 N.2   1 <1>  -0.4100 
 20 C       -2.8490   -11.7250     0.2650 C.2   1 <1>   0.1080 
 21 C       -2.4400   -13.1470    -0.0530 C.3   1 <1>  -0.0590 
 22 H       -3.2860    -0.4190     1.2610 H     1 <1>   0.1500 
 23 H       -3.7730    -2.9030     1.3730 H     1 <1>   0.1500 
 24 H       -1.0200    -5.1720     0.8850 H     1 <1>   0.0800 
 25 H       -1.2850    -4.9850    -0.8330 H     1 <1>   0.0800 
 26 H       -3.4560    -5.2290     1.1460 H     1 <1>   0.4500 
 27 H       -4.4430    -4.1910    -0.6530 H     1 <1>   0.0800 
 28 H       -3.5460    -5.2140    -1.7730 H     1 <1>   0.0800 
 29 H       -2.0390    -7.3410    -0.2250 H     1 <1>   0.0800 
 30 H       -2.9110    -7.3460     1.2960 H     1 <1>   0.0800 
 31 H       -5.7110    -6.3600    -1.5090 H     1 <1>   0.0800 
 32 H       -3.8560    -7.8650    -1.4180 H     1 <1>   0.0800 
 33 H       -5.7600    -8.9580    -0.2530 H     1 <1>   0.0800 
 34 H       -5.1490    -8.3960     1.2760 H     1 <1>   0.0800 
 35 H       -7.4640    -5.2990     1.3040 H     1 <1>   0.0800 
 36 H       -7.6460    -6.1140    -0.2410 H     1 <1>   0.0800 
 37 H       -6.9150    -4.5030    -0.1660 H     1 <1>   0.0800 
 38 H       -4.7830   -11.5630    -0.7830 H     1 <1>   0.1500 
 39 H       -3.1790   -13.8300     0.3210 H     1 <1>   0.0800 
 40 H       -1.4950   -13.3700     0.4090 H     1 <1>   0.0800 
 41 H       -2.3460   -13.2730    -1.1160 H     1 <1>   0.0800 
@<TRIPOS>BOND
  1   1   2  1   
  2   2   3  1   
  3   2   4  2   
  4   3   5  1   
  5   4   6  1   
  6   4  22  1   
  7   5   6  2   
  8   5   7  1   
  9   6  23  1   
 10   7   8  1   
 11   7  24  1   
 12   7  25  1   
 13   8   9  1   
 14   8  10  1   
 15   8  26  1   
 16   9  11  1   
 17   9  27  1   
 18   9  28  1   
 19  10  12  1   
 20  10  29  1   
 21  10  30  1   
 22  11  12  1   
 23  11  13  1   
 24  11  31  1   
 25  12  14  1   
 26  12  32  1   
 27  13  15  1   
 28  14  16  1   
 29  14  33  1   
 30  14  34  1   
 31  15  35  1   
 32  15  36  1   
 33  15  37  1   
 34  16  17  1   
 35  16  18  2   
 36  17  19  1   
 37  18  20  1   
 38  18  38  1   
 39  19  20  2   
 40  20  21  1   
 41  21  39  1   
 42  21  40  1   
 43  21  41  1   
@<TRIPOS>SUBSTRUCTURE
  1 ****  10 GROUP 4 **** **** 0

# MOE 2024.06 (io_trps.svl 2023.06)
