@<TRIPOS>MOLECULE
NONAME
47 50 1 0 0 
SMALL
USER_CHARGES


@<TRIPOS>ATOM
  1 O       -0.2950     1.5110     1.7690 O.2   1 <1>  -0.5700 
  2 C       -0.2060     2.6070     1.2460 C.2   1 <1>   0.5440 
  3 N       -1.3600     3.3060     0.9520 N.am  1 <1>  -0.6600 
  4 C        1.1090     3.1350     0.9380 C.ar  1 <1>   0.0860 
  5 C       -2.6980     2.8550     1.4400 C.3   1 <1>   0.1400 
  6 C       -1.4310     4.3990    -0.0530 C.3   1 <1>   0.1400 
  7 C        2.0200     2.4010     0.1820 C.ar  1 <1>  -0.1500 
  8 C        1.5210     4.3890     1.3850 C.ar  1 <1>  -0.1500 
  9 C       -3.5530     2.3060     0.2740 C.3   1 <1>   0.0000 
 10 C       -2.2510     3.9260    -1.2570 C.3   1 <1>  -0.1600 
 11 C        3.2700     2.9030    -0.1280 C.ar  1 <1>  -0.1500 
 12 C        2.7710     4.8920     1.0750 C.ar  1 <1>  -0.1500 
 13 C       -4.9820     1.9260     0.7150 C.3   1 <1>   0.2000 
 14 C       -3.6310     3.3790    -0.8460 C.3   1 <1>  -0.1600 
 15 C       -3.0010     0.9720    -0.2720 C.3   1 <1>  -0.1600 
 16 C        3.6790     4.1640     0.3060 C.ar  1 <1>   0.0530 
 17 O       -4.9560     1.2850     1.9410 O.3   1 <1>  -0.6800 
 18 C       -5.4600     0.9050    -0.3150 C.3   1 <1>  -0.1600 
 19 C       -4.2010     0.1880    -0.8220 C.3   1 <1>  -0.1600 
 20 C        4.9830     4.6920    -0.0230 C.2   1 <1>   0.0870 
 21 O        5.7850     4.0320    -0.8510 O.3   1 <1>  -0.2800 
 22 C        5.6190     5.8290     0.3730 C.2   1 <1>  -0.1500 
 23 C        6.9030     4.7090    -0.9930 C.2   1 <1>  -0.0100 
 24 C        6.8650     5.8390    -0.2580 C.2   1 <1>  -0.1500 
 25 H       -2.5780     2.1060     2.2030 H     1 <1>   0.0800 
 26 H       -3.2030     3.6910     1.8910 H     1 <1>   0.0800 
 27 H       -1.9010     5.2570     0.3960 H     1 <1>   0.0800 
 28 H       -0.4510     4.6870    -0.3860 H     1 <1>   0.0800 
 29 H        1.7340     1.4210    -0.1600 H     1 <1>   0.1500 
 30 H        0.8440     4.9700     1.9870 H     1 <1>   0.1500 
 31 H       -2.3830     4.7500    -1.9370 H     1 <1>   0.0800 
 32 H       -1.6920     3.1710    -1.7790 H     1 <1>   0.0800 
 33 H        3.9450     2.3070    -0.7170 H     1 <1>   0.1500 
 34 H        3.0470     5.8650     1.4370 H     1 <1>   0.1500 
 35 H       -5.6400     2.7740     0.7980 H     1 <1>   0.0800 
 36 H       -4.1220     2.9810    -1.7170 H     1 <1>   0.0800 
 37 H       -4.2240     4.2040    -0.4910 H     1 <1>   0.0800 
 38 H       -2.2390     1.1080    -1.0170 H     1 <1>   0.0800 
 39 H       -2.5630     0.4100     0.5360 H     1 <1>   0.0800 
 40 H       -4.3770     0.5020     1.8740 H     1 <1>   0.4000 
 41 H       -6.1870     0.2250     0.0950 H     1 <1>   0.0800 
 42 H       -5.9160     1.4300    -1.1350 H     1 <1>   0.0800 
 43 H       -4.1720    -0.8290    -0.4710 H     1 <1>   0.0800 
 44 H       -4.1880     0.1830    -1.8980 H     1 <1>   0.0800 
 45 H        5.2640     6.5920     1.0400 H     1 <1>   0.1500 
 46 H        7.6730     4.3180    -1.6350 H     1 <1>   0.1500 
 47 H        7.6170     6.6020    -0.1590 H     1 <1>   0.1500 
@<TRIPOS>BOND
  1   1   2  2   
  2   2   3  am  
  3   2   4  1   
  4   3   5  1   
  5   3   6  1   
  6   4   7  ar  
  7   4   8  ar  
  8   5   9  1   
  9   5  25  1   
 10   5  26  1   
 11   6  10  1   
 12   6  27  1   
 13   6  28  1   
 14   7  11  ar  
 15   7  29  1   
 16   8  12  ar  
 17   8  30  1   
 18   9  13  1   
 19   9  14  1   
 20   9  15  1   
 21  10  14  1   
 22  10  31  1   
 23  10  32  1   
 24  11  16  ar  
 25  11  33  1   
 26  12  16  ar  
 27  12  34  1   
 28  13  17  1   
 29  13  18  1   
 30  13  35  1   
 31  14  36  1   
 32  14  37  1   
 33  15  19  1   
 34  15  38  1   
 35  15  39  1   
 36  16  20  1   
 37  17  40  1   
 38  18  19  1   
 39  18  41  1   
 40  18  42  1   
 41  19  43  1   
 42  19  44  1   
 43  20  21  1   
 44  20  22  2   
 45  21  23  1   
 46  22  24  1   
 47  22  45  1   
 48  23  24  2   
 49  23  46  1   
 50  24  47  1   
@<TRIPOS>SUBSTRUCTURE
  1 ****   4 GROUP 4 **** **** 0

# MOE 2024.06 (io_trps.svl 2023.06)
