@<TRIPOS>MOLECULE
NONAME
52 55 1 0 0 
SMALL
USER_CHARGES


@<TRIPOS>ATOM
  1 O        0.7710     0.0280    -1.7350 O.co2 1 <1>  -0.9020 
  2 C        1.3320    -1.0540    -1.4970 C.2   1 <1>   0.9770 
  3 O        0.7190    -2.1190    -1.6660 O.co2 1 <1>  -0.9020 
  4 C        2.7060    -1.0570    -1.0220 C.ar  1 <1>  -0.1860 
  5 C        3.3840     0.1420    -0.8230 C.ar  1 <1>  -0.1160 
  6 C        3.3910    -2.2570    -0.7490 C.ar  1 <1>  -0.1570 
  7 C        4.6890     0.1250    -0.3680 C.ar  1 <1>   0.3030 
  8 C        4.6950    -2.2720    -0.2950 C.ar  1 <1>  -0.1160 
  9 N        5.5790     1.1400    -0.0910 N.pl3 1 <1>  -0.7040 
 10 C        5.3460    -1.0590    -0.1020 C.ar  1 <1>   0.3030 
 11 C        6.7310     0.6140     0.3110 C.cat 1 <1>   1.0690 
 12 N        6.6250    -0.7310     0.3420 N.pl3 1 <1>  -0.7670 
 13 N        7.8080     1.3630     0.6250 N.pl3 1 <1>  -0.5960 
 14 C        7.5170    -1.7420     0.9660 C.3   1 <1>   0.2680 
 15 C        9.2280     0.8940     0.5210 C.3   1 <1>   0.1610 
 16 C        7.7180     2.8030     1.0390 C.3   1 <1>   0.1610 
 17 C       10.0800     1.8520    -0.3300 C.3   1 <1>   0.1030 
 18 C        8.6020     3.7050     0.1620 C.3   1 <1>   0.1030 
 19 N        9.9970     3.2330     0.1710 N.3   1 <1>  -0.8130 
 20 C       10.8850     4.1200    -0.6120 C.3   1 <1>   0.1030 
 21 C       11.2270     5.4010     0.1530 C.3   1 <1>   0.1130 
 22 O       12.0670     6.1900    -0.6620 O.3   1 <1>  -0.3680 
 23 C       12.5240     7.3960    -0.2410 C.ar  1 <1>   0.0750 
 24 C       12.2670     7.9240     1.0230 C.ar  1 <1>  -0.1570 
 25 C       13.2860     8.1230    -1.1400 C.ar  1 <1>  -0.1570 
 26 C       12.7710     9.1660     1.3690 C.ar  1 <1>  -0.1570 
 27 C       13.7890     9.3640    -0.7930 C.ar  1 <1>  -0.1570 
 28 C       13.5310     9.8860     0.4630 C.ar  1 <1>  -0.1570 
 29 H        2.8860     1.0760    -1.0250 H     1 <1>   0.1430 
 30 H        2.8600    -3.1840    -0.9070 H     1 <1>   0.1430 
 31 H        5.1920    -3.2030    -0.0990 H     1 <1>   0.1430 
 32 H        5.3880     2.1240    -0.2430 H     1 <1>   0.4450 
 33 H        6.9290    -2.5060     1.4460 H     1 <1>   0.0730 
 34 H        8.1420    -1.2870     1.7150 H     1 <1>   0.0730 
 35 H        8.1340    -2.2010     0.2130 H     1 <1>   0.0730 
 36 H        9.2770    -0.0760     0.0620 H     1 <1>   0.0730 
 37 H        9.6570     0.8290     1.5060 H     1 <1>   0.0730 
 38 H        8.0550     2.8920     2.0580 H     1 <1>   0.0730 
 39 H        6.7040     3.1580     1.0040 H     1 <1>   0.0730 
 40 H        9.7570     1.8150    -1.3570 H     1 <1>   0.0730 
 41 H       11.1050     1.5240    -0.2930 H     1 <1>   0.0730 
 42 H        8.5570     4.7080     0.5500 H     1 <1>   0.0730 
 43 H        8.2250     3.7220    -0.8470 H     1 <1>   0.0730 
 44 H       10.4240     4.3680    -1.5530 H     1 <1>   0.0730 
 45 H       11.8120     3.6090    -0.8110 H     1 <1>   0.0730 
 46 H       11.7590     5.1630     1.0570 H     1 <1>   0.0730 
 47 H       10.3440     5.9730     0.3680 H     1 <1>   0.0730 
 48 H       11.6840     7.3870     1.7460 H     1 <1>   0.1430 
 49 H       13.4830     7.7110    -2.1130 H     1 <1>   0.1430 
 50 H       12.5730     9.5740     2.3450 H     1 <1>   0.1430 
 51 H       14.3800     9.9220    -1.4980 H     1 <1>   0.1430 
 52 H       13.9210    10.8510     0.7350 H     1 <1>   0.1430 
@<TRIPOS>BOND
  1   1   2  ar  
  2   2   3  ar  
  3   2   4  1   
  4   4   5  ar  
  5   4   6  ar  
  6   5   7  ar  
  7   5  29  1   
  8   6   8  ar  
  9   6  30  1   
 10   7   9  1   
 11   7  10  ar  
 12   8  10  ar  
 13   8  31  1   
 14   9  11  ar  
 15   9  32  1   
 16  10  12  1   
 17  11  12  ar  
 18  11  13  ar  
 19  12  14  1   
 20  13  15  1   
 21  13  16  1   
 22  14  33  1   
 23  14  34  1   
 24  14  35  1   
 25  15  17  1   
 26  15  36  1   
 27  15  37  1   
 28  16  18  1   
 29  16  38  1   
 30  16  39  1   
 31  17  19  1   
 32  17  40  1   
 33  17  41  1   
 34  18  19  1   
 35  18  42  1   
 36  18  43  1   
 37  19  20  1   
 38  20  21  1   
 39  20  44  1   
 40  20  45  1   
 41  21  22  1   
 42  21  46  1   
 43  21  47  1   
 44  22  23  1   
 45  23  24  ar  
 46  23  25  ar  
 47  24  26  ar  
 48  24  48  1   
 49  25  27  ar  
 50  25  49  1   
 51  26  28  ar  
 52  26  50  1   
 53  27  28  ar  
 54  27  51  1   
 55  28  52  1   
@<TRIPOS>SUBSTRUCTURE
  1 ****  16 GROUP 4 **** **** 0

# MOE 2024.06 (io_trps.svl 2023.06)
