@<TRIPOS>MOLECULE
NONAME
43 45 1 0 0 
SMALL
USER_CHARGES


@<TRIPOS>ATOM
  1 CL      -1.3220     0.2050    -0.2660 Cl    1 <1>  -0.1230 
  2 C       -1.6260    -1.5230    -0.2380 C.2   1 <1>   0.1230 
  3 C       -0.7090    -2.5050     0.1020 C.2   1 <1>   0.1390 
  4 C       -2.7730    -2.1590    -0.5360 C.2   1 <1>  -0.3020 
  5 N       -1.2420    -3.6900     0.0260 N.2   1 <1>  -0.7070 
  6 N       -2.5200    -3.4750    -0.3710 N.pl3 1 <1>   0.3140 
  7 C       -3.4800    -4.5760    -0.5810 C.3   1 <1>   0.0960 
  8 C       -3.5120    -5.4930     0.6410 C.3   1 <1>   0.1100 
  9 N       -4.5800    -6.4960     0.4880 N.3   1 <1>  -0.8100 
 10 C       -4.2590    -7.7780     1.1660 C.3   1 <1>   0.2530 
 11 C       -5.9190    -5.9770     0.8540 C.3   1 <1>   0.1100 
 12 C       -3.3110    -8.6560     0.3460 C.ar  1 <1>   0.1670 
 13 C       -6.9730    -6.3730    -0.1910 C.3   1 <1>   0.2000 
 14 N       -3.8640    -9.4490    -0.5660 N.ar  1 <1>  -0.6200 
 15 C       -1.9460    -8.6050     0.5920 C.ar  1 <1>  -0.1500 
 16 O       -8.1720    -5.7300     0.0980 O.3   1 <1>  -0.5600 
 17 C       -7.3470    -7.8470    -0.2400 C.3   1 <1>  -0.1600 
 18 C       -3.0260   -10.1990    -1.2620 C.ar  1 <1>   0.1600 
 19 C       -1.0850    -9.3950    -0.1400 C.ar  1 <1>  -0.1500 
 20 C       -9.2390    -6.4000    -0.4980 C.3   1 <1>   0.1200 
 21 C       -8.7480    -7.8100    -0.8210 C.3   1 <1>  -0.1600 
 22 C       -1.6520   -10.2110    -1.0930 C.ar  1 <1>  -0.1500 
 23 H        0.3100    -2.3150     0.3900 H     1 <1>   0.1500 
 24 H       -3.7210    -1.7600    -0.8450 H     1 <1>   0.1500 
 25 H       -3.1710    -5.1370    -1.4430 H     1 <1>   0.0800 
 26 H       -4.4510    -4.1550    -0.7590 H     1 <1>   0.0800 
 27 H       -3.6670    -4.9230     1.5420 H     1 <1>   0.0800 
 28 H       -2.5550    -5.9780     0.7070 H     1 <1>   0.0800 
 29 H       -5.1580    -8.3450     1.3210 H     1 <1>   0.0800 
 30 H       -3.8340    -7.5810     2.1340 H     1 <1>   0.0800 
 31 H       -5.8970    -4.9020     0.8920 H     1 <1>   0.0800 
 32 H       -6.2120    -6.3360     1.8260 H     1 <1>   0.0800 
 33 H       -6.6610    -6.0370    -1.1650 H     1 <1>   0.0800 
 34 H       -1.5540    -7.9500     1.3490 H     1 <1>   0.1500 
 35 H       -7.3730    -8.2500     0.7570 H     1 <1>   0.0800 
 36 H       -6.6550    -8.4140    -0.8380 H     1 <1>   0.0800 
 37 H       -3.4590   -10.8400    -2.0100 H     1 <1>   0.1500 
 38 H       -0.0220    -9.3730     0.0250 H     1 <1>   0.1500 
 39 H       -9.5200    -5.8660    -1.3900 H     1 <1>   0.0800 
 40 H      -10.0590    -6.4110     0.1990 H     1 <1>   0.0800 
 41 H       -9.3850    -8.5620    -0.3910 H     1 <1>   0.0800 
 42 H       -8.7180    -7.9420    -1.8890 H     1 <1>   0.0800 
 43 H       -1.0390   -10.8500    -1.7010 H     1 <1>   0.1500 
@<TRIPOS>BOND
  1   1   2  1   
  2   2   3  1   
  3   2   4  2   
  4   3   5  2   
  5   3  23  1   
  6   4   6  1   
  7   4  24  1   
  8   5   6  1   
  9   6   7  1   
 10   7   8  1   
 11   7  25  1   
 12   7  26  1   
 13   8   9  1   
 14   8  27  1   
 15   8  28  1   
 16   9  10  1   
 17   9  11  1   
 18  10  12  1   
 19  10  29  1   
 20  10  30  1   
 21  11  13  1   
 22  11  31  1   
 23  11  32  1   
 24  12  14  ar  
 25  12  15  ar  
 26  13  16  1   
 27  13  17  1   
 28  13  33  1   
 29  14  18  ar  
 30  15  19  ar  
 31  15  34  1   
 32  16  20  1   
 33  17  21  1   
 34  17  35  1   
 35  17  36  1   
 36  18  22  ar  
 37  18  37  1   
 38  19  22  ar  
 39  19  38  1   
 40  20  21  1   
 41  20  39  1   
 42  20  40  1   
 43  21  41  1   
 44  21  42  1   
 45  22  43  1   
@<TRIPOS>SUBSTRUCTURE
  1 ****   9 GROUP 4 **** **** 0

# MOE 2024.06 (io_trps.svl 2023.06)
