@<TRIPOS>MOLECULE
NONAME
44 46 1 0 0 
SMALL
USER_CHARGES


@<TRIPOS>ATOM
  1 S        0.0200     0.0490     0.2250 S.o2  1 <1>   1.3330 
  2 O       -0.5290     1.3500     0.5330 O.2   1 <1>  -0.6500 
  3 O        0.0970    -0.9550     1.2620 O.2   1 <1>  -0.6500 
  4 N       -0.8690    -0.6100    -1.0630 N.am  1 <1>  -0.8490 
  5 C        1.6370     0.3060    -0.5080 C.3   1 <1>  -0.0550 
  6 C       -2.2970    -0.2880    -0.9740 C.3   1 <1>   0.1160 
  7 C       -0.6950    -2.0600    -1.2070 C.3   1 <1>   0.1160 
  8 C        2.6610     0.9490     0.4510 C.3   1 <1>  -0.0800 
  9 C        3.9270     1.3540    -0.2860 C.3   1 <1>   0.2890 
 10 C        3.2110    -0.0670     1.4540 C.3   1 <1>   0.1200 
 11 N        4.6310     2.4020     0.4860 N.pl3 1 <1>  -0.8530 
 12 C        4.7410     0.0610    -0.2670 C.3   1 <1>   0.1200 
 13 O        4.2870    -0.6920     0.8220 O.3   1 <1>  -0.5600 
 14 C        5.1140     3.5590    -0.0520 C.2   1 <1>   0.4620 
 15 S        6.0180     4.6220     0.9610 S.3   1 <1>  -0.0800 
 16 N        5.0070     4.0010    -1.2540 N.2   1 <1>  -0.3380 
 17 C        6.2120     5.6820    -0.4100 C.2   1 <1>   0.3250 
 18 N        5.6270     5.1950    -1.4500 N.2   1 <1>  -0.3380 
 19 C        6.9520     6.9170    -0.2780 C.ar  1 <1>   0.0530 
 20 C        7.1060     7.7570    -1.3840 C.ar  1 <1>  -0.1500 
 21 C        7.5420     7.3360     0.9200 C.ar  1 <1>  -0.1500 
 22 C        7.8060     8.9470    -1.3050 C.ar  1 <1>  -0.1500 
 23 C        8.2430     8.5250     1.0050 C.ar  1 <1>  -0.1500 
 24 C        8.3770     9.3350    -0.1080 C.ar  1 <1>  -0.1500 
 25 H        2.0200    -0.6310    -0.8650 H     1 <1>   0.0800 
 26 H        1.5120     0.9510    -1.3560 H     1 <1>   0.0800 
 27 H       -2.8280    -0.7080    -1.8110 H     1 <1>   0.0800 
 28 H       -2.4350     0.7810    -0.9910 H     1 <1>   0.0800 
 29 H       -2.7130    -0.6750    -0.0590 H     1 <1>   0.0800 
 30 H       -1.2040    -2.4080    -2.0900 H     1 <1>   0.0800 
 31 H       -1.0940    -2.5750    -0.3480 H     1 <1>   0.0800 
 32 H        0.3490    -2.3030    -1.2990 H     1 <1>   0.0800 
 33 H        2.2080     1.7930     0.9430 H     1 <1>   0.0800 
 34 H        3.7390     1.6960    -1.2910 H     1 <1>   0.0800 
 35 H        2.5000    -0.8160     1.7560 H     1 <1>   0.0800 
 36 H        3.5920     0.4300     2.3300 H     1 <1>   0.0800 
 37 H        4.8950     2.1420     1.4390 H     1 <1>   0.4000 
 38 H        5.7960     0.2440    -0.1640 H     1 <1>   0.0800 
 39 H        4.5580    -0.5150    -1.1570 H     1 <1>   0.0800 
 40 H        6.6670     7.4720    -2.3250 H     1 <1>   0.1500 
 41 H        7.4600     6.7350     1.8060 H     1 <1>   0.1500 
 42 H        7.9050     9.5720    -2.1760 H     1 <1>   0.1500 
 43 H        8.6870     8.8240     1.9390 H     1 <1>   0.1500 
 44 H        8.9230    10.2600    -0.0430 H     1 <1>   0.1500 
@<TRIPOS>BOND
  1   1   2  2   
  2   1   3  2   
  3   1   4  am  
  4   1   5  1   
  5   4   6  1   
  6   4   7  1   
  7   5   8  1   
  8   5  25  1   
  9   5  26  1   
 10   6  27  1   
 11   6  28  1   
 12   6  29  1   
 13   7  30  1   
 14   7  31  1   
 15   7  32  1   
 16   8   9  1   
 17   8  10  1   
 18   8  33  1   
 19   9  11  1   
 20   9  12  1   
 21   9  34  1   
 22  10  13  1   
 23  10  35  1   
 24  10  36  1   
 25  11  14  1   
 26  11  37  1   
 27  12  13  1   
 28  12  38  1   
 29  12  39  1   
 30  14  15  1   
 31  14  16  2   
 32  15  17  1   
 33  16  18  1   
 34  17  18  2   
 35  17  19  1   
 36  19  20  ar  
 37  19  21  ar  
 38  20  22  ar  
 39  20  40  1   
 40  21  23  ar  
 41  21  41  1   
 42  22  24  ar  
 43  22  42  1   
 44  23  24  ar  
 45  23  43  1   
 46  24  44  1   
@<TRIPOS>SUBSTRUCTURE
  1 ****  11 GROUP 4 **** **** 0

# MOE 2024.06 (io_trps.svl 2023.06)
