@<TRIPOS>MOLECULE
NONAME
44 45 1 0 0 
SMALL
USER_CHARGES


@<TRIPOS>ATOM
  1 S        0.5850    -0.2790     0.7470 S.o2  1 <1>   1.3330 
  2 O        1.4280    -1.2870     1.3500 O.2   1 <1>  -0.6500 
  3 O       -0.1120     0.6650     1.5920 O.2   1 <1>  -0.6500 
  4 N       -0.5630    -1.0770    -0.2160 N.am  1 <1>  -0.8490 
  5 C        1.5200     0.6610    -0.4600 C.3   1 <1>  -0.0550 
  6 C       -0.0600    -2.3210    -0.8100 C.3   1 <1>   0.1160 
  7 C       -1.8100    -1.3390     0.5080 C.3   1 <1>   0.1160 
  8 C        2.6140     1.5530     0.1610 C.3   1 <1>  -0.0800 
  9 C        3.2000     2.4970    -0.8750 C.3   1 <1>   0.2200 
 10 C        3.8480     0.7430     0.5680 C.3   1 <1>   0.1200 
 11 N        3.8190     3.6500    -0.1870 N.am  1 <1>  -0.7300 
 12 C        4.2870     1.6380    -1.5160 C.3   1 <1>   0.1200 
 13 O        4.6780     0.7010    -0.5540 O.3   1 <1>  -0.5600 
 14 C        3.4910     4.9510    -0.3880 C.2   1 <1>   0.5690 
 15 O        2.6000     5.2700    -1.1360 O.2   1 <1>  -0.5700 
 16 C        4.2590     6.0260     0.3600 C.3   1 <1>   0.0440 
 17 C        5.7730     5.8830     0.1830 C.ar  1 <1>  -0.1440 
 18 C        6.4710     6.5850    -0.7890 C.ar  1 <1>   0.1900 
 19 C        6.5300     5.0360     0.9790 C.ar  1 <1>   0.1900 
 20 F        5.8270     7.3990    -1.5820 F     1 <1>  -0.1900 
 21 C        7.8400     6.4640    -0.9680 C.ar  1 <1>  -0.1500 
 22 F        5.9360     4.3300     1.9050 F     1 <1>  -0.1900 
 23 C        7.8990     4.8860     0.8330 C.ar  1 <1>  -0.1500 
 24 C        8.5590     5.6070    -0.1490 C.ar  1 <1>  -0.1500 
 25 H        1.9630    -0.0090    -1.1710 H     1 <1>   0.0800 
 26 H        0.8290     1.2890    -0.9900 H     1 <1>   0.0800 
 27 H       -0.7930    -2.7320    -1.4820 H     1 <1>   0.0800 
 28 H        0.1560    -3.0450    -0.0410 H     1 <1>   0.0800 
 29 H        0.8410    -2.1300    -1.3660 H     1 <1>   0.0800 
 30 H       -2.5190    -1.8320    -0.1350 H     1 <1>   0.0800 
 31 H       -2.2470    -0.4120     0.8390 H     1 <1>   0.0800 
 32 H       -1.6200    -1.9590     1.3690 H     1 <1>   0.0800 
 33 H        2.1990     2.0950     0.9940 H     1 <1>   0.0800 
 34 H        2.4770     2.8380    -1.5980 H     1 <1>   0.0800 
 35 H        3.6280    -0.2630     0.8790 H     1 <1>   0.0800 
 36 H        4.3890     1.2450     1.3520 H     1 <1>   0.0800 
 37 H        4.6020     3.4170     0.4310 H     1 <1>   0.3700 
 38 H        5.1400     2.2160    -1.8250 H     1 <1>   0.0800 
 39 H        3.8940     1.0940    -2.3560 H     1 <1>   0.0800 
 40 H        3.9310     6.9890     0.0110 H     1 <1>   0.0800 
 41 H        4.0000     5.9650     1.4000 H     1 <1>   0.0800 
 42 H        8.3300     7.0330    -1.7380 H     1 <1>   0.1500 
 43 H        8.4370     4.2140     1.4780 H     1 <1>   0.1500 
 44 H        9.6240     5.5030    -0.2760 H     1 <1>   0.1500 
@<TRIPOS>BOND
  1   1   2  2   
  2   1   3  2   
  3   1   4  am  
  4   1   5  1   
  5   4   6  1   
  6   4   7  1   
  7   5   8  1   
  8   5  25  1   
  9   5  26  1   
 10   6  27  1   
 11   6  28  1   
 12   6  29  1   
 13   7  30  1   
 14   7  31  1   
 15   7  32  1   
 16   8   9  1   
 17   8  10  1   
 18   8  33  1   
 19   9  11  1   
 20   9  12  1   
 21   9  34  1   
 22  10  13  1   
 23  10  35  1   
 24  10  36  1   
 25  11  14  am  
 26  11  37  1   
 27  12  13  1   
 28  12  38  1   
 29  12  39  1   
 30  14  15  2   
 31  14  16  1   
 32  16  17  1   
 33  16  40  1   
 34  16  41  1   
 35  17  18  ar  
 36  17  19  ar  
 37  18  20  1   
 38  18  21  ar  
 39  19  22  1   
 40  19  23  ar  
 41  21  24  ar  
 42  21  42  1   
 43  23  24  ar  
 44  23  43  1   
 45  24  44  1   
@<TRIPOS>SUBSTRUCTURE
  1 ****  11 GROUP 4 **** **** 0

# MOE 2024.06 (io_trps.svl 2023.06)
