@<TRIPOS>MOLECULE
NONAME
54 58 1 0 0 
SMALL
USER_CHARGES


@<TRIPOS>ATOM
  1 S       -0.4010     0.8470    -3.0060 S.3   1 <1>  -0.0800 
  2 C       -1.7600     0.0530    -3.7680 C.2   1 <1>   0.2280 
  3 C       -0.6270    -0.1740    -1.6160 C.2   1 <1>  -0.1100 
  4 N       -2.3120    -0.8490    -3.0580 N.2   1 <1>  -0.5650 
  5 C       -1.6710    -0.9890    -1.8340 C.2   1 <1>   0.0460 
  6 C       -2.1700    -2.0710    -0.8850 C.3   1 <1>   0.0210 
  7 C       -3.3150    -1.7260     0.1070 C.3   1 <1>   0.0610 
  8 C       -3.6110    -3.0400     0.8440 C.2   1 <1>   0.5690 
  9 C       -2.8960    -0.6040     1.0930 C.3   1 <1>   0.2200 
 10 C       -4.5610    -1.0690    -0.5710 C.3   1 <1>  -0.1600 
 11 O       -2.9220    -3.3480     1.7870 O.2   1 <1>  -0.5700 
 12 N       -4.5950    -3.8670     0.3950 N.am  1 <1>  -0.7300 
 13 N       -3.2240     0.5840     0.3140 N.am  1 <1>  -0.6600 
 14 C       -3.9170    -0.4180     2.2330 C.3   1 <1>  -0.1600 
 15 C       -4.6330     0.3260     0.0690 C.3   1 <1>   0.2200 
 16 C       -4.9730    -5.1530     1.0110 C.3   1 <1>   0.1400 
 17 C       -2.5010     1.7440     0.2400 C.2   1 <1>   0.6160 
 18 C       -5.1350     0.1870     1.5100 C.3   1 <1>  -0.1600 
 19 C       -6.4900    -5.1990     1.1410 C.3   1 <1>  -0.2400 
 20 O       -1.4090     1.7840     0.7730 O.2   1 <1>  -0.5700 
 21 C       -3.0090     2.8960    -0.4580 C.2   1 <1>   0.0290 
 22 C       -3.1740     4.1480     0.0820 C.2   1 <1>  -0.1690 
 23 C       -3.3580     2.6930    -1.8280 C.2   1 <1>   0.3760 
 24 N       -3.6670     5.1410    -0.7460 N.pl3 1 <1>   0.6010 
 25 C       -2.8600     4.5330     1.5270 C.3   1 <1>  -0.1020 
 26 N       -3.8300     3.6030    -2.6120 N.2   1 <1>  -0.5760 
 27 N       -3.9300     6.4380    -0.4580 N.2   1 <1>  -0.7070 
 28 C       -3.9860     4.8510    -2.0550 C.2   1 <1>  -0.0260 
 29 C       -4.3940     6.9340    -1.5710 C.2   1 <1>   0.1390 
 30 C       -4.4530     6.0030    -2.5940 C.2   1 <1>  -0.1500 
 31 H       -2.0260     0.3820    -4.7570 H     1 <1>   0.1500 
 32 H        0.0470    -0.0540    -0.7860 H     1 <1>   0.1500 
 33 H       -2.4710    -2.9100    -1.4880 H     1 <1>   0.0800 
 34 H       -1.3250    -2.4020    -0.3070 H     1 <1>   0.0800 
 35 H       -1.8700    -0.6500     1.4220 H     1 <1>   0.0800 
 36 H       -5.4800    -1.5950    -0.3930 H     1 <1>   0.0800 
 37 H       -4.4410    -0.9730    -1.6330 H     1 <1>   0.0800 
 38 H       -5.1070    -3.6270    -0.4550 H     1 <1>   0.3700 
 39 H       -4.1560    -1.3280     2.7530 H     1 <1>   0.0800 
 40 H       -3.5200     0.2820     2.9480 H     1 <1>   0.0800 
 41 H       -5.1450     1.0710    -0.5170 H     1 <1>   0.0800 
 42 H       -4.6260    -5.9630     0.3920 H     1 <1>   0.0800 
 43 H       -4.5170    -5.2470     1.9840 H     1 <1>   0.0800 
 44 H       -5.3720     1.1550     1.9150 H     1 <1>   0.0800 
 45 H       -6.0040    -0.4440     1.5760 H     1 <1>   0.0800 
 46 H       -6.9560    -5.1370     0.1740 H     1 <1>   0.0800 
 47 H       -6.8350    -4.3910     1.7620 H     1 <1>   0.0800 
 48 H       -6.7830    -6.1270     1.5990 H     1 <1>   0.0800 
 49 H       -3.2220     1.7030    -2.2220 H     1 <1>   0.0600 
 50 H       -3.7320     4.9570     1.9930 H     1 <1>   0.0800 
 51 H       -2.0760     5.2700     1.5450 H     1 <1>   0.0800 
 52 H       -2.5430     3.6890     2.1120 H     1 <1>   0.0800 
 53 H       -4.6970     7.9630    -1.6690 H     1 <1>   0.1500 
 54 H       -4.7970     6.1610    -3.5990 H     1 <1>   0.1500 
@<TRIPOS>BOND
  1   1   2  1   
  2   1   3  1   
  3   2   4  2   
  4   2  31  1   
  5   3   5  2   
  6   3  32  1   
  7   4   5  1   
  8   5   6  1   
  9   6   7  1   
 10   6  33  1   
 11   6  34  1   
 12   7   8  1   
 13   7   9  1   
 14   7  10  1   
 15   8  11  2   
 16   8  12  am  
 17   9  13  1   
 18   9  14  1   
 19   9  35  1   
 20  10  15  1   
 21  10  36  1   
 22  10  37  1   
 23  12  16  1   
 24  12  38  1   
 25  13  15  1   
 26  13  17  am  
 27  14  18  1   
 28  14  39  1   
 29  14  40  1   
 30  15  18  1   
 31  15  41  1   
 32  16  19  1   
 33  16  42  1   
 34  16  43  1   
 35  17  20  2   
 36  17  21  1   
 37  18  44  1   
 38  18  45  1   
 39  19  46  1   
 40  19  47  1   
 41  19  48  1   
 42  21  22  2   
 43  21  23  1   
 44  22  24  1   
 45  22  25  1   
 46  23  26  2   
 47  23  49  1   
 48  24  27  1   
 49  24  28  1   
 50  25  50  1   
 51  25  51  1   
 52  25  52  1   
 53  26  28  1   
 54  27  29  2   
 55  28  30  2   
 56  29  30  1   
 57  29  53  1   
 58  30  54  1   
@<TRIPOS>SUBSTRUCTURE
  1 ****  13 GROUP 4 **** **** 0

# MOE 2024.06 (io_trps.svl 2023.06)
