@<TRIPOS>MOLECULE
NONAME
53 55 1 0 0 
SMALL
USER_CHARGES


@<TRIPOS>ATOM
  1 CL      -2.3550    -2.2660    -2.0230 Cl    1 <1>  -0.1770 
  2 C       -1.1480    -3.0640    -1.0410 C.ar  1 <1>   0.1770 
  3 C       -0.7660    -2.4970     0.1830 C.ar  1 <1>  -0.1440 
  4 C       -0.6130    -4.2470    -1.5040 C.ar  1 <1>  -0.1500 
  5 C        0.1820    -3.1450     0.9530 C.ar  1 <1>  -0.1500 
  6 C       -1.3720    -1.1830     0.6550 C.3   1 <1>  -0.0960 
  7 C        0.3300    -4.9040    -0.7140 C.ar  1 <1>   0.0000 
  8 C        0.7170    -4.3400     0.4890 C.ar  1 <1>   0.1400 
  9 C        1.0730    -6.1010    -0.8060 C.2   1 <1>  -0.1810 
 10 O        1.6320    -5.1050     1.0840 O.3   1 <1>  -0.2800 
 11 C        1.8560    -6.1450     0.2900 C.2   1 <1>  -0.0100 
 12 C        0.9500    -7.1000    -1.9440 C.3   1 <1>   0.0820 
 13 C       -0.4610    -7.6670    -2.0880 C.2   1 <1>   0.5690 
 14 O       -1.1240    -7.2720    -3.0150 O.2   1 <1>  -0.5700 
 15 N       -0.9730    -8.5930    -1.2110 N.am  1 <1>  -0.6600 
 16 C       -1.9570    -9.5970    -1.7270 C.3   1 <1>   0.3200 
 17 C       -0.5030    -8.7500     0.2080 C.3   1 <1>   0.1400 
 18 C       -3.1850    -9.6040    -0.8440 C.2   1 <1>  -0.3320 
 19 C       -1.0170    -7.6590     1.1880 C.3   1 <1>   0.3430 
 20 N       -3.4140   -10.4710     0.1650 N.pl3 1 <1>   0.0330 
 21 C       -4.2490    -8.7750    -0.8860 C.2   1 <1>   0.0770 
 22 N       -2.4660    -7.3090     1.0290 N.4   1 <1>  -0.9590 
 23 C       -4.5750   -10.0630     0.7170 C.2   1 <1>   0.0060 
 24 N       -5.0870    -9.0310     0.1330 N.2   1 <1>  -0.5650 
 25 C       -2.6590    -6.1310     0.1320 C.3   1 <1>   0.2630 
 26 C       -3.1610    -7.0830     2.3280 C.3   1 <1>   0.2630 
 27 C       -5.2170   -10.7660     1.8960 C.3   1 <1>  -0.0600 
 28 H       -0.9160    -4.6520    -2.4540 H     1 <1>   0.1500 
 29 H        0.5210    -2.7500     1.8950 H     1 <1>   0.1500 
 30 H       -1.1610    -0.4050    -0.0570 H     1 <1>   0.0800 
 31 H       -0.9660    -0.8890     1.6060 H     1 <1>   0.0800 
 32 H       -2.4390    -1.2790     0.7550 H     1 <1>   0.0800 
 33 H        2.5930    -6.8660     0.6020 H     1 <1>   0.1500 
 34 H        1.6390    -7.9110    -1.8010 H     1 <1>   0.0800 
 35 H        1.2200    -6.6110    -2.8640 H     1 <1>   0.0800 
 36 H       -1.5030   -10.5730    -1.7500 H     1 <1>   0.0800 
 37 H       -2.2530    -9.3550    -2.7350 H     1 <1>   0.0800 
 38 H        0.5720    -8.7510     0.2300 H     1 <1>   0.0800 
 39 H       -0.8090    -9.7120     0.5780 H     1 <1>   0.0800 
 40 H       -0.4280    -6.7670     1.0720 H     1 <1>   0.0800 
 41 H       -0.8460    -8.0140     2.1910 H     1 <1>   0.0800 
 42 H       -2.8650   -11.2930     0.4410 H     1 <1>   0.2700 
 43 H       -4.4460    -7.9810    -1.5910 H     1 <1>   0.1500 
 44 H       -2.9490    -8.1050     0.5600 H     1 <1>   0.4500 
 45 H       -2.1720    -5.2610     0.5410 H     1 <1>   0.0800 
 46 H       -3.7100    -5.9200     0.0180 H     1 <1>   0.0800 
 47 H       -2.2490    -6.3330    -0.8440 H     1 <1>   0.0800 
 48 H       -2.7420    -6.2300     2.8360 H     1 <1>   0.0800 
 49 H       -3.0640    -7.9510     2.9590 H     1 <1>   0.0800 
 50 H       -4.2110    -6.9060     2.1550 H     1 <1>   0.0800 
 51 H       -4.5550   -10.7710     2.7410 H     1 <1>   0.0800 
 52 H       -5.4620   -11.7790     1.6300 H     1 <1>   0.0800 
 53 H       -6.1260   -10.2610     2.1710 H     1 <1>   0.0800 
@<TRIPOS>BOND
  1   1   2  1   
  2   2   3  ar  
  3   2   4  ar  
  4   3   5  ar  
  5   3   6  1   
  6   4   7  ar  
  7   4  28  1   
  8   5   8  ar  
  9   5  29  1   
 10   6  30  1   
 11   6  31  1   
 12   6  32  1   
 13   7   8  ar  
 14   7   9  1   
 15   8  10  1   
 16   9  11  2   
 17   9  12  1   
 18  10  11  1   
 19  11  33  1   
 20  12  13  1   
 21  12  34  1   
 22  12  35  1   
 23  13  14  2   
 24  13  15  am  
 25  15  16  1   
 26  15  17  1   
 27  16  18  1   
 28  16  36  1   
 29  16  37  1   
 30  17  19  1   
 31  17  38  1   
 32  17  39  1   
 33  18  20  1   
 34  18  21  2   
 35  19  22  1   
 36  19  40  1   
 37  19  41  1   
 38  20  23  1   
 39  20  42  1   
 40  21  24  1   
 41  21  43  1   
 42  22  25  1   
 43  22  26  1   
 44  22  44  1   
 45  23  24  2   
 46  23  27  1   
 47  25  45  1   
 48  25  46  1   
 49  25  47  1   
 50  26  48  1   
 51  26  49  1   
 52  26  50  1   
 53  27  51  1   
 54  27  52  1   
 55  27  53  1   
@<TRIPOS>SUBSTRUCTURE
  1 ****  25 GROUP 4 **** **** 0

# MOE 2024.06 (io_trps.svl 2023.06)
