@<TRIPOS>MOLECULE
NONAME
43 45 1 0 0 
SMALL
USER_CHARGES


@<TRIPOS>ATOM
  1 CL       2.9940     0.0190     2.7330 Cl    1 <1>  -0.1770 
  2 C        2.6960    -0.8560     1.2480 C.ar  1 <1>   0.1770 
  3 C        2.5220    -0.2050     0.0310 C.ar  1 <1>   0.0820 
  4 C        2.6140    -2.2340     1.3290 C.ar  1 <1>  -0.1500 
  5 O        2.5860     1.1370    -0.1130 O.3   1 <1>  -0.3630 
  6 C        2.2470    -0.9550    -1.1010 C.ar  1 <1>  -0.1500 
  7 C        2.3410    -2.9830     0.1910 C.ar  1 <1>  -0.1440 
  8 C        3.8410     1.8120     0.0350 C.3   1 <1>   0.0940 
  9 C        2.1620    -2.3350    -1.0250 C.ar  1 <1>  -0.1500 
 10 C        2.2320    -4.4910     0.2810 C.3   1 <1>   0.4870 
 11 C        3.6820     3.3390    -0.1050 C.2   1 <1>   0.9060 
 12 C        4.8560     1.2380    -0.9750 C.3   1 <1>  -0.2400 
 13 N        0.9090    -4.8230     0.8580 N.4   1 <1>  -0.8970 
 14 O        3.4320     3.8400    -1.2130 O.co2 1 <1>  -0.9000 
 15 O        3.8740     4.0470     0.8940 O.co2 1 <1>  -0.9000 
 16 C        0.5730    -6.2880     0.9170 C.3   1 <1>   0.4720 
 17 C       -0.2640    -4.6050    -0.0610 C.3   1 <1>   0.4720 
 18 C       -0.2710    -6.1170    -0.3630 C.3   1 <1>   0.1080 
 19 C       -1.6490    -6.7320    -0.2430 C.ar  1 <1>   0.2020 
 20 N       -2.3210    -6.4430     0.8620 N.ar  1 <1>  -0.6200 
 21 C       -2.1340    -7.5430    -1.2580 C.ar  1 <1>  -0.1500 
 22 C       -3.5270    -6.9860     0.9590 C.ar  1 <1>   0.1600 
 23 C       -3.3890    -8.1010    -1.1430 C.ar  1 <1>  -0.1500 
 24 C       -4.0970    -7.8070     0.0020 C.ar  1 <1>  -0.1500 
 25 H        2.7640    -2.6960     2.2890 H     1 <1>   0.1500 
 26 H        2.1080    -0.4380    -2.0350 H     1 <1>   0.1500 
 27 H        4.1940     1.6360     1.0310 H     1 <1>   0.0800 
 28 H        1.9550    -2.8850    -1.9270 H     1 <1>   0.1500 
 29 H        3.0180    -4.8710     0.9140 H     1 <1>   0.0800 
 30 H        2.3390    -4.9280    -0.6990 H     1 <1>   0.0800 
 31 H        4.4800     1.3630    -1.9740 H     1 <1>   0.0800 
 32 H        5.0610     0.2030    -0.7780 H     1 <1>   0.0800 
 33 H        5.7770     1.7870    -0.8940 H     1 <1>   0.0800 
 34 H        0.7390    -4.3540     1.7550 H     1 <1>   0.4500 
 35 H       -0.0090    -6.5120     1.7930 H     1 <1>   0.0000 
 36 H        1.4410    -6.9090     0.7910 H     1 <1>   0.0000 
 37 H       -0.0130    -3.9900    -0.9060 H     1 <1>   0.0000 
 38 H       -1.1250    -4.2700     0.4900 H     1 <1>   0.0000 
 39 H        0.2670    -6.3700    -1.2610 H     1 <1>   0.0000 
 40 H       -1.5450    -7.7460    -2.1360 H     1 <1>   0.1500 
 41 H       -4.0950    -6.7670     1.8490 H     1 <1>   0.1500 
 42 H       -3.8000    -8.7360    -1.9100 H     1 <1>   0.1500 
 43 H       -5.0830    -8.2110     0.1530 H     1 <1>   0.1500 
@<TRIPOS>BOND
  1   1   2  1   
  2   2   3  ar  
  3   2   4  ar  
  4   3   5  1   
  5   3   6  ar  
  6   4   7  ar  
  7   4  25  1   
  8   5   8  1   
  9   6   9  ar  
 10   6  26  1   
 11   7   9  ar  
 12   7  10  1   
 13   8  11  1   
 14   8  12  1   
 15   8  27  1   
 16   9  28  1   
 17  10  13  1   
 18  10  29  1   
 19  10  30  1   
 20  11  14  ar  
 21  11  15  ar  
 22  12  31  1   
 23  12  32  1   
 24  12  33  1   
 25  13  16  1   
 26  13  17  1   
 27  13  34  1   
 28  16  18  1   
 29  16  35  1   
 30  16  36  1   
 31  17  18  1   
 32  17  37  1   
 33  17  38  1   
 34  18  19  1   
 35  18  39  1   
 36  19  20  ar  
 37  19  21  ar  
 38  20  22  ar  
 39  21  23  ar  
 40  21  40  1   
 41  22  24  ar  
 42  22  41  1   
 43  23  24  ar  
 44  23  42  1   
 45  24  43  1   
@<TRIPOS>SUBSTRUCTURE
  1 ****   7 GROUP 4 **** **** 0

# MOE 2024.06 (io_trps.svl 2023.06)
