@<TRIPOS>MOLECULE
NONAME
56 60 1 0 0 
SMALL
USER_CHARGES


@<TRIPOS>ATOM
  1 S        2.4000     0.4450     0.9050 S.3   1 <1>  -0.2820 
  2 C        2.1820     1.6370    -0.3460 C.2   1 <1>   0.6510 
  3 C        1.9110    -0.8180    -0.2220 C.2   1 <1>   0.5910 
  4 N        2.3970     2.9020    -0.1640 N.2   1 <1>  -0.6210 
  5 N        1.7750     0.9980    -1.4870 N.am  1 <1>  -0.0580 
  6 N        1.6310    -0.3940    -1.3850 N.2   1 <1>  -0.5120 
  7 C        1.8850    -2.2360     0.3250 C.3   1 <1>  -0.1000 
  8 C        2.1720     3.7010    -1.2550 C.2   1 <1>   0.0330 
  9 C        1.5620     1.7890    -2.6060 C.2   1 <1>   0.6160 
 10 C        0.9770    -3.2820    -0.2510 C.3   1 <1>  -0.2000 
 11 C        0.7140    -2.7330     1.1200 C.3   1 <1>  -0.2000 
 12 C        1.7710     3.1840    -2.4470 C.2   1 <1>  -0.1360 
 13 C        2.4020     5.1970    -1.0380 C.3   1 <1>   0.4810 
 14 O        1.2190     1.3260    -3.6820 O.2   1 <1>  -0.5700 
 15 N        3.6400     5.3670    -0.2290 N.4   1 <1>  -0.9590 
 16 C        3.6380     6.6360     0.5750 C.3   1 <1>   0.3430 
 17 C        4.8680     5.1200    -1.0510 C.3   1 <1>   0.3430 
 18 C        4.5650     7.6920    -0.0360 C.3   1 <1>  -0.0800 
 19 C        6.1030     5.6540    -0.3250 C.3   1 <1>  -0.1600 
 20 C        6.0210     7.1740    -0.0960 C.3   1 <1>  -0.1600 
 21 C        4.4700     9.0090     0.7460 C.3   1 <1>   0.1200 
 22 O        5.2860     9.9590     0.1050 O.3   1 <1>  -0.3630 
 23 C        5.4400    11.2170     0.5970 C.ar  1 <1>   0.0830 
 24 C        6.3200    12.0650    -0.0710 C.ar  1 <1>  -0.1430 
 25 C        4.7620    11.6780     1.7240 C.ar  1 <1>  -0.1500 
 26 C        6.5120    13.3570     0.3930 C.ar  1 <1>  -0.1500 
 27 C        7.0750    11.5890    -1.3040 C.3   1 <1>  -0.0970 
 28 C        4.9620    12.9690     2.1770 C.ar  1 <1>  -0.1500 
 29 C        5.8360    13.8090     1.5120 C.ar  1 <1>  -0.1500 
 30 H        2.8640    -2.5580     0.6340 H     1 <1>   0.1000 
 31 H        1.3450    -4.2890    -0.3460 H     1 <1>   0.1000 
 32 H        0.3140    -3.0100    -1.0550 H     1 <1>   0.1000 
 33 H       -0.1400    -2.0920     1.2570 H     1 <1>   0.1000 
 34 H        0.8970    -3.3640     1.9730 H     1 <1>   0.1000 
 35 H        1.5880     3.7830    -3.3210 H     1 <1>   0.1500 
 36 H        1.5590     5.5920    -0.4960 H     1 <1>   0.0800 
 37 H        2.4830     5.7170    -1.9790 H     1 <1>   0.0800 
 38 H        3.5750     4.5740     0.4360 H     1 <1>   0.4500 
 39 H        3.9860     6.4210     1.5720 H     1 <1>   0.0800 
 40 H        2.6360     7.0260     0.6520 H     1 <1>   0.0800 
 41 H        4.7820     5.6280    -1.9980 H     1 <1>   0.0800 
 42 H        4.9790     4.0640    -1.2400 H     1 <1>   0.0800 
 43 H        4.2170     7.8940    -1.0340 H     1 <1>   0.0800 
 44 H        6.9830     5.4290    -0.9020 H     1 <1>   0.0800 
 45 H        6.2020     5.1430     0.6170 H     1 <1>   0.0800 
 46 H        6.5430     7.4120     0.8160 H     1 <1>   0.0800 
 47 H        6.5330     7.6900    -0.8930 H     1 <1>   0.0800 
 48 H        4.8260     8.8880     1.7560 H     1 <1>   0.0800 
 49 H        3.4620     9.3870     0.7500 H     1 <1>   0.0800 
 50 H        4.0760    11.0550     2.2630 H     1 <1>   0.1500 
 51 H        7.1890    14.0210    -0.1150 H     1 <1>   0.1500 
 52 H        7.6810    10.7380    -1.0530 H     1 <1>   0.0800 
 53 H        7.7120    12.3620    -1.6930 H     1 <1>   0.0800 
 54 H        6.3760    11.3040    -2.0700 H     1 <1>   0.0800 
 55 H        4.4370    13.3220     3.0480 H     1 <1>   0.1500 
 56 H        5.9920    14.8140     1.8650 H     1 <1>   0.1500 
@<TRIPOS>BOND
  1   1   2  1   
  2   1   3  1   
  3   2   4  2   
  4   2   5  1   
  5   3   6  2   
  6   3   7  1   
  7   4   8  1   
  8   5   6  1   
  9   5   9  am  
 10   7  10  1   
 11   7  11  1   
 12   7  30  1   
 13   8  12  2   
 14   8  13  1   
 15   9  12  1   
 16   9  14  2   
 17  10  11  1   
 18  10  31  1   
 19  10  32  1   
 20  11  33  1   
 21  11  34  1   
 22  12  35  1   
 23  13  15  1   
 24  13  36  1   
 25  13  37  1   
 26  15  16  1   
 27  15  17  1   
 28  15  38  1   
 29  16  18  1   
 30  16  39  1   
 31  16  40  1   
 32  17  19  1   
 33  17  41  1   
 34  17  42  1   
 35  18  20  1   
 36  18  21  1   
 37  18  43  1   
 38  19  20  1   
 39  19  44  1   
 40  19  45  1   
 41  20  46  1   
 42  20  47  1   
 43  21  22  1   
 44  21  48  1   
 45  21  49  1   
 46  22  23  1   
 47  23  24  ar  
 48  23  25  ar  
 49  24  26  ar  
 50  24  27  1   
 51  25  28  ar  
 52  25  50  1   
 53  26  29  ar  
 54  26  51  1   
 55  27  52  1   
 56  27  53  1   
 57  27  54  1   
 58  28  29  ar  
 59  28  55  1   
 60  29  56  1   
@<TRIPOS>SUBSTRUCTURE
  1 ****  15 GROUP 4 **** **** 0

# MOE 2024.06 (io_trps.svl 2023.06)
