@<TRIPOS>MOLECULE
NONAME
50 52 1 0 0 
SMALL
USER_CHARGES


@<TRIPOS>ATOM
  1 O        4.6210    -1.0780     0.8420 O.2   1 <1>  -0.5700 
  2 C        3.4790    -0.8770     0.4700 C.2   1 <1>   0.7030 
  3 N        3.3280    -0.4510    -0.8320 N.am  1 <1>  -0.6600 
  4 C        2.3690    -1.0370     1.4050 C.2   1 <1>   0.2770 
  5 C        4.0080    -1.1710    -1.9650 C.3   1 <1>   0.1400 
  6 C        2.9740     0.9660    -1.1130 C.3   1 <1>   0.1400 
  7 N        0.9940    -1.1680     1.1560 N.pl3 1 <1>  -0.7640 
  8 C        2.5000    -1.1070     2.7560 C.2   1 <1>   0.2000 
  9 C        5.5410    -0.9650    -2.0340 C.3   1 <1>   0.3430 
 10 C        4.1900     1.8870    -0.9370 C.3   1 <1>  -0.1600 
 11 C        0.3780    -1.3000     2.3260 C.cat 1 <1>   0.6500 
 12 C        0.3330    -1.2270    -0.1790 C.3   1 <1>   0.2740 
 13 N        1.2610    -1.2610     3.3090 N.pl3 1 <1>  -0.7000 
 14 N        6.0130     0.2400    -1.2850 N.4   1 <1>  -0.9590 
 15 C        5.4220     1.5210    -1.7710 C.3   1 <1>   0.3430 
 16 C        7.4930     0.2880    -1.2120 C.3   1 <1>   0.4810 
 17 C        7.8700     1.3550    -0.2130 C.2   1 <1>  -0.2880 
 18 C        8.5130     2.4970    -0.5150 C.2   1 <1>  -0.1780 
 19 C        8.8930     3.5670     0.3820 C.ar  1 <1>   0.0280 
 20 C        8.8570     3.4330     1.7690 C.ar  1 <1>  -0.1500 
 21 C        9.3150     4.7900    -0.1360 C.ar  1 <1>  -0.1500 
 22 C        9.2180     4.4770     2.6020 C.ar  1 <1>  -0.1500 
 23 C        9.6770     5.8370     0.6910 C.ar  1 <1>  -0.1500 
 24 C        9.6280     5.6830     2.0640 C.ar  1 <1>  -0.1500 
 25 H        3.8130    -2.2270    -1.8810 H     1 <1>   0.0800 
 26 H        3.5750    -0.8530    -2.8980 H     1 <1>   0.0800 
 27 H        2.5910     1.0520    -2.1170 H     1 <1>   0.0800 
 28 H        2.1950     1.2850    -0.4410 H     1 <1>   0.0800 
 29 H        3.4100    -1.0560     3.3360 H     1 <1>   0.1500 
 30 H        5.8470    -0.9090    -3.0660 H     1 <1>   0.0800 
 31 H        6.0070    -1.8400    -1.6090 H     1 <1>   0.0800 
 32 H        4.4640     1.9460     0.1020 H     1 <1>   0.0800 
 33 H        3.8880     2.8790    -1.2250 H     1 <1>   0.0800 
 34 H       -0.6890    -1.4290     2.4610 H     1 <1>   0.1500 
 35 H        0.8390    -1.9360    -0.8120 H     1 <1>   0.0800 
 36 H        0.3560    -0.2580    -0.6480 H     1 <1>   0.0800 
 37 H       -0.6950    -1.5340    -0.0780 H     1 <1>   0.0800 
 38 H        1.0550    -1.3450     4.3120 H     1 <1>   0.4500 
 39 H        5.6800     0.0930    -0.3150 H     1 <1>   0.4500 
 40 H        6.1430     2.3160    -1.6690 H     1 <1>   0.0800 
 41 H        5.1620     1.4440    -2.8150 H     1 <1>   0.0800 
 42 H        7.8860    -0.6630    -0.8880 H     1 <1>   0.0800 
 43 H        7.9070     0.5220    -2.1800 H     1 <1>   0.0800 
 44 H        7.5650     1.1050     0.7880 H     1 <1>   0.1500 
 45 H        8.8000     2.6910    -1.5350 H     1 <1>   0.1500 
 46 H        8.5520     2.5060     2.2140 H     1 <1>   0.1500 
 47 H        9.3630     4.9320    -1.2010 H     1 <1>   0.1500 
 48 H        9.1830     4.3530     3.6700 H     1 <1>   0.1500 
 49 H        9.9990     6.7730     0.2690 H     1 <1>   0.1500 
 50 H        9.9090     6.4960     2.7110 H     1 <1>   0.1500 
@<TRIPOS>BOND
  1   1   2  2   
  2   2   3  am  
  3   2   4  1   
  4   3   5  1   
  5   3   6  1   
  6   4   7  1   
  7   4   8  2   
  8   5   9  1   
  9   5  25  1   
 10   5  26  1   
 11   6  10  1   
 12   6  27  1   
 13   6  28  1   
 14   7  11  ar  
 15   7  12  1   
 16   8  13  1   
 17   8  29  1   
 18   9  14  1   
 19   9  30  1   
 20   9  31  1   
 21  10  15  1   
 22  10  32  1   
 23  10  33  1   
 24  11  13  ar  
 25  11  34  1   
 26  12  35  1   
 27  12  36  1   
 28  12  37  1   
 29  13  38  1   
 30  14  15  1   
 31  14  16  1   
 32  14  39  1   
 33  15  40  1   
 34  15  41  1   
 35  16  17  1   
 36  16  42  1   
 37  16  43  1   
 38  17  18  2   
 39  17  44  1   
 40  18  19  1   
 41  18  45  1   
 42  19  20  ar  
 43  19  21  ar  
 44  20  22  ar  
 45  20  46  1   
 46  21  23  ar  
 47  21  47  1   
 48  22  24  ar  
 49  22  48  1   
 50  23  24  ar  
 51  23  49  1   
 52  24  50  1   
@<TRIPOS>SUBSTRUCTURE
  1 ****  10 GROUP 4 **** **** 0

# MOE 2024.06 (io_trps.svl 2023.06)
