@<TRIPOS>MOLECULE
NONAME
39 40 1 0 0 
SMALL
USER_CHARGES


@<TRIPOS>ATOM
  1 O        0.0910    -0.7010     0.7870 O.3   1 <1>  -0.5600 
  2 C       -0.2270    -1.9890     0.3490 C.3   1 <1>   0.2000 
  3 C        0.2000     0.2500    -0.2210 C.3   1 <1>   0.1200 
  4 C       -1.0160    -2.6980     1.4590 C.3   1 <1>   0.2090 
  5 C        1.0800    -2.7370     0.0330 C.3   1 <1>  -0.1600 
  6 C        0.5600     1.5830     0.4320 C.3   1 <1>  -0.1600 
  7 N       -1.2460    -4.1320     1.0950 N.pl3 1 <1>  -0.8380 
  8 C        0.8120    -4.2270    -0.2500 C.3   1 <1>  -0.1600 
  9 C        0.6980     2.6980    -0.6110 C.3   1 <1>  -0.2400 
 10 C       -2.4380    -4.5580     0.5470 C.ar  1 <1>   0.7200 
 11 C        0.0080    -4.8970     0.8720 C.3   1 <1>   0.2090 
 12 N       -2.6640    -5.8700     0.5500 N.ar  1 <1>  -0.6200 
 13 N       -3.2510    -3.6230     0.0570 N.ar  1 <1>  -0.6200 
 14 C       -3.8020    -6.2670     0.0300 C.ar  1 <1>   0.1600 
 15 C       -4.3810    -4.0500    -0.4590 C.ar  1 <1>   0.1600 
 16 C       -4.7230    -5.3840    -0.5030 C.ar  1 <1>   0.0820 
 17 O       -5.9210    -5.7340    -1.0580 O.3   1 <1>  -0.3630 
 18 C       -6.3160    -7.0880    -1.1040 C.3   1 <1>   0.0400 
 19 H       -0.8570    -1.9270    -0.5230 H     1 <1>   0.0800 
 20 H       -0.7460     0.3220    -0.7320 H     1 <1>   0.0800 
 21 H        0.9690    -0.0540    -0.9100 H     1 <1>   0.0800 
 22 H       -1.9510    -2.1910     1.6200 H     1 <1>   0.0800 
 23 H       -0.4530    -2.6600     2.3750 H     1 <1>   0.0800 
 24 H        1.7390    -2.6560     0.8800 H     1 <1>   0.0800 
 25 H        1.5590    -2.2960    -0.8210 H     1 <1>   0.0800 
 26 H        1.4900     1.4740     0.9630 H     1 <1>   0.0800 
 27 H       -0.2090     1.8480     1.1370 H     1 <1>   0.0800 
 28 H        1.7460    -4.7450    -0.3720 H     1 <1>   0.0800 
 29 H        0.2600    -4.3260    -1.1680 H     1 <1>   0.0800 
 30 H        1.4750     2.4600    -1.3160 H     1 <1>   0.0800 
 31 H        0.9490     3.6240    -0.1250 H     1 <1>   0.0800 
 32 H       -0.2270     2.8310    -1.1440 H     1 <1>   0.0800 
 33 H       -0.2010    -5.9190     0.6070 H     1 <1>   0.0800 
 34 H        0.5810    -4.9030     1.7840 H     1 <1>   0.0800 
 35 H       -3.9960    -7.3230     0.0320 H     1 <1>   0.1500 
 36 H       -5.0650    -3.3240    -0.8610 H     1 <1>   0.1500 
 37 H       -7.2840    -7.1380    -1.5700 H     1 <1>   0.0800 
 38 H       -6.3760    -7.4710    -0.1000 H     1 <1>   0.0800 
 39 H       -5.6020    -7.6430    -1.6880 H     1 <1>   0.0800 
@<TRIPOS>BOND
  1   1   2  1   
  2   1   3  1   
  3   2   4  1   
  4   2   5  1   
  5   2  19  1   
  6   3   6  1   
  7   3  20  1   
  8   3  21  1   
  9   4   7  1   
 10   4  22  1   
 11   4  23  1   
 12   5   8  1   
 13   5  24  1   
 14   5  25  1   
 15   6   9  1   
 16   6  26  1   
 17   6  27  1   
 18   7  10  1   
 19   7  11  1   
 20   8  11  1   
 21   8  28  1   
 22   8  29  1   
 23   9  30  1   
 24   9  31  1   
 25   9  32  1   
 26  10  12  ar  
 27  10  13  ar  
 28  11  33  1   
 29  11  34  1   
 30  12  14  ar  
 31  13  15  ar  
 32  14  16  ar  
 33  14  35  1   
 34  15  16  ar  
 35  15  36  1   
 36  16  17  1   
 37  17  18  1   
 38  18  37  1   
 39  18  38  1   
 40  18  39  1   
@<TRIPOS>SUBSTRUCTURE
  1 ****   7 GROUP 4 **** **** 0

# MOE 2024.06 (io_trps.svl 2023.06)
