@<TRIPOS>MOLECULE
NONAME
40 42 1 0 0 
SMALL
USER_CHARGES


@<TRIPOS>ATOM
  1 CL      -2.5400    -0.4320    -2.3880 Cl    1 <1>  -0.1770 
  2 C       -2.1200     0.6020    -1.0450 C.ar  1 <1>   0.1770 
  3 C       -2.3230     0.1690     0.2640 C.ar  1 <1>   0.0860 
  4 C       -1.5980     1.8500    -1.3310 C.ar  1 <1>  -0.1500 
  5 C       -2.8760    -1.1320     0.5650 C.2   1 <1>   0.5440 
  6 C       -1.9680     1.0460     1.2890 C.ar  1 <1>  -0.1500 
  7 C       -1.2600     2.7040    -0.2960 C.ar  1 <1>  -0.1500 
  8 O       -2.1260    -1.9910     0.9880 O.2   1 <1>  -0.5700 
  9 N       -4.2220    -1.4190     0.4260 N.am  1 <1>  -0.6600 
 10 C       -1.4450     2.2980     1.0150 C.ar  1 <1>  -0.1500 
 11 C       -5.2110    -0.4030    -0.0460 C.3   1 <1>   0.2200 
 12 C       -4.7160    -2.8000     0.7290 C.3   1 <1>   0.0600 
 13 C       -6.1180    -0.8890    -1.1730 C.3   1 <1>  -0.1600 
 14 C       -6.1680     0.0410     1.0550 C.3   1 <1>  -0.1600 
 15 C       -7.3050     0.0820    -1.1450 C.3   1 <1>  -0.0800 
 16 C       -7.3760     0.6230     0.3060 C.3   1 <1>  -0.0800 
 17 C       -8.6030    -0.5430    -1.6960 C.3   1 <1>   0.1400 
 18 C       -8.7140     0.3460     1.0180 C.3   1 <1>  -0.0990 
 19 N       -9.7760     0.1960    -1.1840 N.am  1 <1>  -0.7300 
 20 C       -9.8750     0.6300     0.0900 C.2   1 <1>   0.5690 
 21 O      -10.8510     1.2140     0.4830 O.2   1 <1>  -0.5700 
 22 H       -1.4570     2.1480    -2.3550 H     1 <1>   0.1500 
 23 H       -2.1020     0.7300     2.3090 H     1 <1>   0.1500 
 24 H       -0.8520     3.6780    -0.5080 H     1 <1>   0.1500 
 25 H       -1.1770     2.9580     1.8240 H     1 <1>   0.1500 
 26 H       -4.7060     0.4760    -0.4040 H     1 <1>   0.0800 
 27 H       -5.7380    -2.7830     1.0600 H     1 <1>   0.0800 
 28 H       -4.1210    -3.2500     1.5050 H     1 <1>   0.0800 
 29 H       -4.6400    -3.4070    -0.1560 H     1 <1>   0.0800 
 30 H       -5.6090    -0.8690    -2.1210 H     1 <1>   0.0800 
 31 H       -6.4680    -1.8850    -0.9760 H     1 <1>   0.0800 
 32 H       -6.4710    -0.8020     1.6470 H     1 <1>   0.0800 
 33 H       -5.7110     0.7750     1.6940 H     1 <1>   0.0800 
 34 H       -7.0570     0.9150    -1.7820 H     1 <1>   0.0800 
 35 H       -7.2560     1.6930     0.2510 H     1 <1>   0.0800 
 36 H       -8.6890    -1.5690    -1.3800 H     1 <1>   0.0800 
 37 H       -8.5960    -0.5180    -2.7730 H     1 <1>   0.0800 
 38 H       -8.8000     0.9570     1.8980 H     1 <1>   0.0800 
 39 H       -8.7800    -0.6840     1.3130 H     1 <1>   0.0800 
 40 H      -10.5750     0.3540    -1.8020 H     1 <1>   0.3700 
@<TRIPOS>BOND
  1   1   2  1   
  2   2   3  ar  
  3   2   4  ar  
  4   3   5  1   
  5   3   6  ar  
  6   4   7  ar  
  7   4  22  1   
  8   5   8  2   
  9   5   9  am  
 10   6  10  ar  
 11   6  23  1   
 12   7  10  ar  
 13   7  24  1   
 14   9  11  1   
 15   9  12  1   
 16  10  25  1   
 17  11  13  1   
 18  11  14  1   
 19  11  26  1   
 20  12  27  1   
 21  12  28  1   
 22  12  29  1   
 23  13  15  1   
 24  13  30  1   
 25  13  31  1   
 26  14  16  1   
 27  14  32  1   
 28  14  33  1   
 29  15  16  1   
 30  15  17  1   
 31  15  34  1   
 32  16  18  1   
 33  16  35  1   
 34  17  19  1   
 35  17  36  1   
 36  17  37  1   
 37  18  20  1   
 38  18  38  1   
 39  18  39  1   
 40  19  20  am  
 41  19  40  1   
 42  20  21  2   
@<TRIPOS>SUBSTRUCTURE
  1 ****  11 GROUP 4 **** **** 0

# MOE 2024.06 (io_trps.svl 2023.06)
