@<TRIPOS>MOLECULE
NONAME
49 51 1 0 0 
SMALL
USER_CHARGES


@<TRIPOS>ATOM
  1 F       -1.4180    -0.3790     1.2110 F     1 <1>  -0.1900 
  2 C       -2.5840    -0.9530     1.1020 C.ar  1 <1>   0.1900 
  3 C       -3.3530    -1.1300     2.2350 C.ar  1 <1>  -0.1500 
  4 C       -3.0130    -1.3680    -0.1430 C.ar  1 <1>  -0.1500 
  5 C       -4.5890    -1.7390     2.1100 C.ar  1 <1>  -0.1500 
  6 C       -4.2520    -1.9770    -0.2500 C.ar  1 <1>  -0.1500 
  7 C       -5.0650    -2.1710     0.8700 C.ar  1 <1>   0.0280 
  8 C       -6.3640    -2.8030     0.7820 C.2   1 <1>  -0.1780 
  9 C       -7.0990    -3.0330    -0.3210 C.2   1 <1>  -0.2880 
 10 C       -8.4500    -3.7080    -0.3280 C.3   1 <1>   0.4810 
 11 N       -9.4720    -2.6630    -0.5360 N.4   1 <1>  -0.9590 
 12 C      -10.8330    -3.1490    -0.1310 C.3   1 <1>   0.3430 
 13 C       -9.4780    -2.0890    -1.9080 C.3   1 <1>   0.3430 
 14 C      -11.9700    -2.1550    -0.4940 C.3   1 <1>   0.0000 
 15 C      -10.3360    -0.8160    -1.9330 C.3   1 <1>  -0.1600 
 16 C      -12.9940    -2.0910     0.6500 C.3   1 <1>   0.2000 
 17 C      -11.4130    -0.7550    -0.8320 C.3   1 <1>  -0.1600 
 18 C      -12.8100    -2.7350    -1.6430 C.3   1 <1>  -0.1600 
 19 O      -12.3380    -2.0990     1.8810 O.3   1 <1>  -0.5600 
 20 C      -13.8830    -3.3270     0.4810 C.3   1 <1>  -0.1600 
 21 C      -13.7480    -3.7530    -0.9870 C.3   1 <1>  -0.1600 
 22 C      -13.1300    -1.7230     2.9660 C.3   1 <1>   0.0400 
 23 H       -2.9860    -0.7960     3.1890 H     1 <1>   0.1500 
 24 H       -2.3860    -1.2170    -1.0030 H     1 <1>   0.1500 
 25 H       -5.1900    -1.8780     2.9900 H     1 <1>   0.1500 
 26 H       -4.5780    -2.3070    -1.2180 H     1 <1>   0.1500 
 27 H       -6.7450    -3.1040     1.7440 H     1 <1>   0.1500 
 28 H       -6.7690    -2.7510    -1.3040 H     1 <1>   0.1500 
 29 H       -8.6100    -4.1830     0.6270 H     1 <1>   0.0800 
 30 H       -8.5010    -4.4590    -1.0990 H     1 <1>   0.0800 
 31 H       -9.2340    -1.8940     0.1040 H     1 <1>   0.4500 
 32 H      -11.0400    -4.0920    -0.6070 H     1 <1>   0.0800 
 33 H      -10.8310    -3.3260     0.9320 H     1 <1>   0.0800 
 34 H       -8.4770    -1.8490    -2.2270 H     1 <1>   0.0800 
 35 H       -9.8880    -2.8120    -2.5940 H     1 <1>   0.0800 
 36 H       -9.6950     0.0450    -1.8460 H     1 <1>   0.0800 
 37 H      -10.8060    -0.7540    -2.8990 H     1 <1>   0.0800 
 38 H      -13.5830    -1.1920     0.5630 H     1 <1>   0.0800 
 39 H      -12.2050    -0.0910    -1.1340 H     1 <1>   0.0800 
 40 H      -10.9780    -0.3380     0.0620 H     1 <1>   0.0800 
 41 H      -13.4100    -1.9550    -2.0830 H     1 <1>   0.0800 
 42 H      -12.2170    -3.1840    -2.4210 H     1 <1>   0.0800 
 43 H      -13.5530    -4.1250     1.1250 H     1 <1>   0.0800 
 44 H      -14.9050    -3.0830     0.7120 H     1 <1>   0.0800 
 45 H      -13.3260    -4.7430    -1.0410 H     1 <1>   0.0800 
 46 H      -14.7070    -3.7650    -1.4800 H     1 <1>   0.0800 
 47 H      -12.5230    -1.7550     3.8530 H     1 <1>   0.0800 
 48 H      -13.9530    -2.4090     3.0690 H     1 <1>   0.0800 
 49 H      -13.4920    -0.7200     2.8140 H     1 <1>   0.0800 
@<TRIPOS>BOND
  1   1   2  1   
  2   2   3  ar  
  3   2   4  ar  
  4   3   5  ar  
  5   3  23  1   
  6   4   6  ar  
  7   4  24  1   
  8   5   7  ar  
  9   5  25  1   
 10   6   7  ar  
 11   6  26  1   
 12   7   8  1   
 13   8   9  2   
 14   8  27  1   
 15   9  10  1   
 16   9  28  1   
 17  10  11  1   
 18  10  29  1   
 19  10  30  1   
 20  11  12  1   
 21  11  13  1   
 22  11  31  1   
 23  12  14  1   
 24  12  32  1   
 25  12  33  1   
 26  13  15  1   
 27  13  34  1   
 28  13  35  1   
 29  14  16  1   
 30  14  17  1   
 31  14  18  1   
 32  15  17  1   
 33  15  36  1   
 34  15  37  1   
 35  16  19  1   
 36  16  20  1   
 37  16  38  1   
 38  17  39  1   
 39  17  40  1   
 40  18  21  1   
 41  18  41  1   
 42  18  42  1   
 43  19  22  1   
 44  20  21  1   
 45  20  43  1   
 46  20  44  1   
 47  21  45  1   
 48  21  46  1   
 49  22  47  1   
 50  22  48  1   
 51  22  49  1   
@<TRIPOS>SUBSTRUCTURE
  1 ****  11 GROUP 4 **** **** 0

# MOE 2024.06 (io_trps.svl 2023.06)
