@<TRIPOS>MOLECULE
NONAME
49 52 1 0 0 
SMALL
USER_CHARGES


@<TRIPOS>ATOM
  1 O        0.1330     0.0700    -0.9350 O.2   1 <1>  -0.5700 
  2 C       -0.8570     0.7500    -0.8150 C.2   1 <1>   0.5690 
  3 N       -2.0890     0.1940    -0.6030 N.am  1 <1>  -0.6600 
  4 C       -0.6930     2.2560    -0.8890 C.3   1 <1>  -0.0990 
  5 C       -3.3800     0.9100    -0.4480 C.3   1 <1>   0.1400 
  6 C       -2.2800    -1.2680    -0.4460 C.3   1 <1>   0.1400 
  7 C       -0.4460     2.8490     0.5020 C.3   1 <1>  -0.0160 
  8 C       -4.4320    -0.1920    -0.3320 C.3   1 <1>   0.2000 
  9 C       -3.6760    -1.4240     0.1560 C.3   1 <1>  -0.0800 
 10 C       -0.3810     4.3660     0.4310 C.ar  1 <1>  -0.1440 
 11 O       -5.4270     0.1500     0.5690 O.3   1 <1>  -0.6800 
 12 C       -4.3620    -2.7470    -0.2150 C.3   1 <1>   0.0210 
 13 C        0.8250     4.9940     0.1370 C.ar  1 <1>  -0.1500 
 14 C       -1.5280     5.1280     0.6560 C.ar  1 <1>  -0.1500 
 15 C       -3.5170    -3.9320     0.2100 C.2   1 <1>   0.1080 
 16 C        0.8460     6.3740     0.0780 C.ar  1 <1>   0.0820 
 17 C       -1.4880     6.5150     0.5920 C.ar  1 <1>  -0.1500 
 18 N       -3.1830    -4.1490     1.4440 N.2   1 <1>  -0.7070 
 19 C       -3.0020    -4.8940    -0.6520 C.2   1 <1>  -0.1500 
 20 O        1.8810     7.1780    -0.1840 O.3   1 <1>  -0.3620 
 21 C       -0.2790     7.1140     0.3000 C.ar  1 <1>   0.0820 
 22 N       -2.4370    -5.2690     1.4020 N.pl3 1 <1>   0.3000 
 23 C       -2.3120    -5.7380     0.1430 C.2   1 <1>  -0.3320 
 24 C        1.3860     8.5140    -0.1230 C.3   1 <1>   0.4000 
 25 O       -0.0030     8.4170     0.1870 O.3   1 <1>  -0.3620 
 26 C       -1.5270    -6.9830    -0.2280 C.3   1 <1>  -0.0600 
 27 H        0.1480     2.4770    -1.5210 H     1 <1>   0.0800 
 28 H       -1.5580     2.7040    -1.3360 H     1 <1>   0.0800 
 29 H       -3.3520     1.5070     0.4470 H     1 <1>   0.0800 
 30 H       -3.5760     1.5280    -1.3070 H     1 <1>   0.0800 
 31 H       -2.2200    -1.7340    -1.4150 H     1 <1>   0.0800 
 32 H       -1.5250    -1.6910     0.1970 H     1 <1>   0.0800 
 33 H        0.4790     2.4620     0.8970 H     1 <1>   0.0800 
 34 H       -1.2320     2.5520     1.1730 H     1 <1>   0.0800 
 35 H       -4.8870    -0.3610    -1.2930 H     1 <1>   0.0800 
 36 H       -3.5600    -1.3780     1.2250 H     1 <1>   0.0800 
 37 H       -5.0960     0.0720     1.4850 H     1 <1>   0.4000 
 38 H       -4.5330    -2.7930    -1.2750 H     1 <1>   0.0800 
 39 H       -5.3140    -2.8090     0.2810 H     1 <1>   0.0800 
 40 H        1.7270     4.4370    -0.0430 H     1 <1>   0.1500 
 41 H       -2.4600     4.6420     0.8830 H     1 <1>   0.1500 
 42 H       -2.3620     7.1160     0.7640 H     1 <1>   0.1500 
 43 H       -3.1370    -4.9320    -1.7180 H     1 <1>   0.1500 
 44 H       -2.0290    -5.6850     2.2480 H     1 <1>   0.2700 
 45 H        1.8930     9.0520     0.6580 H     1 <1>   0.0800 
 46 H        1.5100     8.9900    -1.0800 H     1 <1>   0.0800 
 47 H       -1.5770    -7.1480    -1.2900 H     1 <1>   0.0800 
 48 H       -1.9340    -7.8430     0.2720 H     1 <1>   0.0800 
 49 H       -0.4940    -6.8690     0.0510 H     1 <1>   0.0800 
@<TRIPOS>BOND
  1   1   2  2   
  2   2   3  am  
  3   2   4  1   
  4   3   5  1   
  5   3   6  1   
  6   4   7  1   
  7   4  27  1   
  8   4  28  1   
  9   5   8  1   
 10   5  29  1   
 11   5  30  1   
 12   6   9  1   
 13   6  31  1   
 14   6  32  1   
 15   7  10  1   
 16   7  33  1   
 17   7  34  1   
 18   8   9  1   
 19   8  11  1   
 20   8  35  1   
 21   9  12  1   
 22   9  36  1   
 23  10  13  ar  
 24  10  14  ar  
 25  11  37  1   
 26  12  15  1   
 27  12  38  1   
 28  12  39  1   
 29  13  16  ar  
 30  13  40  1   
 31  14  17  ar  
 32  14  41  1   
 33  15  18  2   
 34  15  19  1   
 35  16  20  1   
 36  16  21  ar  
 37  17  21  ar  
 38  17  42  1   
 39  18  22  1   
 40  19  23  2   
 41  19  43  1   
 42  20  24  1   
 43  21  25  1   
 44  22  23  1   
 45  22  44  1   
 46  23  26  1   
 47  24  25  1   
 48  24  45  1   
 49  24  46  1   
 50  26  47  1   
 51  26  48  1   
 52  26  49  1   
@<TRIPOS>SUBSTRUCTURE
  1 ****   2 GROUP 4 **** **** 0

# MOE 2024.06 (io_trps.svl 2023.06)
