@<TRIPOS>MOLECULE
NONAME
52 54 1 0 0 
SMALL
USER_CHARGES


@<TRIPOS>ATOM
  1 O       -3.5340     2.0640    -1.6410 O.2   1 <1>  -0.5700 
  2 C       -3.1060     1.2390    -0.8560 C.2   1 <1>   0.5440 
  3 N       -3.7650     0.0300    -0.7410 N.am  1 <1>  -0.6600 
  4 C       -1.9290     1.5570    -0.0720 C.ar  1 <1>   0.0860 
  5 C       -3.2260    -1.1020     0.1000 C.3   1 <1>   0.3640 
  6 C       -5.1170    -0.1240    -1.3590 C.3   1 <1>   0.1400 
  7 C       -2.0010     1.7430     1.3070 C.ar  1 <1>  -0.1500 
  8 C       -0.6780     1.6670    -0.6750 C.ar  1 <1>  -0.1500 
  9 C       -1.8130    -1.4510    -0.3780 C.ar  1 <1>  -0.1430 
 10 C       -4.0810    -2.4090     0.1210 C.3   1 <1>   0.2000 
 11 C       -5.5330    -1.5850    -1.5190 C.3   1 <1>   0.1200 
 12 C       -0.8660     1.9940     2.0570 C.ar  1 <1>  -0.1500 
 13 C        0.4590     1.9180     0.0700 C.ar  1 <1>  -0.1500 
 14 C       -0.7650    -1.5090     0.5310 C.ar  1 <1>  -0.1500 
 15 C       -1.5530    -1.7020    -1.7200 C.ar  1 <1>  -0.1500 
 16 O       -5.4080    -2.2270    -0.2930 O.3   1 <1>  -0.5600 
 17 C       -4.1540    -3.0450     1.5180 C.3   1 <1>   0.1200 
 18 C        0.3720     2.0770     1.4430 C.ar  1 <1>  -0.1430 
 19 C        0.5210    -1.8080     0.1170 C.ar  1 <1>   0.0830 
 20 C       -0.2690    -1.9910    -2.1470 C.ar  1 <1>  -0.1500 
 21 O       -2.8870    -3.2690     2.0470 O.3   1 <1>  -0.6800 
 22 C        1.6270     2.3280     2.2590 C.3   1 <1>  -0.0970 
 23 O        1.4860    -1.8710     1.0670 O.3   1 <1>  -0.3620 
 24 C        0.7770    -2.0280    -1.2410 C.ar  1 <1>   0.0830 
 25 C        2.0490    -3.1430     1.3000 C.3   1 <1>   0.0400 
 26 O        2.0180    -2.2720    -1.7270 O.3   1 <1>  -0.3630 
 27 C        2.9440    -1.2120    -1.6240 C.3   1 <1>   0.0400 
 28 H       -3.1630    -0.7450     1.1130 H     1 <1>   0.0800 
 29 H       -5.8400     0.3820    -0.7430 H     1 <1>   0.0800 
 30 H       -5.1280     0.3460    -2.3280 H     1 <1>   0.0800 
 31 H       -2.9590     1.6850     1.7920 H     1 <1>   0.1500 
 32 H       -0.6050     1.5390    -1.7410 H     1 <1>   0.1500 
 33 H       -3.6490    -3.1280    -0.5530 H     1 <1>   0.0800 
 34 H       -4.9250    -2.0860    -2.2520 H     1 <1>   0.0800 
 35 H       -6.5640    -1.6440    -1.8200 H     1 <1>   0.0800 
 36 H       -0.9500     2.1220     3.1220 H     1 <1>   0.1500 
 37 H        1.4130     1.9820    -0.4210 H     1 <1>   0.1500 
 38 H       -0.9340    -1.3170     1.5760 H     1 <1>   0.1500 
 39 H       -2.3510    -1.6580    -2.4410 H     1 <1>   0.1500 
 40 H       -4.6690    -3.9890     1.4720 H     1 <1>   0.0800 
 41 H       -4.6750    -2.3880     2.1930 H     1 <1>   0.0800 
 42 H       -0.0690    -2.1770    -3.1860 H     1 <1>   0.1500 
 43 H       -2.3800    -3.8990     1.4960 H     1 <1>   0.4000 
 44 H        1.3820     2.7620     3.2110 H     1 <1>   0.0800 
 45 H        2.2820     3.0020     1.7360 H     1 <1>   0.0800 
 46 H        2.1420     1.3980     2.4220 H     1 <1>   0.0800 
 47 H        2.7310    -3.0610     2.1270 H     1 <1>   0.0800 
 48 H        2.5740    -3.4680     0.4210 H     1 <1>   0.0800 
 49 H        1.2590    -3.8320     1.5410 H     1 <1>   0.0800 
 50 H        3.8400    -1.4970    -2.1430 H     1 <1>   0.0800 
 51 H        3.1620    -1.0280    -0.5880 H     1 <1>   0.0800 
 52 H        2.5170    -0.3340    -2.0760 H     1 <1>   0.0800 
@<TRIPOS>BOND
  1   1   2  2   
  2   2   3  am  
  3   2   4  1   
  4   3   5  1   
  5   3   6  1   
  6   4   7  ar  
  7   4   8  ar  
  8   5   9  1   
  9   5  10  1   
 10   5  28  1   
 11   6  11  1   
 12   6  29  1   
 13   6  30  1   
 14   7  12  ar  
 15   7  31  1   
 16   8  13  ar  
 17   8  32  1   
 18   9  14  ar  
 19   9  15  ar  
 20  10  16  1   
 21  10  17  1   
 22  10  33  1   
 23  11  16  1   
 24  11  34  1   
 25  11  35  1   
 26  12  18  ar  
 27  12  36  1   
 28  13  18  ar  
 29  13  37  1   
 30  14  19  ar  
 31  14  38  1   
 32  15  20  ar  
 33  15  39  1   
 34  17  21  1   
 35  17  40  1   
 36  17  41  1   
 37  18  22  1   
 38  19  23  1   
 39  19  24  ar  
 40  20  24  ar  
 41  20  42  1   
 42  21  43  1   
 43  22  44  1   
 44  22  45  1   
 45  22  46  1   
 46  23  25  1   
 47  24  26  1   
 48  25  47  1   
 49  25  48  1   
 50  25  49  1   
 51  26  27  1   
 52  27  50  1   
 53  27  51  1   
 54  27  52  1   
@<TRIPOS>SUBSTRUCTURE
  1 ****   9 GROUP 4 **** **** 0

# MOE 2024.06 (io_trps.svl 2023.06)
