@<TRIPOS>MOLECULE
NONAME
53 55 1 0 0 
SMALL
USER_CHARGES


@<TRIPOS>ATOM
  1 S        1.6910     2.6420    -0.5250 S.o2  1 <1>   1.3330 
  2 O        0.5490     3.0440    -1.3110 O.2   1 <1>  -0.6500 
  3 O        2.6060     3.6730    -0.0840 O.2   1 <1>  -0.6500 
  4 N        2.5470     1.4230    -1.3270 N.am  1 <1>  -0.8490 
  5 C        1.0780     1.8410     0.9630 C.3   1 <1>  -0.0550 
  6 C        3.6730     1.9460    -2.1120 C.3   1 <1>   0.1160 
  7 C        1.7030     0.5740    -2.1760 C.3   1 <1>   0.1160 
  8 C        0.3170     2.7430     1.9730 C.3   1 <1>  -0.0800 
  9 C       -0.9000     3.4520     1.3650 C.3   1 <1>   0.2000 
 10 C        1.1620     3.8970     2.5250 C.3   1 <1>   0.3430 
 11 O       -1.8730     3.5640     2.3500 O.3   1 <1>  -0.6800 
 12 C       -0.4180     4.8560     0.9620 C.3   1 <1>   0.3430 
 13 N        0.9240     5.0370     1.6050 N.4   1 <1>  -0.9590 
 14 C        1.1590     6.3880     2.1720 C.3   1 <1>   0.4860 
 15 C        1.0360     7.3940     1.0460 C.ar  1 <1>  -0.1440 
 16 C        1.9890     7.4210     0.0390 C.ar  1 <1>  -0.1500 
 17 C       -0.0230     8.2880     1.0070 C.ar  1 <1>  -0.1500 
 18 C        1.8930     8.3290    -1.0040 C.ar  1 <1>  -0.1440 
 19 C       -0.1270     9.1940    -0.0330 C.ar  1 <1>  -0.1500 
 20 C        0.8270     9.2140    -1.0350 C.ar  1 <1>  -0.1500 
 21 C        2.9550     8.3460    -2.1000 C.3   1 <1>   0.2390 
 22 N        4.3080     8.5230    -1.5280 N.pl3 1 <1>   0.3140 
 23 N        5.1230     7.4760    -1.2760 N.2   1 <1>  -0.7070 
 24 C        4.8980     9.6890    -1.1930 C.2   1 <1>  -0.3020 
 25 C        6.2060     8.0060    -0.7950 C.2   1 <1>   0.1390 
 26 C        6.1250     9.3910    -0.7170 C.2   1 <1>  -0.1500 
 27 H        0.4260     1.0390     0.6720 H     1 <1>   0.0800 
 28 H        1.9120     1.3920     1.4700 H     1 <1>   0.0800 
 29 H        4.2100     1.1380    -2.5790 H     1 <1>   0.0800 
 30 H        4.3590     2.4750    -1.4710 H     1 <1>   0.0800 
 31 H        3.3200     2.6220    -2.8730 H     1 <1>   0.0800 
 32 H        2.2860    -0.2310    -2.5910 H     1 <1>   0.0800 
 33 H        1.2780     1.1490    -2.9830 H     1 <1>   0.0800 
 34 H        0.9010     0.1460    -1.5990 H     1 <1>   0.0800 
 35 H        0.0110     2.1060     2.7850 H     1 <1>   0.0800 
 36 H       -1.3400     2.9220     0.5350 H     1 <1>   0.0800 
 37 H        2.2090     3.6410     2.5700 H     1 <1>   0.0800 
 38 H        0.8160     4.1510     3.5140 H     1 <1>   0.0800 
 39 H       -1.5640     4.0230     3.1540 H     1 <1>   0.4000 
 40 H       -1.1240     5.6010     1.2910 H     1 <1>   0.0800 
 41 H       -0.3160     4.9200    -0.1100 H     1 <1>   0.0800 
 42 H        1.6260     4.9400     0.8400 H     1 <1>   0.4500 
 43 H        0.4390     6.6040     2.9420 H     1 <1>   0.0800 
 44 H        2.1500     6.4470     2.5940 H     1 <1>   0.0800 
 45 H        2.8250     6.7370     0.0580 H     1 <1>   0.1500 
 46 H       -0.7750     8.2940     1.7780 H     1 <1>   0.1500 
 47 H       -0.9500     9.8890    -0.0650 H     1 <1>   0.1500 
 48 H        0.7310     9.9270    -1.8370 H     1 <1>   0.1500 
 49 H        2.7730     9.1440    -2.7940 H     1 <1>   0.0800 
 50 H        2.9360     7.4160    -2.6370 H     1 <1>   0.0800 
 51 H        4.4220    10.6460    -1.3080 H     1 <1>   0.1500 
 52 H        7.0650     7.4290    -0.4930 H     1 <1>   0.1500 
 53 H        6.8910    10.0520    -0.3530 H     1 <1>   0.1500 
@<TRIPOS>BOND
  1   1   2  2   
  2   1   3  2   
  3   1   4  am  
  4   1   5  1   
  5   4   6  1   
  6   4   7  1   
  7   5   8  1   
  8   5  27  1   
  9   5  28  1   
 10   6  29  1   
 11   6  30  1   
 12   6  31  1   
 13   7  32  1   
 14   7  33  1   
 15   7  34  1   
 16   8   9  1   
 17   8  10  1   
 18   8  35  1   
 19   9  11  1   
 20   9  12  1   
 21   9  36  1   
 22  10  13  1   
 23  10  37  1   
 24  10  38  1   
 25  11  39  1   
 26  12  13  1   
 27  12  40  1   
 28  12  41  1   
 29  13  14  1   
 30  13  42  1   
 31  14  15  1   
 32  14  43  1   
 33  14  44  1   
 34  15  16  ar  
 35  15  17  ar  
 36  16  18  ar  
 37  16  45  1   
 38  17  19  ar  
 39  17  46  1   
 40  18  20  ar  
 41  18  21  1   
 42  19  20  ar  
 43  19  47  1   
 44  20  48  1   
 45  21  22  1   
 46  21  49  1   
 47  21  50  1   
 48  22  23  1   
 49  22  24  1   
 50  23  25  2   
 51  24  26  2   
 52  24  51  1   
 53  25  26  1   
 54  25  52  1   
 55  26  53  1   
@<TRIPOS>SUBSTRUCTURE
  1 ****  16 GROUP 4 **** **** 0

# MOE 2024.06 (io_trps.svl 2023.06)
