@<TRIPOS>MOLECULE
NONAME
52 54 1 0 0 
SMALL
USER_CHARGES


@<TRIPOS>ATOM
  1 F       -1.2940    -1.9160     0.5440 F     1 <1>  -0.1900 
  2 C       -1.7990    -0.7140     0.5050 C.ar  1 <1>   0.1900 
  3 C       -2.9690    -0.5080    -0.2190 C.ar  1 <1>   0.0860 
  4 C       -1.1290     0.2930     1.1910 C.ar  1 <1>  -0.1440 
  5 C       -3.4370     0.8030    -0.2230 C.ar  1 <1>   0.1900 
  6 C       -3.6530    -1.5630    -0.9210 C.2   1 <1>   0.5440 
  7 C       -1.6440     1.5800     1.1520 C.ar  1 <1>  -0.1500 
  8 C        0.1470    -0.0020     1.9690 C.3   1 <1>  -0.0970 
  9 F       -4.5320     1.0880    -0.8730 F     1 <1>  -0.1900 
 10 C       -2.8040     1.8380     0.4410 C.ar  1 <1>  -0.1500 
 11 O       -3.5360    -1.6790    -2.1260 O.2   1 <1>  -0.5700 
 12 N       -4.5230    -2.3930    -0.2640 N.am  1 <1>  -0.6600 
 13 C       -4.4300    -3.8830    -0.4020 C.3   1 <1>   0.3640 
 14 C       -5.9430    -1.9550    -0.1970 C.3   1 <1>   0.1400 
 15 C       -2.9820    -4.3900    -0.3850 C.ar  1 <1>  -0.1430 
 16 C       -5.2900    -4.3820    -1.5950 C.3   1 <1>   0.2000 
 17 C       -6.7230    -2.5160    -1.3980 C.3   1 <1>   0.1200 
 18 C       -2.4700    -4.9240     0.7880 C.ar  1 <1>  -0.1500 
 19 C       -2.1630    -4.3510    -1.5030 C.ar  1 <1>  -0.1500 
 20 O       -6.6100    -3.9100    -1.4460 O.3   1 <1>  -0.5600 
 21 C       -5.3830    -5.9150    -1.6830 C.3   1 <1>   0.1200 
 22 C       -1.1780    -5.4180     0.8650 C.ar  1 <1>   0.0830 
 23 C       -0.8660    -4.8290    -1.4470 C.ar  1 <1>  -0.1500 
 24 O       -4.1950    -6.4820    -2.1360 O.3   1 <1>  -0.6800 
 25 O       -0.8450    -5.9260     2.0880 O.3   1 <1>  -0.3630 
 26 C       -0.3490    -5.3600    -0.2680 C.ar  1 <1>   0.0830 
 27 C        0.1880    -6.8710     2.2540 C.3   1 <1>   0.0400 
 28 O        0.9420    -5.8020    -0.2060 O.3   1 <1>  -0.3630 
 29 C        1.8900    -5.4600    -1.1930 C.3   1 <1>   0.0400 
 30 H       -1.1480     2.3830     1.6710 H     1 <1>   0.1500 
 31 H        0.5200     0.8820     2.4540 H     1 <1>   0.0800 
 32 H        0.9040    -0.3740     1.3020 H     1 <1>   0.0800 
 33 H       -0.0460    -0.7480     2.7190 H     1 <1>   0.0800 
 34 H       -3.2150     2.8320     0.4000 H     1 <1>   0.1500 
 35 H       -4.8950    -4.2960     0.4760 H     1 <1>   0.0800 
 36 H       -6.3880    -2.3030     0.7190 H     1 <1>   0.0800 
 37 H       -6.0000    -0.8810    -0.2060 H     1 <1>   0.0800 
 38 H       -4.9070    -3.9960    -2.5240 H     1 <1>   0.0800 
 39 H       -6.3460    -2.1050    -2.3200 H     1 <1>   0.0800 
 40 H       -7.7670    -2.2730    -1.3120 H     1 <1>   0.0800 
 41 H       -3.0750    -4.9630     1.6760 H     1 <1>   0.1500 
 42 H       -2.5260    -3.9450    -2.4320 H     1 <1>   0.1500 
 43 H       -6.1510    -6.1920    -2.3840 H     1 <1>   0.0800 
 44 H       -5.6110    -6.3380    -0.7200 H     1 <1>   0.0800 
 45 H       -0.2780    -4.7740    -2.3420 H     1 <1>   0.1500 
 46 H       -3.4320    -6.1880    -1.5900 H     1 <1>   0.4000 
 47 H        0.0810    -7.3160     3.2260 H     1 <1>   0.0800 
 48 H        1.1340    -6.3640     2.1880 H     1 <1>   0.0800 
 49 H        0.1010    -7.6230     1.4900 H     1 <1>   0.0800 
 50 H        2.8560    -5.7930    -0.8580 H     1 <1>   0.0800 
 51 H        1.8950    -4.3910    -1.3180 H     1 <1>   0.0800 
 52 H        1.6330    -5.9560    -2.1120 H     1 <1>   0.0800 
@<TRIPOS>BOND
  1   1   2  1   
  2   2   3  ar  
  3   2   4  ar  
  4   3   5  ar  
  5   3   6  1   
  6   4   7  ar  
  7   4   8  1   
  8   5   9  1   
  9   5  10  ar  
 10   6  11  2   
 11   6  12  am  
 12   7  10  ar  
 13   7  30  1   
 14   8  31  1   
 15   8  32  1   
 16   8  33  1   
 17  10  34  1   
 18  12  13  1   
 19  12  14  1   
 20  13  15  1   
 21  13  16  1   
 22  13  35  1   
 23  14  17  1   
 24  14  36  1   
 25  14  37  1   
 26  15  18  ar  
 27  15  19  ar  
 28  16  20  1   
 29  16  21  1   
 30  16  38  1   
 31  17  20  1   
 32  17  39  1   
 33  17  40  1   
 34  18  22  ar  
 35  18  41  1   
 36  19  23  ar  
 37  19  42  1   
 38  21  24  1   
 39  21  43  1   
 40  21  44  1   
 41  22  25  1   
 42  22  26  ar  
 43  23  26  ar  
 44  23  45  1   
 45  24  46  1   
 46  25  27  1   
 47  26  28  1   
 48  27  47  1   
 49  27  48  1   
 50  27  49  1   
 51  28  29  1   
 52  29  50  1   
 53  29  51  1   
 54  29  52  1   
@<TRIPOS>SUBSTRUCTURE
  1 ****  15 GROUP 4 **** **** 0

# MOE 2024.06 (io_trps.svl 2023.06)
