@<TRIPOS>MOLECULE
NONAME
58 60 1 0 0 
SMALL
USER_CHARGES


@<TRIPOS>ATOM
  1 O       -2.1340     1.0100     3.3540 O.2   1 <1>  -0.5700 
  2 C       -2.0770     1.2890     2.1780 C.2   1 <1>   0.5690 
  3 N       -2.4010     0.3400     1.2330 N.am  1 <1>  -0.6600 
  4 C       -1.6560     2.7160     1.8270 C.3   1 <1>   0.0440 
  5 C       -2.5810    -1.0860     1.6210 C.3   1 <1>   0.1400 
  6 C       -2.5960     0.6030    -0.2200 C.3   1 <1>   0.1400 
  7 C       -0.5650     2.8400     0.7480 C.ar  1 <1>  -0.1440 
  8 C       -3.9930    -1.5670     1.2270 C.3   1 <1>   0.4230 
  9 C       -4.0010     0.1380    -0.6230 C.3   1 <1>  -0.1600 
 10 C       -0.7600     3.6490    -0.3760 C.ar  1 <1>  -0.1440 
 11 C        0.6410     2.1460     0.8820 C.ar  1 <1>  -0.1440 
 12 N       -4.3300    -2.9650     1.7330 N.4   1 <1>  -0.9590 
 13 C       -4.2890    -1.3540    -0.2870 C.3   1 <1>   0.0000 
 14 C        0.2140     3.7070    -1.3600 C.ar  1 <1>  -0.1500 
 15 C       -2.0050     4.5060    -0.5820 C.3   1 <1>  -0.0970 
 16 C        1.5960     2.2210    -0.1180 C.ar  1 <1>  -0.1500 
 17 C        0.9860     1.2970     2.1010 C.3   1 <1>  -0.0970 
 18 C       -5.4890    -3.6080     1.0320 C.3   1 <1>   0.3430 
 19 C       -3.1770    -3.9230     1.7960 C.3   1 <1>   0.2630 
 20 C       -5.7940    -1.6460    -0.5610 C.3   1 <1>  -0.1600 
 21 C       -3.3860    -2.2820    -1.1500 C.3   1 <1>   0.1200 
 22 C        1.3880     2.9910    -1.2450 C.ar  1 <1>  -0.1430 
 23 C       -6.4550    -2.5550     0.4930 C.3   1 <1>  -0.1600 
 24 O       -3.4910    -1.9900    -2.5000 O.3   1 <1>  -0.6800 
 25 C        2.4420     3.0630    -2.3350 C.3   1 <1>  -0.0970 
 26 H       -2.5510     3.2370     1.5580 H     1 <1>   0.0800 
 27 H       -1.2900     3.1890     2.7190 H     1 <1>   0.0800 
 28 H       -1.8200    -1.6640     1.1290 H     1 <1>   0.0800 
 29 H       -2.4530    -1.2030     2.6830 H     1 <1>   0.0800 
 30 H       -2.5070     1.6490    -0.4380 H     1 <1>   0.0800 
 31 H       -1.8390     0.0870    -0.7880 H     1 <1>   0.0800 
 32 H       -4.6630    -0.8950     1.7390 H     1 <1>   0.0800 
 33 H       -4.7040     0.7720    -0.1100 H     1 <1>   0.0800 
 34 H       -4.1340     0.3220    -1.6750 H     1 <1>   0.0800 
 35 H       -4.6380    -2.8140     2.7060 H     1 <1>   0.4500 
 36 H        0.0650     4.3210    -2.2310 H     1 <1>   0.1500 
 37 H       -1.9120     5.1200    -1.4600 H     1 <1>   0.0800 
 38 H       -2.1440     5.1600     0.2600 H     1 <1>   0.0800 
 39 H       -2.8760     3.8890    -0.7010 H     1 <1>   0.0800 
 40 H        2.5180     1.6760    -0.0200 H     1 <1>   0.1500 
 41 H        2.0490     1.1600     2.1810 H     1 <1>   0.0800 
 42 H        0.5270     0.3300     2.0210 H     1 <1>   0.0800 
 43 H        0.6550     1.7720     3.0070 H     1 <1>   0.0800 
 44 H       -5.1320    -4.1990     0.2040 H     1 <1>   0.0800 
 45 H       -6.0080    -4.2680     1.7110 H     1 <1>   0.0800 
 46 H       -2.7700    -4.0920     0.8130 H     1 <1>   0.0800 
 47 H       -3.4990    -4.8690     2.2010 H     1 <1>   0.0800 
 48 H       -2.3960    -3.5350     2.4310 H     1 <1>   0.0800 
 49 H       -6.3590    -0.7290    -0.5910 H     1 <1>   0.0800 
 50 H       -5.9130    -2.0950    -1.5320 H     1 <1>   0.0800 
 51 H       -3.6490    -3.3170    -1.0260 H     1 <1>   0.0800 
 52 H       -2.3470    -2.1630    -0.8980 H     1 <1>   0.0800 
 53 H       -7.3040    -3.0480     0.0500 H     1 <1>   0.0800 
 54 H       -6.8270    -1.9650     1.3130 H     1 <1>   0.0800 
 55 H       -4.3950    -2.1340    -2.8430 H     1 <1>   0.4000 
 56 H        1.9780     3.1730    -3.2990 H     1 <1>   0.0800 
 57 H        3.0360     2.1670    -2.3460 H     1 <1>   0.0800 
 58 H        3.0860     3.9050    -2.1610 H     1 <1>   0.0800 
@<TRIPOS>BOND
  1   1   2  2   
  2   2   3  am  
  3   2   4  1   
  4   3   5  1   
  5   3   6  1   
  6   4   7  1   
  7   4  26  1   
  8   4  27  1   
  9   5   8  1   
 10   5  28  1   
 11   5  29  1   
 12   6   9  1   
 13   6  30  1   
 14   6  31  1   
 15   7  10  ar  
 16   7  11  ar  
 17   8  12  1   
 18   8  13  1   
 19   8  32  1   
 20   9  13  1   
 21   9  33  1   
 22   9  34  1   
 23  10  14  ar  
 24  10  15  1   
 25  11  16  ar  
 26  11  17  1   
 27  12  18  1   
 28  12  19  1   
 29  12  35  1   
 30  13  20  1   
 31  13  21  1   
 32  14  22  ar  
 33  14  36  1   
 34  15  37  1   
 35  15  38  1   
 36  15  39  1   
 37  16  22  ar  
 38  16  40  1   
 39  17  41  1   
 40  17  42  1   
 41  17  43  1   
 42  18  23  1   
 43  18  44  1   
 44  18  45  1   
 45  19  46  1   
 46  19  47  1   
 47  19  48  1   
 48  20  23  1   
 49  20  49  1   
 50  20  50  1   
 51  21  24  1   
 52  21  51  1   
 53  21  52  1   
 54  22  25  1   
 55  23  53  1   
 56  23  54  1   
 57  24  55  1   
 58  25  56  1   
 59  25  57  1   
 60  25  58  1   
@<TRIPOS>SUBSTRUCTURE
  1 ****   6 GROUP 4 **** **** 0

# MOE 2024.06 (io_trps.svl 2023.06)
