@<TRIPOS>MOLECULE
NONAME
50 53 1 0 0 
SMALL
USER_CHARGES


@<TRIPOS>ATOM
  1 S       -1.5830     2.0040    -0.5730 S.o2  1 <1>   1.5000 
  2 O       -2.0960     2.2150     0.7650 O.2   1 <1>  -0.6500 
  3 O       -2.4160     2.3840    -1.6950 O.2   1 <1>  -0.6500 
  4 N       -1.2250     0.3510    -0.7450 N.am  1 <1>  -0.8490 
  5 C        0.0390     2.8260    -0.7640 C.2   1 <1>   0.0780 
  6 C       -2.4020    -0.4700    -1.0160 C.3   1 <1>   0.1960 
  7 C       -0.6130    -0.2380     0.4490 C.3   1 <1>   0.1960 
  8 O        1.0630     2.5320     0.0300 O.3   1 <1>  -0.2800 
  9 C        0.4380     3.7700    -1.6490 C.2   1 <1>  -0.1500 
 10 C       -2.9770    -0.8360     0.3540 C.3   1 <1>  -0.0800 
 11 C       -1.7190    -0.9660     1.2280 C.3   1 <1>  -0.0800 
 12 C        2.1210     3.2540    -0.3150 C.2   1 <1>   0.1410 
 13 C        1.7760     4.0480    -1.3620 C.2   1 <1>  -0.1500 
 14 C       -3.9600    -2.0400     0.4020 C.3   1 <1>   0.2800 
 15 C       -1.3420    -2.4310     1.5070 C.3   1 <1>  -0.1600 
 16 C        3.3730     3.1090     0.3960 C.2   1 <1>   0.2880 
 17 O       -3.5890    -2.9910    -0.5300 O.3   1 <1>  -0.6800 
 18 C       -3.8880    -2.7060     1.7890 C.3   1 <1>  -0.1600 
 19 C       -5.4240    -1.6490     0.0970 C.3   1 <1>  -0.1600 
 20 C       -2.4830    -3.2070     2.1840 C.3   1 <1>  -0.1600 
 21 N        3.6050     2.2800     1.3690 N.2   1 <1>  -0.4100 
 22 C        4.5350     3.8460     0.1380 C.2   1 <1>  -0.1500 
 23 C       -5.6890    -1.0160    -1.2800 C.3   1 <1>  -0.2400 
 24 O        4.8410     2.4580     1.7300 O.3   1 <1>  -0.0190 
 25 C        5.4330     3.3810     1.0230 C.2   1 <1>  -0.0400 
 26 C        6.8910     3.7260     1.3060 C.3   1 <1>   1.2000 
 27 F        7.0820     4.1640     2.5440 F     1 <1>  -0.3400 
 28 F        7.3380     4.6820     0.5000 F     1 <1>  -0.3400 
 29 F        7.7030     2.6890     1.1400 F     1 <1>  -0.3400 
 30 H       -3.1110     0.0350    -1.6460 H     1 <1>   0.0800 
 31 H       -2.0740    -1.3590    -1.5270 H     1 <1>   0.0800 
 32 H        0.1380    -0.9410     0.1300 H     1 <1>   0.0800 
 33 H       -0.1320     0.5040     1.0650 H     1 <1>   0.0800 
 34 H       -0.1500     4.2250    -2.4290 H     1 <1>   0.1500 
 35 H       -3.5160     0.0220     0.7150 H     1 <1>   0.0800 
 36 H       -1.8800    -0.4630     2.1670 H     1 <1>   0.0800 
 37 H        2.3860     4.7580    -1.8900 H     1 <1>   0.1500 
 38 H       -1.1120    -2.9100     0.5700 H     1 <1>   0.0800 
 39 H       -0.4590    -2.4790     2.1200 H     1 <1>   0.0800 
 40 H       -4.1770    -3.7630    -0.4510 H     1 <1>   0.4000 
 41 H       -4.1910    -1.9720     2.5160 H     1 <1>   0.0800 
 42 H       -4.5920    -3.5170     1.8570 H     1 <1>   0.0800 
 43 H       -6.0410    -2.5260     0.1900 H     1 <1>   0.0800 
 44 H       -5.7590    -0.9570     0.8500 H     1 <1>   0.0800 
 45 H       -2.3810    -3.1370     3.2530 H     1 <1>   0.0800 
 46 H       -2.3870    -4.2460     1.9190 H     1 <1>   0.0800 
 47 H        4.6440     4.6070    -0.6130 H     1 <1>   0.1500 
 48 H       -5.2680    -1.6170    -2.0670 H     1 <1>   0.0800 
 49 H       -5.2740    -0.0260    -1.3310 H     1 <1>   0.0800 
 50 H       -6.7490    -0.9360    -1.4440 H     1 <1>   0.0800 
@<TRIPOS>BOND
  1   1   2  2   
  2   1   3  2   
  3   1   4  am  
  4   1   5  1   
  5   4   6  1   
  6   4   7  1   
  7   5   8  1   
  8   5   9  2   
  9   6  10  1   
 10   6  30  1   
 11   6  31  1   
 12   7  11  1   
 13   7  32  1   
 14   7  33  1   
 15   8  12  1   
 16   9  13  1   
 17   9  34  1   
 18  10  11  1   
 19  10  14  1   
 20  10  35  1   
 21  11  15  1   
 22  11  36  1   
 23  12  13  2   
 24  12  16  1   
 25  13  37  1   
 26  14  17  1   
 27  14  18  1   
 28  14  19  1   
 29  15  20  1   
 30  15  38  1   
 31  15  39  1   
 32  16  21  2   
 33  16  22  1   
 34  17  40  1   
 35  18  20  1   
 36  18  41  1   
 37  18  42  1   
 38  19  23  1   
 39  19  43  1   
 40  19  44  1   
 41  20  45  1   
 42  20  46  1   
 43  21  24  1   
 44  22  25  2   
 45  22  47  1   
 46  23  48  1   
 47  23  49  1   
 48  23  50  1   
 49  24  25  1   
 50  25  26  1   
 51  26  27  1   
 52  26  28  1   
 53  26  29  1   
@<TRIPOS>SUBSTRUCTURE
  1 ****   8 GROUP 4 **** **** 0

# MOE 2024.06 (io_trps.svl 2023.06)
