@<TRIPOS>MOLECULE
NONAME
60 64 1 0 0 
SMALL
USER_CHARGES


@<TRIPOS>ATOM
  1 S       -0.9040    -0.2560     0.2460 S.3   1 <1>  -0.0800 
  2 C       -0.5980    -1.9370    -0.2000 C.2   1 <1>  -0.0450 
  3 C       -0.8360     0.2770    -1.4210 C.2   1 <1>  -0.1400 
  4 C       -0.5380    -2.9380     0.8340 C.2   1 <1>   0.7150 
  5 C       -0.4530    -2.0060    -1.5490 C.2   1 <1>  -0.1500 
  6 C       -0.5900    -0.7650    -2.2350 C.2   1 <1>  -0.1500 
  7 C       -1.0480     1.7520    -1.6870 C.3   1 <1>  -0.0600 
  8 O       -0.1200    -2.6750     1.9480 O.2   1 <1>  -0.5700 
  9 N       -0.9390    -4.2240     0.5780 N.am  1 <1>  -0.6600 
 10 C       -0.8230    -5.3750     1.4610 C.3   1 <1>   0.2200 
 11 C       -1.9990    -4.6890    -0.2920 C.3   1 <1>   0.2200 
 12 C       -0.5380    -6.5040     0.4320 C.3   1 <1>   0.0610 
 13 C       -2.2750    -5.4140     1.9780 C.3   1 <1>  -0.1600 
 14 C       -1.3980    -6.0120    -0.7830 C.3   1 <1>  -0.1600 
 15 C       -3.0910    -4.9910     0.7420 C.3   1 <1>  -0.1600 
 16 C       -0.9530    -7.8670     1.0040 C.2   1 <1>   0.5690 
 17 C        0.9760    -6.6350     0.0900 C.3   1 <1>  -0.0160 
 18 O       -0.6750    -8.1350     2.1490 O.2   1 <1>  -0.5700 
 19 N       -1.6010    -8.7680     0.2240 N.am  1 <1>  -0.7300 
 20 C        1.6590    -5.4660    -0.6180 C.ar  1 <1>  -0.1440 
 21 C       -2.2840    -9.9700     0.7220 C.3   1 <1>   0.3210 
 22 C        1.8020    -5.4620    -1.9990 C.ar  1 <1>  -0.1500 
 23 C        2.1670    -4.4040     0.1130 C.ar  1 <1>  -0.1500 
 24 C       -3.7280    -9.8540     0.2880 C.2   1 <1>  -0.1810 
 25 C        2.4200    -4.4010    -2.6390 C.ar  1 <1>  -0.1500 
 26 C        2.7810    -3.3410    -0.5250 C.ar  1 <1>  -0.1500 
 27 C       -4.6370    -8.9210     0.7710 C.2   1 <1>   0.1390 
 28 C       -4.4230   -10.5680    -0.6230 C.2   1 <1>  -0.3020 
 29 C        2.9070    -3.3370    -1.9020 C.ar  1 <1>  -0.1500 
 30 N       -5.8000    -9.0330     0.2060 N.2   1 <1>  -0.7070 
 31 N       -5.6710   -10.0580    -0.6520 N.pl3 1 <1>   0.3140 
 32 C       -6.7950   -10.5080    -1.4800 C.3   1 <1>   0.0160 
 33 H       -0.2350    -2.9140    -2.0840 H     1 <1>   0.1500 
 34 H       -0.4960    -0.7100    -3.3060 H     1 <1>   0.1500 
 35 H       -0.9810     1.9530    -2.7410 H     1 <1>   0.0800 
 36 H       -0.2980     2.3270    -1.1740 H     1 <1>   0.0800 
 37 H       -2.0190     2.0510    -1.3360 H     1 <1>   0.0800 
 38 H       -0.0810    -5.2660     2.2330 H     1 <1>   0.0800 
 39 H       -2.2890    -3.9990    -1.0660 H     1 <1>   0.0800 
 40 H       -2.5740    -6.3690     2.3680 H     1 <1>   0.0800 
 41 H       -2.3840    -4.6840     2.7620 H     1 <1>   0.0800 
 42 H       -2.1880    -6.6790    -1.0710 H     1 <1>   0.0800 
 43 H       -0.7990    -5.8210    -1.6520 H     1 <1>   0.0800 
 44 H       -3.6570    -4.1000     0.9510 H     1 <1>   0.0800 
 45 H       -3.7620    -5.7620     0.4070 H     1 <1>   0.0800 
 46 H        1.5120    -6.8280     1.0040 H     1 <1>   0.0800 
 47 H        1.1080    -7.5100    -0.5210 H     1 <1>   0.0800 
 48 H       -1.8470    -8.5310    -0.7360 H     1 <1>   0.3700 
 49 H       -1.8330   -10.8480     0.2940 H     1 <1>   0.0800 
 50 H       -2.2210   -10.0330     1.7960 H     1 <1>   0.0800 
 51 H        1.4330    -6.2850    -2.5850 H     1 <1>   0.1500 
 52 H        2.0770    -4.3890     1.1850 H     1 <1>   0.1500 
 53 H        2.5240    -4.4040    -3.7100 H     1 <1>   0.1500 
 54 H        3.1560    -2.5150     0.0550 H     1 <1>   0.1500 
 55 H       -4.4120    -8.1840     1.5240 H     1 <1>   0.1500 
 56 H       -4.1120   -11.3910    -1.2390 H     1 <1>   0.1500 
 57 H        3.3830    -2.5090    -2.3950 H     1 <1>   0.1500 
 58 H       -6.4650   -11.2780    -2.1520 H     1 <1>   0.0800 
 59 H       -7.1720    -9.6720    -2.0380 H     1 <1>   0.0800 
 60 H       -7.5670   -10.8890    -0.8380 H     1 <1>   0.0800 
@<TRIPOS>BOND
  1   1   2  1   
  2   1   3  1   
  3   2   4  1   
  4   2   5  2   
  5   3   6  2   
  6   3   7  1   
  7   4   8  2   
  8   4   9  am  
  9   5   6  1   
 10   5  33  1   
 11   6  34  1   
 12   7  35  1   
 13   7  36  1   
 14   7  37  1   
 15   9  10  1   
 16   9  11  1   
 17  10  12  1   
 18  10  13  1   
 19  10  38  1   
 20  11  14  1   
 21  11  15  1   
 22  11  39  1   
 23  12  14  1   
 24  12  16  1   
 25  12  17  1   
 26  13  15  1   
 27  13  40  1   
 28  13  41  1   
 29  14  42  1   
 30  14  43  1   
 31  15  44  1   
 32  15  45  1   
 33  16  18  2   
 34  16  19  am  
 35  17  20  1   
 36  17  46  1   
 37  17  47  1   
 38  19  21  1   
 39  19  48  1   
 40  20  22  ar  
 41  20  23  ar  
 42  21  24  1   
 43  21  49  1   
 44  21  50  1   
 45  22  25  ar  
 46  22  51  1   
 47  23  26  ar  
 48  23  52  1   
 49  24  27  1   
 50  24  28  2   
 51  25  29  ar  
 52  25  53  1   
 53  26  29  ar  
 54  26  54  1   
 55  27  30  2   
 56  27  55  1   
 57  28  31  1   
 58  28  56  1   
 59  29  57  1   
 60  30  31  1   
 61  31  32  1   
 62  32  58  1   
 63  32  59  1   
 64  32  60  1   
@<TRIPOS>SUBSTRUCTURE
  1 ****  14 GROUP 4 **** **** 0

# MOE 2024.06 (io_trps.svl 2023.06)
