@<TRIPOS>MOLECULE
NONAME
61 64 1 0 0 
SMALL
USER_CHARGES


@<TRIPOS>ATOM
  1 O       -1.3130    -4.6630    -1.4730 O.3   1 <1>  -0.5600 
  2 C       -1.3430    -3.4780    -0.7300 C.3   1 <1>   0.2640 
  3 C       -0.5980    -4.5550    -2.6580 C.3   1 <1>   0.1200 
  4 C       -2.2940    -3.6030     0.4590 C.ar  1 <1>  -0.1440 
  5 C       -0.6020    -5.9200    -3.3360 C.3   1 <1>  -0.2400 
  6 C       -2.6790    -2.4540     1.1420 C.ar  1 <1>   0.0820 
  7 C       -2.7820    -4.8320     0.8740 C.ar  1 <1>  -0.1500 
  8 O       -2.1690    -1.2700     0.7120 O.3   1 <1>  -0.3630 
  9 C       -3.5540    -2.5520     2.2210 C.ar  1 <1>  -0.1500 
 10 C       -3.6620    -4.9330     1.9400 C.ar  1 <1>  -0.1430 
 11 C       -2.4610    -0.0520     1.3620 C.3   1 <1>   0.0400 
 12 C       -4.0430    -3.7850     2.6150 C.ar  1 <1>  -0.1500 
 13 C       -4.2090    -6.2900     2.3420 C.3   1 <1>   0.4860 
 14 N       -4.9300    -6.8830     1.1860 N.4   1 <1>  -0.9590 
 15 C       -5.9310    -5.9830     0.5220 C.3   1 <1>   0.3430 
 16 C       -5.6030    -8.1740     1.4440 C.3   1 <1>   0.3430 
 17 C       -7.1360    -6.8740     0.1770 C.3   1 <1>   0.2000 
 18 C       -6.6020    -8.3040     0.2890 C.3   1 <1>  -0.0800 
 19 O       -8.1420    -6.6980     1.1220 O.3   1 <1>  -0.6800 
 20 C       -5.9530    -8.7460    -1.0520 C.3   1 <1>  -0.0170 
 21 C       -4.5840    -9.3920    -0.8950 C.ar  1 <1>   0.1670 
 22 N       -3.5640    -8.5920    -0.7840 N.ar  1 <1>  -0.6200 
 23 C       -4.4900   -10.7910    -0.8550 C.ar  1 <1>  -0.1500 
 24 C       -2.3310    -9.1600    -0.6670 C.ar  1 <1>   0.3100 
 25 C       -3.2740   -11.3810    -0.6940 C.ar  1 <1>  -0.1500 
 26 C       -2.1420   -10.5570    -0.5880 C.ar  1 <1>   0.0000 
 27 C       -1.1980    -8.3320    -0.6150 C.ar  1 <1>  -0.1500 
 28 C       -0.8390   -11.0660    -0.4180 C.ar  1 <1>  -0.1500 
 29 C        0.0610    -8.8460    -0.4550 C.ar  1 <1>  -0.1500 
 30 C        0.2410   -10.2280    -0.3490 C.ar  1 <1>  -0.1500 
 31 H       -0.3470    -3.2660    -0.3820 H     1 <1>   0.0800 
 32 H       -1.6750    -2.6810    -1.3740 H     1 <1>   0.0800 
 33 H       -1.0770    -3.8220    -3.2860 H     1 <1>   0.0800 
 34 H        0.4100    -4.2470    -2.4350 H     1 <1>   0.0800 
 35 H       -1.6120    -6.2550    -3.4910 H     1 <1>   0.0800 
 36 H       -0.0720    -6.6350    -2.7350 H     1 <1>   0.0800 
 37 H       -0.1120    -5.8520    -4.2900 H     1 <1>   0.0800 
 38 H       -2.4740    -5.7190     0.3520 H     1 <1>   0.1500 
 39 H       -3.8640    -1.6800     2.7650 H     1 <1>   0.1500 
 40 H       -1.9320     0.7340     0.8530 H     1 <1>   0.0800 
 41 H       -2.1280    -0.1120     2.3840 H     1 <1>   0.0800 
 42 H       -3.5200     0.1290     1.3100 H     1 <1>   0.0800 
 43 H       -4.7190    -3.8330     3.4520 H     1 <1>   0.1500 
 44 H       -4.8800    -6.1730     3.1760 H     1 <1>   0.0800 
 45 H       -3.3960    -6.9320     2.6400 H     1 <1>   0.0800 
 46 H       -4.2130    -7.1040     0.4620 H     1 <1>   0.4500 
 47 H       -6.2340    -5.1750     1.1680 H     1 <1>   0.0800 
 48 H       -5.4990    -5.5720    -0.3760 H     1 <1>   0.0800 
 49 H       -4.9000    -8.9920     1.4720 H     1 <1>   0.0800 
 50 H       -6.1360    -8.1320     2.3800 H     1 <1>   0.0800 
 51 H       -7.5540    -6.6420    -0.7890 H     1 <1>   0.0800 
 52 H       -7.3820    -9.0010     0.5430 H     1 <1>   0.0800 
 53 H       -7.8510    -6.8730     2.0360 H     1 <1>   0.4000 
 54 H       -5.8290    -7.9050    -1.7120 H     1 <1>   0.0800 
 55 H       -6.6160    -9.4270    -1.5580 H     1 <1>   0.0800 
 56 H       -5.3790   -11.3890    -0.9530 H     1 <1>   0.1500 
 57 H       -3.1600   -12.4510    -0.6540 H     1 <1>   0.1500 
 58 H       -1.3380    -7.2730    -0.7170 H     1 <1>   0.1500 
 59 H       -0.7040   -12.1310    -0.3470 H     1 <1>   0.1500 
 60 H        0.9210    -8.1990    -0.4130 H     1 <1>   0.1500 
 61 H        1.2370   -10.6190    -0.2210 H     1 <1>   0.1500 
@<TRIPOS>BOND
  1   1   2  1   
  2   1   3  1   
  3   2   4  1   
  4   2  31  1   
  5   2  32  1   
  6   3   5  1   
  7   3  33  1   
  8   3  34  1   
  9   4   6  ar  
 10   4   7  ar  
 11   5  35  1   
 12   5  36  1   
 13   5  37  1   
 14   6   8  1   
 15   6   9  ar  
 16   7  10  ar  
 17   7  38  1   
 18   8  11  1   
 19   9  12  ar  
 20   9  39  1   
 21  10  12  ar  
 22  10  13  1   
 23  11  40  1   
 24  11  41  1   
 25  11  42  1   
 26  12  43  1   
 27  13  14  1   
 28  13  44  1   
 29  13  45  1   
 30  14  15  1   
 31  14  16  1   
 32  14  46  1   
 33  15  17  1   
 34  15  47  1   
 35  15  48  1   
 36  16  18  1   
 37  16  49  1   
 38  16  50  1   
 39  17  18  1   
 40  17  19  1   
 41  17  51  1   
 42  18  20  1   
 43  18  52  1   
 44  19  53  1   
 45  20  21  1   
 46  20  54  1   
 47  20  55  1   
 48  21  22  ar  
 49  21  23  ar  
 50  22  24  ar  
 51  23  25  ar  
 52  23  56  1   
 53  24  26  ar  
 54  24  27  ar  
 55  25  26  ar  
 56  25  57  1   
 57  26  28  ar  
 58  27  29  ar  
 59  27  58  1   
 60  28  30  ar  
 61  28  59  1   
 62  29  30  ar  
 63  29  60  1   
 64  30  61  1   
@<TRIPOS>SUBSTRUCTURE
  1 ****  14 GROUP 4 **** **** 0

# MOE 2024.06 (io_trps.svl 2023.06)
