@<TRIPOS>MOLECULE
NONAME
57 59 1 0 0 
SMALL
USER_CHARGES


@<TRIPOS>ATOM
  1 O       -0.8700    -0.3020     3.0050 O.2   1 <1>  -0.5700 
  2 C       -1.3030     0.6130     2.3420 C.2   1 <1>   0.5690 
  3 N       -2.0810     0.3590     1.2360 N.am  1 <1>  -0.6600 
  4 C       -0.9640     2.0290     2.7930 C.3   1 <1>   0.0440 
  5 C       -2.2640    -1.0300     0.7370 C.3   1 <1>   0.1400 
  6 C       -2.8560     1.3820     0.4800 C.3   1 <1>   0.1400 
  7 C       -0.0830     2.7640     1.7810 C.ar  1 <1>  -0.1440 
  8 C       -3.7570    -1.4150     0.8190 C.3   1 <1>   0.4230 
  9 C       -4.3450     1.0210     0.5590 C.3   1 <1>  -0.1600 
 10 C       -0.4630     3.9750     1.2030 C.ar  1 <1>   0.0830 
 11 C        1.1380     2.2010     1.4400 C.ar  1 <1>  -0.1500 
 12 N       -4.0320    -2.8790     0.4980 N.4   1 <1>  -0.9590 
 13 C       -4.6690    -0.4140     0.0490 C.3   1 <1>   0.0000 
 14 O       -1.6620     4.5070     1.5620 O.3   1 <1>  -0.3630 
 15 C        0.3830     4.5950     0.2880 C.ar  1 <1>  -0.1500 
 16 C        1.9750     2.8200     0.5300 C.ar  1 <1>  -0.1500 
 17 C       -5.4640    -3.1750     0.1670 C.3   1 <1>   0.3430 
 18 C       -3.1320    -3.4940    -0.5340 C.3   1 <1>   0.2630 
 19 C       -6.1600    -0.7330     0.3710 C.3   1 <1>  -0.1600 
 20 C       -4.4070    -0.5120    -1.4810 C.3   1 <1>   0.1200 
 21 C       -2.0860     5.7650     1.0820 C.3   1 <1>   0.0400 
 22 C        1.5980     4.0250    -0.0520 C.ar  1 <1>   0.0830 
 23 C       -6.4000    -2.1780     0.8480 C.3   1 <1>  -0.1600 
 24 O       -5.0710     0.4820    -2.1800 O.3   1 <1>  -0.6800 
 25 O        2.3580     4.6990    -0.9510 O.3   1 <1>  -0.3630 
 26 C        3.6180     4.2130    -1.3550 C.3   1 <1>   0.0400 
 27 H       -1.8760     2.5530     2.9960 H     1 <1>   0.0800 
 28 H       -0.4280     1.9710     3.7230 H     1 <1>   0.0800 
 29 H       -1.9030    -1.0750    -0.2740 H     1 <1>   0.0800 
 30 H       -1.6870    -1.7180     1.3290 H     1 <1>   0.0800 
 31 H       -2.7140     2.3620     0.8940 H     1 <1>   0.0800 
 32 H       -2.5200     1.4110    -0.5430 H     1 <1>   0.0800 
 33 H       -4.0140    -1.2850     1.8570 H     1 <1>   0.0800 
 34 H       -4.6410     1.1210     1.5890 H     1 <1>   0.0800 
 35 H       -4.9050     1.7560     0.0070 H     1 <1>   0.0800 
 36 H        1.4450     1.2690     1.8860 H     1 <1>   0.1500 
 37 H       -3.8400    -3.3710     1.3840 H     1 <1>   0.4500 
 38 H        0.1280     5.5240    -0.1810 H     1 <1>   0.1500 
 39 H        2.9110     2.3520     0.2910 H     1 <1>   0.1500 
 40 H       -5.6140    -3.1080    -0.8980 H     1 <1>   0.0800 
 41 H       -5.7120    -4.1780     0.4740 H     1 <1>   0.0800 
 42 H       -3.2450    -2.9940    -1.4810 H     1 <1>   0.0800 
 43 H       -3.3730    -4.5370    -0.6650 H     1 <1>   0.0800 
 44 H       -2.1010    -3.4240    -0.2270 H     1 <1>   0.0800 
 45 H       -6.5300    -0.0760     1.1410 H     1 <1>   0.0800 
 46 H       -6.7730    -0.5460    -0.4940 H     1 <1>   0.0800 
 47 H       -4.7340    -1.4550    -1.8790 H     1 <1>   0.0800 
 48 H       -3.3620    -0.3930    -1.7070 H     1 <1>   0.0800 
 49 H       -3.0390     5.9890     1.5250 H     1 <1>   0.0800 
 50 H       -2.1820     5.7170     0.0120 H     1 <1>   0.0800 
 51 H       -1.3650     6.5100     1.3720 H     1 <1>   0.0800 
 52 H       -7.4210    -2.4520     0.6420 H     1 <1>   0.0800 
 53 H       -6.2680    -2.2440     1.9150 H     1 <1>   0.0800 
 54 H       -6.0420     0.4150    -2.0920 H     1 <1>   0.4000 
 55 H        4.0340     4.9080    -2.0620 H     1 <1>   0.0800 
 56 H        3.4890     3.2520    -1.8210 H     1 <1>   0.0800 
 57 H        4.2570     4.1420    -0.4930 H     1 <1>   0.0800 
@<TRIPOS>BOND
  1   1   2  2   
  2   2   3  am  
  3   2   4  1   
  4   3   5  1   
  5   3   6  1   
  6   4   7  1   
  7   4  27  1   
  8   4  28  1   
  9   5   8  1   
 10   5  29  1   
 11   5  30  1   
 12   6   9  1   
 13   6  31  1   
 14   6  32  1   
 15   7  10  ar  
 16   7  11  ar  
 17   8  12  1   
 18   8  13  1   
 19   8  33  1   
 20   9  13  1   
 21   9  34  1   
 22   9  35  1   
 23  10  14  1   
 24  10  15  ar  
 25  11  16  ar  
 26  11  36  1   
 27  12  17  1   
 28  12  18  1   
 29  12  37  1   
 30  13  19  1   
 31  13  20  1   
 32  14  21  1   
 33  15  22  ar  
 34  15  38  1   
 35  16  22  ar  
 36  16  39  1   
 37  17  23  1   
 38  17  40  1   
 39  17  41  1   
 40  18  42  1   
 41  18  43  1   
 42  18  44  1   
 43  19  23  1   
 44  19  45  1   
 45  19  46  1   
 46  20  24  1   
 47  20  47  1   
 48  20  48  1   
 49  21  49  1   
 50  21  50  1   
 51  21  51  1   
 52  22  25  1   
 53  23  52  1   
 54  23  53  1   
 55  24  54  1   
 56  25  26  1   
 57  26  55  1   
 58  26  56  1   
 59  26  57  1   
@<TRIPOS>SUBSTRUCTURE
  1 ****   6 GROUP 4 **** **** 0

# MOE 2024.06 (io_trps.svl 2023.06)
