@<TRIPOS>MOLECULE
NONAME
52 55 1 0 0 
SMALL
USER_CHARGES


@<TRIPOS>ATOM
  1 O       -1.8140    -1.7220    -2.9640 O.2   1 <1>  -0.5700 
  2 C       -2.1830    -1.7210    -1.8120 C.2   1 <1>   0.5690 
  3 N       -2.1880    -0.5870    -1.0550 N.am  1 <1>  -0.6600 
  4 C       -2.6420    -3.0340    -1.2210 C.3   1 <1>  -0.0190 
  5 C       -2.7030    -0.5790     0.3440 C.3   1 <1>   0.2200 
  6 C       -1.7290     0.7250    -1.5930 C.3   1 <1>   0.0600 
  7 C       -1.7310    -3.4600    -0.0550 C.3   1 <1>   0.1200 
  8 C       -4.1630    -3.0350    -0.9740 C.3   1 <1>   0.1400 
  9 C       -1.8350    -1.4640     1.2750 C.3   1 <1>   0.1200 
 10 C       -4.2230    -0.8570     0.3780 C.3   1 <1>   0.1400 
 11 O       -2.0380    -2.8460     1.1590 O.3   1 <1>  -0.5600 
 12 N       -4.6220    -2.2990     0.2480 N.am  1 <1>  -0.6600 
 13 C       -5.3480    -2.9130     1.2520 C.2   1 <1>   0.5440 
 14 O       -5.8870    -2.2300     2.1030 O.2   1 <1>  -0.5700 
 15 C       -5.5010    -4.3520     1.3100 C.ar  1 <1>   0.0860 
 16 C       -6.6820    -4.9640     0.9040 C.ar  1 <1>  -0.1500 
 17 C       -4.4650    -5.1670     1.7620 C.ar  1 <1>  -0.1500 
 18 C       -6.8470    -6.3440     0.9220 C.ar  1 <1>   0.0000 
 19 C       -4.6020    -6.5420     1.7890 C.ar  1 <1>  -0.1500 
 20 C       -8.0930    -6.9470     0.5000 C.ar  1 <1>   0.0000 
 21 C       -5.7840    -7.1230     1.3690 C.ar  1 <1>  -0.1500 
 22 C       -8.1750    -7.8120    -0.5980 C.ar  1 <1>   0.0820 
 23 C       -9.2580    -6.6620     1.2060 C.ar  1 <1>  -0.1500 
 24 O       -7.0310    -8.0740    -1.2830 O.3   1 <1>  -0.3620 
 25 C       -9.4020    -8.3660    -0.9590 C.ar  1 <1>  -0.1500 
 26 C      -10.4730    -7.2130     0.8430 C.ar  1 <1>  -0.1500 
 27 C       -7.0050    -8.9160    -2.4140 C.3   1 <1>   0.0400 
 28 C      -10.5450    -8.0670    -0.2410 C.ar  1 <1>  -0.1500 
 29 H       -2.4760    -3.7620    -1.9940 H     1 <1>   0.0800 
 30 H       -2.5840     0.4260     0.7080 H     1 <1>   0.0800 
 31 H       -0.9280     1.1090    -0.9860 H     1 <1>   0.0800 
 32 H       -2.5450     1.4260    -1.5920 H     1 <1>   0.0800 
 33 H       -1.3700     0.6220    -2.6030 H     1 <1>   0.0800 
 34 H       -0.6980    -3.2610    -0.2870 H     1 <1>   0.0800 
 35 H       -1.8400    -4.5180     0.1040 H     1 <1>   0.0800 
 36 H       -4.4870    -4.0590    -0.9270 H     1 <1>   0.0800 
 37 H       -4.6500    -2.6000    -1.8300 H     1 <1>   0.0800 
 38 H       -2.0710    -1.2150     2.2950 H     1 <1>   0.0800 
 39 H       -0.7910    -1.2580     1.1160 H     1 <1>   0.0800 
 40 H       -4.7020    -0.2930    -0.4020 H     1 <1>   0.0800 
 41 H       -4.5910    -0.4700     1.3110 H     1 <1>   0.0800 
 42 H       -7.4920    -4.3450     0.5640 H     1 <1>   0.1500 
 43 H       -3.5500    -4.7070     2.0950 H     1 <1>   0.1500 
 44 H       -3.7920    -7.1580     2.1370 H     1 <1>   0.1500 
 45 H       -5.8930    -8.1930     1.3840 H     1 <1>   0.1500 
 46 H       -9.2080    -6.0010     2.0540 H     1 <1>   0.1500 
 47 H       -9.4890    -9.0310    -1.7960 H     1 <1>   0.1500 
 48 H      -11.3610    -6.9780     1.4050 H     1 <1>   0.1500 
 49 H       -5.9930    -8.9560    -2.7750 H     1 <1>   0.0800 
 50 H       -7.6480    -8.5030    -3.1710 H     1 <1>   0.0800 
 51 H       -7.3290    -9.9000    -2.1240 H     1 <1>   0.0800 
 52 H      -11.4900    -8.4970    -0.5250 H     1 <1>   0.1500 
@<TRIPOS>BOND
  1   1   2  2   
  2   2   3  am  
  3   2   4  1   
  4   3   5  1   
  5   3   6  1   
  6   4   7  1   
  7   4   8  1   
  8   4  29  1   
  9   5   9  1   
 10   5  10  1   
 11   5  30  1   
 12   6  31  1   
 13   6  32  1   
 14   6  33  1   
 15   7  11  1   
 16   7  34  1   
 17   7  35  1   
 18   8  12  1   
 19   8  36  1   
 20   8  37  1   
 21   9  11  1   
 22   9  38  1   
 23   9  39  1   
 24  10  12  1   
 25  10  40  1   
 26  10  41  1   
 27  12  13  am  
 28  13  14  2   
 29  13  15  1   
 30  15  16  ar  
 31  15  17  ar  
 32  16  18  ar  
 33  16  42  1   
 34  17  19  ar  
 35  17  43  1   
 36  18  20  1   
 37  18  21  ar  
 38  19  21  ar  
 39  19  44  1   
 40  20  22  ar  
 41  20  23  ar  
 42  21  45  1   
 43  22  24  1   
 44  22  25  ar  
 45  23  26  ar  
 46  23  46  1   
 47  24  27  1   
 48  25  28  ar  
 49  25  47  1   
 50  26  28  ar  
 51  26  48  1   
 52  27  49  1   
 53  27  50  1   
 54  27  51  1   
 55  28  52  1   
@<TRIPOS>SUBSTRUCTURE
  1 ****  15 GROUP 4 **** **** 0

# MOE 2024.06 (io_trps.svl 2023.06)
