@<TRIPOS>MOLECULE
NONAME
38 40 1 0 0 
SMALL
USER_CHARGES


@<TRIPOS>ATOM
  1 S       -0.3690     0.4390     0.0550 S.3   1 <1>  -0.0800 
  2 C        0.8060    -0.8270     0.1820 C.2   1 <1>   0.1980 
  3 C        0.8820     1.4180    -0.6230 C.2   1 <1>   0.1980 
  4 N        1.9540    -0.4720    -0.2390 N.2   1 <1>  -0.3380 
  5 C        0.4040    -2.1690     0.7860 C.3   1 <1>   0.2900 
  6 N        1.9970     0.8150    -0.7030 N.2   1 <1>  -0.3380 
  7 C        0.5370     2.8310    -1.0340 C.3   1 <1>  -0.0600 
  8 N       -0.5690    -2.9260    -0.0370 N.3   1 <1>  -0.8100 
  9 C       -1.9760    -2.4860     0.0700 C.3   1 <1>   0.1100 
 10 C       -0.5190    -4.3790     0.1760 C.3   1 <1>   0.1100 
 11 C       -2.7990    -3.7180     0.4480 C.3   1 <1>   0.2000 
 12 C       -1.9440    -4.8760    -0.0610 C.3   1 <1>  -0.0800 
 13 O       -2.8910    -3.7720     1.8320 O.3   1 <1>  -0.6800 
 14 C       -2.2450    -6.2540     0.5590 C.3   1 <1>  -0.0170 
 15 C       -1.3110    -7.3190     0.0060 C.ar  1 <1>  -0.1440 
 16 C       -1.4520    -7.8170    -1.2740 C.ar  1 <1>  -0.1500 
 17 C       -0.2720    -7.8410     0.7500 C.ar  1 <1>  -0.1500 
 18 C       -0.5700    -8.7800    -1.7360 C.ar  1 <1>   0.1600 
 19 C        0.5540    -8.8030     0.1940 C.ar  1 <1>   0.1600 
 20 N        0.4310    -9.2830    -1.0330 N.ar  1 <1>  -0.6200 
 21 H        0.0100    -2.0150     1.7750 H     1 <1>   0.0800 
 22 H        1.3050    -2.7510     0.8760 H     1 <1>   0.0800 
 23 H        1.4090     3.3150    -1.4360 H     1 <1>   0.0800 
 24 H        0.1900     3.3850    -0.1820 H     1 <1>   0.0800 
 25 H       -0.2310     2.8150    -1.7850 H     1 <1>   0.0800 
 26 H       -2.1130    -1.6950     0.7870 H     1 <1>   0.0800 
 27 H       -2.2890    -2.1340    -0.8970 H     1 <1>   0.0800 
 28 H        0.1780    -4.8400    -0.5060 H     1 <1>   0.0800 
 29 H       -0.2210    -4.5980     1.1870 H     1 <1>   0.0800 
 30 H       -3.7940    -3.7040     0.0380 H     1 <1>   0.0800 
 31 H       -2.0830    -4.9440    -1.1250 H     1 <1>   0.0800 
 32 H       -1.9970    -3.6730     2.2090 H     1 <1>   0.4000 
 33 H       -3.2630    -6.5260     0.3430 H     1 <1>   0.0800 
 34 H       -2.1450    -6.2150     1.6290 H     1 <1>   0.0800 
 35 H       -2.2380    -7.4650    -1.9160 H     1 <1>   0.1500 
 36 H       -0.0960    -7.5100     1.7570 H     1 <1>   0.1500 
 37 H       -0.6960    -9.1560    -2.7370 H     1 <1>   0.1500 
 38 H        1.3580    -9.1990     0.7890 H     1 <1>   0.1500 
@<TRIPOS>BOND
  1   1   2  1   
  2   1   3  1   
  3   2   4  2   
  4   2   5  1   
  5   3   6  2   
  6   3   7  1   
  7   4   6  1   
  8   5   8  1   
  9   5  21  1   
 10   5  22  1   
 11   7  23  1   
 12   7  24  1   
 13   7  25  1   
 14   8   9  1   
 15   8  10  1   
 16   9  11  1   
 17   9  26  1   
 18   9  27  1   
 19  10  12  1   
 20  10  28  1   
 21  10  29  1   
 22  11  12  1   
 23  11  13  1   
 24  11  30  1   
 25  12  14  1   
 26  12  31  1   
 27  13  32  1   
 28  14  15  1   
 29  14  33  1   
 30  14  34  1   
 31  15  16  ar  
 32  15  17  ar  
 33  16  18  ar  
 34  16  35  1   
 35  17  19  ar  
 36  17  36  1   
 37  18  20  ar  
 38  18  37  1   
 39  19  20  ar  
 40  19  38  1   
@<TRIPOS>SUBSTRUCTURE
  1 ****  10 GROUP 4 **** **** 0

# MOE 2024.06 (io_trps.svl 2023.06)
