@<TRIPOS>MOLECULE
NONAME
47 49 1 0 0 
SMALL
USER_CHARGES


@<TRIPOS>ATOM
  1 O       -1.5500     0.4260    -2.0880 O.2   1 <1>  -0.5700 
  2 C       -1.4760     0.6550    -0.8960 C.2   1 <1>   0.5440 
  3 N       -1.5460    -0.4080    -0.0420 N.am  1 <1>  -0.7300 
  4 C       -1.3290     2.0130    -0.3980 C.ar  1 <1>   0.0860 
  5 C       -1.6720    -1.8290    -0.4470 C.3   1 <1>   0.2200 
  6 C       -0.8950     3.0390    -1.2350 C.ar  1 <1>  -0.1500 
  7 C       -1.6120     2.3580     0.9250 C.ar  1 <1>  -0.1500 
  8 C       -3.0980    -2.3320    -0.2600 C.3   1 <1>  -0.0800 
  9 C       -0.9400    -2.6920     0.5710 C.3   1 <1>   0.1200 
 10 C       -0.7330     4.3410    -0.7970 C.ar  1 <1>   0.0820 
 11 C       -1.4670     3.6540     1.3840 C.ar  1 <1>  -0.1500 
 12 C       -3.1360    -2.7210     1.2220 C.3   1 <1>   0.1200 
 13 C       -4.2150    -1.3640    -0.6930 C.3   1 <1>  -0.0160 
 14 O       -1.8080    -2.7780     1.6600 O.3   1 <1>  -0.5600 
 15 O       -0.2870     5.2130    -1.7450 O.3   1 <1>  -0.3630 
 16 C       -1.0320     4.6690     0.5350 C.ar  1 <1>   0.0820 
 17 C       -5.5830    -2.0110    -0.5400 C.ar  1 <1>  -0.1430 
 18 C        0.5490     6.2990    -1.4080 C.3   1 <1>   0.0400 
 19 O       -0.9150     5.9540     0.9680 O.3   1 <1>  -0.3630 
 20 C       -6.3950    -1.7630     0.5490 C.ar  1 <1>  -0.1500 
 21 C       -6.0810    -2.8830    -1.4860 C.ar  1 <1>  -0.1500 
 22 C       -1.3190     6.3660     2.2560 C.3   1 <1>   0.0400 
 23 C       -7.6280    -2.3880     0.6390 C.ar  1 <1>   0.1600 
 24 C       -7.3290    -3.4550    -1.3000 C.ar  1 <1>   0.1600 
 25 N       -8.1140    -3.2300    -0.2590 N.ar  1 <1>  -0.6200 
 26 H       -1.4630    -0.2780     0.9670 H     1 <1>   0.3700 
 27 H       -1.3050    -1.9760    -1.4490 H     1 <1>   0.0800 
 28 H       -0.6720     2.8150    -2.2640 H     1 <1>   0.1500 
 29 H       -1.9590     1.6070     1.6100 H     1 <1>   0.1500 
 30 H       -3.2020    -3.2370    -0.8320 H     1 <1>   0.0800 
 31 H       -0.0020    -2.2680     0.8820 H     1 <1>   0.0800 
 32 H       -0.7870    -3.6870     0.1890 H     1 <1>   0.0800 
 33 H       -1.7020     3.8540     2.4120 H     1 <1>   0.1500 
 34 H       -3.5960    -3.6840     1.3690 H     1 <1>   0.0800 
 35 H       -3.6420    -1.9810     1.8160 H     1 <1>   0.0800 
 36 H       -4.0660    -1.0840    -1.7220 H     1 <1>   0.0800 
 37 H       -4.1810    -0.4620    -0.1080 H     1 <1>   0.0800 
 38 H        1.0620     6.6140    -2.2980 H     1 <1>   0.0800 
 39 H        1.2580     5.9810    -0.6650 H     1 <1>   0.0800 
 40 H       -0.0600     7.1030    -1.0370 H     1 <1>   0.0800 
 41 H       -6.0830    -1.0920     1.3270 H     1 <1>   0.1500 
 42 H       -5.5120    -3.1230    -2.3650 H     1 <1>   0.1500 
 43 H       -1.1700     7.4290     2.3270 H     1 <1>   0.0800 
 44 H       -0.7160     5.8640     2.9900 H     1 <1>   0.0800 
 45 H       -2.3620     6.1360     2.3850 H     1 <1>   0.0800 
 46 H       -8.2480    -2.1830     1.4950 H     1 <1>   0.1500 
 47 H       -7.7020    -4.1330    -2.0490 H     1 <1>   0.1500 
@<TRIPOS>BOND
  1   1   2  2   
  2   2   3  am  
  3   2   4  1   
  4   3   5  1   
  5   3  26  1   
  6   4   6  ar  
  7   4   7  ar  
  8   5   8  1   
  9   5   9  1   
 10   5  27  1   
 11   6  10  ar  
 12   6  28  1   
 13   7  11  ar  
 14   7  29  1   
 15   8  12  1   
 16   8  13  1   
 17   8  30  1   
 18   9  14  1   
 19   9  31  1   
 20   9  32  1   
 21  10  15  1   
 22  10  16  ar  
 23  11  16  ar  
 24  11  33  1   
 25  12  14  1   
 26  12  34  1   
 27  12  35  1   
 28  13  17  1   
 29  13  36  1   
 30  13  37  1   
 31  15  18  1   
 32  16  19  1   
 33  17  20  ar  
 34  17  21  ar  
 35  18  38  1   
 36  18  39  1   
 37  18  40  1   
 38  19  22  1   
 39  20  23  ar  
 40  20  41  1   
 41  21  24  ar  
 42  21  42  1   
 43  22  43  1   
 44  22  44  1   
 45  22  45  1   
 46  23  25  ar  
 47  23  46  1   
 48  24  25  ar  
 49  24  47  1   
@<TRIPOS>SUBSTRUCTURE
  1 ****   2 GROUP 4 **** **** 0

# MOE 2024.06 (io_trps.svl 2023.06)
