@<TRIPOS>MOLECULE
NONAME
36 37 1 0 0 
SMALL
USER_CHARGES


@<TRIPOS>ATOM
  1 O        0.6850     2.6360     0.4980 O.2   1 <1>  -0.5700 
  2 C       -0.4720     2.3320     0.3190 C.2   1 <1>   0.5690 
  3 N       -1.4630     2.7880     1.1470 N.am  1 <1>  -0.6600 
  4 C       -0.7990     1.4640    -0.8850 C.3   1 <1>  -0.0990 
  5 C       -2.9140     2.5360     0.9340 C.3   1 <1>   0.1400 
  6 C       -1.1300     3.6020     2.3670 C.3   1 <1>   0.2010 
  7 C       -2.2270     0.9030    -0.8680 C.3   1 <1>  -0.1600 
  8 C       -3.2060     2.0140    -0.4770 C.3   1 <1>  -0.1600 
  9 C       -0.8450     5.0690     2.0530 C.2   1 <1>   0.5690 
 10 O       -1.5380     5.9190     2.5680 O.2   1 <1>  -0.5700 
 11 N        0.1870     5.3460     1.2100 N.am  1 <1>  -0.4930 
 12 C        0.6790     6.5880     0.7460 C.2   1 <1>   0.0630 
 13 C        1.7000     6.7690    -0.1200 C.2   1 <1>  -0.3320 
 14 C        0.2460     7.8770     1.0590 C.2   1 <1>   0.1390 
 15 N        1.8320     8.1090    -0.2850 N.pl3 1 <1>   0.3140 
 16 C        2.5710     5.7300    -0.8120 C.3   1 <1>  -0.0600 
 17 N        0.9340     8.7930     0.4440 N.2   1 <1>  -0.7070 
 18 C        2.8060     8.8060    -1.1320 C.3   1 <1>   0.0160 
 19 H       -0.0930     0.6550    -0.9320 H     1 <1>   0.0800 
 20 H       -0.6650     2.0690    -1.7630 H     1 <1>   0.0800 
 21 H       -3.4650     3.4480     1.0950 H     1 <1>   0.0800 
 22 H       -3.2450     1.8100     1.6580 H     1 <1>   0.0800 
 23 H       -0.2600     3.1850     2.8420 H     1 <1>   0.0800 
 24 H       -1.9410     3.5500     3.0710 H     1 <1>   0.0800 
 25 H       -2.2910     0.1000    -0.1530 H     1 <1>   0.0800 
 26 H       -2.4770     0.5100    -1.8390 H     1 <1>   0.0800 
 27 H       -3.1350     2.8290    -1.1770 H     1 <1>   0.0800 
 28 H       -4.2150     1.6420    -0.5130 H     1 <1>   0.0800 
 29 H        0.6500     4.5150     0.8170 H     1 <1>   0.3700 
 30 H       -0.5650     8.0910     1.7330 H     1 <1>   0.1500 
 31 H        2.2810     4.7360    -0.5220 H     1 <1>   0.0800 
 32 H        3.6020     5.8720    -0.5420 H     1 <1>   0.0800 
 33 H        2.4710     5.8140    -1.8790 H     1 <1>   0.0800 
 34 H        2.6680     8.5020    -2.1520 H     1 <1>   0.0800 
 35 H        3.7980     8.5610    -0.8040 H     1 <1>   0.0800 
 36 H        2.6510     9.8660    -1.0480 H     1 <1>   0.0800 
@<TRIPOS>BOND
  1   1   2  2   
  2   2   3  am  
  3   2   4  1   
  4   3   5  1   
  5   3   6  1   
  6   4   7  1   
  7   4  19  1   
  8   4  20  1   
  9   5   8  1   
 10   5  21  1   
 11   5  22  1   
 12   6   9  1   
 13   6  23  1   
 14   6  24  1   
 15   7   8  1   
 16   7  25  1   
 17   7  26  1   
 18   8  27  1   
 19   8  28  1   
 20   9  10  2   
 21   9  11  am  
 22  11  12  1   
 23  11  29  1   
 24  12  13  2   
 25  12  14  1   
 26  13  15  1   
 27  13  16  1   
 28  14  17  2   
 29  14  30  1   
 30  15  17  1   
 31  15  18  1   
 32  16  31  1   
 33  16  32  1   
 34  16  33  1   
 35  18  34  1   
 36  18  35  1   
 37  18  36  1   
@<TRIPOS>SUBSTRUCTURE
  1 ****  11 GROUP 4 **** **** 0

# MOE 2024.06 (io_trps.svl 2023.06)
