@<TRIPOS>MOLECULE
NONAME
52 54 1 0 0 
SMALL
USER_CHARGES


@<TRIPOS>ATOM
  1 F        1.7280     1.5120     2.9960 F     1 <1>  -0.1900 
  2 C        2.4790     1.9420     2.0050 C.ar  1 <1>   0.1900 
  3 C        2.1440     1.7220     0.6700 C.ar  1 <1>   0.4100 
  4 C        3.6230     2.6350     2.2930 C.ar  1 <1>   0.1600 
  5 N        2.9230     2.1730    -0.2880 N.ar  1 <1>  -0.6200 
  6 N        1.0320     1.0620     0.2070 N.pl3 1 <1>  -0.8690 
  7 N        4.4120     3.0990     1.3360 N.ar  1 <1>  -0.6200 
  8 C        3.9990     2.8240     0.1020 C.ar  1 <1>   0.7200 
  9 C        0.3300    -0.0220     0.9370 C.3   1 <1>   0.1290 
 10 N        4.7530     3.2850    -0.9240 N.pl3 1 <1>  -0.8690 
 11 C        6.2560     3.2740    -0.9170 C.3   1 <1>   0.2090 
 12 C        6.8940     4.2370     0.1240 C.3   1 <1>   0.5660 
 13 N        6.0200     5.4110     0.4360 N.4   1 <1>  -0.9590 
 14 C        8.3150     4.6800    -0.2260 C.ar  1 <1>  -0.1430 
 15 C        5.7590     6.3250    -0.7000 C.3   1 <1>   0.3430 
 16 C        6.4940     6.1510     1.6290 C.3   1 <1>   0.3430 
 17 C        9.3030     4.5470     0.7410 C.ar  1 <1>  -0.1500 
 18 C        8.6600     5.2090    -1.4670 C.ar  1 <1>  -0.1500 
 19 C        4.2780     6.7050    -0.7650 C.3   1 <1>  -0.1600 
 20 C        5.3210     6.7390     2.4160 C.3   1 <1>  -0.1600 
 21 C       10.6030     4.9420     0.4820 C.ar  1 <1>  -0.1500 
 22 C        9.9610     5.6040    -1.7250 C.ar  1 <1>  -0.1500 
 23 C        3.5520     6.9190     0.5740 C.3   1 <1>  -0.1600 
 24 C        4.3810     7.6680     1.6270 C.3   1 <1>  -0.1600 
 25 C       10.9320     5.4730    -0.7500 C.ar  1 <1>  -0.1500 
 26 H        3.8910     2.8100     3.3210 H     1 <1>   0.1500 
 27 H        1.0140     0.9770    -0.8150 H     1 <1>   0.4000 
 28 H        1.0410    -0.6430     1.4560 H     1 <1>   0.0800 
 29 H       -0.2240    -0.6310     0.2440 H     1 <1>   0.0800 
 30 H       -0.3550     0.4040     1.6500 H     1 <1>   0.0800 
 31 H        4.3420     2.9330    -1.7950 H     1 <1>   0.4000 
 32 H        6.5970     3.5350    -1.9020 H     1 <1>   0.0800 
 33 H        6.6050     2.2740    -0.7190 H     1 <1>   0.0800 
 34 H        6.9690     3.6590     1.0300 H     1 <1>   0.0800 
 35 H        5.1140     4.9600     0.6600 H     1 <1>   0.4500 
 36 H        6.0260     5.8530    -1.6300 H     1 <1>   0.0800 
 37 H        6.3600     7.2140    -0.5920 H     1 <1>   0.0800 
 38 H        7.1680     6.9360     1.3260 H     1 <1>   0.0800 
 39 H        7.0350     5.4830     2.2780 H     1 <1>   0.0800 
 40 H        9.0780     4.1310     1.7100 H     1 <1>   0.1500 
 41 H        7.9370     5.3220    -2.2550 H     1 <1>   0.1500 
 42 H        3.7520     5.9470    -1.3200 H     1 <1>   0.0800 
 43 H        4.2050     7.6090    -1.3450 H     1 <1>   0.0800 
 44 H        5.7350     7.3020     3.2350 H     1 <1>   0.0800 
 45 H        4.7540     5.9360     2.8520 H     1 <1>   0.0800 
 46 H       11.3630     4.8360     1.2380 H     1 <1>   0.1500 
 47 H       10.2230     6.0130    -2.6860 H     1 <1>   0.1500 
 48 H        3.2280     5.9720     0.9730 H     1 <1>   0.0800 
 49 H        2.6570     7.4860     0.3760 H     1 <1>   0.0800 
 50 H        4.9300     8.4770     1.1750 H     1 <1>   0.0800 
 51 H        3.6960     8.1090     2.3320 H     1 <1>   0.0800 
 52 H       11.9450     5.7800    -0.9520 H     1 <1>   0.1500 
@<TRIPOS>BOND
  1   1   2  1   
  2   2   3  ar  
  3   2   4  ar  
  4   3   5  ar  
  5   3   6  1   
  6   4   7  ar  
  7   4  26  1   
  8   5   8  ar  
  9   6   9  1   
 10   6  27  1   
 11   7   8  ar  
 12   8  10  1   
 13   9  28  1   
 14   9  29  1   
 15   9  30  1   
 16  10  11  1   
 17  10  31  1   
 18  11  12  1   
 19  11  32  1   
 20  11  33  1   
 21  12  13  1   
 22  12  14  1   
 23  12  34  1   
 24  13  15  1   
 25  13  16  1   
 26  13  35  1   
 27  14  17  ar  
 28  14  18  ar  
 29  15  19  1   
 30  15  36  1   
 31  15  37  1   
 32  16  20  1   
 33  16  38  1   
 34  16  39  1   
 35  17  21  ar  
 36  17  40  1   
 37  18  22  ar  
 38  18  41  1   
 39  19  23  1   
 40  19  42  1   
 41  19  43  1   
 42  20  24  1   
 43  20  44  1   
 44  20  45  1   
 45  21  25  ar  
 46  21  46  1   
 47  22  25  ar  
 48  22  47  1   
 49  23  24  1   
 50  23  48  1   
 51  23  49  1   
 52  24  50  1   
 53  24  51  1   
 54  25  52  1   
@<TRIPOS>SUBSTRUCTURE
  1 ****  13 GROUP 4 **** **** 0

# MOE 2024.06 (io_trps.svl 2023.06)
