@<TRIPOS>MOLECULE
NONAME
57 60 1 0 0 
SMALL
USER_CHARGES


@<TRIPOS>ATOM
  1 O       -0.9130     4.8000    -1.3430 O.2   1 <1>  -0.5700 
  2 C       -0.7990     3.6270    -1.0540 C.2   1 <1>   0.5690 
  3 N       -1.8710     2.9810    -0.4710 N.am  1 <1>  -0.6600 
  4 C        0.5580     2.9540    -1.4200 C.3   1 <1>   0.0610 
  5 C       -3.2580     3.5170    -0.6590 C.3   1 <1>   0.1400 
  6 C       -1.7980     1.8750     0.5260 C.3   1 <1>   0.1400 
  7 C        1.5980     3.2920    -0.3310 C.3   1 <1>   0.1200 
  8 C        0.4840     1.4280    -1.6890 C.3   1 <1>  -0.2400 
  9 C        1.0860     3.5630    -2.7450 C.3   1 <1>  -0.2400 
 10 C       -3.8710     4.0040     0.6670 C.3   1 <1>   0.1430 
 11 C       -2.4070     2.3110     1.8650 C.3   1 <1>  -0.1600 
 12 O        1.3040     2.6590     0.8770 O.3   1 <1>  -0.5600 
 13 C       -5.2790     4.4940     0.3840 C.ar  1 <1>   0.1670 
 14 C       -3.8330     2.8620     1.7020 C.3   1 <1>  -0.1600 
 15 C       -3.1780     5.2910     1.1900 C.3   1 <1>  -0.1600 
 16 C        2.1500     3.0170     1.9200 C.3   1 <1>   0.0400 
 17 N       -6.3210     3.7320     0.1520 N.ar  1 <1>  -0.6200 
 18 C       -5.3410     5.8540     0.3780 C.ar  1 <1>  -0.1440 
 19 C       -3.9960     6.4780     0.6560 C.3   1 <1>  -0.0170 
 20 C       -7.4730     4.3740    -0.0840 C.ar  1 <1>   0.6200 
 21 C       -6.5550     6.4360     0.1260 C.ar  1 <1>   0.1600 
 22 N       -7.6240     5.7070    -0.1030 N.ar  1 <1>  -0.6200 
 23 C       -8.6540     3.5590    -0.3410 C.ar  1 <1>   0.0000 
 24 C       -8.5550     2.2810    -0.9000 C.ar  1 <1>  -0.1500 
 25 C       -9.9410     4.0160    -0.0400 C.ar  1 <1>  -0.1500 
 26 C       -9.6730     1.5040    -1.1450 C.ar  1 <1>  -0.1500 
 27 C      -11.0630     3.2450    -0.2820 C.ar  1 <1>  -0.1500 
 28 C      -10.9320     1.9850    -0.8360 C.ar  1 <1>  -0.1500 
 29 H       -3.8750     2.7320    -1.0610 H     1 <1>   0.0800 
 30 H       -3.2610     4.3210    -1.3740 H     1 <1>   0.0800 
 31 H       -0.7860     1.5870     0.7150 H     1 <1>   0.0800 
 32 H       -2.3270     1.0200     0.1400 H     1 <1>   0.0800 
 33 H        1.6110     4.3560    -0.1650 H     1 <1>   0.0800 
 34 H        2.5770     2.9700    -0.6430 H     1 <1>   0.0800 
 35 H        0.3820     0.8580    -0.7880 H     1 <1>   0.0800 
 36 H        1.3840     1.0820    -2.1650 H     1 <1>   0.0800 
 37 H       -0.3480     1.2070    -2.3340 H     1 <1>   0.0800 
 38 H        1.2400     4.6240    -2.6450 H     1 <1>   0.0800 
 39 H        0.3730     3.4050    -3.5350 H     1 <1>   0.0800 
 40 H        2.0230     3.1210    -3.0340 H     1 <1>   0.0800 
 41 H       -1.7690     3.0590     2.3020 H     1 <1>   0.0800 
 42 H       -2.4220     1.4700     2.5340 H     1 <1>   0.0800 
 43 H       -4.4770     2.0670     1.3680 H     1 <1>   0.0800 
 44 H       -4.2110     3.2060     2.6490 H     1 <1>   0.0800 
 45 H       -2.1450     5.3560     0.9000 H     1 <1>   0.0800 
 46 H       -3.2260     5.3100     2.2640 H     1 <1>   0.0800 
 47 H        1.8480     2.4720     2.7970 H     1 <1>   0.0800 
 48 H        2.0610     4.0740     2.1020 H     1 <1>   0.0800 
 49 H        3.1620     2.7590     1.6620 H     1 <1>   0.0800 
 50 H       -3.5680     6.8450    -0.2620 H     1 <1>   0.0800 
 51 H       -4.0590     7.2730     1.3780 H     1 <1>   0.0800 
 52 H       -6.6520     7.5080     0.1100 H     1 <1>   0.1500 
 53 H       -7.5840     1.8890    -1.1480 H     1 <1>   0.1500 
 54 H      -10.0630     4.9940     0.3920 H     1 <1>   0.1500 
 55 H       -9.5630     0.5240    -1.5760 H     1 <1>   0.1500 
 56 H      -12.0400     3.6260    -0.0400 H     1 <1>   0.1500 
 57 H      -11.8040     1.3830    -1.0260 H     1 <1>   0.1500 
@<TRIPOS>BOND
  1   1   2  2   
  2   2   3  am  
  3   2   4  1   
  4   3   5  1   
  5   3   6  1   
  6   4   7  1   
  7   4   8  1   
  8   4   9  1   
  9   5  10  1   
 10   5  29  1   
 11   5  30  1   
 12   6  11  1   
 13   6  31  1   
 14   6  32  1   
 15   7  12  1   
 16   7  33  1   
 17   7  34  1   
 18   8  35  1   
 19   8  36  1   
 20   8  37  1   
 21   9  38  1   
 22   9  39  1   
 23   9  40  1   
 24  10  13  1   
 25  10  14  1   
 26  10  15  1   
 27  11  14  1   
 28  11  41  1   
 29  11  42  1   
 30  12  16  1   
 31  13  17  ar  
 32  13  18  ar  
 33  14  43  1   
 34  14  44  1   
 35  15  19  1   
 36  15  45  1   
 37  15  46  1   
 38  16  47  1   
 39  16  48  1   
 40  16  49  1   
 41  17  20  ar  
 42  18  19  1   
 43  18  21  ar  
 44  19  50  1   
 45  19  51  1   
 46  20  22  ar  
 47  20  23  1   
 48  21  22  ar  
 49  21  52  1   
 50  23  24  ar  
 51  23  25  ar  
 52  24  26  ar  
 53  24  53  1   
 54  25  27  ar  
 55  25  54  1   
 56  26  28  ar  
 57  26  55  1   
 58  27  28  ar  
 59  27  56  1   
 60  28  57  1   
@<TRIPOS>SUBSTRUCTURE
  1 ****  10 GROUP 4 **** **** 0

# MOE 2024.06 (io_trps.svl 2023.06)
