@<TRIPOS>MOLECULE
NONAME
43 45 1 0 0 
SMALL
USER_CHARGES


@<TRIPOS>ATOM
  1 CL      -0.5200     0.1850    -0.5120 Cl    1 <1>  -0.1770 
  2 C       -2.0320    -0.6820    -0.7010 C.ar  1 <1>   0.1770 
  3 C       -2.8010    -1.0760     0.3920 C.ar  1 <1>   0.1310 
  4 C       -2.4200    -0.9790    -1.9890 C.ar  1 <1>  -0.1500 
  5 N       -3.9560    -1.7580     0.2130 N.ar  1 <1>  -0.6200 
  6 C       -2.3230    -0.7500     1.7330 C.2   1 <1>   0.9790 
  7 C       -3.5880    -1.6860    -2.1400 C.ar  1 <1>  -0.1500 
  8 C       -4.3310    -2.0590    -1.0210 C.ar  1 <1>   0.4100 
  9 O       -1.9040    -1.6430     2.5010 O.co2 1 <1>  -0.9000 
 10 O       -2.3090     0.4290     2.1430 O.co2 1 <1>  -0.9000 
 11 N       -5.4970    -2.8090    -1.1470 N.pl3 1 <1>  -0.8380 
 12 C       -6.1090    -3.4350     0.0690 C.3   1 <1>   0.2090 
 13 C       -6.5030    -2.5510    -2.2140 C.3   1 <1>   0.2090 
 14 C       -6.7070    -4.8050    -0.3150 C.3   1 <1>   0.4230 
 15 C       -7.1150    -3.8990    -2.6250 C.3   1 <1>  -0.1600 
 16 N       -7.2650    -5.5950     0.8380 N.4   1 <1>  -0.9590 
 17 C       -7.7710    -4.6370    -1.4210 C.3   1 <1>  -0.1060 
 18 C       -7.6720    -6.9610     0.4270 C.3   1 <1>   0.3430 
 19 C       -6.4320    -5.5750     2.0730 C.3   1 <1>   0.2630 
 20 C       -8.9470    -3.8160    -0.8590 C.2   1 <1>   0.9060 
 21 C       -8.2480    -6.0350    -1.8840 C.3   1 <1>  -0.1600 
 22 C       -8.7110    -6.8960    -0.6960 C.3   1 <1>  -0.1600 
 23 O       -9.2500    -3.9390     0.3390 O.co2 1 <1>  -0.9000 
 24 O       -9.5740    -3.0660    -1.6070 O.co2 1 <1>  -0.9000 
 25 H       -1.8210    -0.6730    -2.8260 H     1 <1>   0.1500 
 26 H       -3.9220    -1.9660    -3.1180 H     1 <1>   0.1500 
 27 H       -5.3540    -3.5870     0.8170 H     1 <1>   0.0800 
 28 H       -6.8640    -2.7780     0.4680 H     1 <1>   0.0800 
 29 H       -7.2680    -1.8920    -1.8350 H     1 <1>   0.0800 
 30 H       -6.0560    -2.0760    -3.0670 H     1 <1>   0.0800 
 31 H       -5.8920    -5.3710    -0.7320 H     1 <1>   0.0800 
 32 H       -7.8560    -3.7200    -3.3860 H     1 <1>   0.0800 
 33 H       -6.3400    -4.5030    -3.0640 H     1 <1>   0.0800 
 34 H       -8.1590    -5.0620     1.0200 H     1 <1>   0.4500 
 35 H       -6.8080    -7.5070     0.0860 H     1 <1>   0.0800 
 36 H       -8.0960    -7.4830     1.2690 H     1 <1>   0.0800 
 37 H       -5.4620    -6.0030     1.8790 H     1 <1>   0.0800 
 38 H       -6.9150    -6.1370     2.8550 H     1 <1>   0.0800 
 39 H       -6.3010    -4.5610     2.4180 H     1 <1>   0.0800 
 40 H       -9.0620    -5.9190    -2.5810 H     1 <1>   0.0800 
 41 H       -7.4480    -6.5430    -2.3940 H     1 <1>   0.0800 
 42 H       -8.9230    -7.8920    -1.0400 H     1 <1>   0.0800 
 43 H       -9.6300    -6.4980    -0.2970 H     1 <1>   0.0800 
@<TRIPOS>BOND
  1   1   2  1   
  2   2   3  ar  
  3   2   4  ar  
  4   3   5  ar  
  5   3   6  1   
  6   4   7  ar  
  7   4  25  1   
  8   5   8  ar  
  9   6   9  ar  
 10   6  10  ar  
 11   7   8  ar  
 12   7  26  1   
 13   8  11  1   
 14  11  12  1   
 15  11  13  1   
 16  12  14  1   
 17  12  27  1   
 18  12  28  1   
 19  13  15  1   
 20  13  29  1   
 21  13  30  1   
 22  14  16  1   
 23  14  17  1   
 24  14  31  1   
 25  15  17  1   
 26  15  32  1   
 27  15  33  1   
 28  16  18  1   
 29  16  19  1   
 30  16  34  1   
 31  17  20  1   
 32  17  21  1   
 33  18  22  1   
 34  18  35  1   
 35  18  36  1   
 36  19  37  1   
 37  19  38  1   
 38  19  39  1   
 39  20  23  ar  
 40  20  24  ar  
 41  21  22  1   
 42  21  40  1   
 43  21  41  1   
 44  22  42  1   
 45  22  43  1   
@<TRIPOS>SUBSTRUCTURE
  1 ****  12 GROUP 4 **** **** 0

# MOE 2024.06 (io_trps.svl 2023.06)
