@<TRIPOS>MOLECULE
NONAME
46 49 1 0 0 
SMALL
USER_CHARGES


@<TRIPOS>ATOM
  1 O        1.7270    -0.3430    -2.3900 O.2   1 <1>  -0.5700 
  2 C        2.3540    -0.6960    -1.4100 C.2   1 <1>   0.5440 
  3 N        3.2040     0.2060    -0.8110 N.am  1 <1>  -0.6600 
  4 C        2.2040    -2.0300    -0.8740 C.ar  1 <1>   0.0860 
  5 C        3.4240     0.1890     0.6800 C.3   1 <1>   0.2200 
  6 C        3.8870     1.2170    -1.6730 C.3   1 <1>   0.1400 
  7 C        3.2690    -2.9150    -0.8660 C.ar  1 <1>  -0.1500 
  8 C        0.9790    -2.4460    -0.3140 C.ar  1 <1>  -0.1500 
  9 C        3.1580     1.5610     1.3200 C.3   1 <1>   0.1200 
 10 C        4.8220    -0.3470     1.0610 C.3   1 <1>   0.3430 
 11 C        5.0320     1.9950    -0.9980 C.3   1 <1>  -0.0800 
 12 C        3.1430    -4.1690    -0.2710 C.ar  1 <1>   0.0000 
 13 C        0.8340    -3.6820     0.2700 C.ar  1 <1>  -0.1500 
 14 O        4.2920     2.3750     1.2720 O.3   1 <1>  -0.5600 
 15 N        5.8090    -0.2340    -0.0510 N.4   1 <1>  -0.9590 
 16 C        4.5290     2.9960     0.0520 C.3   1 <1>   0.1200 
 17 C        6.2010     1.1350    -0.4800 C.3   1 <1>   0.3430 
 18 C        1.9320    -4.5450     0.2990 C.ar  1 <1>  -0.1520 
 19 C        4.0250    -5.2550    -0.0930 C.2   1 <1>  -0.1500 
 20 C        7.0050    -1.1520     0.0810 C.3   1 <1>   0.2370 
 21 N        2.0710    -5.8100     0.8070 N.pl3 1 <1>   0.0330 
 22 C        3.3500    -6.2280     0.5630 C.2   1 <1>  -0.3020 
 23 C        7.3140    -1.8180    -1.2610 C.2   1 <1>   0.9060 
 24 O        6.4340    -1.7060    -2.1280 O.co2 1 <1>  -0.9000 
 25 O        8.3870    -2.3930    -1.4290 O.co2 1 <1>  -0.9000 
 26 H        2.7000    -0.4740     1.1180 H     1 <1>   0.0800 
 27 H        4.2780     0.7060    -2.5380 H     1 <1>   0.0800 
 28 H        3.1440     1.9120    -2.0290 H     1 <1>   0.0800 
 29 H        4.2060    -2.6520    -1.3270 H     1 <1>   0.1500 
 30 H        0.1460    -1.7650    -0.3570 H     1 <1>   0.1500 
 31 H        2.9290     1.4230     2.3620 H     1 <1>   0.0800 
 32 H        2.3240     2.0590     0.8560 H     1 <1>   0.0800 
 33 H        4.7140    -1.3870     1.3200 H     1 <1>   0.0800 
 34 H        5.1840     0.1720     1.9320 H     1 <1>   0.0800 
 35 H        5.4500     2.6090    -1.7760 H     1 <1>   0.0800 
 36 H       -0.1050    -3.9910     0.6950 H     1 <1>   0.1500 
 37 H        5.3550    -0.6380    -0.9060 H     1 <1>   0.4500 
 38 H        3.6310     3.4970    -0.2720 H     1 <1>   0.0800 
 39 H        5.2830     3.7440     0.2290 H     1 <1>   0.0800 
 40 H        6.6890     1.6460     0.3340 H     1 <1>   0.0800 
 41 H        6.9160     1.0350    -1.2820 H     1 <1>   0.0800 
 42 H        5.0450    -5.2640    -0.4420 H     1 <1>   0.1500 
 43 H        7.8750    -0.6130     0.4080 H     1 <1>   0.0800 
 44 H        6.7980    -1.9400     0.7820 H     1 <1>   0.0800 
 45 H        1.3330    -6.3510     1.2700 H     1 <1>   0.2700 
 46 H        3.7010    -7.1990     0.8670 H     1 <1>   0.1500 
@<TRIPOS>BOND
  1   1   2  2   
  2   2   3  am  
  3   2   4  1   
  4   3   5  1   
  5   3   6  1   
  6   4   7  ar  
  7   4   8  ar  
  8   5   9  1   
  9   5  10  1   
 10   5  26  1   
 11   6  11  1   
 12   6  27  1   
 13   6  28  1   
 14   7  12  ar  
 15   7  29  1   
 16   8  13  ar  
 17   8  30  1   
 18   9  14  1   
 19   9  31  1   
 20   9  32  1   
 21  10  15  1   
 22  10  33  1   
 23  10  34  1   
 24  11  16  1   
 25  11  17  1   
 26  11  35  1   
 27  12  18  ar  
 28  12  19  1   
 29  13  18  ar  
 30  13  36  1   
 31  14  16  1   
 32  15  17  1   
 33  15  20  1   
 34  15  37  1   
 35  16  38  1   
 36  16  39  1   
 37  17  40  1   
 38  17  41  1   
 39  18  21  1   
 40  19  22  2   
 41  19  42  1   
 42  20  23  1   
 43  20  43  1   
 44  20  44  1   
 45  21  22  1   
 46  21  45  1   
 47  22  46  1   
 48  23  24  ar  
 49  23  25  ar  
@<TRIPOS>SUBSTRUCTURE
  1 ****   7 GROUP 4 **** **** 0

# MOE 2024.06 (io_trps.svl 2023.06)
