@<TRIPOS>MOLECULE
NONAME
48 50 1 0 0 
SMALL
USER_CHARGES


@<TRIPOS>ATOM
  1 O        0.5270    -1.0790     1.4850 O.3   1 <1>  -0.5600 
  2 C        0.5870    -1.7900     0.2840 C.3   1 <1>   0.2000 
  3 C       -0.7310    -1.0360     2.0810 C.3   1 <1>   0.0400 
  4 C        1.8910    -1.5040    -0.4800 C.3   1 <1>   0.0000 
  5 C        0.5690    -3.3020     0.5280 C.3   1 <1>  -0.1600 
  6 C        3.1010    -1.4260     0.4850 C.3   1 <1>   0.2090 
  7 C        1.7990    -0.1930    -1.2920 C.3   1 <1>  -0.1600 
  8 C        1.9990    -2.7450    -1.3830 C.3   1 <1>  -0.1600 
  9 C        1.4910    -3.9150    -0.5360 C.3   1 <1>  -0.1600 
 10 N        4.3610    -1.1210    -0.2660 N.pl3 1 <1>  -0.8380 
 11 C        3.1280     0.1350    -1.9960 C.3   1 <1>  -0.1600 
 12 C        5.4520    -1.9670    -0.2830 C.ar  1 <1>   0.7200 
 13 C        4.3100     0.1610    -1.0200 C.3   1 <1>   0.2090 
 14 N        5.2690    -3.2100     0.1630 N.ar  1 <1>  -0.6200 
 15 N        6.6000    -1.4720    -0.7450 N.ar  1 <1>  -0.6200 
 16 C        6.3130    -4.0000     0.1390 C.ar  1 <1>   0.1600 
 17 C        7.6260    -2.2850    -0.7550 C.ar  1 <1>   0.1600 
 18 C        7.5420    -3.5870    -0.3180 C.ar  1 <1>  -0.1440 
 19 C        8.7440    -4.5170    -0.3350 C.3   1 <1>  -0.0170 
 20 C        9.5050    -4.4340     0.9930 C.3   1 <1>  -0.1600 
 21 C       10.7220    -5.3640     1.0020 C.3   1 <1>  -0.2400 
 22 H       -0.2500    -1.5090    -0.3340 H     1 <1>   0.0800 
 23 H       -0.6540    -0.4500     2.9790 H     1 <1>   0.0800 
 24 H       -1.0450    -2.0350     2.3280 H     1 <1>   0.0800 
 25 H       -1.4290    -0.5740     1.4050 H     1 <1>   0.0800 
 26 H        0.9550    -3.5270     1.5070 H     1 <1>   0.0800 
 27 H       -0.4300    -3.6870     0.4350 H     1 <1>   0.0800 
 28 H        3.1880    -2.3380     1.0450 H     1 <1>   0.0800 
 29 H        2.9400    -0.6360     1.1970 H     1 <1>   0.0800 
 30 H        1.0110    -0.2590    -2.0200 H     1 <1>   0.0800 
 31 H        1.5560     0.6120    -0.6180 H     1 <1>   0.0800 
 32 H        1.3570    -2.6290    -2.2380 H     1 <1>   0.0800 
 33 H        3.0030    -2.9170    -1.7320 H     1 <1>   0.0800 
 34 H        2.3260    -4.3960    -0.0540 H     1 <1>   0.0800 
 35 H        0.9760    -4.6380    -1.1440 H     1 <1>   0.0800 
 36 H        3.0520     1.0920    -2.4790 H     1 <1>   0.0800 
 37 H        3.3310    -0.5980    -2.7560 H     1 <1>   0.0800 
 38 H        4.1910     0.9690    -0.3190 H     1 <1>   0.0800 
 39 H        5.2180     0.3320    -1.5710 H     1 <1>   0.0800 
 40 H        6.1840    -5.0060     0.4970 H     1 <1>   0.1500 
 41 H        8.5620    -1.9010    -1.1210 H     1 <1>   0.1500 
 42 H        8.4140    -5.5280    -0.5030 H     1 <1>   0.0800 
 43 H        9.3980    -4.2470    -1.1470 H     1 <1>   0.0800 
 44 H        9.8310    -3.4200     1.1560 H     1 <1>   0.0800 
 45 H        8.8460    -4.7020     1.8010 H     1 <1>   0.0800 
 46 H       11.4080    -5.0980     0.2170 H     1 <1>   0.0800 
 47 H       10.4170    -6.3870     0.8660 H     1 <1>   0.0800 
 48 H       11.2360    -5.2850     1.9440 H     1 <1>   0.0800 
@<TRIPOS>BOND
  1   1   2  1   
  2   1   3  1   
  3   2   4  1   
  4   2   5  1   
  5   2  22  1   
  6   3  23  1   
  7   3  24  1   
  8   3  25  1   
  9   4   6  1   
 10   4   7  1   
 11   4   8  1   
 12   5   9  1   
 13   5  26  1   
 14   5  27  1   
 15   6  10  1   
 16   6  28  1   
 17   6  29  1   
 18   7  11  1   
 19   7  30  1   
 20   7  31  1   
 21   8   9  1   
 22   8  32  1   
 23   8  33  1   
 24   9  34  1   
 25   9  35  1   
 26  10  12  1   
 27  10  13  1   
 28  11  13  1   
 29  11  36  1   
 30  11  37  1   
 31  12  14  ar  
 32  12  15  ar  
 33  13  38  1   
 34  13  39  1   
 35  14  16  ar  
 36  15  17  ar  
 37  16  18  ar  
 38  16  40  1   
 39  17  18  ar  
 40  17  41  1   
 41  18  19  1   
 42  19  20  1   
 43  19  42  1   
 44  19  43  1   
 45  20  21  1   
 46  20  44  1   
 47  20  45  1   
 48  21  46  1   
 49  21  47  1   
 50  21  48  1   
@<TRIPOS>SUBSTRUCTURE
  1 ****  12 GROUP 4 **** **** 0

# MOE 2024.06 (io_trps.svl 2023.06)
