@<TRIPOS>MOLECULE
NONAME
60 62 1 0 0 
SMALL
USER_CHARGES


@<TRIPOS>ATOM
  1 O       -0.8600     0.2940     0.1500 O.2   1 <1>  -0.5700 
  2 C       -1.7250     1.1500     0.1570 C.2   1 <1>   0.5440 
  3 N       -3.0450     0.7670     0.3170 N.am  1 <1>  -0.6600 
  4 C       -1.3420     2.5390    -0.0130 C.ar  1 <1>   0.0860 
  5 C       -4.1760     1.6650    -0.0680 C.3   1 <1>   0.2200 
  6 C       -3.3490    -0.6400     0.7220 C.3   1 <1>   0.0600 
  7 C       -0.6770     2.9640    -1.1610 C.ar  1 <1>  -0.1500 
  8 C       -1.6280     3.4970     0.9570 C.ar  1 <1>  -0.1500 
  9 C       -5.0410     2.0730     1.1230 C.3   1 <1>  -0.1600 
 10 C       -5.1550     1.0410    -1.0620 C.3   1 <1>  -0.1600 
 11 C       -0.3330     4.2910    -1.3440 C.ar  1 <1>  -0.1500 
 12 C       -1.2870     4.8260     0.7800 C.ar  1 <1>  -0.1500 
 13 C       -6.3770     2.5000     0.4980 C.3   1 <1>  -0.0800 
 14 C       -6.4410     1.8620    -0.8950 C.3   1 <1>  -0.0800 
 15 C       -0.6390     5.2330    -0.3750 C.ar  1 <1>  -0.1430 
 16 C       -7.6330     2.0180     1.2370 C.3   1 <1>  -0.1600 
 17 C       -7.7470     1.0530    -0.9270 C.3   1 <1>  -0.1600 
 18 C       -0.2640     6.6970    -0.5700 C.3   1 <1>  -0.0170 
 19 C       -8.6500     1.6840     0.1390 C.3   1 <1>   0.4230 
 20 C        0.9670     7.1070     0.2600 C.3   1 <1>  -0.0800 
 21 N       -9.3020     2.9290    -0.3840 N.4   1 <1>  -0.9590 
 22 C        1.2320     8.6110     0.1130 C.3   1 <1>  -0.2400 
 23 C        2.2200     6.3210    -0.1490 C.3   1 <1>  -0.2400 
 24 C      -10.0830     3.6600     0.6670 C.3   1 <1>   0.2630 
 25 C      -10.2120     2.6610    -1.5440 C.3   1 <1>   0.2630 
 26 H       -3.7940     2.5630    -0.5230 H     1 <1>   0.0800 
 27 H       -4.2890    -0.7010     1.2370 H     1 <1>   0.0800 
 28 H       -2.5780    -1.0090     1.3780 H     1 <1>   0.0800 
 29 H       -3.3780    -1.2670    -0.1530 H     1 <1>   0.0800 
 30 H       -0.4280     2.2360    -1.9140 H     1 <1>   0.1500 
 31 H       -2.1190     3.1880     1.8630 H     1 <1>   0.1500 
 32 H       -5.1780     1.2370     1.7830 H     1 <1>   0.0800 
 33 H       -4.5890     2.8810     1.6690 H     1 <1>   0.0800 
 34 H       -4.7740     1.1020    -2.0670 H     1 <1>   0.0800 
 35 H       -5.3390     0.0120    -0.8180 H     1 <1>   0.0800 
 36 H        0.1790     4.5870    -2.2420 H     1 <1>   0.1500 
 37 H       -1.5220     5.5440     1.5460 H     1 <1>   0.1500 
 38 H       -6.3950     3.5730     0.3900 H     1 <1>   0.0800 
 39 H       -6.4660     2.6450    -1.6360 H     1 <1>   0.0800 
 40 H       -7.9720     2.7220     1.9730 H     1 <1>   0.0800 
 41 H       -7.4130     1.1000     1.7530 H     1 <1>   0.0800 
 42 H       -7.5500     0.0420    -0.6140 H     1 <1>   0.0800 
 43 H       -8.1720     1.0020    -1.9110 H     1 <1>   0.0800 
 44 H       -0.0750     6.8880    -1.6110 H     1 <1>   0.0800 
 45 H       -1.1040     7.3050    -0.2830 H     1 <1>   0.0800 
 46 H       -9.3950     0.9870     0.4890 H     1 <1>   0.0800 
 47 H        0.7630     6.9010     1.2980 H     1 <1>   0.0800 
 48 H       -8.5360     3.5380    -0.7040 H     1 <1>   0.4500 
 49 H        1.4480     8.8610    -0.9110 H     1 <1>   0.0800 
 50 H        2.0710     8.9030     0.7200 H     1 <1>   0.0800 
 51 H        0.3740     9.1760     0.4320 H     1 <1>   0.0800 
 52 H        2.4420     6.4740    -1.1910 H     1 <1>   0.0800 
 53 H        2.0770     5.2680     0.0200 H     1 <1>   0.0800 
 54 H        3.0670     6.6370     0.4330 H     1 <1>   0.0800 
 55 H      -10.8360     3.0150     1.0910 H     1 <1>   0.0800 
 56 H      -10.5700     4.5210     0.2380 H     1 <1>   0.0800 
 57 H       -9.4360     4.0020     1.4570 H     1 <1>   0.0800 
 58 H      -10.9750     1.9510    -1.2670 H     1 <1>   0.0800 
 59 H       -9.6610     2.2660    -2.3810 H     1 <1>   0.0800 
 60 H      -10.6910     3.5730    -1.8610 H     1 <1>   0.0800 
@<TRIPOS>BOND
  1   1   2  2   
  2   2   3  am  
  3   2   4  1   
  4   3   5  1   
  5   3   6  1   
  6   4   7  ar  
  7   4   8  ar  
  8   5   9  1   
  9   5  10  1   
 10   5  26  1   
 11   6  27  1   
 12   6  28  1   
 13   6  29  1   
 14   7  11  ar  
 15   7  30  1   
 16   8  12  ar  
 17   8  31  1   
 18   9  13  1   
 19   9  32  1   
 20   9  33  1   
 21  10  14  1   
 22  10  34  1   
 23  10  35  1   
 24  11  15  ar  
 25  11  36  1   
 26  12  15  ar  
 27  12  37  1   
 28  13  14  1   
 29  13  16  1   
 30  13  38  1   
 31  14  17  1   
 32  14  39  1   
 33  15  18  1   
 34  16  19  1   
 35  16  40  1   
 36  16  41  1   
 37  17  19  1   
 38  17  42  1   
 39  17  43  1   
 40  18  20  1   
 41  18  44  1   
 42  18  45  1   
 43  19  21  1   
 44  19  46  1   
 45  20  22  1   
 46  20  23  1   
 47  20  47  1   
 48  21  24  1   
 49  21  25  1   
 50  21  48  1   
 51  22  49  1   
 52  22  50  1   
 53  22  51  1   
 54  23  52  1   
 55  23  53  1   
 56  23  54  1   
 57  24  55  1   
 58  24  56  1   
 59  24  57  1   
 60  25  58  1   
 61  25  59  1   
 62  25  60  1   
@<TRIPOS>SUBSTRUCTURE
  1 ****   5 GROUP 4 **** **** 0

# MOE 2024.06 (io_trps.svl 2023.06)
