@<TRIPOS>MOLECULE
NONAME
60 64 1 0 0 
SMALL
USER_CHARGES


@<TRIPOS>ATOM
  1 O        0.0740    -1.4060    -3.3300 O.2   1 <1>  -0.5700 
  2 C        0.3960    -2.0520    -2.3630 C.2   1 <1>   0.5690 
  3 N        1.2190    -1.5090    -1.4100 N.am  1 <1>  -0.6600 
  4 C       -0.1760    -3.4630    -2.2940 C.3   1 <1>  -0.0990 
  5 C        1.6380    -2.2550    -0.1900 C.3   1 <1>   0.1400 
  6 C        1.8610    -0.1710    -1.6600 C.3   1 <1>   0.2840 
  7 C        0.4530    -4.4880    -1.3410 C.3   1 <1>   0.1200 
  8 C        2.4950    -3.5130    -0.5120 C.3   1 <1>   0.2800 
  9 C        1.9460     0.7010    -0.4120 C.ar  1 <1>   0.1660 
 10 O        1.8460    -4.3980    -1.3770 O.3   1 <1>  -0.5600 
 11 C        3.7980    -3.1480    -1.2360 C.3   1 <1>  -0.1600 
 12 C        2.8470    -4.2880     0.7640 C.3   1 <1>  -0.1600 
 13 N        3.0950     0.7260     0.2620 N.ar  1 <1>  -0.6200 
 14 C        0.8180     1.4270    -0.0440 C.ar  1 <1>   0.1600 
 15 C        4.7160    -2.3170    -0.3510 C.3   1 <1>   0.3430 
 16 C        3.7920    -3.4920     1.6670 C.3   1 <1>   0.3430 
 17 C        3.0320     1.5570     1.2940 C.ar  1 <1>   0.1600 
 18 N        0.7590     2.2310     1.0030 N.ar  1 <1>  -0.6200 
 19 N        4.9970    -3.0650     0.9060 N.4   1 <1>  -0.9590 
 20 C        1.9020     2.2860     1.6580 C.ar  1 <1>   0.1670 
 21 C        6.0030    -2.3490     1.7350 C.3   1 <1>   0.5230 
 22 C        1.9260     3.2110     2.8580 C.3   1 <1>  -0.0970 
 23 C        7.3780    -2.6930     1.1760 C.2   1 <1>   0.0060 
 24 N        7.5850    -3.6850     0.3750 N.2   1 <1>  -0.5650 
 25 N        8.5020    -1.9880     1.4770 N.pl3 1 <1>   0.0330 
 26 C        8.9230    -3.6430     0.1190 C.ar  1 <1>   0.2270 
 27 C        9.5080    -2.5910     0.7970 C.ar  1 <1>  -0.1520 
 28 C        9.7020    -4.4730    -0.6850 C.ar  1 <1>  -0.1500 
 29 C       10.8770    -2.3340     0.6950 C.ar  1 <1>  -0.1500 
 30 C       11.0540    -4.2280    -0.7910 C.ar  1 <1>  -0.1500 
 31 C       11.6390    -3.1590    -0.1010 C.ar  1 <1>  -0.1500 
 32 H       -0.1110    -3.8720    -3.2850 H     1 <1>   0.0800 
 33 H       -1.2230    -3.3830    -2.0680 H     1 <1>   0.0800 
 34 H        0.7600    -2.5260     0.3690 H     1 <1>   0.0800 
 35 H        2.1970    -1.6160     0.4610 H     1 <1>   0.0800 
 36 H        1.3090     0.3720    -2.4080 H     1 <1>   0.0800 
 37 H        2.8500    -0.3230    -2.0510 H     1 <1>   0.0800 
 38 H        0.1920    -5.4790    -1.6710 H     1 <1>   0.0800 
 39 H        0.0990    -4.3800    -0.3310 H     1 <1>   0.0800 
 40 H        3.5780    -2.5990    -2.1340 H     1 <1>   0.0800 
 41 H        4.3160    -4.0440    -1.5300 H     1 <1>   0.0800 
 42 H        3.3190    -5.2190     0.5020 H     1 <1>   0.0800 
 43 H        1.9510    -4.5170     1.3130 H     1 <1>   0.0800 
 44 H       -0.0750     1.3390    -0.6400 H     1 <1>   0.1500 
 45 H        4.2510    -1.3710    -0.1270 H     1 <1>   0.0800 
 46 H        5.6390    -2.1260    -0.8780 H     1 <1>   0.0800 
 47 H        4.0850    -4.1060     2.5040 H     1 <1>   0.0800 
 48 H        3.2790    -2.6240     2.0480 H     1 <1>   0.0800 
 49 H        3.9210     1.6720     1.8850 H     1 <1>   0.1500 
 50 H        5.5310    -3.9040     0.6040 H     1 <1>   0.4500 
 51 H        5.9500    -2.6870     2.7570 H     1 <1>   0.0800 
 52 H        5.8300    -1.2860     1.7030 H     1 <1>   0.0800 
 53 H        2.8840     3.2020     3.3440 H     1 <1>   0.0800 
 54 H        1.1740     2.9060     3.5640 H     1 <1>   0.0800 
 55 H        1.7080     4.2150     2.5410 H     1 <1>   0.0800 
 56 H        8.6170    -1.1710     2.0840 H     1 <1>   0.2700 
 57 H        9.2320    -5.2870    -1.2040 H     1 <1>   0.1500 
 58 H       11.3230    -1.5120     1.2270 H     1 <1>   0.1500 
 59 H       11.6730    -4.8580    -1.4070 H     1 <1>   0.1500 
 60 H       12.6980    -2.9900    -0.2020 H     1 <1>   0.1500 
@<TRIPOS>BOND
  1   1   2  2   
  2   2   3  am  
  3   2   4  1   
  4   3   5  1   
  5   3   6  1   
  6   4   7  1   
  7   4  32  1   
  8   4  33  1   
  9   5   8  1   
 10   5  34  1   
 11   5  35  1   
 12   6   9  1   
 13   6  36  1   
 14   6  37  1   
 15   7  10  1   
 16   7  38  1   
 17   7  39  1   
 18   8  10  1   
 19   8  11  1   
 20   8  12  1   
 21   9  13  ar  
 22   9  14  ar  
 23  11  15  1   
 24  11  40  1   
 25  11  41  1   
 26  12  16  1   
 27  12  42  1   
 28  12  43  1   
 29  13  17  ar  
 30  14  18  ar  
 31  14  44  1   
 32  15  19  1   
 33  15  45  1   
 34  15  46  1   
 35  16  19  1   
 36  16  47  1   
 37  16  48  1   
 38  17  20  ar  
 39  17  49  1   
 40  18  20  ar  
 41  19  21  1   
 42  19  50  1   
 43  20  22  1   
 44  21  23  1   
 45  21  51  1   
 46  21  52  1   
 47  22  53  1   
 48  22  54  1   
 49  22  55  1   
 50  23  24  2   
 51  23  25  1   
 52  24  26  1   
 53  25  27  1   
 54  25  56  1   
 55  26  27  ar  
 56  26  28  ar  
 57  27  29  ar  
 58  28  30  ar  
 59  28  57  1   
 60  29  31  ar  
 61  29  58  1   
 62  30  31  ar  
 63  30  59  1   
 64  31  60  1   
@<TRIPOS>SUBSTRUCTURE
  1 ****  15 GROUP 4 **** **** 0

# MOE 2024.06 (io_trps.svl 2023.06)
