@<TRIPOS>MOLECULE
NONAME
45 46 1 0 0 
SMALL
USER_CHARGES


@<TRIPOS>ATOM
  1 F       -0.9420    -0.8680     2.1000 F     1 <1>  -0.1900 
  2 C       -1.6330    -1.0470     1.0030 C.ar  1 <1>   0.1900 
  3 C       -1.1400    -0.6490    -0.2440 C.ar  1 <1>   0.0820 
  4 C       -2.8640    -1.6570     1.1550 C.ar  1 <1>  -0.1500 
  5 O        0.0580    -0.0490    -0.4980 O.3   1 <1>  -0.3630 
  6 C       -1.9810    -0.9020    -1.3230 C.ar  1 <1>   0.1900 
  7 C       -3.6810    -1.9150     0.0530 C.ar  1 <1>   0.0860 
  8 C        0.9630     0.3520     0.5070 C.3   1 <1>   0.0400 
  9 F       -1.6030    -0.5590    -2.5280 F     1 <1>  -0.1900 
 10 C       -3.2150    -1.5090    -1.1980 C.ar  1 <1>  -0.1500 
 11 C       -4.9660    -2.5690     0.2160 C.2   1 <1>   0.5440 
 12 O       -5.6920    -2.2500     1.1380 O.2   1 <1>  -0.5700 
 13 N       -5.4080    -3.5720    -0.6200 N.am  1 <1>  -0.6600 
 14 C       -4.4880    -4.4800    -1.3600 C.3   1 <1>   0.3200 
 15 C       -6.8680    -3.9060    -0.6890 C.3   1 <1>   0.1400 
 16 C       -4.7510    -5.8890    -0.8750 C.2   1 <1>  -0.3320 
 17 C       -7.3340    -4.5960     0.6090 C.3   1 <1>   0.3430 
 18 N       -4.3310    -6.3740     0.3110 N.pl3 1 <1>   0.0330 
 19 C       -5.4450    -6.8830    -1.4700 C.2   1 <1>   0.0770 
 20 N       -8.6450    -5.3150     0.4710 N.4   1 <1>  -0.9590 
 21 C       -4.8360    -7.6230     0.3750 C.2   1 <1>   0.0360 
 22 N       -5.5300    -7.9570    -0.6660 N.2   1 <1>  -0.5650 
 23 C       -9.2250    -5.5690     1.8240 C.3   1 <1>   0.2630 
 24 C       -8.4760    -6.6130    -0.2620 C.3   1 <1>   0.2630 
 25 H       -3.1970    -1.9330     2.1410 H     1 <1>   0.1500 
 26 H        1.7940     0.8410     0.0320 H     1 <1>   0.0800 
 27 H        1.3080    -0.5170     1.0380 H     1 <1>   0.0800 
 28 H        0.4680     1.0390     1.1710 H     1 <1>   0.0800 
 29 H       -3.8170    -1.6570    -2.0770 H     1 <1>   0.1500 
 30 H       -3.4560    -4.2240    -1.1910 H     1 <1>   0.0800 
 31 H       -4.6880    -4.4070    -2.4170 H     1 <1>   0.0800 
 32 H       -7.0470    -4.5380    -1.5390 H     1 <1>   0.0800 
 33 H       -7.4240    -2.9930    -0.8210 H     1 <1>   0.0800 
 34 H       -7.4140    -3.8400     1.3740 H     1 <1>   0.0800 
 35 H       -6.5810    -5.3000     0.9170 H     1 <1>   0.0800 
 36 H       -3.7460    -5.9110     1.0160 H     1 <1>   0.2700 
 37 H       -5.9080    -6.8820    -2.4450 H     1 <1>   0.1500 
 38 H       -9.3000    -4.7110    -0.0500 H     1 <1>   0.4500 
 39 H       -4.6640    -8.2690     1.2200 H     1 <1>   0.1500 
 40 H       -8.5680    -6.1990     2.4010 H     1 <1>   0.0800 
 41 H      -10.1810    -6.0590     1.7350 H     1 <1>   0.0800 
 42 H       -9.3640    -4.6390     2.3520 H     1 <1>   0.0800 
 43 H       -7.7800    -7.2520     0.2590 H     1 <1>   0.0800 
 44 H       -8.0970    -6.4420    -1.2550 H     1 <1>   0.0800 
 45 H       -9.4200    -7.1270    -0.3400 H     1 <1>   0.0800 
@<TRIPOS>BOND
  1   1   2  1   
  2   2   3  ar  
  3   2   4  ar  
  4   3   5  1   
  5   3   6  ar  
  6   4   7  ar  
  7   4  25  1   
  8   5   8  1   
  9   6   9  1   
 10   6  10  ar  
 11   7  10  ar  
 12   7  11  1   
 13   8  26  1   
 14   8  27  1   
 15   8  28  1   
 16  10  29  1   
 17  11  12  2   
 18  11  13  am  
 19  13  14  1   
 20  13  15  1   
 21  14  16  1   
 22  14  30  1   
 23  14  31  1   
 24  15  17  1   
 25  15  32  1   
 26  15  33  1   
 27  16  18  1   
 28  16  19  2   
 29  17  20  1   
 30  17  34  1   
 31  17  35  1   
 32  18  21  1   
 33  18  36  1   
 34  19  22  1   
 35  19  37  1   
 36  20  23  1   
 37  20  24  1   
 38  20  38  1   
 39  21  22  2   
 40  21  39  1   
 41  23  40  1   
 42  23  41  1   
 43  23  42  1   
 44  24  43  1   
 45  24  44  1   
 46  24  45  1   
@<TRIPOS>SUBSTRUCTURE
  1 ****  11 GROUP 4 **** **** 0

# MOE 2024.06 (io_trps.svl 2023.06)
