@<TRIPOS>MOLECULE
NONAME
55 58 1 0 0 
SMALL
USER_CHARGES


@<TRIPOS>ATOM
  1 O        0.1670     0.0720     0.8490 O.2   1 <1>  -0.5700 
  2 C       -0.7320     0.8240     0.5510 C.2   1 <1>   0.5690 
  3 N       -1.9390     0.3490     0.0950 N.am  1 <1>  -0.6600 
  4 C       -0.4740     2.3170     0.7410 C.3   1 <1>   0.1810 
  5 C       -3.1140     1.1960    -0.2820 C.3   1 <1>   0.1400 
  6 C       -2.1540    -1.1050    -0.1810 C.3   1 <1>   0.1400 
  7 O       -0.7390     3.0480    -0.4480 O.3   1 <1>  -0.3620 
  8 C       -4.4380     0.5920     0.2350 C.3   1 <1>   0.2950 
  9 C       -3.5340    -1.5780     0.3230 C.3   1 <1>   0.2000 
 10 C       -0.7710     4.4020    -0.4490 C.ar  1 <1>   0.0820 
 11 O       -4.5410    -0.7420    -0.1700 O.3   1 <1>  -0.5600 
 12 C       -5.7050     1.3140    -0.2570 C.3   1 <1>  -0.1950 
 13 C       -3.8850    -3.0020    -0.1280 C.3   1 <1>  -0.1600 
 14 C       -1.2800     5.0100    -1.5840 C.ar  1 <1>  -0.1500 
 15 C       -0.3300     5.1890     0.6100 C.ar  1 <1>  -0.1500 
 16 C       -5.9080     1.7800    -1.6670 C.3   1 <1>  -0.2000 
 17 C       -5.7610     2.7830    -0.5560 C.3   1 <1>  -0.2000 
 18 C       -2.9470    -4.0700     0.4580 C.3   1 <1>  -0.1600 
 19 C       -1.3610     6.3880    -1.6640 C.ar  1 <1>  -0.1500 
 20 C       -0.4110     6.5680     0.5280 C.ar  1 <1>  -0.1500 
 21 C       -3.3970    -5.4780     0.0530 C.3   1 <1>  -0.1600 
 22 C       -0.9320     7.1880    -0.6070 C.ar  1 <1>  -0.0230 
 23 C       -2.4630    -6.5430     0.6330 C.3   1 <1>  -0.2400 
 24 N       -1.0250     8.6090    -0.6940 N.pl3 1 <1>   0.5930 
 25 N       -0.8860     9.3140    -1.8060 N.2   1 <1>  -0.4180 
 26 C       -1.2720     9.4880     0.2670 C.2   1 <1>   0.0360 
 27 N       -1.0410    10.5490    -1.4930 N.2   1 <1>   0.0000 
 28 N       -1.2840    10.6780    -0.1940 N.2   1 <1>  -0.3380 
 29 H        0.5570     2.4720     1.0040 H     1 <1>   0.0800 
 30 H       -1.1100     2.6880     1.5230 H     1 <1>   0.0800 
 31 H       -3.0130     2.1840     0.1240 H     1 <1>   0.0800 
 32 H       -3.1480     1.2780    -1.3530 H     1 <1>   0.0800 
 33 H       -2.0880    -1.2720    -1.2420 H     1 <1>   0.0800 
 34 H       -1.3840    -1.6880     0.2930 H     1 <1>   0.0800 
 35 H       -4.4330     0.6140     1.3110 H     1 <1>   0.0800 
 36 H       -3.5590    -1.5330     1.3990 H     1 <1>   0.0800 
 37 H       -6.5720     0.9030     0.2310 H     1 <1>   0.1000 
 38 H       -4.8910    -3.2140     0.1890 H     1 <1>   0.0800 
 39 H       -3.8550    -3.0480    -1.2030 H     1 <1>   0.0800 
 40 H       -1.6100     4.3980    -2.4040 H     1 <1>   0.1500 
 41 H        0.0850     4.7480     1.4970 H     1 <1>   0.1500 
 42 H       -5.1130     1.6640    -2.3820 H     1 <1>   0.1000 
 43 H       -6.8770     1.6330    -2.1130 H     1 <1>   0.1000 
 44 H       -6.6310     3.3370    -0.2480 H     1 <1>   0.1000 
 45 H       -4.8720     3.3900    -0.5470 H     1 <1>   0.1000 
 46 H       -1.9420    -3.9110     0.1070 H     1 <1>   0.0800 
 47 H       -2.9430    -3.9930     1.5320 H     1 <1>   0.0800 
 48 H       -1.7580     6.8410    -2.5570 H     1 <1>   0.1500 
 49 H       -0.0560     7.1590     1.3550 H     1 <1>   0.1500 
 50 H       -4.3990    -5.6540     0.4080 H     1 <1>   0.0800 
 51 H       -3.4050    -5.5610    -1.0210 H     1 <1>   0.0800 
 52 H       -2.4560    -6.4930     1.7080 H     1 <1>   0.0800 
 53 H       -1.4590    -6.4010     0.2730 H     1 <1>   0.0800 
 54 H       -2.7960    -7.5230     0.3390 H     1 <1>   0.0800 
 55 H       -1.4390     9.2120     1.2900 H     1 <1>   0.1500 
@<TRIPOS>BOND
  1   1   2  2   
  2   2   3  am  
  3   2   4  1   
  4   3   5  1   
  5   3   6  1   
  6   4   7  1   
  7   4  29  1   
  8   4  30  1   
  9   5   8  1   
 10   5  31  1   
 11   5  32  1   
 12   6   9  1   
 13   6  33  1   
 14   6  34  1   
 15   7  10  1   
 16   8  11  1   
 17   8  12  1   
 18   8  35  1   
 19   9  11  1   
 20   9  13  1   
 21   9  36  1   
 22  10  14  ar  
 23  10  15  ar  
 24  12  16  1   
 25  12  17  1   
 26  12  37  1   
 27  13  18  1   
 28  13  38  1   
 29  13  39  1   
 30  14  19  ar  
 31  14  40  1   
 32  15  20  ar  
 33  15  41  1   
 34  16  17  1   
 35  16  42  1   
 36  16  43  1   
 37  17  44  1   
 38  17  45  1   
 39  18  21  1   
 40  18  46  1   
 41  18  47  1   
 42  19  22  ar  
 43  19  48  1   
 44  20  22  ar  
 45  20  49  1   
 46  21  23  1   
 47  21  50  1   
 48  21  51  1   
 49  22  24  1   
 50  23  52  1   
 51  23  53  1   
 52  23  54  1   
 53  24  25  1   
 54  24  26  1   
 55  25  27  2   
 56  26  28  2   
 57  26  55  1   
 58  27  28  1   
@<TRIPOS>SUBSTRUCTURE
  1 ****   7 GROUP 4 **** **** 0

# MOE 2024.06 (io_trps.svl 2023.06)
