@<TRIPOS>MOLECULE
NONAME
44 46 1 0 0 
SMALL
USER_CHARGES


@<TRIPOS>ATOM
  1 O       -2.4510     0.7600    -1.9230 O.2   1 <1>  -0.5700 
  2 C       -2.1730     0.9220    -0.7510 C.2   1 <1>   0.5440 
  3 N       -2.1740    -0.1670     0.0700 N.am  1 <1>  -0.7300 
  4 C       -1.8680     2.2320    -0.2160 C.ar  1 <1>   0.0860 
  5 C       -2.4990    -1.5490    -0.3510 C.3   1 <1>   0.2200 
  6 C       -0.9240     3.0920    -0.7920 C.ar  1 <1>   0.1660 
  7 C       -2.5220     2.6830     0.9240 C.ar  1 <1>  -0.1500 
  8 C       -3.9470    -1.8460    -0.0050 C.3   1 <1>  -0.0800 
  9 C       -1.7580    -2.5430     0.5350 C.3   1 <1>   0.1200 
 10 N       -0.6150     4.2930    -0.3260 N.ar  1 <1>  -0.6200 
 11 C       -0.1530     2.6860    -2.0370 C.3   1 <1>  -0.0970 
 12 C       -2.2050     3.9310     1.4110 C.ar  1 <1>  -0.1500 
 13 C       -3.8510    -2.2790     1.4620 C.3   1 <1>   0.1200 
 14 C       -4.5270    -2.9520    -0.9070 C.3   1 <1>  -0.0170 
 15 O       -2.5280    -2.6750     1.6920 O.3   1 <1>  -0.5600 
 16 C       -1.2540     4.6930     0.7580 C.ar  1 <1>   0.1670 
 17 C       -5.9910    -3.2160    -0.5880 C.ar  1 <1>  -0.1430 
 18 C       -0.8880     6.0690     1.2700 C.3   1 <1>  -0.0970 
 19 C       -6.4030    -4.3390     0.1010 C.ar  1 <1>  -0.1500 
 20 C       -6.9850    -2.3400    -0.9760 C.ar  1 <1>  -0.1500 
 21 C       -7.7500    -4.5230     0.3660 C.ar  1 <1>   0.1600 
 22 C       -8.3040    -2.6180    -0.6600 C.ar  1 <1>   0.1600 
 23 N       -8.7110    -3.6880     0.0030 N.ar  1 <1>  -0.6200 
 24 H       -1.9550    -0.0670     1.0640 H     1 <1>   0.3700 
 25 H       -2.2720    -1.6840    -1.3960 H     1 <1>   0.0800 
 26 H       -3.2640     2.0740     1.4080 H     1 <1>   0.1500 
 27 H       -4.5570    -0.9650    -0.1080 H     1 <1>   0.0800 
 28 H       -0.7670    -2.2140     0.7930 H     1 <1>   0.0800 
 29 H       -1.7090    -3.5090     0.0640 H     1 <1>   0.0800 
 30 H        0.1780     1.6670    -1.9650 H     1 <1>   0.0800 
 31 H        0.7110     3.3130    -2.1680 H     1 <1>   0.0800 
 32 H       -0.7860     2.7900    -2.9000 H     1 <1>   0.0800 
 33 H       -2.6960     4.3090     2.2900 H     1 <1>   0.1500 
 34 H       -4.5060    -3.0970     1.7050 H     1 <1>   0.0800 
 35 H       -4.0580    -1.4510     2.1170 H     1 <1>   0.0800 
 36 H       -3.9630    -3.8610    -0.7950 H     1 <1>   0.0800 
 37 H       -4.4520    -2.6470    -1.9370 H     1 <1>   0.0800 
 38 H       -1.4490     6.3190     2.1510 H     1 <1>   0.0800 
 39 H       -1.0910     6.8000     0.5090 H     1 <1>   0.0800 
 40 H        0.1610     6.0970     1.5040 H     1 <1>   0.0800 
 41 H       -5.6920    -5.0720     0.4360 H     1 <1>   0.1500 
 42 H       -6.7450    -1.4450    -1.5200 H     1 <1>   0.1500 
 43 H       -8.0530    -5.4040     0.9050 H     1 <1>   0.1500 
 44 H       -9.0650    -1.9240    -0.9710 H     1 <1>   0.1500 
@<TRIPOS>BOND
  1   1   2  2   
  2   2   3  am  
  3   2   4  1   
  4   3   5  1   
  5   3  24  1   
  6   4   6  ar  
  7   4   7  ar  
  8   5   8  1   
  9   5   9  1   
 10   5  25  1   
 11   6  10  ar  
 12   6  11  1   
 13   7  12  ar  
 14   7  26  1   
 15   8  13  1   
 16   8  14  1   
 17   8  27  1   
 18   9  15  1   
 19   9  28  1   
 20   9  29  1   
 21  10  16  ar  
 22  11  30  1   
 23  11  31  1   
 24  11  32  1   
 25  12  16  ar  
 26  12  33  1   
 27  13  15  1   
 28  13  34  1   
 29  13  35  1   
 30  14  17  1   
 31  14  36  1   
 32  14  37  1   
 33  16  18  1   
 34  17  19  ar  
 35  17  20  ar  
 36  18  38  1   
 37  18  39  1   
 38  18  40  1   
 39  19  21  ar  
 40  19  41  1   
 41  20  22  ar  
 42  20  42  1   
 43  21  23  ar  
 44  21  43  1   
 45  22  23  ar  
 46  22  44  1   
@<TRIPOS>SUBSTRUCTURE
  1 ****   3 GROUP 4 **** **** 0

# MOE 2024.06 (io_trps.svl 2023.06)
