@<TRIPOS>MOLECULE
NONAME
51 53 1 0 0 
SMALL
USER_CHARGES


@<TRIPOS>ATOM
  1 O        2.3520     0.8120     2.0810 O.2   1 <1>  -0.5700 
  2 C        2.6200     0.2790     1.0340 C.2   1 <1>   0.5690 
  3 N        2.3250     0.8860    -0.1680 N.am  1 <1>  -0.6600 
  4 C        3.3520    -1.0650     1.0730 C.3   1 <1>  -0.0190 
  5 C        2.3310     0.2240    -1.5190 C.3   1 <1>   0.1400 
  6 C        1.9930     2.3380    -0.2170 C.3   1 <1>   0.1400 
  7 C        2.3700    -2.2230     0.8240 C.3   1 <1>   0.0960 
  8 C        4.1490    -1.3030     2.3720 C.3   1 <1>  -0.2400 
  9 C        3.7230     0.2500    -2.1770 C.3   1 <1>   0.3430 
 10 C        3.2460     3.1600    -0.5530 C.3   1 <1>  -0.1600 
 11 N        2.9760    -3.2190    -0.0830 N.pl3 1 <1>   0.3140 
 12 N        4.5570     1.3650    -1.6300 N.4   1 <1>  -0.9590 
 13 C        4.0000     2.7310    -1.8190 C.3   1 <1>   0.3430 
 14 N        3.3390    -2.9330    -1.3350 N.2   1 <1>  -0.7070 
 15 C        3.2680    -4.4980     0.1650 C.2   1 <1>   0.0360 
 16 C        6.0170     1.2320    -1.9050 C.3   1 <1>   0.4860 
 17 C        3.8120    -4.0680    -1.7450 C.2   1 <1>   0.3660 
 18 N        3.7980    -5.0660    -0.8560 N.2   1 <1>  -0.5650 
 19 C        6.7810     1.6020    -0.6390 C.ar  1 <1>   0.1670 
 20 N        6.2070     1.2860     0.5180 N.ar  1 <1>  -0.6200 
 21 C        8.0090     2.2480    -0.7380 C.ar  1 <1>   0.1600 
 22 C        6.9420     1.6620     1.5550 C.ar  1 <1>   0.1600 
 23 N        8.7330     2.6210     0.2980 N.ar  1 <1>  -0.6200 
 24 C        8.1700     2.3120     1.4520 C.ar  1 <1>   0.1670 
 25 C        8.9440     2.7070     2.6940 C.3   1 <1>  -0.0970 
 26 H        4.0800    -1.0290     0.2860 H     1 <1>   0.0800 
 27 H        1.6370     0.7320    -2.1660 H     1 <1>   0.0800 
 28 H        1.9790    -0.7870    -1.4520 H     1 <1>   0.0800 
 29 H        1.6010     2.6610     0.7340 H     1 <1>   0.0800 
 30 H        1.2220     2.5120    -0.9490 H     1 <1>   0.0800 
 31 H        1.4670    -1.8660     0.3630 H     1 <1>   0.0800 
 32 H        2.0990    -2.6980     1.7490 H     1 <1>   0.0800 
 33 H        3.4900    -1.3430     3.2220 H     1 <1>   0.0800 
 34 H        4.8460    -0.4980     2.5270 H     1 <1>   0.0800 
 35 H        4.7030    -2.2240     2.3160 H     1 <1>   0.0800 
 36 H        3.6200     0.3360    -3.2460 H     1 <1>   0.0800 
 37 H        4.2060    -0.6920    -1.9700 H     1 <1>   0.0800 
 38 H        3.9150     3.1410     0.2900 H     1 <1>   0.0800 
 39 H        2.9410     4.1840    -0.6760 H     1 <1>   0.0800 
 40 H        4.5230     1.2340    -0.5970 H     1 <1>   0.4500 
 41 H        4.8030     3.4300    -1.9910 H     1 <1>   0.0800 
 42 H        3.3420     2.7550    -2.6720 H     1 <1>   0.0800 
 43 H        3.0770    -4.9750     1.1100 H     1 <1>   0.1500 
 44 H        6.3100     1.8600    -2.7300 H     1 <1>   0.0800 
 45 H        6.2490     0.2080    -2.1470 H     1 <1>   0.0800 
 46 H        4.2030    -4.2310    -2.7380 H     1 <1>   0.1500 
 47 H        8.4180     2.4710    -1.7090 H     1 <1>   0.1500 
 48 H        6.5540     1.4480     2.5360 H     1 <1>   0.1500 
 49 H        8.4200     2.4250     3.5880 H     1 <1>   0.0800 
 50 H        9.0940     3.7710     2.7010 H     1 <1>   0.0800 
 51 H        9.9050     2.2250     2.6870 H     1 <1>   0.0800 
@<TRIPOS>BOND
  1   1   2  2   
  2   2   3  am  
  3   2   4  1   
  4   3   5  1   
  5   3   6  1   
  6   4   7  1   
  7   4   8  1   
  8   4  26  1   
  9   5   9  1   
 10   5  27  1   
 11   5  28  1   
 12   6  10  1   
 13   6  29  1   
 14   6  30  1   
 15   7  11  1   
 16   7  31  1   
 17   7  32  1   
 18   8  33  1   
 19   8  34  1   
 20   8  35  1   
 21   9  12  1   
 22   9  36  1   
 23   9  37  1   
 24  10  13  1   
 25  10  38  1   
 26  10  39  1   
 27  11  14  1   
 28  11  15  1   
 29  12  13  1   
 30  12  16  1   
 31  12  40  1   
 32  13  41  1   
 33  13  42  1   
 34  14  17  2   
 35  15  18  2   
 36  15  43  1   
 37  16  19  1   
 38  16  44  1   
 39  16  45  1   
 40  17  18  1   
 41  17  46  1   
 42  19  20  ar  
 43  19  21  ar  
 44  20  22  ar  
 45  21  23  ar  
 46  21  47  1   
 47  22  24  ar  
 48  22  48  1   
 49  23  24  ar  
 50  24  25  1   
 51  25  49  1   
 52  25  50  1   
 53  25  51  1   
@<TRIPOS>SUBSTRUCTURE
  1 ****  12 GROUP 4 **** **** 0

# MOE 2024.06 (io_trps.svl 2023.06)
