@<TRIPOS>MOLECULE
NONAME
43 46 1 0 0 
SMALL
USER_CHARGES


@<TRIPOS>ATOM
  1 O       -0.3470     0.1490    -0.0110 O.3   1 <1>  -0.3630 
  2 C       -1.0590     1.2040    -0.4790 C.ar  1 <1>   0.0820 
  3 C        1.0200     0.2860     0.3330 C.3   1 <1>   0.2800 
  4 C       -0.5760     2.5090    -0.4150 C.ar  1 <1>  -0.1440 
  5 C       -2.3010     0.9420    -1.0320 C.ar  1 <1>  -0.1500 
  6 C        1.2340     1.6090     1.0720 C.3   1 <1>  -0.1600 
  7 C        1.8570     0.1070    -0.9370 C.3   1 <1>  -0.1600 
  8 C        1.4000    -0.9350     1.1680 C.3   1 <1>  -0.1600 
  9 C       -1.3510     3.5380    -0.9340 C.ar  1 <1>  -0.1500 
 10 C        0.7890     2.7750     0.2000 C.3   1 <1>   0.4330 
 11 C       -3.0690     1.9760    -1.5370 C.ar  1 <1>  -0.1500 
 12 C        1.9040    -1.4040    -1.1870 C.3   1 <1>  -0.1600 
 13 C        1.6150    -2.0720     0.1630 C.3   1 <1>  -0.1600 
 14 C       -2.5910     3.2740    -1.4900 C.ar  1 <1>  -0.1500 
 15 N        0.7330     3.9740     1.0490 N.pl3 1 <1>  -0.8690 
 16 C        1.4170     5.1050     0.7360 C.ar  1 <1>   0.4100 
 17 N        0.6970     6.2000     0.7080 N.ar  1 <1>  -0.6200 
 18 C        2.7710     5.1200     0.4680 C.ar  1 <1>  -0.1500 
 19 C        1.3490     7.3040     0.4000 C.ar  1 <1>   0.4770 
 20 C        3.3390     6.3240     0.1570 C.ar  1 <1>   0.1600 
 21 N        2.6330     7.4380     0.1140 N.ar  1 <1>  -0.6200 
 22 C        0.5330     8.5740     0.3610 C.3   1 <1>  -0.0970 
 23 H       -2.6580    -0.0710    -1.0640 H     1 <1>   0.1500 
 24 H        2.2700     1.7290     1.3300 H     1 <1>   0.0800 
 25 H        0.6560     1.5920     1.9780 H     1 <1>   0.0800 
 26 H        2.8580     0.4560    -0.7540 H     1 <1>   0.0800 
 27 H        1.4490     0.6420    -1.7770 H     1 <1>   0.0800 
 28 H        0.6470    -1.1700     1.8990 H     1 <1>   0.0800 
 29 H        2.3290    -0.7430     1.6750 H     1 <1>   0.0800 
 30 H       -0.9940     4.5550    -0.9090 H     1 <1>   0.1500 
 31 H        1.4960     2.9220    -0.5980 H     1 <1>   0.0800 
 32 H       -4.0340     1.7700    -1.9670 H     1 <1>   0.1500 
 33 H        2.8600    -1.7030    -1.5820 H     1 <1>   0.0800 
 34 H        1.1350    -1.6760    -1.8910 H     1 <1>   0.0800 
 35 H        0.7150    -2.6590     0.0850 H     1 <1>   0.0800 
 36 H        2.4230    -2.7130     0.4700 H     1 <1>   0.0800 
 37 H       -3.1850     4.0800    -1.8860 H     1 <1>   0.1500 
 38 H       -0.2360     4.1800     1.3020 H     1 <1>   0.4000 
 39 H        3.3460     4.2180     0.5110 H     1 <1>   0.1500 
 40 H        4.3910     6.3900    -0.0610 H     1 <1>   0.1500 
 41 H       -0.4030     8.4340     0.8690 H     1 <1>   0.0800 
 42 H        0.3430     8.8410    -0.6610 H     1 <1>   0.0800 
 43 H        1.0750     9.3680     0.8390 H     1 <1>   0.0800 
@<TRIPOS>BOND
  1   1   2  1   
  2   1   3  1   
  3   2   4  ar  
  4   2   5  ar  
  5   3   6  1   
  6   3   7  1   
  7   3   8  1   
  8   4   9  ar  
  9   4  10  1   
 10   5  11  ar  
 11   5  23  1   
 12   6  10  1   
 13   6  24  1   
 14   6  25  1   
 15   7  12  1   
 16   7  26  1   
 17   7  27  1   
 18   8  13  1   
 19   8  28  1   
 20   8  29  1   
 21   9  14  ar  
 22   9  30  1   
 23  10  15  1   
 24  10  31  1   
 25  11  14  ar  
 26  11  32  1   
 27  12  13  1   
 28  12  33  1   
 29  12  34  1   
 30  13  35  1   
 31  13  36  1   
 32  14  37  1   
 33  15  16  1   
 34  15  38  1   
 35  16  17  ar  
 36  16  18  ar  
 37  17  19  ar  
 38  18  20  ar  
 39  18  39  1   
 40  19  21  ar  
 41  19  22  1   
 42  20  21  ar  
 43  20  40  1   
 44  22  41  1   
 45  22  42  1   
 46  22  43  1   
@<TRIPOS>SUBSTRUCTURE
  1 ****  10 GROUP 4 **** **** 0

# MOE 2024.06 (io_trps.svl 2023.06)
