@<TRIPOS>MOLECULE
NONAME
57 60 1 0 0 
SMALL
USER_CHARGES


@<TRIPOS>ATOM
  1 F       -0.6880    -1.0640    -0.2560 F     1 <1>  -0.1900 
  2 C       -1.9450    -1.4130    -0.2810 C.ar  1 <1>   0.1900 
  3 C       -2.6150    -1.4050    -1.4890 C.ar  1 <1>  -0.1500 
  4 C       -2.5600    -1.7800     0.8990 C.ar  1 <1>  -0.1500 
  5 C       -3.9500    -1.7710    -1.5100 C.ar  1 <1>  -0.1500 
  6 C       -3.8960    -2.1440     0.8680 C.ar  1 <1>  -0.1500 
  7 C       -4.6000    -2.1310    -0.3330 C.ar  1 <1>  -0.1430 
  8 C       -6.0710    -2.5250    -0.3620 C.3   1 <1>   0.4870 
  9 N       -6.9440    -1.3350    -0.1420 N.4   1 <1>  -0.9590 
 10 C       -6.8460    -0.3250    -1.2320 C.3   1 <1>   0.3430 
 11 C       -6.7760    -0.7070     1.1930 C.3   1 <1>   0.3430 
 12 C       -7.7690     0.8700    -0.9630 C.3   1 <1>  -0.1600 
 13 C       -7.9160     0.2870     1.4630 C.3   1 <1>  -0.1600 
 14 C       -8.7380     0.6590     0.2140 C.3   1 <1>   0.2800 
 15 O       -9.5160    -0.4680    -0.1240 O.3   1 <1>  -0.5600 
 16 C       -9.5810     1.9410     0.4560 C.3   1 <1>   0.1400 
 17 C      -10.8210    -0.5530     0.3680 C.3   1 <1>   0.1200 
 18 N      -10.4940     2.2780    -0.6750 N.am  1 <1>  -0.6600 
 19 C      -11.7910     0.0760    -0.6320 C.3   1 <1>  -0.0990 
 20 C      -11.5240     1.4910    -1.1190 C.2   1 <1>   0.5690 
 21 C      -10.3700     3.6880    -1.1660 C.3   1 <1>   0.2840 
 22 O      -12.3000     1.9100    -1.9420 O.2   1 <1>  -0.5700 
 23 C      -10.8660     4.6640    -0.1110 C.ar  1 <1>   0.1670 
 24 N       -9.9610     5.2200     0.6830 N.ar  1 <1>  -0.6200 
 25 C      -12.2320     4.9140    -0.0210 C.ar  1 <1>   0.1600 
 26 C      -10.5160     6.0490     1.5530 C.ar  1 <1>   0.1600 
 27 N      -12.7820     5.7400     0.8540 N.ar  1 <1>  -0.6200 
 28 C      -11.8840     6.3050     1.6390 C.ar  1 <1>   0.1670 
 29 C      -12.4260     7.2730     2.6710 C.3   1 <1>  -0.0970 
 30 H       -2.0940    -1.1220    -2.3870 H     1 <1>   0.1500 
 31 H       -1.9970    -1.7810     1.8160 H     1 <1>   0.1500 
 32 H       -4.4690    -1.7770    -2.4550 H     1 <1>   0.1500 
 33 H       -4.3700    -2.4430     1.7880 H     1 <1>   0.1500 
 34 H       -6.2570    -3.2610     0.4020 H     1 <1>   0.0800 
 35 H       -6.3000    -2.9740    -1.3150 H     1 <1>   0.0800 
 36 H       -7.9390    -1.6310    -0.1730 H     1 <1>   0.4500 
 37 H       -7.1300    -0.7820    -2.1670 H     1 <1>   0.0800 
 38 H       -5.8290     0.0230    -1.3230 H     1 <1>   0.0800 
 39 H       -5.8290    -0.1910     1.2250 H     1 <1>   0.0800 
 40 H       -6.7720    -1.4620     1.9620 H     1 <1>   0.0800 
 41 H       -8.3250     1.0900    -1.8580 H     1 <1>   0.0800 
 42 H       -7.1540     1.7300    -0.7660 H     1 <1>   0.0800 
 43 H       -7.4730     1.1760     1.8770 H     1 <1>   0.0800 
 44 H       -8.5670    -0.1100     2.2210 H     1 <1>   0.0800 
 45 H       -8.8990     2.7590     0.6140 H     1 <1>   0.0800 
 46 H      -10.1560     1.8610     1.3620 H     1 <1>   0.0800 
 47 H      -10.8920    -0.1060     1.3450 H     1 <1>   0.0800 
 48 H      -11.0570    -1.5990     0.4700 H     1 <1>   0.0800 
 49 H      -12.7740     0.0670    -0.1980 H     1 <1>   0.0800 
 50 H      -11.8330    -0.5570    -1.4990 H     1 <1>   0.0800 
 51 H      -10.9320     3.8290    -2.0730 H     1 <1>   0.0800 
 52 H       -9.3410     3.9000    -1.3940 H     1 <1>   0.0800 
 53 H      -12.8960     4.4060    -0.7010 H     1 <1>   0.1500 
 54 H       -9.8540     6.5540     2.2330 H     1 <1>   0.1500 
 55 H      -11.6360     7.6900     3.2680 H     1 <1>   0.0800 
 56 H      -13.1170     6.7600     3.3150 H     1 <1>   0.0800 
 57 H      -12.9460     8.0710     2.1740 H     1 <1>   0.0800 
@<TRIPOS>BOND
  1   1   2  1   
  2   2   3  ar  
  3   2   4  ar  
  4   3   5  ar  
  5   3  30  1   
  6   4   6  ar  
  7   4  31  1   
  8   5   7  ar  
  9   5  32  1   
 10   6   7  ar  
 11   6  33  1   
 12   7   8  1   
 13   8   9  1   
 14   8  34  1   
 15   8  35  1   
 16   9  10  1   
 17   9  11  1   
 18   9  36  1   
 19  10  12  1   
 20  10  37  1   
 21  10  38  1   
 22  11  13  1   
 23  11  39  1   
 24  11  40  1   
 25  12  14  1   
 26  12  41  1   
 27  12  42  1   
 28  13  14  1   
 29  13  43  1   
 30  13  44  1   
 31  14  15  1   
 32  14  16  1   
 33  15  17  1   
 34  16  18  1   
 35  16  45  1   
 36  16  46  1   
 37  17  19  1   
 38  17  47  1   
 39  17  48  1   
 40  18  20  am  
 41  18  21  1   
 42  19  20  1   
 43  19  49  1   
 44  19  50  1   
 45  20  22  2   
 46  21  23  1   
 47  21  51  1   
 48  21  52  1   
 49  23  24  ar  
 50  23  25  ar  
 51  24  26  ar  
 52  25  27  ar  
 53  25  53  1   
 54  26  28  ar  
 55  26  54  1   
 56  27  28  ar  
 57  28  29  1   
 58  29  55  1   
 59  29  56  1   
 60  29  57  1   
@<TRIPOS>SUBSTRUCTURE
  1 ****  14 GROUP 4 **** **** 0

# MOE 2024.06 (io_trps.svl 2023.06)
