@<TRIPOS>MOLECULE
Untitled Document
46 49 1 0 0 
SMALL
USER_CHARGES


@<TRIPOS>ATOM
  1 O       -0.4460    -1.9990    -2.6820 O.2   1 <1>  -0.5700 
  2 C       -0.9240    -2.2330    -1.5940 C.2   1 <1>   0.5440 
  3 N       -2.2810    -2.3590    -1.5470 N.am  1 <1>  -0.5470 
  4 C       -0.0750    -2.3500    -0.4310 C.ar  1 <1>   0.0860 
  5 C       -3.1050    -2.7010    -0.4600 C.ar  1 <1>   0.1170 
  6 C       -0.3040    -3.3170     0.5620 C.ar  1 <1>   0.4270 
  7 C        1.0230    -1.5160    -0.2750 C.ar  1 <1>  -0.1500 
  8 C       -2.6760    -3.5860     0.5390 C.ar  1 <1>   0.1170 
  9 C       -4.3750    -2.1490    -0.3800 C.ar  1 <1>  -0.1500 
 10 N        0.4800    -3.4980     1.6240 N.ar  1 <1>  -0.6200 
 11 N       -1.3930    -4.1800     0.4670 N.am  1 <1>  -0.2940 
 12 C        1.8160    -1.6790     0.8380 C.ar  1 <1>  -0.1500 
 13 C       -3.5230    -3.8760     1.5990 C.ar  1 <1>  -0.1500 
 14 C       -5.2120    -2.4500     0.6800 C.ar  1 <1>  -0.1500 
 15 C        1.5040    -2.6710     1.7470 C.ar  1 <1>   0.1600 
 16 C       -1.2550    -5.5420     0.2700 C.2   1 <1>   0.5690 
 17 C       -4.7850    -3.3130     1.6730 C.ar  1 <1>  -0.1500 
 18 O       -2.1910    -6.3030     0.3490 O.2   1 <1>  -0.5700 
 19 C        0.1040    -6.1710    -0.0760 C.3   1 <1>  -0.0190 
 20 C        0.0020    -7.0800    -1.3180 C.3   1 <1>  -0.1600 
 21 C        0.6420    -6.9750     1.1220 C.3   1 <1>  -0.1600 
 22 C        1.3150    -7.8030    -1.6050 C.3   1 <1>   0.3430 
 23 C        1.9400    -7.7030     0.7840 C.3   1 <1>   0.3430 
 24 N        1.7250    -8.5830    -0.4010 N.4   1 <1>  -0.9590 
 25 C        2.9370    -9.4080    -0.6850 C.3   1 <1>   0.2630 
 26 H       -2.7380    -2.1330    -2.4320 H     1 <1>   0.3700 
 27 H        1.2430    -0.7600    -1.0110 H     1 <1>   0.1500 
 28 H       -4.7140    -1.4750    -1.1450 H     1 <1>   0.1500 
 29 H        2.6700    -1.0430     1.0000 H     1 <1>   0.1500 
 30 H       -3.1960    -4.5540     2.3690 H     1 <1>   0.1500 
 31 H       -6.1950    -2.0140     0.7330 H     1 <1>   0.1500 
 32 H        2.1290    -2.7880     2.6180 H     1 <1>   0.1500 
 33 H       -5.4330    -3.5500     2.5000 H     1 <1>   0.1500 
 34 H        0.8170    -5.4030    -0.3110 H     1 <1>   0.0800 
 35 H       -0.2650    -6.4830    -2.1740 H     1 <1>   0.0800 
 36 H       -0.7780    -7.8100    -1.1850 H     1 <1>   0.0800 
 37 H       -0.0940    -7.6910     1.4460 H     1 <1>   0.0800 
 38 H        0.8200    -6.3070     1.9470 H     1 <1>   0.0800 
 39 H        2.0790    -7.0840    -1.8540 H     1 <1>   0.0800 
 40 H        1.1830    -8.4640    -2.4470 H     1 <1>   0.0800 
 41 H        2.2500    -8.2940     1.6320 H     1 <1>   0.0800 
 42 H        2.7140    -6.9830     0.5710 H     1 <1>   0.0800 
 43 H        0.9430    -9.2140    -0.1700 H     1 <1>   0.4500 
 44 H        3.7740    -8.7750    -0.9310 H     1 <1>   0.0800 
 45 H        2.7520   -10.0730    -1.5140 H     1 <1>   0.0800 
 46 H        3.1960   -10.0020     0.1780 H     1 <1>   0.0800 
@<TRIPOS>BOND
  1   1   2  2   
  2   2   3  am  
  3   2   4  1   
  4   3   5  1   
  5   3  26  1   
  6   4   6  ar  
  7   4   7  ar  
  8   5   8  ar  
  9   5   9  ar  
 10   6  10  ar  
 11   6  11  1   
 12   7  12  ar  
 13   7  27  1   
 14   8  11  1   
 15   8  13  ar  
 16   9  14  ar  
 17   9  28  1   
 18  10  15  ar  
 19  11  16  am  
 20  12  15  ar  
 21  12  29  1   
 22  13  17  ar  
 23  13  30  1   
 24  14  17  ar  
 25  14  31  1   
 26  15  32  1   
 27  16  18  2   
 28  16  19  1   
 29  17  33  1   
 30  19  20  1   
 31  19  21  1   
 32  19  34  1   
 33  20  22  1   
 34  20  35  1   
 35  20  36  1   
 36  21  23  1   
 37  21  37  1   
 38  21  38  1   
 39  22  24  1   
 40  22  39  1   
 41  22  40  1   
 42  23  24  1   
 43  23  41  1   
 44  23  42  1   
 45  24  25  1   
 46  24  43  1   
 47  25  44  1   
 48  25  45  1   
 49  25  46  1   
@<TRIPOS>SUBSTRUCTURE
  1 ****  11 GROUP 4 **** **** 0

# MOE 2024.06 (io_trps.svl 2023.06)
