@<TRIPOS>MOLECULE
NONAME
38 38 1 0 0 
SMALL
USER_CHARGES


@<TRIPOS>ATOM
  1 O       -2.8640    -1.7120     1.1530 O.3   1 <1>  -0.6800 
  2 C       -4.1740    -1.4400     0.8240 C.3   1 <1>   0.2000 
  3 C       -4.1960    -1.1540    -0.6950 C.3   1 <1>   0.3430 
  4 C       -4.6090    -0.2630     1.6960 C.3   1 <1>  -0.2400 
  5 N       -5.5010    -0.6360    -1.2420 N.4   1 <1>  -0.9590 
  6 C       -6.4540    -1.7070    -1.6450 C.3   1 <1>   0.4860 
  7 C       -5.2860     0.3270    -2.3470 C.3   1 <1>   0.3430 
  8 C       -6.9050    -2.4910    -0.4310 C.ar  1 <1>  -0.1430 
  9 C       -4.9940     1.7180    -1.7740 C.3   1 <1>  -0.1600 
 10 C       -7.7080    -1.8920     0.5310 C.ar  1 <1>  -0.1500 
 11 C       -6.5170    -3.8130    -0.2700 C.ar  1 <1>  -0.1500 
 12 C       -6.2160     2.4130    -1.1560 C.3   1 <1>   0.1200 
 13 C       -8.1030    -2.6050     1.6490 C.ar  1 <1>  -0.1500 
 14 C       -6.9150    -4.5240     0.8490 C.ar  1 <1>  -0.1500 
 15 O       -6.7800     1.6010    -0.1840 O.3   1 <1>  -0.6800 
 16 C       -7.7050    -3.9200     1.8090 C.ar  1 <1>  -0.1500 
 17 H       -2.7840    -1.9030     2.1110 H     1 <1>   0.4000 
 18 H       -4.7490    -2.3180     1.0600 H     1 <1>   0.0800 
 19 H       -3.9160    -2.0530    -1.2180 H     1 <1>   0.0800 
 20 H       -3.4320    -0.4190    -0.8770 H     1 <1>   0.0800 
 21 H       -4.0560     0.6250     1.4460 H     1 <1>   0.0800 
 22 H       -4.4590    -0.4930     2.7360 H     1 <1>   0.0800 
 23 H       -5.6560    -0.0670     1.5620 H     1 <1>   0.0800 
 24 H       -5.9690    -0.0750    -0.5010 H     1 <1>   0.4500 
 25 H       -5.9880    -2.3690    -2.3560 H     1 <1>   0.0800 
 26 H       -7.3210    -1.2660    -2.1100 H     1 <1>   0.0800 
 27 H       -6.1680     0.3880    -2.9640 H     1 <1>   0.0800 
 28 H       -4.4640    -0.0010    -2.9640 H     1 <1>   0.0800 
 29 H       -4.6480     2.3390    -2.5810 H     1 <1>   0.0800 
 30 H       -4.1950     1.6770    -1.0560 H     1 <1>   0.0800 
 31 H       -8.0340    -0.8720     0.4230 H     1 <1>   0.1500 
 32 H       -5.9050    -4.3060    -1.0060 H     1 <1>   0.1500 
 33 H       -6.9670     2.6140    -1.9030 H     1 <1>   0.0800 
 34 H       -5.9230     3.3420    -0.6940 H     1 <1>   0.0800 
 35 H       -8.7250    -2.1400     2.3970 H     1 <1>   0.1500 
 36 H       -6.6120    -5.5510     0.9740 H     1 <1>   0.1500 
 37 H       -7.4530     2.1100     0.3220 H     1 <1>   0.4000 
 38 H       -8.0140    -4.4740     2.6790 H     1 <1>   0.1500 
@<TRIPOS>BOND
  1   1   2  1   
  2   1  17  1   
  3   2   3  1   
  4   2   4  1   
  5   2  18  1   
  6   3   5  1   
  7   3  19  1   
  8   3  20  1   
  9   4  21  1   
 10   4  22  1   
 11   4  23  1   
 12   5   6  1   
 13   5   7  1   
 14   5  24  1   
 15   6   8  1   
 16   6  25  1   
 17   6  26  1   
 18   7   9  1   
 19   7  27  1   
 20   7  28  1   
 21   8  10  ar  
 22   8  11  ar  
 23   9  12  1   
 24   9  29  1   
 25   9  30  1   
 26  10  13  ar  
 27  10  31  1   
 28  11  14  ar  
 29  11  32  1   
 30  12  15  1   
 31  12  33  1   
 32  12  34  1   
 33  13  16  ar  
 34  13  35  1   
 35  14  16  ar  
 36  14  36  1   
 37  15  37  1   
 38  16  38  1   
@<TRIPOS>SUBSTRUCTURE
  1 ****   5 GROUP 4 **** **** 0

# MOE 2024.06 (io_trps.svl 2023.06)
