@<TRIPOS>MOLECULE
NONAME
48 49 1 0 0 
SMALL
USER_CHARGES


@<TRIPOS>ATOM
  1 O       -0.3070     0.4810    -0.4860 O.2   1 <1>  -0.5700 
  2 C       -0.3330     1.6880    -0.4090 C.2   1 <1>   0.5690 
  3 N       -1.4920     2.3880    -0.6320 N.am  1 <1>  -0.6600 
  4 C        0.9490     2.4210    -0.0520 C.3   1 <1>  -0.0990 
  5 C       -1.6320     3.8670    -0.4720 C.3   1 <1>   0.1400 
  6 C       -2.7200     1.6460    -1.0460 C.3   1 <1>   0.1400 
  7 C        2.1670     1.5010    -0.0260 C.3   1 <1>   0.1200 
  8 C       -2.9550     4.1650     0.2340 C.3   1 <1>  -0.1600 
  9 C       -3.7800     2.6000    -1.6010 C.3   1 <1>  -0.1600 
 10 O        3.2770     2.2730     0.3020 O.3   1 <1>  -0.5600 
 11 C       -4.1890     3.6830    -0.5790 C.3   1 <1>   0.2800 
 12 C        4.4590     1.5510     0.3690 C.3   1 <1>   0.1200 
 13 O       -4.6120     4.7510    -1.3760 O.3   1 <1>  -0.5600 
 14 C       -5.3420     3.1530     0.3290 C.3   1 <1>  -0.1600 
 15 C        5.5720     2.5260     0.7330 C.3   1 <1>  -0.2400 
 16 C       -5.3160     5.8520    -0.8440 C.3   1 <1>   0.1200 
 17 C       -6.5690     4.0720     0.4540 C.3   1 <1>   0.2800 
 18 C       -6.1210     5.5480     0.4340 C.3   1 <1>   0.2000 
 19 O       -7.3930     3.8480    -0.6330 O.3   1 <1>  -0.6800 
 20 C       -7.4130     3.7210     1.6840 C.3   1 <1>  -0.2400 
 21 O       -5.3270     5.8350     1.5480 O.3   1 <1>  -0.6800 
 22 H        1.1200     3.1920    -0.7790 H     1 <1>   0.0800 
 23 H        0.8320     2.8620     0.9190 H     1 <1>   0.0800 
 24 H       -0.8250     4.2710     0.1120 H     1 <1>   0.0800 
 25 H       -1.6170     4.3370    -1.4410 H     1 <1>   0.0800 
 26 H       -2.4590     0.9210    -1.8000 H     1 <1>   0.0800 
 27 H       -3.1100     1.1140    -0.1940 H     1 <1>   0.0800 
 28 H        2.3240     1.0530    -0.9930 H     1 <1>   0.0800 
 29 H        2.0440     0.7310     0.7180 H     1 <1>   0.0800 
 30 H       -3.0060     5.2200     0.4210 H     1 <1>   0.0800 
 31 H       -2.9070     3.6710     1.1860 H     1 <1>   0.0800 
 32 H       -4.6370     2.0390    -1.9240 H     1 <1>   0.0800 
 33 H       -3.3690     3.0640    -2.4800 H     1 <1>   0.0800 
 34 H        4.3600     0.7880     1.1230 H     1 <1>   0.0800 
 35 H        4.6470     1.1000    -0.5910 H     1 <1>   0.0800 
 36 H       -5.6710     2.1820     0.0090 H     1 <1>   0.0800 
 37 H       -4.9490     2.9910     1.3140 H     1 <1>   0.0800 
 38 H        5.3660     2.9800     1.6850 H     1 <1>   0.0800 
 39 H        5.6520     3.2900    -0.0190 H     1 <1>   0.0800 
 40 H        6.5090     2.0040     0.7950 H     1 <1>   0.0800 
 41 H       -4.6250     6.6590    -0.6770 H     1 <1>   0.0800 
 42 H       -6.0040     6.1580    -1.6120 H     1 <1>   0.0800 
 43 H       -6.9780     6.1960     0.4920 H     1 <1>   0.0800 
 44 H       -7.6610     2.9120    -0.6580 H     1 <1>   0.4000 
 45 H       -6.8460     3.8820     2.5830 H     1 <1>   0.0800 
 46 H       -7.7180     2.6910     1.6590 H     1 <1>   0.0800 
 47 H       -8.2840     4.3510     1.7260 H     1 <1>   0.0800 
 48 H       -4.5120     5.3020     1.5070 H     1 <1>   0.4000 
@<TRIPOS>BOND
  1   1   2  2   
  2   2   3  am  
  3   2   4  1   
  4   3   5  1   
  5   3   6  1   
  6   4   7  1   
  7   4  22  1   
  8   4  23  1   
  9   5   8  1   
 10   5  24  1   
 11   5  25  1   
 12   6   9  1   
 13   6  26  1   
 14   6  27  1   
 15   7  10  1   
 16   7  28  1   
 17   7  29  1   
 18   8  11  1   
 19   8  30  1   
 20   8  31  1   
 21   9  11  1   
 22   9  32  1   
 23   9  33  1   
 24  10  12  1   
 25  11  13  1   
 26  11  14  1   
 27  12  15  1   
 28  12  34  1   
 29  12  35  1   
 30  13  16  1   
 31  14  17  1   
 32  14  36  1   
 33  14  37  1   
 34  15  38  1   
 35  15  39  1   
 36  15  40  1   
 37  16  18  1   
 38  16  41  1   
 39  16  42  1   
 40  17  18  1   
 41  17  19  1   
 42  17  20  1   
 43  18  21  1   
 44  18  43  1   
 45  19  44  1   
 46  20  45  1   
 47  20  46  1   
 48  20  47  1   
 49  21  48  1   
@<TRIPOS>SUBSTRUCTURE
  1 ****   5 GROUP 4 **** **** 0

# MOE 2024.06 (io_trps.svl 2023.06)
