@<TRIPOS>MOLECULE
NONAME
53 56 1 0 0 
SMALL
USER_CHARGES


@<TRIPOS>ATOM
  1 O       -0.6090     0.5120    -1.2440 O.2   1 <1>  -0.5700 
  2 C       -1.6750     0.9740    -0.8750 C.2   1 <1>   0.6160 
  3 N       -2.7710     0.1410    -0.8450 N.am  1 <1>  -0.6600 
  4 C       -1.7540     2.3690    -0.5560 C.2   1 <1>   0.0290 
  5 C       -4.1450     0.5150    -0.4420 C.3   1 <1>   0.1400 
  6 C       -2.6390    -1.3320    -0.8840 C.3   1 <1>   0.1400 
  7 C       -2.0150     2.7550     0.7950 C.2   1 <1>   0.6160 
  8 C       -1.5630     3.3510    -1.4960 C.2   1 <1>  -0.1500 
  9 C       -4.6370    -0.6870     0.3690 C.3   1 <1>  -0.0800 
 10 C       -3.9410    -1.8910    -0.2950 C.3   1 <1>  -0.0800 
 11 O       -2.2090     1.9790     1.7210 O.2   1 <1>  -0.5700 
 12 N       -2.0760     4.0900     1.0890 N.am  1 <1>  -0.5390 
 13 C       -1.6400     4.7180    -1.1470 C.2   1 <1>  -0.1380 
 14 C       -6.1810    -0.8160     0.5340 C.3   1 <1>   0.2800 
 15 C       -4.8430    -2.5300    -1.3630 C.3   1 <1>  -0.1600 
 16 C       -1.8900     5.0680     0.1490 C.2   1 <1>  -0.0290 
 17 C       -1.4260     5.7560    -2.2410 C.3   1 <1>  -0.0220 
 18 O       -6.8290    -0.2170    -0.5310 O.3   1 <1>  -0.6800 
 19 C       -6.5910    -2.3010     0.5190 C.3   1 <1>  -0.1600 
 20 C       -6.7030    -0.1380     1.8200 C.3   1 <1>  -0.1600 
 21 C       -6.1610    -3.0510    -0.7610 C.3   1 <1>  -0.1600 
 22 C       -1.9840     6.5110     0.6230 C.3   1 <1>  -0.0220 
 23 C       -1.9170     7.1490    -1.8230 C.3   1 <1>  -0.1600 
 24 C       -6.4130     1.3680     1.9460 C.3   1 <1>  -0.2400 
 25 C       -1.4260     7.4980    -0.4130 C.3   1 <1>  -0.1600 
 26 H       -4.1760     1.4180     0.1350 H     1 <1>   0.0800 
 27 H       -4.7280     0.6470    -1.3370 H     1 <1>   0.0800 
 28 H       -2.4820    -1.6600    -1.8970 H     1 <1>   0.0800 
 29 H       -1.7970    -1.6290    -0.2820 H     1 <1>   0.0800 
 30 H       -1.3480     3.0830    -2.5160 H     1 <1>   0.1500 
 31 H       -4.2050    -0.5970     1.3500 H     1 <1>   0.0800 
 32 H       -3.7030    -2.6380     0.4420 H     1 <1>   0.0800 
 33 H       -2.2590     4.2990     2.0700 H     1 <1>   0.3700 
 34 H       -5.0720    -1.7870    -2.1090 H     1 <1>   0.0800 
 35 H       -4.3270    -3.3360    -1.8560 H     1 <1>   0.0800 
 36 H       -0.3740     5.8000    -2.4660 H     1 <1>   0.0800 
 37 H       -1.9430     5.4550    -3.1360 H     1 <1>   0.0800 
 38 H       -7.7880    -0.3590    -0.4420 H     1 <1>   0.4000 
 39 H       -6.1200    -2.7790     1.3600 H     1 <1>   0.0800 
 40 H       -7.6520    -2.4020     0.6590 H     1 <1>   0.0800 
 41 H       -7.7660    -0.2890     1.8870 H     1 <1>   0.0800 
 42 H       -6.2660    -0.6330     2.6700 H     1 <1>   0.0800 
 43 H       -6.0620    -4.0970    -0.5290 H     1 <1>   0.0800 
 44 H       -6.9330    -2.9580    -1.5060 H     1 <1>   0.0800 
 45 H       -3.0190     6.7390     0.8110 H     1 <1>   0.0800 
 46 H       -1.4430     6.6290     1.5450 H     1 <1>   0.0800 
 47 H       -1.5630     7.8810    -2.5270 H     1 <1>   0.0800 
 48 H       -2.9930     7.1650    -1.8380 H     1 <1>   0.0800 
 49 H       -6.7670     1.9000     1.0800 H     1 <1>   0.0800 
 50 H       -5.3580     1.5460     2.0580 H     1 <1>   0.0800 
 51 H       -6.9090     1.7640     2.8140 H     1 <1>   0.0800 
 52 H       -1.7260     8.4990    -0.1550 H     1 <1>   0.0800 
 53 H       -0.3500     7.4580    -0.3940 H     1 <1>   0.0800 
@<TRIPOS>BOND
  1   1   2  2   
  2   2   3  am  
  3   2   4  1   
  4   3   5  1   
  5   3   6  1   
  6   4   7  1   
  7   4   8  2   
  8   5   9  1   
  9   5  26  1   
 10   5  27  1   
 11   6  10  1   
 12   6  28  1   
 13   6  29  1   
 14   7  11  2   
 15   7  12  am  
 16   8  13  1   
 17   8  30  1   
 18   9  10  1   
 19   9  14  1   
 20   9  31  1   
 21  10  15  1   
 22  10  32  1   
 23  12  16  1   
 24  12  33  1   
 25  13  16  2   
 26  13  17  1   
 27  14  18  1   
 28  14  19  1   
 29  14  20  1   
 30  15  21  1   
 31  15  34  1   
 32  15  35  1   
 33  16  22  1   
 34  17  23  1   
 35  17  36  1   
 36  17  37  1   
 37  18  38  1   
 38  19  21  1   
 39  19  39  1   
 40  19  40  1   
 41  20  24  1   
 42  20  41  1   
 43  20  42  1   
 44  21  43  1   
 45  21  44  1   
 46  22  25  1   
 47  22  45  1   
 48  22  46  1   
 49  23  25  1   
 50  23  47  1   
 51  23  48  1   
 52  24  49  1   
 53  24  50  1   
 54  24  51  1   
 55  25  52  1   
 56  25  53  1   
@<TRIPOS>SUBSTRUCTURE
  1 ****   5 GROUP 4 **** **** 0

# MOE 2024.06 (io_trps.svl 2023.06)
