@<TRIPOS>MOLECULE
NONAME
55 58 1 0 0 
SMALL
USER_CHARGES


@<TRIPOS>ATOM
  1 O       -1.3530    -0.3560    -1.6060 O.3   1 <1>  -0.6800 
  2 C       -1.6780    -1.3550    -0.7020 C.3   1 <1>   0.2000 
  3 C       -2.3080    -2.5460    -1.4460 C.3   1 <1>   0.2090 
  4 C       -2.6550    -0.7610     0.3170 C.3   1 <1>  -0.1600 
  5 N       -2.7860    -3.5860    -0.4720 N.pl3 1 <1>  -0.8380 
  6 C       -3.1850    -1.8550     1.2580 C.3   1 <1>  -0.1600 
  7 C       -2.4650    -4.9050    -0.5230 C.ar  1 <1>   0.4100 
  8 C       -3.7930    -3.0360     0.4910 C.3   1 <1>   0.2090 
  9 N       -3.3600    -5.7740    -0.0850 N.ar  1 <1>  -0.6200 
 10 C       -1.2210    -5.3370    -1.0250 C.ar  1 <1>  -0.1500 
 11 C       -3.0760    -7.0540    -0.1620 C.ar  1 <1>   0.7710 
 12 C       -0.9520    -6.6620    -1.0830 C.ar  1 <1>   0.2110 
 13 N       -1.9080    -7.5200    -0.6460 N.ar  1 <1>  -0.1790 
 14 N       -4.0500    -7.8620     0.2870 N.pl3 1 <1>  -0.8690 
 15 C       -4.2520    -9.3400     0.3620 C.3   1 <1>   0.2090 
 16 C       -5.7200    -9.7120     0.0310 C.3   1 <1>   0.3430 
 17 N       -6.0300   -11.1750     0.1800 N.4   1 <1>  -0.9590 
 18 C       -7.3560   -11.4980    -0.4310 C.3   1 <1>   0.4870 
 19 C       -6.0370   -11.6600     1.5990 C.3   1 <1>   0.3430 
 20 C       -7.5890   -12.9970    -0.3790 C.ar  1 <1>  -0.1430 
 21 C       -6.0540   -13.1910     1.6350 C.3   1 <1>  -0.0170 
 22 C       -6.9890   -13.7900     0.5940 C.ar  1 <1>  -0.1430 
 23 C       -8.4250   -13.5830    -1.3190 C.ar  1 <1>  -0.1500 
 24 C       -7.2310   -15.1540     0.6160 C.ar  1 <1>  -0.1500 
 25 C       -8.6620   -14.9450    -1.2920 C.ar  1 <1>  -0.1500 
 26 C       -8.0650   -15.7310    -0.3240 C.ar  1 <1>  -0.1500 
 27 H       -0.5630    -0.5930    -2.1270 H     1 <1>   0.4000 
 28 H       -0.7730    -1.6650    -0.2090 H     1 <1>   0.0800 
 29 H       -1.6020    -2.9600    -2.1410 H     1 <1>   0.0800 
 30 H       -3.1570    -2.1920    -2.0070 H     1 <1>   0.0800 
 31 H       -3.4840    -0.3140    -0.2040 H     1 <1>   0.0800 
 32 H       -2.1590     0.0020     0.8910 H     1 <1>   0.0800 
 33 H       -3.9320    -1.4350     1.9080 H     1 <1>   0.0800 
 34 H       -2.3840    -2.2210     1.8770 H     1 <1>   0.0800 
 35 H       -4.1030    -3.7870     1.1980 H     1 <1>   0.0800 
 36 H       -4.6630    -2.7110    -0.0540 H     1 <1>   0.0800 
 37 H       -0.4990    -4.6080    -1.3380 H     1 <1>   0.1500 
 38 H       -0.0160    -7.0520    -1.4530 H     1 <1>   0.1500 
 39 H       -1.7600    -8.5220    -0.6440 H     1 <1>   0.4570 
 40 H       -4.8100    -7.3000     0.6990 H     1 <1>   0.4000 
 41 H       -4.0160    -9.6630     1.3620 H     1 <1>   0.0800 
 42 H       -3.5940    -9.8370    -0.3310 H     1 <1>   0.0800 
 43 H       -5.9180    -9.4120    -0.9850 H     1 <1>   0.0800 
 44 H       -6.3750    -9.1490     0.6760 H     1 <1>   0.0800 
 45 H       -5.3640   -11.7590    -0.3460 H     1 <1>   0.4500 
 46 H       -7.3810   -11.1740    -1.4590 H     1 <1>   0.0800 
 47 H       -8.1480   -10.9990     0.1040 H     1 <1>   0.0800 
 48 H       -6.9160   -11.2880     2.1020 H     1 <1>   0.0800 
 49 H       -5.1700   -11.3070     2.1320 H     1 <1>   0.0800 
 50 H       -6.3540   -13.5140     2.6170 H     1 <1>   0.0800 
 51 H       -5.0590   -13.5630     1.4650 H     1 <1>   0.0800 
 52 H       -8.9060   -12.9940    -2.0830 H     1 <1>   0.1500 
 53 H       -6.7730   -15.7810     1.3620 H     1 <1>   0.1500 
 54 H       -9.3120   -15.3980    -2.0220 H     1 <1>   0.1500 
 55 H       -8.2510   -16.7920    -0.3030 H     1 <1>   0.1500 
@<TRIPOS>BOND
  1   1   2  1   
  2   1  27  1   
  3   2   3  1   
  4   2   4  1   
  5   2  28  1   
  6   3   5  1   
  7   3  29  1   
  8   3  30  1   
  9   4   6  1   
 10   4  31  1   
 11   4  32  1   
 12   5   7  1   
 13   5   8  1   
 14   6   8  1   
 15   6  33  1   
 16   6  34  1   
 17   7   9  ar  
 18   7  10  ar  
 19   8  35  1   
 20   8  36  1   
 21   9  11  ar  
 22  10  12  ar  
 23  10  37  1   
 24  11  13  ar  
 25  11  14  1   
 26  12  13  ar  
 27  12  38  1   
 28  13  39  1   
 29  14  15  1   
 30  14  40  1   
 31  15  16  1   
 32  15  41  1   
 33  15  42  1   
 34  16  17  1   
 35  16  43  1   
 36  16  44  1   
 37  17  18  1   
 38  17  19  1   
 39  17  45  1   
 40  18  20  1   
 41  18  46  1   
 42  18  47  1   
 43  19  21  1   
 44  19  48  1   
 45  19  49  1   
 46  20  22  ar  
 47  20  23  ar  
 48  21  22  1   
 49  21  50  1   
 50  21  51  1   
 51  22  24  ar  
 52  23  25  ar  
 53  23  52  1   
 54  24  26  ar  
 55  24  53  1   
 56  25  26  ar  
 57  25  54  1   
 58  26  55  1   
@<TRIPOS>SUBSTRUCTURE
  1 ****  14 GROUP 4 **** **** 0

# MOE 2024.06 (io_trps.svl 2023.06)
