@<TRIPOS>MOLECULE
NONAME
43 45 1 0 0 
SMALL
USER_CHARGES


@<TRIPOS>ATOM
  1 S       -1.2430    -1.9610    -1.1810 S.3   1 <1>  -0.0800 
  2 C       -1.9460    -3.3820    -1.9460 C.2   1 <1>  -0.1400 
  3 C       -2.3570    -0.9010    -2.0280 C.2   1 <1>  -0.1100 
  4 C       -2.9390    -3.0220    -2.7810 C.2   1 <1>  -0.1500 
  5 C       -1.3590    -4.7400    -1.5980 C.3   1 <1>   0.5230 
  6 C       -3.1760    -1.6120    -2.8240 C.2   1 <1>  -0.1500 
  7 N       -1.9340    -5.3070    -0.3380 N.4   1 <1>  -0.9590 
  8 C       -2.5760    -4.3310     0.6100 C.3   1 <1>   0.3430 
  9 C       -1.0720    -6.3230     0.3070 C.3   1 <1>   0.3430 
 10 C       -3.2820    -4.9910     1.8210 C.3   1 <1>   0.2090 
 11 C       -1.8640    -7.5990     0.6120 C.3   1 <1>  -0.1600 
 12 N       -3.8770    -6.3160     1.4910 N.pl3 1 <1>  -0.8380 
 13 C       -2.9890    -7.4970     1.6630 C.3   1 <1>   0.2090 
 14 C       -4.8590    -6.3180     0.5340 C.ar  1 <1>   0.7200 
 15 N       -4.4220    -6.5820    -0.6750 N.ar  1 <1>  -0.6200 
 16 N       -6.0760    -5.9300     0.8740 N.ar  1 <1>  -0.6200 
 17 C       -5.2050    -6.2920    -1.7060 C.ar  1 <1>   0.1310 
 18 C       -6.9080    -5.7700    -0.1310 C.ar  1 <1>   0.1670 
 19 C       -4.6420    -6.2910    -3.0600 C.2   1 <1>   0.9790 
 20 C       -6.5130    -5.9220    -1.4420 C.ar  1 <1>  -0.1500 
 21 C       -8.3280    -5.3750     0.2120 C.3   1 <1>  -0.0960 
 22 O       -3.3970    -6.2630    -3.2160 O.co2 1 <1>  -0.9000 
 23 O       -5.3680    -6.2100    -4.0650 O.co2 1 <1>  -0.9000 
 24 H       -2.2790     0.1560    -1.8420 H     1 <1>   0.1500 
 25 H       -3.5250    -3.6980    -3.3870 H     1 <1>   0.1500 
 26 H       -0.2930    -4.6320    -1.4990 H     1 <1>   0.0800 
 27 H       -1.5460    -5.4220    -2.4120 H     1 <1>   0.0800 
 28 H       -3.9490    -1.2080    -3.4550 H     1 <1>   0.1500 
 29 H       -2.7520    -5.8520    -0.7000 H     1 <1>   0.4500 
 30 H       -3.3240    -3.7740     0.0680 H     1 <1>   0.0800 
 31 H       -1.8460    -3.6250     0.9660 H     1 <1>   0.0800 
 32 H       -0.6430    -5.9240     1.2110 H     1 <1>   0.0800 
 33 H       -0.2670    -6.5800    -0.3620 H     1 <1>   0.0800 
 34 H       -4.0610    -4.3340     2.1700 H     1 <1>   0.0800 
 35 H       -2.5790    -5.1050     2.6270 H     1 <1>   0.0800 
 36 H       -1.1690    -8.3400     0.9630 H     1 <1>   0.0800 
 37 H       -2.2670    -7.9890    -0.3060 H     1 <1>   0.0800 
 38 H       -2.5600    -7.4610     2.6500 H     1 <1>   0.0800 
 39 H       -3.5930    -8.3880     1.6120 H     1 <1>   0.0800 
 40 H       -7.1830    -5.7440    -2.2630 H     1 <1>   0.1500 
 41 H       -8.7660    -6.1270     0.8420 H     1 <1>   0.0800 
 42 H       -8.9240    -5.2740    -0.6760 H     1 <1>   0.0800 
 43 H       -8.3240    -4.4390     0.7400 H     1 <1>   0.0800 
@<TRIPOS>BOND
  1   1   2  1   
  2   1   3  1   
  3   2   4  2   
  4   2   5  1   
  5   3   6  2   
  6   3  24  1   
  7   4   6  1   
  8   4  25  1   
  9   5   7  1   
 10   5  26  1   
 11   5  27  1   
 12   6  28  1   
 13   7   8  1   
 14   7   9  1   
 15   7  29  1   
 16   8  10  1   
 17   8  30  1   
 18   8  31  1   
 19   9  11  1   
 20   9  32  1   
 21   9  33  1   
 22  10  12  1   
 23  10  34  1   
 24  10  35  1   
 25  11  13  1   
 26  11  36  1   
 27  11  37  1   
 28  12  13  1   
 29  12  14  1   
 30  13  38  1   
 31  13  39  1   
 32  14  15  ar  
 33  14  16  ar  
 34  15  17  ar  
 35  16  18  ar  
 36  17  19  1   
 37  17  20  ar  
 38  18  20  ar  
 39  18  21  1   
 40  19  22  ar  
 41  19  23  ar  
 42  20  40  1   
 43  21  41  1   
 44  21  42  1   
 45  21  43  1   
@<TRIPOS>SUBSTRUCTURE
  1 ****  15 GROUP 4 **** **** 0

# MOE 2024.06 (io_trps.svl 2023.06)
