@<TRIPOS>MOLECULE
NONAME
48 50 1 0 0 
SMALL
USER_CHARGES


@<TRIPOS>ATOM
  1 S       -0.4180     1.4400    -1.1200 S.o2  1 <1>   1.3330 
  2 O       -0.6770     0.1650    -1.7500 O.2   1 <1>  -0.6500 
  3 O       -1.0810     2.6140    -1.6400 O.2   1 <1>  -0.6500 
  4 N        1.2620     1.6920    -1.1890 N.am  1 <1>  -0.8490 
  5 C       -0.8120     1.2710     0.6320 C.3   1 <1>  -0.0550 
  6 C        1.6590     2.5050    -2.3460 C.3   1 <1>   0.1160 
  7 C        2.0400     0.4480    -1.1690 C.3   1 <1>   0.1160 
  8 C       -0.5380     2.4450     1.6070 C.3   1 <1>  -0.0800 
  9 C       -1.1020     3.7930     1.1580 C.3   1 <1>   0.2000 
 10 C        0.9540     2.7100     1.8740 C.3   1 <1>   0.1100 
 11 O       -1.5180     4.4630     2.2930 O.3   1 <1>  -0.6800 
 12 C        0.1220     4.5300     0.6270 C.3   1 <1>   0.1100 
 13 N        1.2200     4.1110     1.5130 N.3   1 <1>  -0.8100 
 14 C        2.5500     4.2750     0.8900 C.3   1 <1>   0.2900 
 15 C        2.7340     5.6480     0.2610 C.2   1 <1>  -0.0400 
 16 O        2.5600     5.7550    -1.0550 O.3   1 <1>  -0.2800 
 17 C        3.0600     6.8370     0.8080 C.2   1 <1>  -0.1810 
 18 C        2.7700     7.0300    -1.3790 C.ar  1 <1>   0.1400 
 19 C        3.0920     7.7670    -0.2530 C.ar  1 <1>   0.0000 
 20 C        3.3320     7.1870     2.2580 C.3   1 <1>  -0.0590 
 21 C        2.6960     7.6070    -2.6400 C.ar  1 <1>  -0.1500 
 22 C        3.3530     9.1310    -0.3820 C.ar  1 <1>  -0.1500 
 23 C        2.9570     8.9580    -2.7590 C.ar  1 <1>  -0.1500 
 24 C        3.2840     9.7160    -1.6310 C.ar  1 <1>  -0.1500 
 25 H       -1.8610     1.0550     0.6960 H     1 <1>   0.0800 
 26 H       -0.3050     0.4050     1.0090 H     1 <1>   0.0800 
 27 H        2.7240     2.6610    -2.3470 H     1 <1>   0.0800 
 28 H        1.1840     3.4710    -2.3050 H     1 <1>   0.0800 
 29 H        1.3700     2.0180    -3.2630 H     1 <1>   0.0800 
 30 H        3.0920     0.6710    -1.1140 H     1 <1>   0.0800 
 31 H        1.8510    -0.1290    -2.0600 H     1 <1>   0.0800 
 32 H        1.7710    -0.1440    -0.3120 H     1 <1>   0.0800 
 33 H       -0.9980     2.1650     2.5400 H     1 <1>   0.0800 
 34 H       -1.9250     3.7410     0.4650 H     1 <1>   0.0800 
 35 H        1.5700     2.0370     1.3060 H     1 <1>   0.0800 
 36 H        1.1780     2.5710     2.9180 H     1 <1>   0.0800 
 37 H       -0.7020     4.7430     2.7590 H     1 <1>   0.4000 
 38 H       -0.0150     5.5980     0.6430 H     1 <1>   0.0800 
 39 H        0.3250     4.2260    -0.3820 H     1 <1>   0.0800 
 40 H        3.3020     4.1340     1.6460 H     1 <1>   0.0800 
 41 H        2.7020     3.5310     0.1290 H     1 <1>   0.0800 
 42 H        2.6520     7.9550     2.5790 H     1 <1>   0.0800 
 43 H        4.3410     7.5430     2.3660 H     1 <1>   0.0800 
 44 H        3.1950     6.3250     2.8840 H     1 <1>   0.0800 
 45 H        2.4410     7.0000    -3.4880 H     1 <1>   0.1500 
 46 H        3.6020     9.7060     0.4910 H     1 <1>   0.1500 
 47 H        2.9080     9.4350    -3.7220 H     1 <1>   0.1500 
 48 H        3.4830    10.7680    -1.7450 H     1 <1>   0.1500 
@<TRIPOS>BOND
  1   1   2  2   
  2   1   3  2   
  3   1   4  am  
  4   1   5  1   
  5   4   6  1   
  6   4   7  1   
  7   5   8  1   
  8   5  25  1   
  9   5  26  1   
 10   6  27  1   
 11   6  28  1   
 12   6  29  1   
 13   7  30  1   
 14   7  31  1   
 15   7  32  1   
 16   8   9  1   
 17   8  10  1   
 18   8  33  1   
 19   9  11  1   
 20   9  12  1   
 21   9  34  1   
 22  10  13  1   
 23  10  35  1   
 24  10  36  1   
 25  11  37  1   
 26  12  13  1   
 27  12  38  1   
 28  12  39  1   
 29  13  14  1   
 30  14  15  1   
 31  14  40  1   
 32  14  41  1   
 33  15  16  1   
 34  15  17  2   
 35  16  18  1   
 36  17  19  1   
 37  17  20  1   
 38  18  19  ar  
 39  18  21  ar  
 40  19  22  ar  
 41  20  42  1   
 42  20  43  1   
 43  20  44  1   
 44  21  23  ar  
 45  21  45  1   
 46  22  24  ar  
 47  22  46  1   
 48  23  24  ar  
 49  23  47  1   
 50  24  48  1   
@<TRIPOS>SUBSTRUCTURE
  1 ****  12 GROUP 4 **** **** 0

# MOE 2024.06 (io_trps.svl 2023.06)
