@<TRIPOS>MOLECULE
NONAME
48 49 1 0 0 
SMALL
USER_CHARGES


@<TRIPOS>ATOM
  1 O       -1.3260    -0.6230    -1.6910 O.2   1 <1>  -0.5700 
  2 C       -1.8730     0.4470    -1.5000 C.2   1 <1>   0.7670 
  3 N       -3.1890     0.4750    -1.1370 N.2   1 <1>  -0.6610 
  4 C       -1.1440     1.6570    -1.6320 C.2   1 <1>  -0.1360 
  5 C       -3.7380     1.6110    -0.9340 C.2   1 <1>   0.4390 
  6 C       -1.7410     2.8460    -1.3860 C.2   1 <1>  -0.0380 
  7 N       -3.0760     2.8040    -1.0400 N.pl3 1 <1>  -0.5500 
  8 C       -5.1970     1.6770    -0.5580 C.3   1 <1>  -0.1790 
  9 C       -1.0080     4.1810    -1.4700 C.3   1 <1>   0.4810 
 10 N       -1.0110     4.8160    -0.1170 N.4   1 <1>  -0.9590 
 11 C        0.2930     4.6360     0.6110 C.3   1 <1>   0.5610 
 12 C       -1.3650     6.2760    -0.2340 C.3   1 <1>   0.4230 
 13 C        1.3530     5.4670    -0.0930 C.2   1 <1>  -0.2880 
 14 C        0.7050     3.1600     0.7600 C.3   1 <1>  -0.0220 
 15 C       -0.3190     7.0480    -1.0760 C.3   1 <1>  -0.0220 
 16 C       -1.5640     6.9050     1.1580 C.3   1 <1>  -0.0220 
 17 C        1.1000     6.5390    -0.8510 C.2   1 <1>  -0.2760 
 18 C        1.7560     2.9190     1.8380 C.2   1 <1>  -0.2880 
 19 C       -2.3270     8.2160     1.0590 C.2   1 <1>  -0.2880 
 20 C        2.1810     7.3540    -1.5440 C.3   1 <1>  -0.1020 
 21 C        2.3100     3.8130     2.6660 C.2   1 <1>  -0.3000 
 22 C       -1.8200     9.4110     1.3730 C.2   1 <1>  -0.3000 
 23 H       -0.1180     1.5460    -1.9270 H     1 <1>   0.1500 
 24 H       -3.6590     3.6400    -0.9370 H     1 <1>   0.4000 
 25 H       -5.3140     2.1400     0.4040 H     1 <1>   0.0800 
 26 H       -5.6070     0.6830    -0.5070 H     1 <1>   0.0800 
 27 H       -5.7460     2.2310    -1.2960 H     1 <1>   0.0800 
 28 H       -1.5180     4.8090    -2.1820 H     1 <1>   0.0800 
 29 H        0.0030     4.0390    -1.8170 H     1 <1>   0.0800 
 30 H       -1.7270     4.3340     0.4340 H     1 <1>   0.4500 
 31 H        0.1820     5.0230     1.6110 H     1 <1>   0.0800 
 32 H       -2.3120     6.3580    -0.7420 H     1 <1>   0.0800 
 33 H        2.3550     5.1150     0.0960 H     1 <1>   0.1500 
 34 H       -0.1570     2.5740     1.0240 H     1 <1>   0.0800 
 35 H        1.1000     2.7980    -0.1720 H     1 <1>   0.0800 
 36 H       -0.5640     6.9560    -2.1180 H     1 <1>   0.0800 
 37 H       -0.3690     8.0980    -0.8420 H     1 <1>   0.0800 
 38 H       -2.1290     6.2430     1.7900 H     1 <1>   0.0800 
 39 H       -0.6100     7.0900     1.6220 H     1 <1>   0.0800 
 40 H        2.0410     1.8780     1.8860 H     1 <1>   0.1500 
 41 H       -3.3430     8.1050     0.7140 H     1 <1>   0.1500 
 42 H        2.0280     7.3560    -2.6090 H     1 <1>   0.0800 
 43 H        3.1560     6.9440    -1.3450 H     1 <1>   0.0800 
 44 H        2.1680     8.3710    -1.1920 H     1 <1>   0.0800 
 45 H        3.0510     3.5450     3.4020 H     1 <1>   0.1500 
 46 H        2.1030     4.8680     2.7050 H     1 <1>   0.1500 
 47 H       -2.3740    10.3340     1.3040 H     1 <1>   0.1500 
 48 H       -0.8170     9.5830     1.7280 H     1 <1>   0.1500 
@<TRIPOS>BOND
  1   1   2  2   
  2   2   3  1   
  3   2   4  1   
  4   3   5  2   
  5   4   6  2   
  6   4  23  1   
  7   5   7  1   
  8   5   8  1   
  9   6   7  1   
 10   6   9  1   
 11   7  24  1   
 12   8  25  1   
 13   8  26  1   
 14   8  27  1   
 15   9  10  1   
 16   9  28  1   
 17   9  29  1   
 18  10  11  1   
 19  10  12  1   
 20  10  30  1   
 21  11  13  1   
 22  11  14  1   
 23  11  31  1   
 24  12  15  1   
 25  12  16  1   
 26  12  32  1   
 27  13  17  2   
 28  13  33  1   
 29  14  18  1   
 30  14  34  1   
 31  14  35  1   
 32  15  17  1   
 33  15  36  1   
 34  15  37  1   
 35  16  19  1   
 36  16  38  1   
 37  16  39  1   
 38  17  20  1   
 39  18  21  2   
 40  18  40  1   
 41  19  22  2   
 42  19  41  1   
 43  20  42  1   
 44  20  43  1   
 45  20  44  1   
 46  21  45  1   
 47  21  46  1   
 48  22  47  1   
 49  22  48  1   
@<TRIPOS>SUBSTRUCTURE
  1 ****  10 GROUP 4 **** **** 0

# MOE 2024.06 (io_trps.svl 2023.06)
