@<TRIPOS>MOLECULE
NONAME
49 52 1 0 0 
SMALL
USER_CHARGES


@<TRIPOS>ATOM
  1 F       -1.6130     2.4060     0.5400 F     1 <1>  -0.1900 
  2 C       -2.8110     2.0310     0.1800 C.ar  1 <1>   0.1900 
  3 C       -3.2870     2.4190    -1.0570 C.ar  1 <1>  -0.1500 
  4 C       -3.5580     1.2600     1.0490 C.ar  1 <1>  -0.1500 
  5 C       -4.5590     2.0200    -1.4330 C.ar  1 <1>  -0.1500 
  6 C       -4.8280     0.8670     0.6610 C.ar  1 <1>  -0.1500 
  7 C       -5.3360     1.2480    -0.5760 C.ar  1 <1>  -0.1430 
  8 C       -6.7390     0.8170    -1.0000 C.3   1 <1>   0.0440 
  9 C       -7.7830     0.9170     0.1070 C.2   1 <1>   0.5690 
 10 O       -8.3170    -0.1180     0.4430 O.2   1 <1>  -0.5700 
 11 N       -8.1270     2.1210     0.6760 N.am  1 <1>  -0.6600 
 12 C       -9.2220     2.1830     1.6990 C.3   1 <1>   0.1400 
 13 C       -7.7160     3.4560     0.1490 C.3   1 <1>   0.1400 
 14 C      -10.5830     2.6190     1.0980 C.3   1 <1>   0.1900 
 15 C       -8.8480     4.2230    -0.5830 C.3   1 <1>  -0.0800 
 16 N      -10.6140     2.3890    -0.3750 N.3   1 <1>  -0.8100 
 17 C      -10.9770     4.0540     1.5040 C.3   1 <1>   0.1200 
 18 C       -9.4460     5.3610     0.2640 C.3   1 <1>   0.1200 
 19 C       -9.9550     3.3740    -1.2470 C.3   1 <1>   0.1100 
 20 C      -11.8880     1.8640    -0.8990 C.3   1 <1>   0.2900 
 21 O       -9.8860     4.9290     1.5080 O.3   1 <1>  -0.5600 
 22 C      -12.1770     0.4720    -0.3550 C.2   1 <1>   0.0060 
 23 N      -13.3660    -0.0190    -0.1970 N.2   1 <1>  -0.5650 
 24 N      -11.1900    -0.3760     0.0160 N.pl3 1 <1>   0.0330 
 25 C      -13.1420    -1.2510     0.3000 C.2   1 <1>   0.0770 
 26 C      -11.8190    -1.4860     0.4390 C.2   1 <1>  -0.3020 
 27 H       -2.6730     3.0160    -1.7060 H     1 <1>   0.1500 
 28 H       -3.1540     0.9750     2.0030 H     1 <1>   0.1500 
 29 H       -4.9370     2.3130    -2.3970 H     1 <1>   0.1500 
 30 H       -5.4200     0.2630     1.3300 H     1 <1>   0.1500 
 31 H       -6.6910    -0.2050    -1.3300 H     1 <1>   0.0800 
 32 H       -7.0790     1.4020    -1.8320 H     1 <1>   0.0800 
 33 H       -9.3510     1.2150     2.1480 H     1 <1>   0.0800 
 34 H       -8.9330     2.8470     2.4930 H     1 <1>   0.0800 
 35 H       -7.3530     4.0490     0.9710 H     1 <1>   0.0800 
 36 H       -6.8930     3.3430    -0.5300 H     1 <1>   0.0800 
 37 H      -11.3230     1.9830     1.5500 H     1 <1>   0.0800 
 38 H       -8.3660     4.7350    -1.3950 H     1 <1>   0.0800 
 39 H      -11.3460     4.0330     2.5140 H     1 <1>   0.0800 
 40 H      -11.7550     4.4430     0.8710 H     1 <1>   0.0800 
 41 H      -10.2670     5.8380    -0.2440 H     1 <1>   0.0800 
 42 H       -8.6900     6.1040     0.4490 H     1 <1>   0.0800 
 43 H       -9.5240     2.8380    -2.0750 H     1 <1>   0.0800 
 44 H      -10.7010     4.0390    -1.6500 H     1 <1>   0.0800 
 45 H      -12.6960     2.5270    -0.6430 H     1 <1>   0.0800 
 46 H      -11.8360     1.7930    -1.9710 H     1 <1>   0.0800 
 47 H      -10.1780    -0.1700     0.0100 H     1 <1>   0.2700 
 48 H      -13.9570    -1.9140     0.5370 H     1 <1>   0.1500 
 49 H      -11.2990    -2.3520     0.8050 H     1 <1>   0.1500 
@<TRIPOS>BOND
  1   1   2  1   
  2   2   3  ar  
  3   2   4  ar  
  4   3   5  ar  
  5   3  27  1   
  6   4   6  ar  
  7   4  28  1   
  8   5   7  ar  
  9   5  29  1   
 10   6   7  ar  
 11   6  30  1   
 12   7   8  1   
 13   8   9  1   
 14   8  31  1   
 15   8  32  1   
 16   9  10  2   
 17   9  11  am  
 18  11  12  1   
 19  11  13  1   
 20  12  14  1   
 21  12  33  1   
 22  12  34  1   
 23  13  15  1   
 24  13  35  1   
 25  13  36  1   
 26  14  16  1   
 27  14  17  1   
 28  14  37  1   
 29  15  18  1   
 30  15  19  1   
 31  15  38  1   
 32  16  19  1   
 33  16  20  1   
 34  17  21  1   
 35  17  39  1   
 36  17  40  1   
 37  18  21  1   
 38  18  41  1   
 39  18  42  1   
 40  19  43  1   
 41  19  44  1   
 42  20  22  1   
 43  20  45  1   
 44  20  46  1   
 45  22  23  2   
 46  22  24  1   
 47  23  25  1   
 48  24  26  1   
 49  24  47  1   
 50  25  26  2   
 51  25  48  1   
 52  26  49  1   
@<TRIPOS>SUBSTRUCTURE
  1 ****  11 GROUP 4 **** **** 0

# MOE 2024.06 (io_trps.svl 2023.06)
