@<TRIPOS>MOLECULE
NONAME
39 40 1 0 0 
SMALL
USER_CHARGES


@<TRIPOS>ATOM
  1 O       -0.2430     0.1340    -0.4710 O.2   1 <1>  -0.5760 
  2 C        0.7300    -0.5690    -0.5300 C.2   1 <1>   0.8490 
  3 N        1.9810    -0.0510    -0.4370 N.pl3 1 <1>  -0.7340 
  4 C        0.5800    -2.0600    -0.7100 C.3   1 <1>  -0.1090 
  5 C        2.3070     1.2350    -0.2890 C.cat 1 <1>   1.0680 
  6 C        0.1620    -2.7480     0.5930 C.3   1 <1>   0.0100 
  7 N        1.4610     2.2410    -0.1860 N.pl3 1 <1>  -0.7050 
  8 N        3.5580     1.6940    -0.2210 N.pl3 1 <1>  -0.7680 
  9 C        0.1630    -4.2470     0.3750 C.2   1 <1>  -0.1900 
 10 C        2.1720     3.4070    -0.0420 C.2   1 <1>   0.1910 
 11 C        3.4750     3.0700    -0.0630 C.2   1 <1>   0.1910 
 12 C        4.8580     0.9730    -0.2900 C.3   1 <1>   0.2660 
 13 C        1.1760    -5.1430     0.7070 C.2   1 <1>   0.0980 
 14 C       -0.7970    -5.0080    -0.1930 C.2   1 <1>  -0.3390 
 15 N        0.8830    -6.3570     0.3700 N.2   1 <1>  -0.7110 
 16 C        2.4830    -4.8040     1.3860 C.3   1 <1>  -0.0690 
 17 N       -0.3370    -6.2800    -0.1820 N.pl3 1 <1>   0.3060 
 18 C       -2.1520    -4.6080    -0.7590 C.3   1 <1>  -0.0700 
 19 C       -1.0200    -7.4780    -0.6870 C.3   1 <1>   0.0050 
 20 H        2.7460    -0.7070    -0.4920 H     1 <1>   0.4430 
 21 H        1.5020    -2.4870    -1.0600 H     1 <1>   0.0700 
 22 H       -0.1680    -2.2450    -1.4590 H     1 <1>   0.0700 
 23 H       -0.8250    -2.4290     0.8810 H     1 <1>   0.0700 
 24 H        0.8360    -2.5000     1.3920 H     1 <1>   0.0700 
 25 H        0.4440     2.0930    -0.2180 H     1 <1>   0.4430 
 26 H        1.7090     4.3770     0.0630 H     1 <1>   0.1410 
 27 H        4.3400     3.7100     0.0230 H     1 <1>   0.1410 
 28 H        4.7230    -0.0370    -0.6360 H     1 <1>   0.0700 
 29 H        5.3150     0.9500     0.6860 H     1 <1>   0.0700 
 30 H        5.5220     1.4810    -0.9700 H     1 <1>   0.0700 
 31 H        3.0180    -4.0740     0.8100 H     1 <1>   0.0700 
 32 H        3.0880    -5.6890     1.4720 H     1 <1>   0.0700 
 33 H        2.2910    -4.4220     2.3720 H     1 <1>   0.0700 
 34 H       -2.3140    -3.5510    -0.6540 H     1 <1>   0.0700 
 35 H       -2.9360    -5.1250    -0.2350 H     1 <1>   0.0700 
 36 H       -2.2040    -4.8590    -1.8030 H     1 <1>   0.0700 
 37 H       -1.9400    -7.6100    -0.1500 H     1 <1>   0.0700 
 38 H       -0.3880    -8.3330    -0.5360 H     1 <1>   0.0700 
 39 H       -1.2170    -7.3560    -1.7340 H     1 <1>   0.0700 
@<TRIPOS>BOND
  1   1   2  2   
  2   2   3  1   
  3   2   4  1   
  4   3   5  ar  
  5   3  20  1   
  6   4   6  1   
  7   4  21  1   
  8   4  22  1   
  9   5   7  ar  
 10   5   8  ar  
 11   6   9  1   
 12   6  23  1   
 13   6  24  1   
 14   7  10  1   
 15   7  25  1   
 16   8  11  1   
 17   8  12  1   
 18   9  13  1   
 19   9  14  2   
 20  10  11  2   
 21  10  26  1   
 22  11  27  1   
 23  12  28  1   
 24  12  29  1   
 25  12  30  1   
 26  13  15  2   
 27  13  16  1   
 28  14  17  1   
 29  14  18  1   
 30  15  17  1   
 31  16  31  1   
 32  16  32  1   
 33  16  33  1   
 34  17  19  1   
 35  18  34  1   
 36  18  35  1   
 37  18  36  1   
 38  19  37  1   
 39  19  38  1   
 40  19  39  1   
@<TRIPOS>SUBSTRUCTURE
  1 ****   4 GROUP 4 **** **** 0

# MOE 2024.06 (io_trps.svl 2023.06)
