@<TRIPOS>MOLECULE
NONAME
55 60 1 0 0 
SMALL
USER_CHARGES


@<TRIPOS>ATOM
  1 O       -1.1090     1.2620    -2.1730 O.2   1 <1>  -0.5700 
  2 C       -2.1380     1.4610    -1.5690 C.2   1 <1>   0.6300 
  3 N       -3.2470     0.6730    -1.7570 N.am  1 <1>  -0.6600 
  4 C       -2.1800     2.6300    -0.5850 C.3   1 <1>  -0.1000 
  5 C       -4.5680     0.8780    -1.1060 C.3   1 <1>   0.1400 
  6 C       -3.2150    -0.5180    -2.6500 C.3   1 <1>   0.1400 
  7 C       -1.0680     2.9370     0.3760 C.3   1 <1>  -0.1900 
  8 C       -2.3530     2.3840     0.8970 C.3   1 <1>  -0.2000 
  9 C       -4.8810    -0.3430    -0.2410 C.3   1 <1>  -0.1600 
 10 C       -3.5180    -1.7650    -1.8200 C.3   1 <1>  -0.1600 
 11 C       -0.6810     4.3490     0.7890 C.3   1 <1>  -0.0650 
 12 C        0.1920     2.0910     0.5400 C.3   1 <1>  -0.0650 
 13 C       -4.8470    -1.6370    -1.0670 C.3   1 <1>   0.4600 
 14 C        0.3130     4.1280     1.9270 C.3   1 <1>  -0.1600 
 15 C        0.9990     2.7840     1.6440 C.3   1 <1>  -0.1600 
 16 O       -5.8560    -1.5800    -2.0530 O.3   1 <1>  -0.5600 
 17 C       -5.0730    -2.8580    -0.1830 C.2   1 <1>  -0.3320 
 18 C       -7.1720    -1.9130    -1.6790 C.3   1 <1>   0.1200 
 19 N       -4.2300    -3.3250     0.7870 N.pl3 1 <1>   0.0330 
 20 C       -6.1580    -3.6540    -0.2500 C.2   1 <1>  -0.1810 
 21 C       -7.2700    -3.3820    -1.2320 C.3   1 <1>   0.0210 
 22 C       -4.8010    -4.4450     1.3410 C.ar  1 <1>  -0.1520 
 23 C       -6.0170    -4.6810     0.7060 C.ar  1 <1>   0.0000 
 24 C       -4.3490    -5.2890     2.3590 C.ar  1 <1>  -0.1500 
 25 C       -6.7980    -5.7760     1.0890 C.ar  1 <1>  -0.1500 
 26 C       -5.1280    -6.3620     2.7270 C.ar  1 <1>  -0.1500 
 27 C       -6.3520    -6.6060     2.0920 C.ar  1 <1>  -0.1500 
 28 H       -2.6770     3.4770    -1.0200 H     1 <1>   0.1000 
 29 H       -5.3210     0.9880    -1.8690 H     1 <1>   0.0800 
 30 H       -4.5780     1.7680    -0.5040 H     1 <1>   0.0800 
 31 H       -2.2520    -0.6200    -3.1210 H     1 <1>   0.0800 
 32 H       -3.9540    -0.4000    -3.4250 H     1 <1>   0.0800 
 33 H       -2.3750     1.3680     1.2510 H     1 <1>   0.1000 
 34 H       -3.0210     3.0240     1.4470 H     1 <1>   0.1000 
 35 H       -5.8390    -0.2300     0.2300 H     1 <1>   0.0800 
 36 H       -4.1490    -0.4030     0.5420 H     1 <1>   0.0800 
 37 H       -2.7150    -1.9090    -1.1220 H     1 <1>   0.0800 
 38 H       -3.5570    -2.6300    -2.4570 H     1 <1>   0.0800 
 39 H       -1.5240     4.9450     1.0950 H     1 <1>   0.0800 
 40 H       -0.1850     4.8320    -0.0350 H     1 <1>   0.0800 
 41 H        0.7520     2.1200    -0.3790 H     1 <1>   0.0800 
 42 H       -0.0270     1.0650     0.7780 H     1 <1>   0.0800 
 43 H       -0.2280     4.0590     2.8550 H     1 <1>   0.0800 
 44 H        1.0220     4.9350     1.9960 H     1 <1>   0.0800 
 45 H        2.0110     2.9400     1.3120 H     1 <1>   0.0800 
 46 H        1.0150     2.1820     2.5360 H     1 <1>   0.0800 
 47 H       -7.8080    -1.7420    -2.5290 H     1 <1>   0.0800 
 48 H       -7.4780    -1.2600    -0.8810 H     1 <1>   0.0800 
 49 H       -3.3230    -2.9310     1.0550 H     1 <1>   0.2700 
 50 H       -7.1720    -4.0320    -2.0820 H     1 <1>   0.0800 
 51 H       -8.2240    -3.5580    -0.7700 H     1 <1>   0.0800 
 52 H       -3.4080    -5.0960     2.8410 H     1 <1>   0.1500 
 53 H       -7.7330    -5.9510     0.5920 H     1 <1>   0.1500 
 54 H       -4.8030    -7.0270     3.5080 H     1 <1>   0.1500 
 55 H       -6.9410    -7.4520     2.3980 H     1 <1>   0.1500 
@<TRIPOS>BOND
  1   1   2  2   
  2   2   3  am  
  3   2   4  1   
  4   3   5  1   
  5   3   6  1   
  6   4   7  1   
  7   4   8  1   
  8   4  28  1   
  9   5   9  1   
 10   5  29  1   
 11   5  30  1   
 12   6  10  1   
 13   6  31  1   
 14   6  32  1   
 15   7   8  1   
 16   7  11  1   
 17   7  12  1   
 18   8  33  1   
 19   8  34  1   
 20   9  13  1   
 21   9  35  1   
 22   9  36  1   
 23  10  13  1   
 24  10  37  1   
 25  10  38  1   
 26  11  14  1   
 27  11  39  1   
 28  11  40  1   
 29  12  15  1   
 30  12  41  1   
 31  12  42  1   
 32  13  16  1   
 33  13  17  1   
 34  14  15  1   
 35  14  43  1   
 36  14  44  1   
 37  15  45  1   
 38  15  46  1   
 39  16  18  1   
 40  17  19  1   
 41  17  20  2   
 42  18  21  1   
 43  18  47  1   
 44  18  48  1   
 45  19  22  1   
 46  19  49  1   
 47  20  21  1   
 48  20  23  1   
 49  21  50  1   
 50  21  51  1   
 51  22  23  ar  
 52  22  24  ar  
 53  23  25  ar  
 54  24  26  ar  
 55  24  52  1   
 56  25  27  ar  
 57  25  53  1   
 58  26  27  ar  
 59  26  54  1   
 60  27  55  1   
@<TRIPOS>SUBSTRUCTURE
  1 ****   9 GROUP 4 **** **** 0

# MOE 2024.06 (io_trps.svl 2023.06)
