@<TRIPOS>MOLECULE
NONAME
58 61 1 0 0 
SMALL
USER_CHARGES


@<TRIPOS>ATOM
  1 O        0.6660     0.1200    -0.1510 O.3   1 <1>  -0.6800 
  2 C        1.9140    -0.1550    -0.6940 C.3   1 <1>   0.2000 
  3 C        2.5890    -1.2970     0.0600 C.3   1 <1>  -0.0800 
  4 C        2.8590     1.0340    -0.5330 C.3   1 <1>   0.2090 
  5 C        4.0860    -1.0230    -0.0920 C.3   1 <1>   0.2090 
  6 C        2.1760    -2.6920    -0.4430 C.3   1 <1>   0.0210 
  7 N        4.2130     0.4400    -0.3290 N.pl3 1 <1>  -0.8380 
  8 C        3.0190    -3.8030     0.1610 C.2   1 <1>   0.1080 
  9 C        5.3470     1.1790    -0.2450 C.ar  1 <1>   0.4100 
 10 N        3.4310    -3.8020     1.3910 N.2   1 <1>  -0.7070 
 11 C        3.4360    -4.9360    -0.5300 C.2   1 <1>  -0.1500 
 12 N        5.2330     2.4860    -0.3830 N.ar  1 <1>  -0.6200 
 13 C        6.5970     0.5740    -0.0190 C.ar  1 <1>  -0.1500 
 14 N        4.1190    -4.9530     1.5230 N.pl3 1 <1>   0.3000 
 15 C        4.1400    -5.6540     0.3700 C.2   1 <1>  -0.3320 
 16 C        6.3230     3.2330    -0.2930 C.ar  1 <1>   0.7710 
 17 C        7.7020     1.3510     0.0780 C.ar  1 <1>   0.2180 
 18 C        4.8360    -6.9920     0.1990 C.3   1 <1>  -0.0600 
 19 N        7.5280     2.6850    -0.0600 N.ar  1 <1>  -0.1790 
 20 N        6.2300     4.5840    -0.4310 N.pl3 1 <1>  -0.8380 
 21 C        9.1010     0.8040     0.3310 C.3   1 <1>  -0.0170 
 22 C        7.3560     5.5640    -0.5340 C.3   1 <1>   0.2090 
 23 C        4.9000     5.2790    -0.4790 C.3   1 <1>   0.2090 
 24 C       10.0520     1.0860    -0.8410 C.3   1 <1>  -0.2400 
 25 C        7.3080     6.5120     0.6670 C.3   1 <1>  -0.1600 
 26 C        4.7950     6.2390     0.7110 C.3   1 <1>  -0.1600 
 27 C        5.9590     7.2400     0.7480 C.3   1 <1>  -0.1600 
 28 H        0.1140    -0.6840    -0.1270 H     1 <1>   0.4000 
 29 H        1.7960    -0.3830    -1.7390 H     1 <1>   0.0800 
 30 H        2.3620    -1.2140     1.1100 H     1 <1>   0.0800 
 31 H        2.5920     1.6100     0.3370 H     1 <1>   0.0800 
 32 H        2.8450     1.6590    -1.4090 H     1 <1>   0.0800 
 33 H        4.4830    -1.5540    -0.9410 H     1 <1>   0.0800 
 34 H        4.6110    -1.3230     0.7990 H     1 <1>   0.0800 
 35 H        2.2700    -2.7340    -1.5130 H     1 <1>   0.0800 
 36 H        1.1480    -2.8740    -0.1910 H     1 <1>   0.0800 
 37 H        3.2250    -5.1690    -1.5580 H     1 <1>   0.1500 
 38 H        6.6520    -0.4940     0.0740 H     1 <1>   0.1500 
 39 H        4.5550    -5.2320     2.4100 H     1 <1>   0.2700 
 40 H        4.7070    -7.3510    -0.8060 H     1 <1>   0.0800 
 41 H        4.4210    -7.7170     0.8760 H     1 <1>   0.0800 
 42 H        5.8890    -6.8930     0.3940 H     1 <1>   0.0800 
 43 H        8.2930     3.3370     0.0230 H     1 <1>   0.4570 
 44 H        9.5000     1.2330     1.2340 H     1 <1>   0.0800 
 45 H        9.0460    -0.2610     0.4800 H     1 <1>   0.0800 
 46 H        8.3140     5.0800    -0.5810 H     1 <1>   0.0800 
 47 H        7.2390     6.1360    -1.4420 H     1 <1>   0.0800 
 48 H        4.8200     5.8310    -1.4000 H     1 <1>   0.0800 
 49 H        4.0760     4.5880    -0.4430 H     1 <1>   0.0800 
 50 H       10.2030     2.1400    -0.9850 H     1 <1>   0.0800 
 51 H        9.6630     0.6620    -1.7510 H     1 <1>   0.0800 
 52 H       11.0100     0.6340    -0.6470 H     1 <1>   0.0800 
 53 H        7.4710     5.9530     1.5720 H     1 <1>   0.0800 
 54 H        8.0980     7.2380     0.5830 H     1 <1>   0.0800 
 55 H        3.8630     6.7730     0.6520 H     1 <1>   0.0800 
 56 H        4.7800     5.6620     1.6200 H     1 <1>   0.0800 
 57 H        5.8690     7.9170    -0.0850 H     1 <1>   0.0800 
 58 H        5.9100     7.8230     1.6520 H     1 <1>   0.0800 
@<TRIPOS>BOND
  1   1   2  1   
  2   1  28  1   
  3   2   3  1   
  4   2   4  1   
  5   2  29  1   
  6   3   5  1   
  7   3   6  1   
  8   3  30  1   
  9   4   7  1   
 10   4  31  1   
 11   4  32  1   
 12   5   7  1   
 13   5  33  1   
 14   5  34  1   
 15   6   8  1   
 16   6  35  1   
 17   6  36  1   
 18   7   9  1   
 19   8  10  2   
 20   8  11  1   
 21   9  12  ar  
 22   9  13  ar  
 23  10  14  1   
 24  11  15  2   
 25  11  37  1   
 26  12  16  ar  
 27  13  17  ar  
 28  13  38  1   
 29  14  15  1   
 30  14  39  1   
 31  15  18  1   
 32  16  19  ar  
 33  16  20  1   
 34  17  19  ar  
 35  17  21  1   
 36  18  40  1   
 37  18  41  1   
 38  18  42  1   
 39  19  43  1   
 40  20  22  1   
 41  20  23  1   
 42  21  24  1   
 43  21  44  1   
 44  21  45  1   
 45  22  25  1   
 46  22  46  1   
 47  22  47  1   
 48  23  26  1   
 49  23  48  1   
 50  23  49  1   
 51  24  50  1   
 52  24  51  1   
 53  24  52  1   
 54  25  27  1   
 55  25  53  1   
 56  25  54  1   
 57  26  27  1   
 58  26  55  1   
 59  26  56  1   
 60  27  57  1   
 61  27  58  1   
@<TRIPOS>SUBSTRUCTURE
  1 ****   9 GROUP 4 **** **** 0

# MOE 2024.06 (io_trps.svl 2023.06)
