@<TRIPOS>MOLECULE
NONAME
53 55 1 0 0 
SMALL
USER_CHARGES


@<TRIPOS>ATOM
  1 O        0.6520    -0.8560     1.4750 O.2   1 <1>  -0.5700 
  2 C        1.1830    -0.7410     0.3890 C.2   1 <1>   0.5690 
  3 N        1.9060     0.3920     0.0800 N.am  1 <1>  -0.6600 
  4 C        1.0440    -1.9030    -0.6310 C.3   1 <1>   0.2810 
  5 C        2.1700     1.4480     1.1000 C.3   1 <1>   0.1400 
  6 C        2.5850     0.6530    -1.2230 C.3   1 <1>   0.1400 
  7 N        2.3360    -2.6040    -0.9360 N.am  1 <1>  -0.7300 
  8 C       -0.0170    -2.9590    -0.2650 C.3   1 <1>   0.0200 
  9 C        3.6770     1.5440     1.3550 C.3   1 <1>  -0.1600 
 10 C        4.0970     0.7240    -1.0030 C.3   1 <1>  -0.1600 
 11 C        3.3790    -2.9120    -0.1320 C.2   1 <1>   0.5690 
 12 C       -1.4350    -2.4070    -0.3420 C.2   1 <1>  -0.3320 
 13 C        4.4560     1.7830     0.0520 C.3   1 <1>   0.0640 
 14 O        4.3940    -3.3210    -0.6280 O.2   1 <1>  -0.5700 
 15 C        3.3180    -2.7680     1.3690 C.3   1 <1>  -0.1790 
 16 N       -1.9280    -1.5110     0.5330 N.pl3 1 <1>   0.0330 
 17 C       -2.4330    -2.6690    -1.2160 C.2   1 <1>   0.0770 
 18 C        5.9670     1.8270     0.3130 C.ar  1 <1>  -0.1440 
 19 C       -3.1930    -1.2790     0.1280 C.2   1 <1>   0.0360 
 20 N       -3.5350    -1.9540    -0.9210 N.2   1 <1>  -0.5650 
 21 C        6.7110     2.9940     0.1240 C.ar  1 <1>   0.0820 
 22 C        6.6170     0.6790     0.7510 C.ar  1 <1>  -0.1500 
 23 O        6.0620     4.1130    -0.3000 O.3   1 <1>  -0.3620 
 24 C        8.0830     2.9860     0.3710 C.ar  1 <1>  -0.1500 
 25 C        7.9790     0.6790     0.9940 C.ar  1 <1>  -0.1500 
 26 C        6.7360     5.3320    -0.5200 C.3   1 <1>   0.0400 
 27 C        8.7130     1.8340     0.8030 C.ar  1 <1>  -0.1500 
 28 H        0.7070    -1.4530    -1.5480 H     1 <1>   0.0800 
 29 H        1.8000     2.3910     0.7340 H     1 <1>   0.0800 
 30 H        1.6640     1.2300     2.0240 H     1 <1>   0.0800 
 31 H        2.3660    -0.1090    -1.9470 H     1 <1>   0.0800 
 32 H        2.2330     1.5910    -1.6170 H     1 <1>   0.0800 
 33 H        2.5010    -2.8060    -1.9240 H     1 <1>   0.3700 
 34 H        0.1660    -3.3420     0.7230 H     1 <1>   0.0800 
 35 H        0.0570    -3.7800    -0.9560 H     1 <1>   0.0800 
 36 H        3.8720     2.3540     2.0350 H     1 <1>   0.0800 
 37 H        4.0070     0.6370     1.8280 H     1 <1>   0.0800 
 38 H        4.4470    -0.2470    -0.7040 H     1 <1>   0.0800 
 39 H        4.5820     0.9720    -1.9300 H     1 <1>   0.0800 
 40 H        4.1280     2.7290    -0.3380 H     1 <1>   0.0800 
 41 H        2.3680    -3.0960     1.7440 H     1 <1>   0.0800 
 42 H        3.4800    -1.7430     1.6420 H     1 <1>   0.0800 
 43 H        4.0880    -3.3680     1.8170 H     1 <1>   0.0800 
 44 H       -1.4200    -1.0880     1.3230 H     1 <1>   0.2700 
 45 H       -2.4200    -3.3430    -2.0570 H     1 <1>   0.1500 
 46 H       -3.8410    -0.5910     0.6440 H     1 <1>   0.1500 
 47 H        6.0680    -0.2330     0.9070 H     1 <1>   0.1500 
 48 H        8.6810     3.8650     0.2340 H     1 <1>   0.1500 
 49 H        8.4640    -0.2200     1.3290 H     1 <1>   0.1500 
 50 H        6.0150     6.0580    -0.8490 H     1 <1>   0.0800 
 51 H        7.4810     5.1860    -1.2820 H     1 <1>   0.0800 
 52 H        7.1840     5.6550     0.4030 H     1 <1>   0.0800 
 53 H        9.7720     1.8340     0.9910 H     1 <1>   0.1500 
@<TRIPOS>BOND
  1   1   2  2   
  2   2   3  am  
  3   2   4  1   
  4   3   5  1   
  5   3   6  1   
  6   4   7  1   
  7   4   8  1   
  8   4  28  1   
  9   5   9  1   
 10   5  29  1   
 11   5  30  1   
 12   6  10  1   
 13   6  31  1   
 14   6  32  1   
 15   7  11  am  
 16   7  33  1   
 17   8  12  1   
 18   8  34  1   
 19   8  35  1   
 20   9  13  1   
 21   9  36  1   
 22   9  37  1   
 23  10  13  1   
 24  10  38  1   
 25  10  39  1   
 26  11  14  2   
 27  11  15  1   
 28  12  16  1   
 29  12  17  2   
 30  13  18  1   
 31  13  40  1   
 32  15  41  1   
 33  15  42  1   
 34  15  43  1   
 35  16  19  1   
 36  16  44  1   
 37  17  20  1   
 38  17  45  1   
 39  18  21  ar  
 40  18  22  ar  
 41  19  20  2   
 42  19  46  1   
 43  21  23  1   
 44  21  24  ar  
 45  22  25  ar  
 46  22  47  1   
 47  23  26  1   
 48  24  27  ar  
 49  24  48  1   
 50  25  27  ar  
 51  25  49  1   
 52  26  50  1   
 53  26  51  1   
 54  26  52  1   
 55  27  53  1   
@<TRIPOS>SUBSTRUCTURE
  1 ****   3 GROUP 4 **** **** 0

# MOE 2024.06 (io_trps.svl 2023.06)
