@<TRIPOS>MOLECULE
NONAME
56 58 1 0 0 
SMALL
USER_CHARGES


@<TRIPOS>ATOM
  1 S        0.8820     0.2170    -0.3530 S.o2  1 <1>   1.3330 
  2 O        0.3530    -0.0890    -1.6600 O.2   1 <1>  -0.6500 
  3 O        2.2920     0.5010    -0.2050 O.2   1 <1>  -0.6500 
  4 N        0.4180    -0.9740     0.7570 N.am  1 <1>  -0.8490 
  5 C        0.0350     1.6820     0.2310 C.3   1 <1>  -0.0550 
  6 C       -0.8270    -1.6610     0.3900 C.3   1 <1>   0.1160 
  7 C        1.4750    -1.9640     0.9960 C.3   1 <1>   0.1160 
  8 C        0.2230     2.8840    -0.7230 C.3   1 <1>  -0.0800 
  9 C       -0.3930     4.2040    -0.2510 C.3   1 <1>   0.2000 
 10 C        1.7000     3.2110    -1.0150 C.3   1 <1>   0.3430 
 11 O       -0.1750     4.3640     1.1160 O.3   1 <1>  -0.6800 
 12 C        0.4430     5.2420    -1.0030 C.3   1 <1>   0.3430 
 13 N        1.8420     4.6970    -1.0120 N.4   1 <1>  -0.9590 
 14 C        2.6260     5.1150     0.1940 C.3   1 <1>   0.4860 
 15 C        2.6420     6.6180     0.3020 C.ar  1 <1>  -0.1430 
 16 C        1.8470     7.2650     1.2170 C.ar  1 <1>   0.1600 
 17 C        3.4290     7.4030    -0.5060 C.ar  1 <1>   0.1600 
 18 N        1.8070     8.5680     1.3000 N.ar  1 <1>  -0.6200 
 19 N        3.4050     8.7070    -0.4380 N.ar  1 <1>  -0.6200 
 20 C        2.5890     9.2530     0.4650 C.ar  1 <1>   0.7200 
 21 N        2.5470    10.6300     0.5370 N.pl3 1 <1>  -0.8380 
 22 C        1.5660    11.3700     1.3830 C.3   1 <1>   0.2090 
 23 C        3.5690    11.5070    -0.1070 C.3   1 <1>   0.2090 
 24 C        0.8560    12.4340     0.5380 C.3   1 <1>  -0.1600 
 25 C        2.8710    12.5650    -0.9670 C.3   1 <1>  -0.1600 
 26 C        1.8520    13.3750    -0.1540 C.3   1 <1>  -0.1600 
 27 H       -1.0130     1.4690     0.3240 H     1 <1>   0.0800 
 28 H        0.4100     1.9190     1.2090 H     1 <1>   0.0800 
 29 H       -1.1170    -2.3440     1.1700 H     1 <1>   0.0800 
 30 H       -0.6970    -2.2120    -0.5270 H     1 <1>   0.0800 
 31 H       -1.6210    -0.9470     0.2530 H     1 <1>   0.0800 
 32 H        1.1510    -2.6890     1.7240 H     1 <1>   0.0800 
 33 H        2.3580    -1.4800     1.3770 H     1 <1>   0.0800 
 34 H        1.7270    -2.4730     0.0790 H     1 <1>   0.0800 
 35 H       -0.2280     2.6280    -1.6670 H     1 <1>   0.0800 
 36 H       -1.4470     4.2960    -0.4550 H     1 <1>   0.0800 
 37 H        1.9880     2.7970    -1.9690 H     1 <1>   0.0800 
 38 H        2.3340     2.7810    -0.2550 H     1 <1>   0.0800 
 39 H       -0.9320     4.0220     1.6390 H     1 <1>   0.4000 
 40 H        0.3710     6.2140    -0.5440 H     1 <1>   0.0800 
 41 H        0.0820     5.3120    -2.0150 H     1 <1>   0.0800 
 42 H        2.3360     5.0220    -1.8540 H     1 <1>   0.4500 
 43 H        2.1780     4.7000     1.0840 H     1 <1>   0.0800 
 44 H        3.6360     4.7460     0.1250 H     1 <1>   0.0800 
 45 H        1.2190     6.7080     1.8930 H     1 <1>   0.1500 
 46 H        4.0920     6.9630    -1.2310 H     1 <1>   0.1500 
 47 H        0.8260    10.7120     1.8030 H     1 <1>   0.0800 
 48 H        2.0910    11.8400     2.1970 H     1 <1>   0.0800 
 49 H        4.1460    11.9890     0.6630 H     1 <1>   0.0800 
 50 H        4.2490    10.9450    -0.7220 H     1 <1>   0.0800 
 51 H        0.2550    11.9350    -0.2030 H     1 <1>   0.0800 
 52 H        0.1960    13.0030     1.1670 H     1 <1>   0.0800 
 53 H        3.6090    13.2250    -1.3850 H     1 <1>   0.0800 
 54 H        2.3740    12.0680    -1.7820 H     1 <1>   0.0800 
 55 H        2.3690    13.9570     0.5900 H     1 <1>   0.0800 
 56 H        1.3240    14.0530    -0.8020 H     1 <1>   0.0800 
@<TRIPOS>BOND
  1   1   2  2   
  2   1   3  2   
  3   1   4  am  
  4   1   5  1   
  5   4   6  1   
  6   4   7  1   
  7   5   8  1   
  8   5  27  1   
  9   5  28  1   
 10   6  29  1   
 11   6  30  1   
 12   6  31  1   
 13   7  32  1   
 14   7  33  1   
 15   7  34  1   
 16   8   9  1   
 17   8  10  1   
 18   8  35  1   
 19   9  11  1   
 20   9  12  1   
 21   9  36  1   
 22  10  13  1   
 23  10  37  1   
 24  10  38  1   
 25  11  39  1   
 26  12  13  1   
 27  12  40  1   
 28  12  41  1   
 29  13  14  1   
 30  13  42  1   
 31  14  15  1   
 32  14  43  1   
 33  14  44  1   
 34  15  16  ar  
 35  15  17  ar  
 36  16  18  ar  
 37  16  45  1   
 38  17  19  ar  
 39  17  46  1   
 40  18  20  ar  
 41  19  20  ar  
 42  20  21  1   
 43  21  22  1   
 44  21  23  1   
 45  22  24  1   
 46  22  47  1   
 47  22  48  1   
 48  23  25  1   
 49  23  49  1   
 50  23  50  1   
 51  24  26  1   
 52  24  51  1   
 53  24  52  1   
 54  25  26  1   
 55  25  53  1   
 56  25  54  1   
 57  26  55  1   
 58  26  56  1   
@<TRIPOS>SUBSTRUCTURE
  1 ****  14 GROUP 4 **** **** 0

# MOE 2024.06 (io_trps.svl 2023.06)
