@<TRIPOS>MOLECULE
NONAME
44 45 1 0 0 
SMALL
USER_CHARGES


@<TRIPOS>ATOM
  1 S        0.0270    -0.1670    -0.9830 S.o2  1 <1>   1.3330 
  2 O       -0.8930    -1.2660    -0.7990 O.2   1 <1>  -0.6500 
  3 O        0.7840    -0.0640    -2.2110 O.2   1 <1>  -0.6500 
  4 N        1.1250    -0.1980     0.3130 N.am  1 <1>  -0.8490 
  5 C       -0.8540     1.3790    -0.7520 C.3   1 <1>  -0.0550 
  6 C        2.3580    -0.9210    -0.0100 C.3   1 <1>   0.1160 
  7 C        0.5480    -0.7200     1.5570 C.3   1 <1>   0.1160 
  8 C        0.0070     2.6430    -0.9700 C.3   1 <1>  -0.0800 
  9 C       -0.7900     3.9490    -0.9780 C.3   1 <1>   0.2000 
 10 C        1.0950     2.8710     0.0890 C.3   1 <1>   0.1400 
 11 O       -1.6810     3.9420     0.0850 O.3   1 <1>  -0.6800 
 12 C        0.2640     5.0180    -0.7020 C.3   1 <1>   0.1400 
 13 N        1.2290     4.3460     0.2050 N.am  1 <1>  -0.6600 
 14 C        2.3060     4.9450     0.8170 C.2   1 <1>   0.5440 
 15 O        3.1510     4.2360     1.3290 O.2   1 <1>  -0.5700 
 16 C        2.4580     6.3860     0.8520 C.ar  1 <1>   0.0860 
 17 C        3.5940     6.9910     0.3070 C.ar  1 <1>  -0.1500 
 18 C        1.4880     7.2080     1.4310 C.ar  1 <1>  -0.1500 
 19 C        3.7630     8.3670     0.3120 C.ar  1 <1>  -0.1440 
 20 C        1.6320     8.5830     1.4490 C.ar  1 <1>  -0.1500 
 21 C        2.7650     9.1400     0.8870 C.ar  1 <1>   0.1900 
 22 C        5.0080     9.0010    -0.2910 C.3   1 <1>  -0.0970 
 23 F        2.8880    10.4390     0.9060 F     1 <1>  -0.1900 
 24 H       -1.6650     1.4070    -1.4530 H     1 <1>   0.0800 
 25 H       -1.2850     1.3980     0.2300 H     1 <1>   0.0800 
 26 H        3.0340    -0.9000     0.8280 H     1 <1>   0.0800 
 27 H        2.8500    -0.4560    -0.8480 H     1 <1>   0.0800 
 28 H        2.1360    -1.9450    -0.2640 H     1 <1>   0.0800 
 29 H        1.2560    -0.6210     2.3620 H     1 <1>   0.0800 
 30 H        0.2890    -1.7600     1.4440 H     1 <1>   0.0800 
 31 H       -0.3400    -0.1700     1.8150 H     1 <1>   0.0800 
 32 H        0.5010     2.5590    -1.9240 H     1 <1>   0.0800 
 33 H       -1.3390     4.1160    -1.8890 H     1 <1>   0.0800 
 34 H        2.0300     2.4230    -0.2050 H     1 <1>   0.0800 
 35 H        0.8000     2.4730     1.0450 H     1 <1>   0.0800 
 36 H       -1.1680     3.9660     0.9180 H     1 <1>   0.4000 
 37 H       -0.1730     5.8970    -0.2610 H     1 <1>   0.0800 
 38 H        0.7680     5.2840    -1.6150 H     1 <1>   0.0800 
 39 H        4.3500     6.3550    -0.1210 H     1 <1>   0.1500 
 40 H        0.6180     6.7560     1.8750 H     1 <1>   0.1500 
 41 H        0.8860     9.2190     1.8910 H     1 <1>   0.1500 
 42 H        5.6730     8.2530    -0.6830 H     1 <1>   0.0800 
 43 H        5.5320     9.5650     0.4610 H     1 <1>   0.0800 
 44 H        4.7300     9.6660    -1.0890 H     1 <1>   0.0800 
@<TRIPOS>BOND
  1   1   2  2   
  2   1   3  2   
  3   1   4  am  
  4   1   5  1   
  5   4   6  1   
  6   4   7  1   
  7   5   8  1   
  8   5  24  1   
  9   5  25  1   
 10   6  26  1   
 11   6  27  1   
 12   6  28  1   
 13   7  29  1   
 14   7  30  1   
 15   7  31  1   
 16   8   9  1   
 17   8  10  1   
 18   8  32  1   
 19   9  11  1   
 20   9  12  1   
 21   9  33  1   
 22  10  13  1   
 23  10  34  1   
 24  10  35  1   
 25  11  36  1   
 26  12  13  1   
 27  12  37  1   
 28  12  38  1   
 29  13  14  am  
 30  14  15  2   
 31  14  16  1   
 32  16  17  ar  
 33  16  18  ar  
 34  17  19  ar  
 35  17  39  1   
 36  18  20  ar  
 37  18  40  1   
 38  19  21  ar  
 39  19  22  1   
 40  20  21  ar  
 41  20  41  1   
 42  21  23  1   
 43  22  42  1   
 44  22  43  1   
 45  22  44  1   
@<TRIPOS>SUBSTRUCTURE
  1 ****  13 GROUP 4 **** **** 0

# MOE 2024.06 (io_trps.svl 2023.06)
