@<TRIPOS>MOLECULE
NONAME
44 46 1 0 0 
SMALL
USER_CHARGES


@<TRIPOS>ATOM
  1 O       -1.6950     1.0110    -2.1900 O.2   1 <1>  -0.5700 
  2 C       -1.6770     1.6030    -1.1210 C.2   1 <1>   0.5440 
  3 N       -2.5430     1.1570    -0.1320 N.am  1 <1>  -0.6600 
  4 C       -0.7770     2.7520    -0.9640 C.ar  1 <1>   0.3960 
  5 C       -3.1770    -0.1930    -0.2450 C.3   1 <1>   0.1400 
  6 C       -2.8910     1.9790     1.0660 C.3   1 <1>   0.1400 
  7 N       -0.1510     2.9680     0.2070 N.ar  1 <1>  -0.6200 
  8 C       -0.5890     3.6000    -2.0570 C.ar  1 <1>  -0.1500 
  9 C       -4.5140    -0.1040    -0.9900 C.3   1 <1>   0.1400 
 10 C       -4.3760     1.9380     1.4570 C.3   1 <1>  -0.1600 
 11 C        0.6320     4.0210     0.2770 C.ar  1 <1>   0.4100 
 12 C        0.2360     4.7020    -1.9720 C.ar  1 <1>  -0.1500 
 13 N       -5.5790     0.4930    -0.1310 N.am  1 <1>  -0.6600 
 14 C       -5.3520     1.9060     0.2740 C.3   1 <1>   0.1400 
 15 N        1.2350     4.1820     1.4790 N.pl3 1 <1>  -0.9000 
 16 C        0.8570     4.9090    -0.7660 C.ar  1 <1>  -0.1500 
 17 C       -6.6220    -0.2500     0.4030 C.2   1 <1>   0.7160 
 18 O       -7.5720     0.3600     0.8710 O.2   1 <1>  -0.5700 
 19 C       -6.6230    -1.7130     0.4330 C.2   1 <1>   0.1410 
 20 N       -5.5110    -2.4680     0.7070 N.2   1 <1>  -0.5650 
 21 C       -7.6770    -2.5660     0.2310 C.2   1 <1>  -0.3320 
 22 C       -5.9140    -3.6910     0.6680 C.2   1 <1>   0.0360 
 23 N       -7.2230    -3.8170     0.3830 N.pl3 1 <1>   0.0330 
 24 C       -9.1300    -2.2640    -0.1030 C.3   1 <1>  -0.0600 
 25 H       -3.3230    -0.6280     0.7290 H     1 <1>   0.0800 
 26 H       -2.5210    -0.8450    -0.7940 H     1 <1>   0.0800 
 27 H       -2.6410     3.0060     0.8680 H     1 <1>   0.0800 
 28 H       -2.2900     1.6550     1.8980 H     1 <1>   0.0800 
 29 H       -1.0990     3.3840    -2.9790 H     1 <1>   0.1500 
 30 H       -4.8040    -1.0880    -1.3090 H     1 <1>   0.0800 
 31 H       -4.3880     0.4900    -1.8770 H     1 <1>   0.0800 
 32 H       -4.5780     2.8200     2.0360 H     1 <1>   0.0800 
 33 H       -4.5620     1.0990     2.1040 H     1 <1>   0.0800 
 34 H        0.3840     5.3620    -2.8100 H     1 <1>   0.1500 
 35 H       -4.9690     2.4730    -0.5560 H     1 <1>   0.0800 
 36 H       -6.2860     2.3510     0.5720 H     1 <1>   0.0800 
 37 H        2.1900     4.5400     1.4750 H     1 <1>   0.4000 
 38 H        1.1200     3.3680     2.0850 H     1 <1>   0.4000 
 39 H        1.5100     5.7470    -0.6160 H     1 <1>   0.1500 
 40 H       -5.2840    -4.5460     0.8440 H     1 <1>   0.1500 
 41 H       -7.7530    -4.6890     0.3080 H     1 <1>   0.2700 
 42 H       -9.2760    -1.2100    -0.2610 H     1 <1>   0.0800 
 43 H       -9.7670    -2.5740     0.7060 H     1 <1>   0.0800 
 44 H       -9.4230    -2.7820    -0.9990 H     1 <1>   0.0800 
@<TRIPOS>BOND
  1   1   2  2   
  2   2   3  am  
  3   2   4  1   
  4   3   5  1   
  5   3   6  1   
  6   4   7  ar  
  7   4   8  ar  
  8   5   9  1   
  9   5  25  1   
 10   5  26  1   
 11   6  10  1   
 12   6  27  1   
 13   6  28  1   
 14   7  11  ar  
 15   8  12  ar  
 16   8  29  1   
 17   9  13  1   
 18   9  30  1   
 19   9  31  1   
 20  10  14  1   
 21  10  32  1   
 22  10  33  1   
 23  11  15  1   
 24  11  16  ar  
 25  12  16  ar  
 26  12  34  1   
 27  13  14  1   
 28  13  17  am  
 29  14  35  1   
 30  14  36  1   
 31  15  37  1   
 32  15  38  1   
 33  16  39  1   
 34  17  18  2   
 35  17  19  1   
 36  19  20  1   
 37  19  21  2   
 38  20  22  2   
 39  21  23  1   
 40  21  24  1   
 41  22  23  1   
 42  22  40  1   
 43  23  41  1   
 44  24  42  1   
 45  24  43  1   
 46  24  44  1   
@<TRIPOS>SUBSTRUCTURE
  1 ****   3 GROUP 4 **** **** 0

# MOE 2024.06 (io_trps.svl 2023.06)
