@<TRIPOS>MOLECULE
NONAME
44 47 1 0 0 
SMALL
USER_CHARGES


@<TRIPOS>ATOM
  1 S        0.1570    -0.4160    -0.9980 S.3   1 <1>  -0.0800 
  2 C        0.9810     0.8980    -0.1700 C.2   1 <1>  -0.1400 
  3 C        0.6740    -1.5660     0.2200 C.2   1 <1>  -0.1100 
  4 C        1.5990     0.4440     0.9370 C.2   1 <1>  -0.1500 
  5 C        0.8890     2.2710    -0.7980 C.3   1 <1>   0.5230 
  6 C        1.4200    -0.9590     1.1600 C.2   1 <1>  -0.1500 
  7 N       -0.2360     3.0170    -0.1770 N.4   1 <1>  -0.9590 
  8 C       -1.5570     2.3550    -0.4530 C.3   1 <1>   0.5240 
  9 C       -0.2330     4.4770    -0.5430 C.3   1 <1>   0.3430 
 10 C       -2.6550     3.2160     0.1410 C.2   1 <1>  -0.1810 
 11 C       -1.2200     5.2870     0.3250 C.3   1 <1>   0.0200 
 12 C       -3.9830     2.8650     0.4430 C.2   1 <1>   0.2030 
 13 C       -2.5080     4.5040     0.4890 C.2   1 <1>  -0.3320 
 14 N       -4.5900     3.9200     0.9680 N.2   1 <1>  -0.7070 
 15 C       -4.5370     1.5250     0.2120 C.2   1 <1>   0.7160 
 16 N       -3.6880     4.9110     0.9920 N.pl3 1 <1>   0.3000 
 17 O       -3.7690     0.6460    -0.1530 O.2   1 <1>  -0.5700 
 18 N       -5.8670     1.1710     0.3770 N.am  1 <1>  -0.6600 
 19 C       -6.2890    -0.2540     0.5570 C.3   1 <1>   0.1400 
 20 C       -6.9980     2.1440     0.4970 C.3   1 <1>   0.1400 
 21 C       -7.5580    -0.5680    -0.2500 C.3   1 <1>   0.1200 
 22 C       -8.2410     1.6680    -0.2750 C.3   1 <1>   0.1200 
 23 O       -8.5680     0.3490     0.0530 O.3   1 <1>  -0.5600 
 24 H        0.3630    -2.5900     0.1010 H     1 <1>   0.1500 
 25 H        2.1870     1.0250     1.6290 H     1 <1>   0.1500 
 26 H        0.7490     2.1820    -1.8630 H     1 <1>   0.0800 
 27 H        1.8130     2.7960    -0.6170 H     1 <1>   0.0800 
 28 H        1.8590    -1.4460     2.0150 H     1 <1>   0.1500 
 29 H       -0.1260     2.9420     0.8410 H     1 <1>   0.4500 
 30 H       -1.5820     1.3770     0.0010 H     1 <1>   0.0800 
 31 H       -1.7170     2.2440    -1.5130 H     1 <1>   0.0800 
 32 H       -0.5200     4.5800    -1.5770 H     1 <1>   0.0800 
 33 H        0.7560     4.8900    -0.4270 H     1 <1>   0.0800 
 34 H       -1.4140     6.2340    -0.1490 H     1 <1>   0.0800 
 35 H       -0.7850     5.4800     1.2900 H     1 <1>   0.0800 
 36 H       -3.9120     5.8470     1.3600 H     1 <1>   0.2700 
 37 H       -6.4890    -0.4300     1.6000 H     1 <1>   0.0800 
 38 H       -5.5080    -0.9290     0.2540 H     1 <1>   0.0800 
 39 H       -6.7190     3.1020     0.1010 H     1 <1>   0.0800 
 40 H       -7.2490     2.2700     1.5360 H     1 <1>   0.0800 
 41 H       -7.9200    -1.5500    -0.0030 H     1 <1>   0.0800 
 42 H       -7.3560    -0.5290    -1.3070 H     1 <1>   0.0800 
 43 H       -8.0710     1.7260    -1.3360 H     1 <1>   0.0800 
 44 H       -9.0870     2.2860    -0.0300 H     1 <1>   0.0800 
@<TRIPOS>BOND
  1   1   2  1   
  2   1   3  1   
  3   2   4  2   
  4   2   5  1   
  5   3   6  2   
  6   3  24  1   
  7   4   6  1   
  8   4  25  1   
  9   5   7  1   
 10   5  26  1   
 11   5  27  1   
 12   6  28  1   
 13   7   8  1   
 14   7   9  1   
 15   7  29  1   
 16   8  10  1   
 17   8  30  1   
 18   8  31  1   
 19   9  11  1   
 20   9  32  1   
 21   9  33  1   
 22  10  12  1   
 23  10  13  2   
 24  11  13  1   
 25  11  34  1   
 26  11  35  1   
 27  12  14  2   
 28  12  15  1   
 29  13  16  1   
 30  14  16  1   
 31  15  17  2   
 32  15  18  am  
 33  16  36  1   
 34  18  19  1   
 35  18  20  1   
 36  19  21  1   
 37  19  37  1   
 38  19  38  1   
 39  20  22  1   
 40  20  39  1   
 41  20  40  1   
 42  21  23  1   
 43  21  41  1   
 44  21  42  1   
 45  22  23  1   
 46  22  43  1   
 47  22  44  1   
@<TRIPOS>SUBSTRUCTURE
  1 ****  10 GROUP 4 **** **** 0

# MOE 2024.06 (io_trps.svl 2023.06)
