@<TRIPOS>MOLECULE
NONAME
64 67 1 0 0 
SMALL
USER_CHARGES


@<TRIPOS>ATOM
  1 O       -0.1010    -1.2150    -0.5740 O.3   1 <1>  -0.5600 
  2 C        0.8090    -2.1930    -0.1630 C.3   1 <1>   0.4180 
  3 C       -0.6660    -1.3450    -1.8500 C.3   1 <1>   0.1200 
  4 C        0.3270    -3.5860    -0.5720 C.2   1 <1>  -0.2880 
  5 C        0.8580    -2.0670     1.3580 C.3   1 <1>  -0.1600 
  6 C        2.1730    -1.8700    -0.7750 C.3   1 <1>  -0.1600 
  7 C       -1.4980    -2.6310    -1.9440 C.3   1 <1>  -0.0220 
  8 C       -0.7230    -3.8020    -1.3660 C.2   1 <1>  -0.2760 
  9 C        1.9780    -2.9060     1.9570 C.3   1 <1>   0.3430 
 10 C        3.2720    -2.7160    -0.1450 C.3   1 <1>   0.3430 
 11 C       -1.2430    -5.1750    -1.7560 C.3   1 <1>  -0.1020 
 12 N        3.2770    -2.5260     1.3370 N.4   1 <1>  -0.9590 
 13 C        4.4110    -3.2640     1.9600 C.3   1 <1>   0.4860 
 14 C        5.7120    -2.6210     1.5240 C.ar  1 <1>  -0.1430 
 15 C        6.4470    -3.1790     0.4840 C.ar  1 <1>   0.0820 
 16 C        6.1620    -1.4760     2.1650 C.ar  1 <1>  -0.1500 
 17 O        5.9260    -4.3200    -0.0590 O.3   1 <1>  -0.3620 
 18 C        7.6320    -2.5550     0.0540 C.ar  1 <1>   0.0820 
 19 C        7.3380    -0.8760     1.7610 C.ar  1 <1>  -0.1500 
 20 C        6.7700    -5.3380    -0.5560 C.3   1 <1>   0.1200 
 21 O        8.3190    -3.0650    -1.0080 O.3   1 <1>  -0.3630 
 22 C        8.0670    -1.4080     0.7130 C.ar  1 <1>  -0.1500 
 23 C        6.0060    -6.6600    -0.5140 C.3   1 <1>  -0.1600 
 24 C        9.4890    -2.4550    -1.5140 C.3   1 <1>   0.0400 
 25 C        6.8710    -7.8070    -1.0510 C.3   1 <1>   0.0960 
 26 N        6.1330    -9.0820    -0.9710 N.pl3 1 <1>   0.0480 
 27 C        5.3620    -9.6580    -1.9210 C.2   1 <1>   0.0360 
 28 C        6.0730    -9.9270     0.0740 C.2   1 <1>  -0.3020 
 29 N        4.8290   -10.7790    -1.5590 N.2   1 <1>  -0.5650 
 30 C        5.2780   -10.9520    -0.3020 C.2   1 <1>   0.0770 
 31 H        0.1240    -1.3520    -2.5800 H     1 <1>   0.0800 
 32 H       -1.2890    -0.4850    -2.0250 H     1 <1>   0.0800 
 33 H        0.9020    -4.3940    -0.1610 H     1 <1>   0.1500 
 34 H       -0.0830    -2.3930     1.7650 H     1 <1>   0.0800 
 35 H        1.0000    -1.0380     1.6340 H     1 <1>   0.0800 
 36 H        2.4010    -0.8290    -0.6350 H     1 <1>   0.0800 
 37 H        2.1530    -2.0730    -1.8300 H     1 <1>   0.0800 
 38 H       -1.7330    -2.8110    -2.9780 H     1 <1>   0.0800 
 39 H       -2.4220    -2.5050    -1.4090 H     1 <1>   0.0800 
 40 H        1.7790    -3.9510     1.7800 H     1 <1>   0.0800 
 41 H        2.0130    -2.7440     3.0220 H     1 <1>   0.0800 
 42 H        4.2250    -2.4250    -0.5600 H     1 <1>   0.0800 
 43 H        3.1120    -3.7560    -0.3820 H     1 <1>   0.0800 
 44 H       -2.2640    -5.2880    -1.4350 H     1 <1>   0.0800 
 45 H       -0.6560    -5.9500    -1.2980 H     1 <1>   0.0800 
 46 H       -1.2000    -5.3010    -2.8230 H     1 <1>   0.0800 
 47 H        3.4500    -1.5270     1.5100 H     1 <1>   0.4500 
 48 H        4.3900    -4.3010     1.6650 H     1 <1>   0.0800 
 49 H        4.3390    -3.2160     3.0340 H     1 <1>   0.0800 
 50 H        5.6120    -1.0420     2.9830 H     1 <1>   0.1500 
 51 H        7.6920     0.0110     2.2620 H     1 <1>   0.1500 
 52 H        7.6530    -5.3860     0.0600 H     1 <1>   0.0800 
 53 H        7.0410    -5.0860    -1.5670 H     1 <1>   0.0800 
 54 H        8.9720    -0.9050     0.4290 H     1 <1>   0.1500 
 55 H        5.1180    -6.5750    -1.1170 H     1 <1>   0.0800 
 56 H        5.7290    -6.8740     0.5030 H     1 <1>   0.0800 
 57 H        9.8310    -3.0310    -2.3540 H     1 <1>   0.0800 
 58 H       10.2430    -2.4510    -0.7460 H     1 <1>   0.0800 
 59 H        9.2560    -1.4540    -1.8310 H     1 <1>   0.0800 
 60 H        7.7730    -7.8990    -0.4730 H     1 <1>   0.0800 
 61 H        7.1380    -7.6270    -2.0770 H     1 <1>   0.0800 
 62 H        5.2150    -9.2090    -2.8880 H     1 <1>   0.1500 
 63 H        6.5860    -9.7640     1.0040 H     1 <1>   0.1500 
 64 H        5.0000   -11.8200     0.2740 H     1 <1>   0.1500 
@<TRIPOS>BOND
  1   1   2  1   
  2   1   3  1   
  3   2   4  1   
  4   2   5  1   
  5   2   6  1   
  6   3   7  1   
  7   3  31  1   
  8   3  32  1   
  9   4   8  2   
 10   4  33  1   
 11   5   9  1   
 12   5  34  1   
 13   5  35  1   
 14   6  10  1   
 15   6  36  1   
 16   6  37  1   
 17   7   8  1   
 18   7  38  1   
 19   7  39  1   
 20   8  11  1   
 21   9  12  1   
 22   9  40  1   
 23   9  41  1   
 24  10  12  1   
 25  10  42  1   
 26  10  43  1   
 27  11  44  1   
 28  11  45  1   
 29  11  46  1   
 30  12  13  1   
 31  12  47  1   
 32  13  14  1   
 33  13  48  1   
 34  13  49  1   
 35  14  15  ar  
 36  14  16  ar  
 37  15  17  1   
 38  15  18  ar  
 39  16  19  ar  
 40  16  50  1   
 41  17  20  1   
 42  18  21  1   
 43  18  22  ar  
 44  19  22  ar  
 45  19  51  1   
 46  20  23  1   
 47  20  52  1   
 48  20  53  1   
 49  21  24  1   
 50  22  54  1   
 51  23  25  1   
 52  23  55  1   
 53  23  56  1   
 54  24  57  1   
 55  24  58  1   
 56  24  59  1   
 57  25  26  1   
 58  25  60  1   
 59  25  61  1   
 60  26  27  1   
 61  26  28  1   
 62  27  29  2   
 63  27  62  1   
 64  28  30  2   
 65  28  63  1   
 66  29  30  1   
 67  30  64  1   
@<TRIPOS>SUBSTRUCTURE
  1 ****  17 GROUP 4 **** **** 0

# MOE 2024.06 (io_trps.svl 2023.06)
