@<TRIPOS>MOLECULE
NONAME
50 52 1 0 0 
SMALL
USER_CHARGES


@<TRIPOS>ATOM
  1 S       -0.5980     0.4460     0.7710 S.3   1 <1>  -0.0800 
  2 C       -0.3950     1.6480    -0.4830 C.2   1 <1>   0.4620 
  3 C       -1.9190    -0.2700    -0.1320 C.2   1 <1>  -0.0450 
  4 N       -1.2120     1.5300    -1.4630 N.2   1 <1>  -0.5650 
  5 N        0.5650     2.5840    -0.3460 N.pl3 1 <1>  -0.8840 
  6 C       -2.6050    -1.4170     0.3930 C.2   1 <1>   0.7150 
  7 C       -2.0450     0.4610    -1.2640 C.2   1 <1>   0.0770 
  8 O       -2.0240    -2.1910     1.1350 O.2   1 <1>  -0.5700 
  9 N       -3.9250    -1.6820     0.0830 N.am  1 <1>  -0.6600 
 10 C       -4.4710    -3.0620     0.2550 C.3   1 <1>   0.1400 
 11 C       -4.9420    -0.5980    -0.0320 C.3   1 <1>   0.1400 
 12 C       -5.3030    -3.2010     1.5390 C.3   1 <1>   0.1400 
 13 C       -5.4610    -0.2300     1.3630 C.3   1 <1>  -0.1600 
 14 N       -6.6170    -2.4980     1.4030 N.am  1 <1>  -0.6600 
 15 C       -6.6490    -1.0720     1.8520 C.3   1 <1>   0.1400 
 16 C       -7.7670    -3.1050     0.9550 C.2   1 <1>   0.5690 
 17 O       -8.8130    -2.5030     0.8900 O.2   1 <1>  -0.5700 
 18 C       -7.7500    -4.5730     0.5310 C.3   1 <1>  -0.0990 
 19 C       -9.0330    -5.0470    -0.1810 C.3   1 <1>  -0.1600 
 20 C       -8.9370    -6.5050    -0.6590 C.3   1 <1>  -0.0800 
 21 C      -10.1950    -6.9600    -1.3930 C.3   1 <1>  -0.1600 
 22 C       -8.7960    -7.5270     0.4680 C.3   1 <1>  -0.1600 
 23 C      -10.1450    -8.4870    -1.3440 C.3   1 <1>  -0.1600 
 24 C       -9.2980    -8.8490    -0.1190 C.3   1 <1>  -0.1600 
 25 H        0.7100     3.2790    -1.0790 H     1 <1>   0.4000 
 26 H        1.2080     2.6080     0.4450 H     1 <1>   0.4000 
 27 H       -2.7670     0.2480    -2.0340 H     1 <1>   0.1500 
 28 H       -3.6570    -3.7660     0.2950 H     1 <1>   0.0800 
 29 H       -5.0720    -3.3160    -0.6000 H     1 <1>   0.0800 
 30 H       -5.7540    -0.9150    -0.6660 H     1 <1>   0.0800 
 31 H       -4.5040     0.2750    -0.4780 H     1 <1>   0.0800 
 32 H       -4.7500    -2.8030     2.3720 H     1 <1>   0.0800 
 33 H       -5.4660    -4.2440     1.7390 H     1 <1>   0.0800 
 34 H       -5.7870     0.7940     1.3430 H     1 <1>   0.0800 
 35 H       -4.6600    -0.2800     2.0790 H     1 <1>   0.0800 
 36 H       -7.5510    -0.6070     1.4900 H     1 <1>   0.0800 
 37 H       -6.6890    -1.0460     2.9270 H     1 <1>   0.0800 
 38 H       -7.6000    -5.1650     1.4140 H     1 <1>   0.0800 
 39 H       -6.9210    -4.7310    -0.1310 H     1 <1>   0.0800 
 40 H       -9.2130    -4.4120    -1.0320 H     1 <1>   0.0800 
 41 H       -9.8700    -4.9370     0.4870 H     1 <1>   0.0800 
 42 H       -8.1000    -6.6130    -1.3300 H     1 <1>   0.0800 
 43 H      -10.2300    -6.5890    -2.4020 H     1 <1>   0.0800 
 44 H      -11.0690    -6.6190    -0.8620 H     1 <1>   0.0800 
 45 H       -9.4310    -7.2470     1.2920 H     1 <1>   0.0800 
 46 H       -7.7820    -7.6070     0.8170 H     1 <1>   0.0800 
 47 H       -9.6670    -8.8610    -2.2340 H     1 <1>   0.0800 
 48 H      -11.1350    -8.9040    -1.2790 H     1 <1>   0.0800 
 49 H       -9.8770    -9.3910     0.6080 H     1 <1>   0.0800 
 50 H       -8.4640    -9.4580    -0.4240 H     1 <1>   0.0800 
@<TRIPOS>BOND
  1   1   2  1   
  2   1   3  1   
  3   2   4  2   
  4   2   5  1   
  5   3   6  1   
  6   3   7  2   
  7   4   7  1   
  8   5  25  1   
  9   5  26  1   
 10   6   8  2   
 11   6   9  am  
 12   7  27  1   
 13   9  10  1   
 14   9  11  1   
 15  10  12  1   
 16  10  28  1   
 17  10  29  1   
 18  11  13  1   
 19  11  30  1   
 20  11  31  1   
 21  12  14  1   
 22  12  32  1   
 23  12  33  1   
 24  13  15  1   
 25  13  34  1   
 26  13  35  1   
 27  14  15  1   
 28  14  16  am  
 29  15  36  1   
 30  15  37  1   
 31  16  17  2   
 32  16  18  1   
 33  18  19  1   
 34  18  38  1   
 35  18  39  1   
 36  19  20  1   
 37  19  40  1   
 38  19  41  1   
 39  20  21  1   
 40  20  22  1   
 41  20  42  1   
 42  21  23  1   
 43  21  43  1   
 44  21  44  1   
 45  22  24  1   
 46  22  45  1   
 47  22  46  1   
 48  23  24  1   
 49  23  47  1   
 50  23  48  1   
 51  24  49  1   
 52  24  50  1   
@<TRIPOS>SUBSTRUCTURE
  1 ****  10 GROUP 4 **** **** 0

# MOE 2024.06 (io_trps.svl 2023.06)
