@<TRIPOS>MOLECULE
NONAME
55 58 1 0 0 
SMALL
USER_CHARGES


@<TRIPOS>ATOM
  1 O        0.9940    -0.4970    -1.4760 O.2   1 <1>  -0.5700 
  2 C        1.5840    -0.9360    -0.5060 C.2   1 <1>   0.5440 
  3 N        2.2100    -0.0540     0.3560 N.am  1 <1>  -0.6600 
  4 C        1.6390    -2.3620    -0.3040 C.ar  1 <1>   0.0860 
  5 C        3.4100    -0.4500     1.1570 C.3   1 <1>   0.1400 
  6 C        1.9430     1.4120     0.2860 C.3   1 <1>   0.1400 
  7 C        1.2530    -2.9340     0.9050 C.ar  1 <1>   0.1600 
  8 C        2.0750    -3.2310    -1.2970 C.ar  1 <1>  -0.1500 
  9 C        4.6530    -0.5940     0.2660 C.3   1 <1>   0.1400 
 10 C        3.1810     2.2260    -0.1160 C.3   1 <1>  -0.1600 
 11 N        1.3010    -4.2180     1.2090 N.ar  1 <1>  -0.6200 
 12 C        2.1230    -4.5720    -1.0030 C.ar  1 <1>  -0.1500 
 13 N        5.1480     0.7130    -0.2850 N.am  1 <1>  -0.6600 
 14 C        4.1440     1.4990    -1.0650 C.3   1 <1>   0.1400 
 15 C        1.7440    -5.0350     0.2560 C.ar  1 <1>   0.4100 
 16 C        6.4880     1.0300    -0.1890 C.2   1 <1>   0.5690 
 17 N        1.8170    -6.3790     0.5590 N.pl3 1 <1>  -0.8380 
 18 O        7.2750     0.2350     0.2720 O.2   1 <1>  -0.5700 
 19 C        7.0380     2.3630    -0.7240 C.3   1 <1>  -0.0190 
 20 C        0.9270    -6.9660     1.5980 C.3   1 <1>   0.1290 
 21 C        3.0470    -7.1620     0.2670 C.3   1 <1>   0.1290 
 22 C        8.5490     2.6010    -0.4940 C.3   1 <1>   0.0580 
 23 C        6.4090     3.6610    -0.1250 C.3   1 <1>  -0.1600 
 24 C        8.7990     2.6920     1.0020 C.2   1 <1>  -0.2880 
 25 C        8.6310     4.0910    -0.8200 C.3   1 <1>  -0.1600 
 26 C        7.6320     4.5200     0.2500 C.3   1 <1>   0.0580 
 27 C        8.2620     3.8270     1.4390 C.2   1 <1>  -0.2880 
 28 H        3.6030     0.2770     1.9260 H     1 <1>   0.0800 
 29 H        3.2280    -1.3890     1.6480 H     1 <1>   0.0800 
 30 H        1.1590     1.6040    -0.4270 H     1 <1>   0.0800 
 31 H        1.5860     1.7490     1.2440 H     1 <1>   0.0800 
 32 H        0.8830    -2.2740     1.6700 H     1 <1>   0.1500 
 33 H        2.3580    -2.8500    -2.2630 H     1 <1>   0.1500 
 34 H        4.4410    -1.2620    -0.5500 H     1 <1>   0.0800 
 35 H        5.4220    -1.0560     0.8600 H     1 <1>   0.0800 
 36 H        2.8330     3.1200    -0.6000 H     1 <1>   0.0800 
 37 H        3.7060     2.5360     0.7690 H     1 <1>   0.0800 
 38 H        2.4430    -5.2820    -1.7410 H     1 <1>   0.1500 
 39 H        4.6390     2.2220    -1.6860 H     1 <1>   0.0800 
 40 H        3.5980     0.8450    -1.7240 H     1 <1>   0.0800 
 41 H        6.8810     2.3580    -1.7870 H     1 <1>   0.0800 
 42 H        0.7450    -8.0050     1.3840 H     1 <1>   0.0800 
 43 H       -0.0170    -6.4470     1.6100 H     1 <1>   0.0800 
 44 H        1.3870    -6.8720     2.5660 H     1 <1>   0.0800 
 45 H        2.8030    -7.9930    -0.3710 H     1 <1>   0.0800 
 46 H        3.4700    -7.5330     1.1850 H     1 <1>   0.0800 
 47 H        3.7820    -6.5470    -0.2210 H     1 <1>   0.0800 
 48 H        9.2270     1.9710    -1.0440 H     1 <1>   0.0800 
 49 H        5.8010     4.1640    -0.8540 H     1 <1>   0.0800 
 50 H        5.8260     3.4520     0.7550 H     1 <1>   0.0800 
 51 H        9.3110     1.8970     1.5180 H     1 <1>   0.1500 
 52 H        9.6140     4.4910    -0.6400 H     1 <1>   0.0800 
 53 H        8.3100     4.3300    -1.8200 H     1 <1>   0.0800 
 54 H        7.4810     5.5810     0.3530 H     1 <1>   0.0800 
 55 H        8.2040     4.2500     2.4270 H     1 <1>   0.1500 
@<TRIPOS>BOND
  1   1   2  2   
  2   2   3  am  
  3   2   4  1   
  4   3   5  1   
  5   3   6  1   
  6   4   7  ar  
  7   4   8  ar  
  8   5   9  1   
  9   5  28  1   
 10   5  29  1   
 11   6  10  1   
 12   6  30  1   
 13   6  31  1   
 14   7  11  ar  
 15   7  32  1   
 16   8  12  ar  
 17   8  33  1   
 18   9  13  1   
 19   9  34  1   
 20   9  35  1   
 21  10  14  1   
 22  10  36  1   
 23  10  37  1   
 24  11  15  ar  
 25  12  15  ar  
 26  12  38  1   
 27  13  14  1   
 28  13  16  am  
 29  14  39  1   
 30  14  40  1   
 31  15  17  1   
 32  16  18  2   
 33  16  19  1   
 34  17  20  1   
 35  17  21  1   
 36  19  22  1   
 37  19  23  1   
 38  19  41  1   
 39  20  42  1   
 40  20  43  1   
 41  20  44  1   
 42  21  45  1   
 43  21  46  1   
 44  21  47  1   
 45  22  24  1   
 46  22  25  1   
 47  22  48  1   
 48  23  26  1   
 49  23  49  1   
 50  23  50  1   
 51  24  27  2   
 52  24  51  1   
 53  25  26  1   
 54  25  52  1   
 55  25  53  1   
 56  26  27  1   
 57  26  54  1   
 58  27  55  1   
@<TRIPOS>SUBSTRUCTURE
  1 ****   9 GROUP 4 **** **** 0

# MOE 2024.06 (io_trps.svl 2023.06)
