@<TRIPOS>MOLECULE
NONAME
51 53 1 0 0 
SMALL
USER_CHARGES


@<TRIPOS>ATOM
  1 S        1.3290     0.4610    -0.7090 S.3   1 <1>  -0.0800 
  2 C        1.2810     2.0040     0.0750 C.2   1 <1>   0.4420 
  3 C        0.4420    -0.1690     0.6390 C.2   1 <1>   0.1980 
  4 N        0.6740     1.9590     1.2040 N.2   1 <1>  -0.3380 
  5 N        1.9010     3.0470    -0.5810 N.am  1 <1>  -0.4940 
  6 N        0.1960     0.7170     1.5190 N.2   1 <1>  -0.3380 
  7 C        0.0770    -1.6430     0.6480 C.3   1 <1>   0.3000 
  8 C        1.9470     4.3700    -0.2340 C.2   1 <1>   0.5690 
  9 O       -0.4560    -2.0230    -0.5880 O.3   1 <1>  -0.5600 
 10 O        1.3020     4.8420     0.6680 O.2   1 <1>  -0.5700 
 11 C        2.8760     5.3020    -1.0290 C.3   1 <1>   0.1710 
 12 C       -0.8740    -3.3490    -0.6460 C.3   1 <1>   0.0400 
 13 N        4.1490     5.7010    -0.3410 N.3   1 <1>  -0.8100 
 14 C        3.8220     6.5130     0.8720 C.3   1 <1>   0.1100 
 15 C        4.9740     4.5230    -0.0040 C.3   1 <1>   0.1100 
 16 C        5.0390     7.2240     1.4940 C.3   1 <1>   0.3430 
 17 C        6.4650     4.8480    -0.1620 C.3   1 <1>  -0.1600 
 18 N        6.1780     7.1800     0.5330 N.4   1 <1>  -0.9590 
 19 C        7.0000     5.9670     0.7330 C.3   1 <1>   0.3430 
 20 C        6.9530     8.4430     0.4340 C.3   1 <1>   0.4860 
 21 C        6.0130     9.5740     0.0580 C.ar  1 <1>  -0.1440 
 22 C        5.3560     9.6090    -1.1580 C.ar  1 <1>  -0.1500 
 23 C        5.7620    10.6250     0.9210 C.ar  1 <1>  -0.1500 
 24 C        4.4940    10.6560    -1.4380 C.ar  1 <1>   0.1600 
 25 C        4.8820    11.6240     0.5410 C.ar  1 <1>   0.1600 
 26 N        4.2410    11.6570    -0.6130 N.ar  1 <1>  -0.6200 
 27 H        2.3710     2.7770    -1.4390 H     1 <1>   0.3700 
 28 H       -0.6570    -1.8260     1.4130 H     1 <1>   0.0800 
 29 H        0.9560    -2.2330     0.8390 H     1 <1>   0.0800 
 30 H        2.3180     6.1910    -1.2660 H     1 <1>   0.0800 
 31 H        3.1220     4.8340    -1.9660 H     1 <1>   0.0800 
 32 H       -1.2590    -3.5350    -1.6340 H     1 <1>   0.0800 
 33 H       -1.6530    -3.5100     0.0800 H     1 <1>   0.0800 
 34 H       -0.0360    -3.9980    -0.4570 H     1 <1>   0.0800 
 35 H        3.3540     5.9020     1.6270 H     1 <1>   0.0800 
 36 H        3.1080     7.2730     0.6020 H     1 <1>   0.0800 
 37 H        4.7490     3.7140    -0.6800 H     1 <1>   0.0800 
 38 H        4.7570     4.1780     0.9950 H     1 <1>   0.0800 
 39 H        5.3080     6.7450     2.4200 H     1 <1>   0.0800 
 40 H        4.7610     8.2410     1.7170 H     1 <1>   0.0800 
 41 H        6.6630     5.0900    -1.1920 H     1 <1>   0.0800 
 42 H        7.0250     3.9560     0.0560 H     1 <1>   0.0800 
 43 H        5.6780     7.0150    -0.3610 H     1 <1>   0.4500 
 44 H        8.0260     6.1650     0.4680 H     1 <1>   0.0800 
 45 H        6.9690     5.6630     1.7670 H     1 <1>   0.0800 
 46 H        7.7160     8.3490    -0.3220 H     1 <1>   0.0800 
 47 H        7.4300     8.6600     1.3760 H     1 <1>   0.0800 
 48 H        5.4970     8.8410    -1.8970 H     1 <1>   0.1500 
 49 H        6.2360    10.6890     1.8840 H     1 <1>   0.1500 
 50 H        3.9870    10.6740    -2.3890 H     1 <1>   0.1500 
 51 H        4.6940    12.4400     1.2210 H     1 <1>   0.1500 
@<TRIPOS>BOND
  1   1   2  1   
  2   1   3  1   
  3   2   4  2   
  4   2   5  1   
  5   3   6  2   
  6   3   7  1   
  7   4   6  1   
  8   5   8  am  
  9   5  27  1   
 10   7   9  1   
 11   7  28  1   
 12   7  29  1   
 13   8  10  2   
 14   8  11  1   
 15   9  12  1   
 16  11  13  1   
 17  11  30  1   
 18  11  31  1   
 19  12  32  1   
 20  12  33  1   
 21  12  34  1   
 22  13  14  1   
 23  13  15  1   
 24  14  16  1   
 25  14  35  1   
 26  14  36  1   
 27  15  17  1   
 28  15  37  1   
 29  15  38  1   
 30  16  18  1   
 31  16  39  1   
 32  16  40  1   
 33  17  19  1   
 34  17  41  1   
 35  17  42  1   
 36  18  19  1   
 37  18  20  1   
 38  18  43  1   
 39  19  44  1   
 40  19  45  1   
 41  20  21  1   
 42  20  46  1   
 43  20  47  1   
 44  21  22  ar  
 45  21  23  ar  
 46  22  24  ar  
 47  22  48  1   
 48  23  25  ar  
 49  23  49  1   
 50  24  26  ar  
 51  24  50  1   
 52  25  26  ar  
 53  25  51  1   
@<TRIPOS>SUBSTRUCTURE
  1 ****  13 GROUP 4 **** **** 0

# MOE 2024.06 (io_trps.svl 2023.06)
