@<TRIPOS>MOLECULE
NONAME
44 46 1 0 0 
SMALL
USER_CHARGES


@<TRIPOS>ATOM
  1 S       -0.3130     0.0110     1.0800 S.3   1 <1>  -0.2030 
  2 C       -0.3850    -1.5290     0.1880 C.ar  1 <1>   0.4620 
  3 C        1.3000     0.7030     0.7000 C.ar  1 <1>   0.1020 
  4 N        0.7530    -1.9950    -0.3550 N.ar  1 <1>  -0.1790 
  5 C       -1.5300    -2.2370     0.0610 C.ar  1 <1>  -0.1500 
  6 C        1.6110     1.0220    -0.6160 C.ar  1 <1>  -0.1500 
  7 C        2.2070     0.8850     1.7330 C.ar  1 <1>  -0.1500 
  8 C        0.7380    -3.1600    -1.0160 C.ar  1 <1>   0.7710 
  9 C       -1.4840    -3.4410    -0.6610 C.ar  1 <1>   0.4100 
 10 C        2.8740     1.5090    -0.9080 C.ar  1 <1>  -0.1500 
 11 C        3.4700     1.3730     1.4420 C.ar  1 <1>  -0.1500 
 12 N       -0.3470    -3.8830    -1.1780 N.ar  1 <1>  -0.6200 
 13 N        1.8570    -3.6400    -1.5500 N.pl3 1 <1>  -0.9000 
 14 N       -2.5980    -4.1960    -0.8530 N.pl3 1 <1>  -0.8380 
 15 C        3.7800     1.6700     0.1260 C.ar  1 <1>   0.1900 
 16 C       -2.5350    -5.6720    -1.1400 C.3   1 <1>   0.2090 
 17 C       -3.9930    -3.6690    -0.9000 C.3   1 <1>   0.2090 
 18 F        4.9730     2.1170    -0.1530 F     1 <1>  -0.1900 
 19 C       -3.4060    -6.4490    -0.1380 C.3   1 <1>   0.2000 
 20 C       -4.8410    -4.3880     0.1530 C.3   1 <1>  -0.1600 
 21 O       -3.4260    -7.7930    -0.4860 O.3   1 <1>  -0.6800 
 22 C       -4.8520    -5.9180    -0.0710 C.3   1 <1>  -0.0800 
 23 C       -5.6450    -6.6610     1.0170 C.3   1 <1>   0.1200 
 24 O       -6.9500    -6.1960     1.0470 O.3   1 <1>  -0.6800 
 25 H        1.6250    -1.4870    -0.2590 H     1 <1>   0.4570 
 26 H       -2.4450    -1.9000     0.5060 H     1 <1>   0.1500 
 27 H        0.8810     0.9160    -1.4010 H     1 <1>   0.1500 
 28 H        1.9350     0.6530     2.7490 H     1 <1>   0.1500 
 29 H        3.1580     1.7730    -1.9130 H     1 <1>   0.1500 
 30 H        4.2040     1.5290     2.2150 H     1 <1>   0.1500 
 31 H        2.8000    -3.2480    -1.5360 H     1 <1>   0.4000 
 32 H        1.7940    -4.5350    -2.0490 H     1 <1>   0.4000 
 33 H       -2.8870    -5.8450    -2.1420 H     1 <1>   0.0800 
 34 H       -1.5260    -6.0370    -1.0640 H     1 <1>   0.0800 
 35 H       -4.0210    -2.6070    -0.7370 H     1 <1>   0.0800 
 36 H       -4.4030    -3.8540    -1.8790 H     1 <1>   0.0800 
 37 H       -2.9460    -6.3830     0.8330 H     1 <1>   0.0800 
 38 H       -4.4560    -4.1590     1.1310 H     1 <1>   0.0800 
 39 H       -5.8440    -4.0050     0.0930 H     1 <1>   0.0800 
 40 H       -3.9560    -7.9360    -1.2950 H     1 <1>   0.4000 
 41 H       -5.3210    -6.1120    -1.0200 H     1 <1>   0.0800 
 42 H       -5.2090    -6.5170     1.9910 H     1 <1>   0.0800 
 43 H       -5.6830    -7.7170     0.8060 H     1 <1>   0.0800 
 44 H       -6.9880    -5.2950     1.4220 H     1 <1>   0.4000 
@<TRIPOS>BOND
  1   1   2  1   
  2   1   3  1   
  3   2   4  ar  
  4   2   5  ar  
  5   3   6  ar  
  6   3   7  ar  
  7   4   8  ar  
  8   4  25  1   
  9   5   9  ar  
 10   5  26  1   
 11   6  10  ar  
 12   6  27  1   
 13   7  11  ar  
 14   7  28  1   
 15   8  12  ar  
 16   8  13  1   
 17   9  12  ar  
 18   9  14  1   
 19  10  15  ar  
 20  10  29  1   
 21  11  15  ar  
 22  11  30  1   
 23  13  31  1   
 24  13  32  1   
 25  14  16  1   
 26  14  17  1   
 27  15  18  1   
 28  16  19  1   
 29  16  33  1   
 30  16  34  1   
 31  17  20  1   
 32  17  35  1   
 33  17  36  1   
 34  19  21  1   
 35  19  22  1   
 36  19  37  1   
 37  20  22  1   
 38  20  38  1   
 39  20  39  1   
 40  21  40  1   
 41  22  23  1   
 42  22  41  1   
 43  23  24  1   
 44  23  42  1   
 45  23  43  1   
 46  24  44  1   
@<TRIPOS>SUBSTRUCTURE
  1 ****   5 GROUP 4 **** **** 0

# MOE 2024.06 (io_trps.svl 2023.06)
