@<TRIPOS>MOLECULE
NONAME
52 54 1 0 0 
SMALL
USER_CHARGES


@<TRIPOS>ATOM
  1 F       -0.1600    -3.9100    -3.8910 F     1 <1>  -0.1900 
  2 C       -0.2190    -4.0940    -2.5990 C.ar  1 <1>   0.1900 
  3 C       -1.4580    -4.1460    -1.9890 C.ar  1 <1>  -0.1500 
  4 C        0.9600    -4.2280    -1.8920 C.ar  1 <1>  -0.1500 
  5 C       -1.5230    -4.3400    -0.6170 C.ar  1 <1>  -0.1440 
  6 C        0.8900    -4.4240    -0.5230 C.ar  1 <1>  -0.1500 
  7 C       -0.3450    -4.4790     0.1070 C.ar  1 <1>  -0.1500 
  8 C       -2.8730    -4.4010     0.0790 C.3   1 <1>   0.2640 
  9 O       -3.4960    -5.6190    -0.2690 O.3   1 <1>  -0.3630 
 10 C       -4.5030    -6.1530     0.4740 C.ar  1 <1>   0.0830 
 11 C       -5.4140    -5.4380     1.2700 C.ar  1 <1>   0.0830 
 12 C       -4.5980    -7.5310     0.3940 C.ar  1 <1>  -0.1500 
 13 O       -5.3450    -4.0770     1.3250 O.3   1 <1>  -0.3620 
 14 C       -6.3850    -6.1470     1.9760 C.ar  1 <1>  -0.1500 
 15 C       -5.5760    -8.2270     1.0860 C.ar  1 <1>  -0.1430 
 16 C       -6.2660    -3.3000     2.0610 C.3   1 <1>   0.0400 
 17 C       -6.4650    -7.5260     1.8840 C.ar  1 <1>  -0.1500 
 18 C       -5.6650    -9.7360     0.9540 C.3   1 <1>   0.4860 
 19 N       -6.1420   -10.0590    -0.4130 N.4   1 <1>  -0.9590 
 20 C       -5.9490   -11.5250    -0.6890 C.3   1 <1>   0.3430 
 21 C       -7.5510    -9.5680    -0.6120 C.3   1 <1>   0.3430 
 22 C       -7.2200   -12.2890    -0.3800 C.3   1 <1>  -0.1860 
 23 C       -8.2450   -10.3640    -1.7100 C.3   1 <1>  -0.1600 
 24 C       -6.9740   -13.7490    -0.5820 C.2   1 <1>   0.9060 
 25 C       -8.3590   -11.8340    -1.2930 C.3   1 <1>   0.2000 
 26 O       -5.8370   -14.1080    -0.8940 O.co2 1 <1>  -0.9000 
 27 O       -7.9270   -14.5110    -0.4290 O.co2 1 <1>  -0.9000 
 28 O       -9.5160   -11.9900    -0.5700 O.3   1 <1>  -0.6800 
 29 H       -2.3500    -4.0400    -2.5800 H     1 <1>   0.1500 
 30 H        1.9040    -4.1820    -2.4030 H     1 <1>   0.1500 
 31 H        1.7930    -4.5330     0.0520 H     1 <1>   0.1500 
 32 H       -0.3830    -4.6350     1.1720 H     1 <1>   0.1500 
 33 H       -3.5020    -3.5920    -0.2490 H     1 <1>   0.0800 
 34 H       -2.7580    -4.3670     1.1480 H     1 <1>   0.0800 
 35 H       -3.8810    -8.0460    -0.2220 H     1 <1>   0.1500 
 36 H       -7.0930    -5.6420     2.6050 H     1 <1>   0.1500 
 37 H       -6.0120    -2.2640     1.9260 H     1 <1>   0.0800 
 38 H       -6.1920    -3.5600     3.1020 H     1 <1>   0.0800 
 39 H       -7.2580    -3.4830     1.6860 H     1 <1>   0.0800 
 40 H       -7.2290    -8.0420     2.4420 H     1 <1>   0.1500 
 41 H       -6.3430   -10.1390     1.6890 H     1 <1>   0.0800 
 42 H       -4.6900   -10.1650     1.1160 H     1 <1>   0.0800 
 43 H       -5.5390    -9.5420    -1.0620 H     1 <1>   0.4500 
 44 H       -5.7100   -11.6800    -1.7290 H     1 <1>   0.0800 
 45 H       -5.1330   -11.9270    -0.1090 H     1 <1>   0.0800 
 46 H       -8.1140    -9.7010     0.2990 H     1 <1>   0.0800 
 47 H       -7.5450    -8.5170    -0.8550 H     1 <1>   0.0800 
 48 H       -7.4650   -12.1520     0.6560 H     1 <1>   0.0800 
 49 H       -7.6750   -10.2850    -2.6170 H     1 <1>   0.0800 
 50 H       -9.2240    -9.9620    -1.9050 H     1 <1>   0.0800 
 51 H       -8.4350   -12.4610    -2.1690 H     1 <1>   0.0800 
 52 H       -9.5760   -12.9510    -0.3370 H     1 <1>   0.4000 
@<TRIPOS>BOND
  1   1   2  1   
  2   2   3  ar  
  3   2   4  ar  
  4   3   5  ar  
  5   3  29  1   
  6   4   6  ar  
  7   4  30  1   
  8   5   7  ar  
  9   5   8  1   
 10   6   7  ar  
 11   6  31  1   
 12   7  32  1   
 13   8   9  1   
 14   8  33  1   
 15   8  34  1   
 16   9  10  1   
 17  10  11  ar  
 18  10  12  ar  
 19  11  13  1   
 20  11  14  ar  
 21  12  15  ar  
 22  12  35  1   
 23  13  16  1   
 24  14  17  ar  
 25  14  36  1   
 26  15  17  ar  
 27  15  18  1   
 28  16  37  1   
 29  16  38  1   
 30  16  39  1   
 31  17  40  1   
 32  18  19  1   
 33  18  41  1   
 34  18  42  1   
 35  19  20  1   
 36  19  21  1   
 37  19  43  1   
 38  20  22  1   
 39  20  44  1   
 40  20  45  1   
 41  21  23  1   
 42  21  46  1   
 43  21  47  1   
 44  22  24  1   
 45  22  25  1   
 46  22  48  1   
 47  23  25  1   
 48  23  49  1   
 49  23  50  1   
 50  24  26  ar  
 51  24  27  ar  
 52  25  28  1   
 53  25  51  1   
 54  28  52  1   
@<TRIPOS>SUBSTRUCTURE
  1 ****  12 GROUP 4 **** **** 0

# MOE 2024.06 (io_trps.svl 2023.06)
