@<TRIPOS>MOLECULE
NONAME
48 51 1 0 0 
SMALL
USER_CHARGES


@<TRIPOS>ATOM
  1 O       -1.2020     0.8260    -1.7210 O.co2 1 <1>  -0.9000 
  2 C       -1.5490     1.2430    -0.6090 C.2   1 <1>   0.9060 
  3 O       -2.3280     0.5910     0.1040 O.co2 1 <1>  -0.9000 
  4 C       -1.0110     2.5750    -0.0780 C.3   1 <1>  -0.1060 
  5 C       -2.2140     3.3800     0.4520 C.3   1 <1>   0.2000 
  6 C       -0.4380     3.3870    -1.2650 C.3   1 <1>   0.1100 
  7 C        0.0260     2.2540     1.0470 C.3   1 <1>  -0.0170 
  8 O       -2.7400     2.7540     1.5670 O.3   1 <1>  -0.6800 
  9 C       -1.9020     4.8440     0.8020 C.3   1 <1>  -0.1600 
 10 N       -0.2320     4.8460    -1.0320 N.3   1 <1>  -0.8100 
 11 C        1.4740     2.0800     0.5900 C.ar  1 <1>  -0.1440 
 12 C       -0.5220     5.3140     0.3310 C.3   1 <1>   0.1100 
 13 C        1.1270     5.2380    -1.4740 C.3   1 <1>   0.2900 
 14 C        1.8260     1.0400    -0.2550 C.ar  1 <1>  -0.1500 
 15 C        2.4560     2.9590     1.0220 C.ar  1 <1>  -0.1500 
 16 C        1.3750     6.7440    -1.4450 C.2   1 <1>   0.2980 
 17 C        3.1360     0.8870    -0.6740 C.ar  1 <1>  -0.1500 
 18 C        3.7680     2.8100     0.6050 C.ar  1 <1>  -0.1500 
 19 O        0.6840     7.5080    -2.2510 O.3   1 <1>  -0.0190 
 20 N        2.2080     7.3510    -0.7010 N.2   1 <1>  -0.5650 
 21 C        4.1090     1.7730    -0.2450 C.ar  1 <1>  -0.1500 
 22 N        1.1120     8.7070    -1.9990 N.2   1 <1>  -0.4100 
 23 C        2.0090     8.6180    -1.0810 C.2   1 <1>   0.5150 
 24 C        2.7270     9.7410    -0.5160 C.2   1 <1>   0.1410 
 25 O        3.6380     9.5740     0.4400 O.3   1 <1>  -0.2800 
 26 C        2.6410    11.0690    -0.8010 C.2   1 <1>  -0.1500 
 27 C        4.1290    10.7520     0.7660 C.2   1 <1>  -0.0100 
 28 C        3.5510    11.7240     0.0310 C.2   1 <1>  -0.1500 
 29 H       -2.9830     3.3680    -0.3040 H     1 <1>   0.0800 
 30 H       -1.1360     3.3060    -2.0820 H     1 <1>   0.0800 
 31 H        0.4660     2.9170    -1.6120 H     1 <1>   0.0800 
 32 H       -0.0090     3.0110     1.8060 H     1 <1>   0.0800 
 33 H       -0.2730     1.3480     1.5470 H     1 <1>   0.0800 
 34 H       -2.8090     1.7890     1.3080 H     1 <1>   0.4000 
 35 H       -2.6430     5.4650     0.3340 H     1 <1>   0.0800 
 36 H       -1.9710     4.9980     1.8640 H     1 <1>   0.0800 
 37 H        0.2400     4.9650     1.0030 H     1 <1>   0.0800 
 38 H       -0.5030     6.3900     0.3560 H     1 <1>   0.0800 
 39 H        1.8580     4.7550    -0.8520 H     1 <1>   0.0800 
 40 H        1.2770     4.8980    -2.4830 H     1 <1>   0.0800 
 41 H        1.0750     0.3460    -0.5980 H     1 <1>   0.1500 
 42 H        2.2030     3.7670     1.6850 H     1 <1>   0.1500 
 43 H        3.3900     0.0770    -1.3350 H     1 <1>   0.1500 
 44 H        4.5200     3.5000     0.9430 H     1 <1>   0.1500 
 45 H        5.1270     1.6540    -0.5720 H     1 <1>   0.1500 
 46 H        2.0000    11.5390    -1.5260 H     1 <1>   0.1500 
 47 H        4.8850    10.8070     1.5300 H     1 <1>   0.1500 
 48 H        3.7310    12.7850     0.0560 H     1 <1>   0.1500 
@<TRIPOS>BOND
  1   1   2  ar  
  2   2   3  ar  
  3   2   4  1   
  4   4   5  1   
  5   4   6  1   
  6   4   7  1   
  7   5   8  1   
  8   5   9  1   
  9   5  29  1   
 10   6  10  1   
 11   6  30  1   
 12   6  31  1   
 13   7  11  1   
 14   7  32  1   
 15   7  33  1   
 16   8  34  1   
 17   9  12  1   
 18   9  35  1   
 19   9  36  1   
 20  10  12  1   
 21  10  13  1   
 22  11  14  ar  
 23  11  15  ar  
 24  12  37  1   
 25  12  38  1   
 26  13  16  1   
 27  13  39  1   
 28  13  40  1   
 29  14  17  ar  
 30  14  41  1   
 31  15  18  ar  
 32  15  42  1   
 33  16  19  1   
 34  16  20  2   
 35  17  21  ar  
 36  17  43  1   
 37  18  21  ar  
 38  18  44  1   
 39  19  22  1   
 40  20  23  1   
 41  21  45  1   
 42  22  23  2   
 43  23  24  1   
 44  24  25  1   
 45  24  26  2   
 46  25  27  1   
 47  26  28  1   
 48  26  46  1   
 49  27  28  2   
 50  27  47  1   
 51  28  48  1   
@<TRIPOS>SUBSTRUCTURE
  1 ****  13 GROUP 4 **** **** 0

# MOE 2024.06 (io_trps.svl 2023.06)
