@<TRIPOS>MOLECULE
NONAME
50 51 1 0 0 
SMALL
USER_CHARGES


@<TRIPOS>ATOM
  1 F       -0.5490    -0.0390    -0.0430 F     1 <1>  -0.1900 
  2 C       -1.8020     0.3390    -0.0240 C.ar  1 <1>   0.1900 
  3 C       -2.3330     1.1970    -0.9940 C.ar  1 <1>   0.0830 
  4 C       -2.5760    -0.1510     1.0100 C.ar  1 <1>  -0.1500 
  5 O       -1.6750     1.7450    -2.0560 O.3   1 <1>  -0.3630 
  6 C       -3.6700     1.5410    -0.8830 C.ar  1 <1>  -0.1500 
  7 C       -3.9070     0.2130     1.0900 C.ar  1 <1>  -0.1500 
  8 C       -0.3220     1.4710    -2.3470 C.3   1 <1>   0.0400 
  9 C       -4.4850     1.0620     0.1440 C.ar  1 <1>   0.0530 
 10 C       -5.8690     1.4580     0.2220 C.2   1 <1>   0.0870 
 11 O       -6.1830     2.7100     0.0050 O.3   1 <1>  -0.0190 
 12 C       -7.0300     0.7960     0.4910 C.2   1 <1>  -0.0860 
 13 N       -7.4610     2.9450     0.1210 N.2   1 <1>  -0.4100 
 14 C       -7.9940     1.8120     0.4150 C.2   1 <1>   0.3720 
 15 C       -7.2810    -0.5890     0.7640 C.2   1 <1>   0.7160 
 16 N       -9.3740     1.6620     0.6260 N.pl3 1 <1>  -0.8210 
 17 O       -6.3960    -1.4220     0.7090 O.2   1 <1>  -0.5700 
 18 N       -8.5350    -1.0070     1.0820 N.am  1 <1>  -0.7300 
 19 C       -9.8500     2.3820     1.8390 C.3   1 <1>   0.1290 
 20 C      -10.1840     2.0280    -0.5680 C.3   1 <1>   0.1290 
 21 C       -8.9600    -2.3830     1.4230 C.3   1 <1>   0.1400 
 22 C       -9.3210    -3.1370     0.1430 C.3   1 <1>  -0.0990 
 23 C       -9.8140    -4.5470     0.4240 C.2   1 <1>   0.5690 
 24 O      -10.2700    -4.7810     1.5200 O.2   1 <1>  -0.5700 
 25 N       -9.7530    -5.5120    -0.5540 N.am  1 <1>  -0.6600 
 26 C      -10.1350    -6.9240    -0.2700 C.3   1 <1>   0.0600 
 27 C       -9.3070    -5.2720    -1.9550 C.3   1 <1>   0.0600 
 28 H       -2.1410    -0.8090     1.7410 H     1 <1>   0.1500 
 29 H       -4.0910     2.2010    -1.6210 H     1 <1>   0.1500 
 30 H       -4.5090    -0.1680     1.8970 H     1 <1>   0.1500 
 31 H       -0.0580     2.0050    -3.2410 H     1 <1>   0.0800 
 32 H       -0.2050     0.4130    -2.5060 H     1 <1>   0.0800 
 33 H        0.2880     1.8080    -1.5280 H     1 <1>   0.0800 
 34 H       -9.2590    -0.2730     1.0470 H     1 <1>   0.3700 
 35 H       -9.2350     2.1210     2.6840 H     1 <1>   0.0800 
 36 H      -10.8680     2.1090     2.0550 H     1 <1>   0.0800 
 37 H       -9.7920     3.4470     1.6860 H     1 <1>   0.0800 
 38 H       -9.7940     1.5310    -1.4410 H     1 <1>   0.0800 
 39 H      -10.1460     3.0920    -0.7320 H     1 <1>   0.0800 
 40 H      -11.2070     1.7270    -0.4270 H     1 <1>   0.0800 
 41 H       -9.8080    -2.3390     2.0860 H     1 <1>   0.0800 
 42 H       -8.1590    -2.8950     1.9320 H     1 <1>   0.0800 
 43 H       -8.4410    -3.1850    -0.4710 H     1 <1>   0.0800 
 44 H      -10.0940    -2.6080    -0.3800 H     1 <1>   0.0800 
 45 H      -10.3430    -7.0640     0.7770 H     1 <1>   0.0800 
 46 H       -9.3300    -7.5820    -0.5470 H     1 <1>   0.0800 
 47 H      -11.0150    -7.1820    -0.8320 H     1 <1>   0.0800 
 48 H       -9.4820    -4.2510    -2.2450 H     1 <1>   0.0800 
 49 H       -9.8540    -5.9080    -2.6280 H     1 <1>   0.0800 
 50 H       -8.2570    -5.4910    -2.0410 H     1 <1>   0.0800 
@<TRIPOS>BOND
  1   1   2  1   
  2   2   3  ar  
  3   2   4  ar  
  4   3   5  1   
  5   3   6  ar  
  6   4   7  ar  
  7   4  28  1   
  8   5   8  1   
  9   6   9  ar  
 10   6  29  1   
 11   7   9  ar  
 12   7  30  1   
 13   8  31  1   
 14   8  32  1   
 15   8  33  1   
 16   9  10  1   
 17  10  11  1   
 18  10  12  2   
 19  11  13  1   
 20  12  14  1   
 21  12  15  1   
 22  13  14  2   
 23  14  16  1   
 24  15  17  2   
 25  15  18  am  
 26  16  19  1   
 27  16  20  1   
 28  18  21  1   
 29  18  34  1   
 30  19  35  1   
 31  19  36  1   
 32  19  37  1   
 33  20  38  1   
 34  20  39  1   
 35  20  40  1   
 36  21  22  1   
 37  21  41  1   
 38  21  42  1   
 39  22  23  1   
 40  22  43  1   
 41  22  44  1   
 42  23  24  2   
 43  23  25  am  
 44  25  26  1   
 45  25  27  1   
 46  26  45  1   
 47  26  46  1   
 48  26  47  1   
 49  27  48  1   
 50  27  49  1   
 51  27  50  1   
@<TRIPOS>SUBSTRUCTURE
  1 ****  15 GROUP 4 **** **** 0

# MOE 2024.06 (io_trps.svl 2023.06)
