@<TRIPOS>MOLECULE
NONAME
47 51 1 0 0 
SMALL
USER_CHARGES


@<TRIPOS>ATOM
  1 N       -0.0100    -0.6990     0.6400 N.ar  1 <1>  -0.6200 
  2 C        0.5080    -1.8590     0.9640 C.ar  1 <1>   0.4100 
  3 C        0.8500     0.2210     0.2490 C.ar  1 <1>   0.4760 
  4 N       -0.4000    -2.7930     1.3580 N.pl3 1 <1>  -0.8690 
  5 C        1.8690    -2.0830     0.9150 C.ar  1 <1>  -0.1500 
  6 N        2.1640     0.1160     0.1470 N.ar  1 <1>  -0.6200 
  7 C        0.2600     1.5560    -0.1360 C.3   1 <1>  -0.0970 
  8 C       -0.6520    -4.0660     0.6640 C.3   1 <1>   0.3690 
  9 C        2.6640    -1.0540     0.4930 C.ar  1 <1>   0.1600 
 10 C       -2.1540    -4.3590     0.7930 C.3   1 <1>  -0.1600 
 11 C       -0.2810    -4.0010    -0.8320 C.3   1 <1>  -0.1600 
 12 C        0.1410    -5.1930     1.3460 C.3   1 <1>  -0.1600 
 13 C       -2.5060    -5.7060     0.1190 C.3   1 <1>   0.2560 
 14 C       -0.5980    -5.3450    -1.5140 C.3   1 <1>  -0.0800 
 15 C       -0.1710    -6.5420     0.6710 C.3   1 <1>  -0.0800 
 16 N       -3.9890    -5.9600     0.2340 N.pl3 1 <1>   0.5800 
 17 C       -2.1030    -5.6370    -1.3750 C.3   1 <1>  -0.1600 
 18 C       -1.6770    -6.8280     0.7990 C.3   1 <1>  -0.1600 
 19 C        0.2020    -6.4640    -0.8210 C.3   1 <1>  -0.1600 
 20 N       -4.5270    -7.0290     0.8140 N.2   1 <1>  -0.4180 
 21 N       -4.9040    -5.1290    -0.2410 N.2   1 <1>  -0.7070 
 22 N       -5.7900    -6.8910     0.7150 N.2   1 <1>  -0.2270 
 23 C       -5.9770    -5.7440     0.0790 C.2   1 <1>   0.3350 
 24 C       -7.3600    -5.2270    -0.2320 C.3   1 <1>  -0.0590 
 25 H       -1.2860    -2.3250     1.5540 H     1 <1>   0.4000 
 26 H        2.2790    -3.0270     1.2050 H     1 <1>   0.1500 
 27 H       -0.5970     1.7690     0.4760 H     1 <1>   0.0800 
 28 H       -0.0390     1.5270    -1.1660 H     1 <1>   0.0800 
 29 H        0.9860     2.3360     0.0000 H     1 <1>   0.0800 
 30 H        3.7320    -1.1790     0.4360 H     1 <1>   0.1500 
 31 H       -2.7090    -3.5670     0.3220 H     1 <1>   0.0800 
 32 H       -2.4240    -4.4010     1.8330 H     1 <1>   0.0800 
 33 H        0.7670    -3.7960    -0.9480 H     1 <1>   0.0800 
 34 H       -0.8310    -3.2090    -1.3100 H     1 <1>   0.0800 
 35 H       -0.1170    -5.2370     2.3900 H     1 <1>   0.0800 
 36 H        1.1940    -4.9990     1.2710 H     1 <1>   0.0800 
 37 H       -0.3310    -5.2960    -2.5570 H     1 <1>   0.0800 
 38 H        0.3920    -7.3270     1.1490 H     1 <1>   0.0800 
 39 H       -2.6620    -4.8610    -1.8700 H     1 <1>   0.0800 
 40 H       -2.3350    -6.5710    -1.8570 H     1 <1>   0.0800 
 41 H       -1.8980    -7.7760     0.3390 H     1 <1>   0.0800 
 42 H       -1.9390    -6.8970     1.8410 H     1 <1>   0.0800 
 43 H        1.2570    -6.2740    -0.9240 H     1 <1>   0.0800 
 44 H       -0.0020    -7.4080    -1.2980 H     1 <1>   0.0800 
 45 H       -7.2940    -4.2860    -0.7460 H     1 <1>   0.0800 
 46 H       -7.9070    -5.0910     0.6820 H     1 <1>   0.0800 
 47 H       -7.8770    -5.9330    -0.8540 H     1 <1>   0.0800 
@<TRIPOS>BOND
  1   1   2  ar  
  2   1   3  ar  
  3   2   4  1   
  4   2   5  ar  
  5   3   6  ar  
  6   3   7  1   
  7   4   8  1   
  8   4  25  1   
  9   5   9  ar  
 10   5  26  1   
 11   6   9  ar  
 12   7  27  1   
 13   7  28  1   
 14   7  29  1   
 15   8  10  1   
 16   8  11  1   
 17   8  12  1   
 18   9  30  1   
 19  10  13  1   
 20  10  31  1   
 21  10  32  1   
 22  11  14  1   
 23  11  33  1   
 24  11  34  1   
 25  12  15  1   
 26  12  35  1   
 27  12  36  1   
 28  13  16  1   
 29  13  17  1   
 30  13  18  1   
 31  14  17  1   
 32  14  19  1   
 33  14  37  1   
 34  15  18  1   
 35  15  19  1   
 36  15  38  1   
 37  16  20  1   
 38  16  21  1   
 39  17  39  1   
 40  17  40  1   
 41  18  41  1   
 42  18  42  1   
 43  19  43  1   
 44  19  44  1   
 45  20  22  2   
 46  21  23  2   
 47  22  23  1   
 48  23  24  1   
 49  24  45  1   
 50  24  46  1   
 51  24  47  1   
@<TRIPOS>SUBSTRUCTURE
  1 ****   8 GROUP 4 **** **** 0

# MOE 2024.06 (io_trps.svl 2023.06)
