@<TRIPOS>MOLECULE
NONAME
53 55 1 0 0 
SMALL
USER_CHARGES


@<TRIPOS>ATOM
  1 O       -0.4180     0.7300    -1.2440 O.2   1 <1>  -0.5700 
  2 C       -1.4660     1.1050    -0.7760 C.2   1 <1>   0.5690 
  3 N       -2.5860     0.3060    -0.7840 N.am  1 <1>  -0.6600 
  4 C       -1.5210     2.5050    -0.1670 C.3   1 <1>  -0.0990 
  5 C       -2.5540    -1.0630    -1.4060 C.3   1 <1>   0.1400 
  6 C       -3.9360     0.7360    -0.3240 C.3   1 <1>   0.1400 
  7 C       -0.1840     3.2720    -0.2020 C.3   1 <1>  -0.1600 
  8 C       -3.0920    -2.1530    -0.4450 C.3   1 <1>   0.0000 
  9 C       -4.4890    -0.2850     0.6690 C.3   1 <1>  -0.1600 
 10 C       -0.3060     4.6690     0.4230 C.3   1 <1>   0.0210 
 11 C       -4.4900    -1.6770     0.0360 C.3   1 <1>   0.2000 
 12 C       -3.3180    -3.4690    -1.2340 C.3   1 <1>   0.1200 
 13 C       -2.1130    -2.3610     0.7550 C.3   1 <1>  -0.0160 
 14 C        1.0060     5.4370     0.3850 C.2   1 <1>  -0.1810 
 15 O       -5.0450    -2.5610     0.9450 O.3   1 <1>  -0.6800 
 16 O       -2.2190    -3.7990    -2.0140 O.3   1 <1>  -0.6800 
 17 C       -0.8420    -3.1430     0.4370 C.ar  1 <1>  -0.1440 
 18 C        1.2020     6.7190     0.8900 C.2   1 <1>   0.1390 
 19 C        2.2100     5.0830    -0.1140 C.2   1 <1>  -0.3020 
 20 C       -0.7950    -4.5130     0.6510 C.ar  1 <1>  -0.1500 
 21 C        0.2780    -2.5020    -0.0680 C.ar  1 <1>  -0.1500 
 22 N        2.4200     7.1370     0.7240 N.2   1 <1>  -0.7070 
 23 N        3.0440     6.1200     0.1010 N.pl3 1 <1>   0.3000 
 24 C        0.3470    -5.2330     0.3480 C.ar  1 <1>  -0.1500 
 25 C        1.4200    -3.2190    -0.3730 C.ar  1 <1>  -0.1500 
 26 C        1.4560    -4.5860    -0.1670 C.ar  1 <1>  -0.1500 
 27 H       -2.2570     3.0730    -0.7040 H     1 <1>   0.0800 
 28 H       -1.8370     2.4110     0.8560 H     1 <1>   0.0800 
 29 H       -3.1580    -1.0430    -2.2960 H     1 <1>   0.0800 
 30 H       -1.5550    -1.3140    -1.7170 H     1 <1>   0.0800 
 31 H       -3.9090     1.7030     0.1440 H     1 <1>   0.0800 
 32 H       -4.5880     0.8010    -1.1790 H     1 <1>   0.0800 
 33 H        0.5630     2.7080     0.3310 H     1 <1>   0.0800 
 34 H        0.1410     3.3690    -1.2240 H     1 <1>   0.0800 
 35 H       -5.4960    -0.0080     0.9230 H     1 <1>   0.0800 
 36 H       -3.8930    -0.2660     1.5630 H     1 <1>   0.0800 
 37 H       -0.6200     4.5780     1.4480 H     1 <1>   0.0800 
 38 H       -1.0500     5.2370    -0.1070 H     1 <1>   0.0800 
 39 H       -5.1560    -1.6570    -0.8120 H     1 <1>   0.0800 
 40 H       -4.1550    -3.3710    -1.9040 H     1 <1>   0.0800 
 41 H       -3.5160    -4.2870    -0.5640 H     1 <1>   0.0800 
 42 H       -1.8280    -1.4080     1.1620 H     1 <1>   0.0800 
 43 H       -2.6140    -2.8900     1.5440 H     1 <1>   0.0800 
 44 H       -4.5900    -2.4980     1.8060 H     1 <1>   0.4000 
 45 H       -1.4160    -3.8660    -1.4460 H     1 <1>   0.4000 
 46 H        0.4380     7.3100     1.3670 H     1 <1>   0.1500 
 47 H        2.5180     4.1750    -0.5990 H     1 <1>   0.1500 
 48 H       -1.6500    -5.0310     1.0520 H     1 <1>   0.1500 
 49 H        0.2700    -1.4380    -0.2300 H     1 <1>   0.1500 
 50 H        4.0350     6.1650    -0.1630 H     1 <1>   0.2700 
 51 H        0.3740    -6.2960     0.5130 H     1 <1>   0.1500 
 52 H        2.2810    -2.7090    -0.7710 H     1 <1>   0.1500 
 53 H        2.3450    -5.1440    -0.4050 H     1 <1>   0.1500 
@<TRIPOS>BOND
  1   1   2  2   
  2   2   3  am  
  3   2   4  1   
  4   3   5  1   
  5   3   6  1   
  6   4   7  1   
  7   4  27  1   
  8   4  28  1   
  9   5   8  1   
 10   5  29  1   
 11   5  30  1   
 12   6   9  1   
 13   6  31  1   
 14   6  32  1   
 15   7  10  1   
 16   7  33  1   
 17   7  34  1   
 18   8  11  1   
 19   8  12  1   
 20   8  13  1   
 21   9  11  1   
 22   9  35  1   
 23   9  36  1   
 24  10  14  1   
 25  10  37  1   
 26  10  38  1   
 27  11  15  1   
 28  11  39  1   
 29  12  16  1   
 30  12  40  1   
 31  12  41  1   
 32  13  17  1   
 33  13  42  1   
 34  13  43  1   
 35  14  18  1   
 36  14  19  2   
 37  15  44  1   
 38  16  45  1   
 39  17  20  ar  
 40  17  21  ar  
 41  18  22  2   
 42  18  46  1   
 43  19  23  1   
 44  19  47  1   
 45  20  24  ar  
 46  20  48  1   
 47  21  25  ar  
 48  21  49  1   
 49  22  23  1   
 50  23  50  1   
 51  24  26  ar  
 52  24  51  1   
 53  25  26  ar  
 54  25  52  1   
 55  26  53  1   
@<TRIPOS>SUBSTRUCTURE
  1 ****   2 GROUP 4 **** **** 0

# MOE 2024.06 (io_trps.svl 2023.06)
