@<TRIPOS>MOLECULE
NONAME
50 52 1 0 0 
SMALL
USER_CHARGES


@<TRIPOS>ATOM
  1 S        1.0030     1.2080    -1.1430 S.o2  1 <1>   1.3330 
  2 O        0.9940    -0.1880    -1.5160 O.2   1 <1>  -0.6500 
  3 O        1.1750     2.2060    -2.1740 O.2   1 <1>  -0.6500 
  4 N        2.2450     1.4070    -0.0040 N.am  1 <1>  -0.8490 
  5 C       -0.5200     1.5560    -0.2440 C.3   1 <1>  -0.0550 
  6 C        3.5280     1.7000    -0.6440 C.3   1 <1>   0.1160 
  7 C        2.4000     0.2590     0.8970 C.3   1 <1>   0.1160 
  8 C       -0.7610     2.9730     0.3350 C.3   1 <1>  -0.0800 
  9 C       -0.6380     4.1110    -0.6900 C.3   1 <1>   0.2000 
 10 C        0.1650     3.3620     1.5000 C.3   1 <1>   0.1400 
 11 O       -1.6440     5.0250    -0.4170 O.3   1 <1>  -0.6800 
 12 C        0.7010     4.7860    -0.3940 C.3   1 <1>   0.1400 
 13 N        0.9070     4.5670     1.0570 N.am  1 <1>  -0.6600 
 14 C        1.4390     5.4800     1.9370 C.2   1 <1>   0.6160 
 15 O        1.3760     5.2470     3.1280 O.2   1 <1>  -0.5700 
 16 C        2.0120     6.7250     1.4820 C.2   1 <1>  -0.0140 
 17 C        3.2070     6.7400     0.6640 C.ar  1 <1>   0.0280 
 18 C        1.4270     7.9130     1.8100 C.2   1 <1>  -0.1360 
 19 C        3.6640     7.9740     0.1680 C.ar  1 <1>   0.1170 
 20 C        3.9510     5.5960     0.3480 C.ar  1 <1>  -0.1500 
 21 C        1.9110     9.1560     1.3330 C.2   1 <1>   0.6160 
 22 N        2.9870     9.1380     0.5070 N.am  1 <1>  -0.5470 
 23 C        4.7940     8.0320    -0.6410 C.ar  1 <1>  -0.1500 
 24 C        5.0810     5.6620    -0.4420 C.ar  1 <1>  -0.1430 
 25 O        1.4060    10.2270     1.6130 O.2   1 <1>  -0.5700 
 26 C        5.4960     6.8880    -0.9460 C.ar  1 <1>  -0.1500 
 27 C        5.8830     4.4150    -0.7660 C.3   1 <1>  -0.0970 
 28 H       -1.3330     1.3510    -0.9140 H     1 <1>   0.0800 
 29 H       -0.6080     0.8500     0.5580 H     1 <1>   0.0800 
 30 H        4.2960     1.8160     0.1000 H     1 <1>   0.0800 
 31 H        3.4580     2.6160    -1.2060 H     1 <1>   0.0800 
 32 H        3.8020     0.9030    -1.3160 H     1 <1>   0.0800 
 33 H        3.1390     0.4780     1.6490 H     1 <1>   0.0800 
 34 H        2.7100    -0.6150     0.3460 H     1 <1>   0.0800 
 35 H        1.4690     0.0430     1.3910 H     1 <1>   0.0800 
 36 H       -1.7680     2.9530     0.7160 H     1 <1>   0.0800 
 37 H       -0.7400     3.8010    -1.7160 H     1 <1>   0.0800 
 38 H        0.8580     2.5820     1.7580 H     1 <1>   0.0800 
 39 H       -0.4170     3.6010     2.3740 H     1 <1>   0.0800 
 40 H       -1.4940     5.4070     0.4710 H     1 <1>   0.4000 
 41 H        0.6820     5.8290    -0.6570 H     1 <1>   0.0800 
 42 H        1.4950     4.3030    -0.9340 H     1 <1>   0.0800 
 43 H        0.5620     7.9590     2.4430 H     1 <1>   0.1500 
 44 H        3.6380     4.6420     0.7350 H     1 <1>   0.1500 
 45 H        3.3020    10.0490     0.1790 H     1 <1>   0.3700 
 46 H        5.1240     8.9800    -1.0250 H     1 <1>   0.1500 
 47 H        6.3700     6.9450    -1.5710 H     1 <1>   0.1500 
 48 H        6.9260     4.6570    -0.8660 H     1 <1>   0.0800 
 49 H        5.5370     3.9870    -1.6890 H     1 <1>   0.0800 
 50 H        5.7830     3.6900     0.0210 H     1 <1>   0.0800 
@<TRIPOS>BOND
  1   1   2  2   
  2   1   3  2   
  3   1   4  am  
  4   1   5  1   
  5   4   6  1   
  6   4   7  1   
  7   5   8  1   
  8   5  28  1   
  9   5  29  1   
 10   6  30  1   
 11   6  31  1   
 12   6  32  1   
 13   7  33  1   
 14   7  34  1   
 15   7  35  1   
 16   8   9  1   
 17   8  10  1   
 18   8  36  1   
 19   9  11  1   
 20   9  12  1   
 21   9  37  1   
 22  10  13  1   
 23  10  38  1   
 24  10  39  1   
 25  11  40  1   
 26  12  13  1   
 27  12  41  1   
 28  12  42  1   
 29  13  14  am  
 30  14  15  2   
 31  14  16  1   
 32  16  17  1   
 33  16  18  2   
 34  17  19  ar  
 35  17  20  ar  
 36  18  21  1   
 37  18  43  1   
 38  19  22  1   
 39  19  23  ar  
 40  20  24  ar  
 41  20  44  1   
 42  21  22  am  
 43  21  25  2   
 44  22  45  1   
 45  23  26  ar  
 46  23  46  1   
 47  24  26  ar  
 48  24  27  1   
 49  26  47  1   
 50  27  48  1   
 51  27  49  1   
 52  27  50  1   
@<TRIPOS>SUBSTRUCTURE
  1 ****  13 GROUP 4 **** **** 0

# MOE 2024.06 (io_trps.svl 2023.06)
