@<TRIPOS>MOLECULE
NONAME
51 53 1 0 0 
SMALL
USER_CHARGES


@<TRIPOS>ATOM
  1 S       -0.1710     0.0460     1.6020 S.o2  1 <1>   1.4470 
  2 O       -0.3400     0.7820     2.8330 O.2   1 <1>  -0.6500 
  3 O       -0.0520    -1.4000     1.6430 O.2   1 <1>  -0.6500 
  4 N       -1.5610     0.3250     0.6650 N.am  1 <1>  -0.8490 
  5 C        1.1590     0.7710     0.6050 C.ar  1 <1>  -0.0090 
  6 C       -1.6680    -0.6110    -0.4790 C.3   1 <1>   0.1960 
  7 C       -2.7750     0.4090     1.5130 C.3   1 <1>   0.1960 
  8 C        1.0310     2.0420     0.0550 C.ar  1 <1>  -0.1500 
  9 C        2.3410     0.0770     0.3690 C.ar  1 <1>  -0.1500 
 10 C       -2.5130    -1.8310    -0.0540 C.3   1 <1>   0.4230 
 11 C       -4.0550     0.0000     0.7600 C.3   1 <1>  -0.1600 
 12 C        2.0370     2.6010    -0.7140 C.ar  1 <1>  -0.1500 
 13 C        3.3510     0.6270    -0.4000 C.ar  1 <1>  -0.1500 
 14 N       -2.2910    -3.1480    -0.7570 N.4   1 <1>  -0.9590 
 15 C       -3.9970    -1.4410     0.1660 C.3   1 <1>   0.0000 
 16 C        3.2080     1.8890    -0.9490 C.ar  1 <1>   0.0830 
 17 C       -3.3250    -4.1700    -0.3820 C.3   1 <1>   0.3430 
 18 C       -2.1570    -3.0310    -2.2430 C.3   1 <1>   0.2630 
 19 C       -4.5550    -2.4820     1.1710 C.3   1 <1>  -0.1600 
 20 C       -4.8910    -1.4630    -1.1060 C.3   1 <1>   0.1200 
 21 O        4.2410     2.3560    -1.6900 O.3   1 <1>  -0.3630 
 22 C       -3.9290    -3.8930     1.0070 C.3   1 <1>  -0.1600 
 23 O       -4.2840    -0.8030    -2.1640 O.3   1 <1>  -0.6800 
 24 C        4.2210     3.6490    -2.2510 C.3   1 <1>   0.0400 
 25 H       -2.1320    -0.0970    -1.3010 H     1 <1>   0.0800 
 26 H       -0.6880    -0.9210    -0.7970 H     1 <1>   0.0800 
 27 H       -2.6680    -0.2370     2.3710 H     1 <1>   0.0800 
 28 H       -2.8710     1.4170     1.8840 H     1 <1>   0.0800 
 29 H        0.1290     2.6030     0.2340 H     1 <1>   0.1500 
 30 H        2.4770    -0.9050     0.7910 H     1 <1>   0.1500 
 31 H       -2.1550    -2.0190     0.9440 H     1 <1>   0.0800 
 32 H       -4.9010     0.0980     1.4180 H     1 <1>   0.0800 
 33 H       -4.1940     0.7260    -0.0230 H     1 <1>   0.0800 
 34 H        1.8920     3.5850    -1.1190 H     1 <1>   0.1500 
 35 H        4.2610     0.0820    -0.5790 H     1 <1>   0.1500 
 36 H       -1.3890    -3.4850    -0.3860 H     1 <1>   0.4500 
 37 H       -4.1210    -4.1570    -1.1080 H     1 <1>   0.0800 
 38 H       -2.8870    -5.1550    -0.3990 H     1 <1>   0.0800 
 39 H       -3.0870    -2.7130    -2.6820 H     1 <1>   0.0800 
 40 H       -1.8870    -3.9840    -2.6700 H     1 <1>   0.0800 
 41 H       -1.3950    -2.3140    -2.5000 H     1 <1>   0.0800 
 42 H       -4.3600    -2.1580     2.1800 H     1 <1>   0.0800 
 43 H       -5.6260    -2.5460     1.0740 H     1 <1>   0.0800 
 44 H       -5.8280    -0.9700    -0.9020 H     1 <1>   0.0800 
 45 H       -5.1090    -2.4640    -1.4310 H     1 <1>   0.0800 
 46 H       -4.6780    -4.6370     1.2170 H     1 <1>   0.0800 
 47 H       -3.1520    -4.0260     1.7420 H     1 <1>   0.0800 
 48 H       -4.9530    -0.5190    -2.8250 H     1 <1>   0.4000 
 49 H        5.1480     3.8000    -2.7750 H     1 <1>   0.0800 
 50 H        4.1270     4.3720    -1.4600 H     1 <1>   0.0800 
 51 H        3.3980     3.7190    -2.9400 H     1 <1>   0.0800 
@<TRIPOS>BOND
  1   1   2  2   
  2   1   3  2   
  3   1   4  am  
  4   1   5  1   
  5   4   6  1   
  6   4   7  1   
  7   5   8  ar  
  8   5   9  ar  
  9   6  10  1   
 10   6  25  1   
 11   6  26  1   
 12   7  11  1   
 13   7  27  1   
 14   7  28  1   
 15   8  12  ar  
 16   8  29  1   
 17   9  13  ar  
 18   9  30  1   
 19  10  14  1   
 20  10  15  1   
 21  10  31  1   
 22  11  15  1   
 23  11  32  1   
 24  11  33  1   
 25  12  16  ar  
 26  12  34  1   
 27  13  16  ar  
 28  13  35  1   
 29  14  17  1   
 30  14  18  1   
 31  14  36  1   
 32  15  19  1   
 33  15  20  1   
 34  16  21  1   
 35  17  22  1   
 36  17  37  1   
 37  17  38  1   
 38  18  39  1   
 39  18  40  1   
 40  18  41  1   
 41  19  22  1   
 42  19  42  1   
 43  19  43  1   
 44  20  23  1   
 45  20  44  1   
 46  20  45  1   
 47  21  24  1   
 48  22  46  1   
 49  22  47  1   
 50  23  48  1   
 51  24  49  1   
 52  24  50  1   
 53  24  51  1   
@<TRIPOS>SUBSTRUCTURE
  1 ****   6 GROUP 4 **** **** 0

# MOE 2024.06 (io_trps.svl 2023.06)
