@<TRIPOS>MOLECULE
NONAME
43 45 1 0 0 
SMALL
USER_CHARGES


@<TRIPOS>ATOM
  1 O       -0.2020     0.2120     0.2140 O.2   1 <1>  -0.5700 
  2 C       -1.2420     0.8090     0.0660 C.2   1 <1>   0.5690 
  3 N       -2.4230     0.1460    -0.1070 N.am  1 <1>  -0.6600 
  4 C       -1.2360     2.3290     0.0710 C.3   1 <1>  -0.0990 
  5 C       -3.7580     0.7550    -0.3370 C.3   1 <1>   0.1400 
  6 C       -2.5170    -1.3330    -0.0810 C.3   1 <1>   0.1400 
  7 C        0.1400     2.9360     0.3730 C.3   1 <1>   0.0210 
  8 C       -4.6780    -0.4270    -0.6440 C.3   1 <1>   0.2000 
  9 C       -4.0130    -1.6360     0.0070 C.3   1 <1>  -0.0800 
 10 C        0.0580     4.4510     0.3690 C.2   1 <1>  -0.1810 
 11 O       -5.9460    -0.2350    -0.1200 O.3   1 <1>  -0.6800 
 12 C       -4.4100    -2.9720    -0.6390 C.3   1 <1>   0.0210 
 13 C       -0.4910     5.2570     1.3630 C.2   1 <1>   0.1390 
 14 C        0.4850     5.3150    -0.5750 C.2   1 <1>  -0.3020 
 15 C       -3.6280    -4.1220    -0.0340 C.2   1 <1>   0.1080 
 16 N       -0.4200     6.5190     1.0670 N.2   1 <1>  -0.7070 
 17 N        0.1890     6.5530    -0.1330 N.pl3 1 <1>   0.3000 
 18 N       -3.6570    -4.4020     1.2320 N.2   1 <1>  -0.7070 
 19 C       -2.7980    -4.9820    -0.7440 C.2   1 <1>  -0.1500 
 20 N       -2.8360    -5.4610     1.3640 N.pl3 1 <1>   0.3000 
 21 C       -2.3030    -5.8300     0.1810 C.2   1 <1>  -0.3320 
 22 C       -1.3370    -6.9870     0.0050 C.3   1 <1>  -0.0600 
 23 H       -1.5630     2.6740    -0.8910 H     1 <1>   0.0800 
 24 H       -1.9360     2.6700     0.8100 H     1 <1>   0.0800 
 25 H       -4.0750     1.2630     0.5570 H     1 <1>   0.0800 
 26 H       -3.7270     1.4380    -1.1670 H     1 <1>   0.0800 
 27 H       -2.0930    -1.7260    -0.9890 H     1 <1>   0.0800 
 28 H       -1.9840    -1.7390     0.7630 H     1 <1>   0.0800 
 29 H        0.8490     2.6140    -0.3700 H     1 <1>   0.0800 
 30 H        0.4900     2.5980     1.3330 H     1 <1>   0.0800 
 31 H       -4.7650    -0.5500    -1.7100 H     1 <1>   0.0800 
 32 H       -4.2630    -1.6670     1.0540 H     1 <1>   0.0800 
 33 H       -5.9210    -0.2930     0.8550 H     1 <1>   0.4000 
 34 H       -4.2300    -2.9390    -1.6990 H     1 <1>   0.0800 
 35 H       -5.4590    -3.1490    -0.4830 H     1 <1>   0.0800 
 36 H       -0.9270     4.8890     2.2760 H     1 <1>   0.1500 
 37 H        0.9720     5.1240    -1.5130 H     1 <1>   0.1500 
 38 H        0.3860     7.4350    -0.6210 H     1 <1>   0.2700 
 39 H       -2.6080    -4.9550    -1.8020 H     1 <1>   0.1500 
 40 H       -2.6600    -5.9050     2.2730 H     1 <1>   0.2700 
 41 H       -1.0560    -7.0800    -1.0290 H     1 <1>   0.0800 
 42 H       -1.7970    -7.9070     0.3200 H     1 <1>   0.0800 
 43 H       -0.4480    -6.8210     0.5880 H     1 <1>   0.0800 
@<TRIPOS>BOND
  1   1   2  2   
  2   2   3  am  
  3   2   4  1   
  4   3   5  1   
  5   3   6  1   
  6   4   7  1   
  7   4  23  1   
  8   4  24  1   
  9   5   8  1   
 10   5  25  1   
 11   5  26  1   
 12   6   9  1   
 13   6  27  1   
 14   6  28  1   
 15   7  10  1   
 16   7  29  1   
 17   7  30  1   
 18   8   9  1   
 19   8  11  1   
 20   8  31  1   
 21   9  12  1   
 22   9  32  1   
 23  10  13  1   
 24  10  14  2   
 25  11  33  1   
 26  12  15  1   
 27  12  34  1   
 28  12  35  1   
 29  13  16  2   
 30  13  36  1   
 31  14  17  1   
 32  14  37  1   
 33  15  18  2   
 34  15  19  1   
 35  16  17  1   
 36  17  38  1   
 37  18  20  1   
 38  19  21  2   
 39  19  39  1   
 40  20  21  1   
 41  20  40  1   
 42  21  22  1   
 43  22  41  1   
 44  22  42  1   
 45  22  43  1   
@<TRIPOS>SUBSTRUCTURE
  1 ****   3 GROUP 4 **** **** 0

# MOE 2024.06 (io_trps.svl 2023.06)
