@<TRIPOS>MOLECULE
NONAME
50 53 1 0 0 
SMALL
USER_CHARGES


@<TRIPOS>ATOM
  1 S       -0.1170    -0.7390    -0.8690 S.o2  1 <1>   1.5760 
  2 O       -0.2230     0.2900    -1.8790 O.2   1 <1>  -0.6500 
  3 O        0.2130    -2.1010    -1.2330 O.2   1 <1>  -0.6500 
  4 N       -1.5760    -0.8110    -0.0210 N.am  1 <1>  -0.8490 
  5 N        0.9210    -0.2080     0.3550 N.am  1 <1>  -0.8490 
  6 C       -2.6810    -1.0050    -0.9620 C.3   1 <1>   0.1960 
  7 C       -1.5200    -1.8250     1.0400 C.3   1 <1>   0.1960 
  8 C        2.3280    -0.5530     0.1460 C.3   1 <1>   0.1960 
  9 C        0.7030     1.1910     0.7320 C.3   1 <1>   0.1160 
 10 C       -4.0240    -1.0670    -0.2410 C.3   1 <1>  -0.1600 
 11 C       -2.8460    -1.9260     1.7880 C.3   1 <1>  -0.1600 
 12 C        2.9710     0.1980    -1.0240 C.3   1 <1>  -0.2400 
 13 C       -4.0320    -2.1380     0.8500 C.3   1 <1>   0.4600 
 14 O       -5.1730    -1.9400     1.6510 O.3   1 <1>  -0.5600 
 15 C       -4.0690    -3.5590     0.2710 C.2   1 <1>  -0.3320 
 16 C       -6.4050    -2.4300     1.1840 C.3   1 <1>   0.1200 
 17 N       -3.0860    -4.2030    -0.4350 N.pl3 1 <1>   0.0330 
 18 C       -5.1290    -4.3860     0.3890 C.2   1 <1>  -0.1810 
 19 C       -6.3880    -3.9640     1.1050 C.3   1 <1>   0.0210 
 20 C       -3.5390    -5.4580    -0.7570 C.ar  1 <1>  -0.1520 
 21 C       -4.8250    -5.6060    -0.2480 C.ar  1 <1>   0.0000 
 22 C       -2.9220    -6.4940    -1.4630 C.ar  1 <1>  -0.1500 
 23 C       -5.5110    -6.8090    -0.4420 C.ar  1 <1>  -0.1500 
 24 C       -3.6090    -7.6730    -1.6470 C.ar  1 <1>  -0.1500 
 25 C       -4.9030    -7.8300    -1.1360 C.ar  1 <1>  -0.1500 
 26 H       -2.5240    -1.9020    -1.5370 H     1 <1>   0.0800 
 27 H       -2.7050    -0.1790    -1.6540 H     1 <1>   0.0800 
 28 H       -0.7540    -1.5560     1.7490 H     1 <1>   0.0800 
 29 H       -1.2520    -2.7830     0.6340 H     1 <1>   0.0800 
 30 H        2.4080    -1.6140    -0.0270 H     1 <1>   0.0800 
 31 H        2.8750    -0.3360     1.0480 H     1 <1>   0.0800 
 32 H       -0.3160     1.3270     1.0520 H     1 <1>   0.0800 
 33 H        0.8860     1.8450    -0.1040 H     1 <1>   0.0800 
 34 H        1.3540     1.4630     1.5450 H     1 <1>   0.0800 
 35 H       -4.7920    -1.2750    -0.9610 H     1 <1>   0.0800 
 36 H       -4.2180    -0.1060     0.2010 H     1 <1>   0.0800 
 37 H       -2.9900    -1.0150     2.3390 H     1 <1>   0.0800 
 38 H       -2.8000    -2.7400     2.4880 H     1 <1>   0.0800 
 39 H        2.4720    -0.0230    -1.9500 H     1 <1>   0.0800 
 40 H        3.9950    -0.1140    -1.1210 H     1 <1>   0.0800 
 41 H        2.9650     1.2600    -0.8570 H     1 <1>   0.0800 
 42 H       -6.6000    -2.0060     0.2160 H     1 <1>   0.0800 
 43 H       -7.1690    -2.1020     1.8670 H     1 <1>   0.0800 
 44 H       -2.1640    -3.8340    -0.6930 H     1 <1>   0.2700 
 45 H       -7.2530    -4.3100     0.5710 H     1 <1>   0.0800 
 46 H       -6.4000    -4.3840     2.0950 H     1 <1>   0.0800 
 47 H       -1.9280    -6.3640    -1.8510 H     1 <1>   0.1500 
 48 H       -6.5020    -6.9170    -0.0430 H     1 <1>   0.1500 
 49 H       -3.1570    -8.4870    -2.1870 H     1 <1>   0.1500 
 50 H       -5.4180    -8.7610    -1.2930 H     1 <1>   0.1500 
@<TRIPOS>BOND
  1   1   2  2   
  2   1   3  2   
  3   1   4  am  
  4   1   5  am  
  5   4   6  1   
  6   4   7  1   
  7   5   8  1   
  8   5   9  1   
  9   6  10  1   
 10   6  26  1   
 11   6  27  1   
 12   7  11  1   
 13   7  28  1   
 14   7  29  1   
 15   8  12  1   
 16   8  30  1   
 17   8  31  1   
 18   9  32  1   
 19   9  33  1   
 20   9  34  1   
 21  10  13  1   
 22  10  35  1   
 23  10  36  1   
 24  11  13  1   
 25  11  37  1   
 26  11  38  1   
 27  12  39  1   
 28  12  40  1   
 29  12  41  1   
 30  13  14  1   
 31  13  15  1   
 32  14  16  1   
 33  15  17  1   
 34  15  18  2   
 35  16  19  1   
 36  16  42  1   
 37  16  43  1   
 38  17  20  1   
 39  17  44  1   
 40  18  19  1   
 41  18  21  1   
 42  19  45  1   
 43  19  46  1   
 44  20  21  ar  
 45  20  22  ar  
 46  21  23  ar  
 47  22  24  ar  
 48  22  47  1   
 49  23  25  ar  
 50  23  48  1   
 51  24  25  ar  
 52  24  49  1   
 53  25  50  1   
@<TRIPOS>SUBSTRUCTURE
  1 ****  17 GROUP 4 **** **** 0

# MOE 2024.06 (io_trps.svl 2023.06)
