@<TRIPOS>MOLECULE
NONAME
48 51 1 0 0 
SMALL
USER_CHARGES


@<TRIPOS>ATOM
  1 O        1.1850    -0.8670     1.6640 O.3   1 <1>  -0.5600 
  2 C        2.0600    -0.9840     0.5650 C.3   1 <1>   0.4240 
  3 C       -0.1620    -1.1540     1.4480 C.3   1 <1>   0.1200 
  4 C        1.7090    -2.2040    -0.3160 C.ar  1 <1>  -0.1440 
  5 C        3.4570    -1.1570     1.1810 C.3   1 <1>  -0.1600 
  6 C        1.9910     0.3220    -0.2470 C.3   1 <1>  -0.1600 
  7 C       -0.3010    -2.6370     1.1230 C.3   1 <1>  -0.0160 
  8 C        0.5930    -2.9910    -0.0490 C.ar  1 <1>  -0.1440 
  9 C        2.5070    -2.5360    -1.4060 C.ar  1 <1>  -0.1500 
 10 C        3.8850     0.0730     1.9820 C.3   1 <1>   0.2090 
 11 C        2.4350     1.5250     0.5830 C.3   1 <1>   0.2090 
 12 C        0.2920    -4.0870    -0.8420 C.ar  1 <1>  -0.1500 
 13 C        2.2060    -3.6260    -2.2000 C.ar  1 <1>  -0.1500 
 14 N        3.8070     1.2650     1.0950 N.pl3 1 <1>  -0.8380 
 15 C        1.1010    -4.4110    -1.9260 C.ar  1 <1>   0.0820 
 16 C        4.9260     1.9040     0.5990 C.ar  1 <1>   0.7200 
 17 O        0.8770    -5.4650    -2.7510 O.3   1 <1>  -0.3630 
 18 N        4.7780     2.5990    -0.5230 N.ar  1 <1>  -0.6200 
 19 N        6.0570     1.7620     1.2890 N.ar  1 <1>  -0.6200 
 20 C       -0.2090    -6.3390    -2.5460 C.3   1 <1>   0.0400 
 21 C        5.8450     3.2020    -0.9790 C.ar  1 <1>   0.3930 
 22 C        7.1110     2.3770     0.8120 C.ar  1 <1>   0.1600 
 23 O        5.6630     3.9010    -2.1170 O.3   1 <1>  -0.3620 
 24 C        7.0640     3.1220    -0.3350 C.ar  1 <1>  -0.1500 
 25 C        6.6910     4.6410    -2.7370 C.3   1 <1>   0.0400 
 26 H       -0.5310    -0.5430     0.6430 H     1 <1>   0.0800 
 27 H       -0.6980    -0.9130     2.3490 H     1 <1>   0.0800 
 28 H        4.1860    -1.3150     0.4100 H     1 <1>   0.0800 
 29 H        3.4590    -2.0240     1.8130 H     1 <1>   0.0800 
 30 H        0.9980     0.4780    -0.6210 H     1 <1>   0.0800 
 31 H        2.6420     0.2550    -1.0980 H     1 <1>   0.0800 
 32 H       -1.3280    -2.8520     0.8870 H     1 <1>   0.0800 
 33 H       -0.0200    -3.2200     1.9820 H     1 <1>   0.0800 
 34 H        3.3720    -1.9450    -1.6480 H     1 <1>   0.1500 
 35 H        4.8800    -0.0750     2.3620 H     1 <1>   0.0800 
 36 H        3.2280     0.2150     2.8230 H     1 <1>   0.0800 
 37 H        1.7700     1.6630     1.4180 H     1 <1>   0.0800 
 38 H        2.4010     2.4200    -0.0130 H     1 <1>   0.0800 
 39 H       -0.5730    -4.6770    -0.6070 H     1 <1>   0.1500 
 40 H        2.8290    -3.8760    -3.0400 H     1 <1>   0.1500 
 41 H       -0.1770    -7.0950    -3.3090 H     1 <1>   0.0800 
 42 H       -1.1250    -5.7820    -2.6210 H     1 <1>   0.0800 
 43 H       -0.1110    -6.7950    -1.5760 H     1 <1>   0.0800 
 44 H        8.0350     2.2790     1.3560 H     1 <1>   0.1500 
 45 H        7.9430     3.6110    -0.6990 H     1 <1>   0.1500 
 46 H        6.2800     5.1090    -3.6140 H     1 <1>   0.0800 
 47 H        7.4840     3.9720    -3.0200 H     1 <1>   0.0800 
 48 H        7.0420     5.3930    -2.0530 H     1 <1>   0.0800 
@<TRIPOS>BOND
  1   1   2  1   
  2   1   3  1   
  3   2   4  1   
  4   2   5  1   
  5   2   6  1   
  6   3   7  1   
  7   3  26  1   
  8   3  27  1   
  9   4   8  ar  
 10   4   9  ar  
 11   5  10  1   
 12   5  28  1   
 13   5  29  1   
 14   6  11  1   
 15   6  30  1   
 16   6  31  1   
 17   7   8  1   
 18   7  32  1   
 19   7  33  1   
 20   8  12  ar  
 21   9  13  ar  
 22   9  34  1   
 23  10  14  1   
 24  10  35  1   
 25  10  36  1   
 26  11  14  1   
 27  11  37  1   
 28  11  38  1   
 29  12  15  ar  
 30  12  39  1   
 31  13  15  ar  
 32  13  40  1   
 33  14  16  1   
 34  15  17  1   
 35  16  18  ar  
 36  16  19  ar  
 37  17  20  1   
 38  18  21  ar  
 39  19  22  ar  
 40  20  41  1   
 41  20  42  1   
 42  20  43  1   
 43  21  23  1   
 44  21  24  ar  
 45  22  24  ar  
 46  22  44  1   
 47  23  25  1   
 48  24  45  1   
 49  25  46  1   
 50  25  47  1   
 51  25  48  1   
@<TRIPOS>SUBSTRUCTURE
  1 ****   6 GROUP 4 **** **** 0

# MOE 2024.06 (io_trps.svl 2023.06)
