@<TRIPOS>MOLECULE
NONAME
59 61 1 0 0 
SMALL
USER_CHARGES


@<TRIPOS>ATOM
  1 O        0.9150    -0.6490    -1.8220 O.2   1 <1>  -0.5700 
  2 C        1.7170    -1.0530    -1.0120 C.2   1 <1>   0.5690 
  3 N        2.7580    -0.2680    -0.5830 N.am  1 <1>  -0.6600 
  4 C        1.5600    -2.4750    -0.4800 C.3   1 <1>  -0.0990 
  5 C        2.8140     1.1720    -0.9840 C.3   1 <1>   0.1400 
  6 C        3.8720    -0.7730     0.2740 C.3   1 <1>   0.1400 
  7 C        0.1390    -3.0520    -0.6250 C.3   1 <1>  -0.1600 
  8 C        3.4400     2.0420     0.1170 C.3   1 <1>  -0.0800 
  9 C        5.1210     0.0910     0.0940 C.3   1 <1>  -0.1600 
 10 C        0.0410    -4.4680    -0.0450 C.3   1 <1>  -0.0160 
 11 C        4.8520     1.5370     0.5370 C.3   1 <1>   0.2800 
 12 C        3.4210     3.5260    -0.3170 C.3   1 <1>  -0.1600 
 13 C       -1.3760    -5.0020    -0.1710 C.ar  1 <1>  -0.1430 
 14 O        4.8990     1.5350     1.9190 O.3   1 <1>  -0.6800 
 15 C        5.9740     2.4730     0.0530 C.3   1 <1>  -0.1600 
 16 C        4.3230     4.3770     0.5830 C.3   1 <1>  -0.1600 
 17 C       -2.2830    -4.8350     0.8640 C.ar  1 <1>  -0.1500 
 18 C       -1.7760    -5.6600    -1.3220 C.ar  1 <1>  -0.1500 
 19 C        5.7970     3.9370     0.5070 C.3   1 <1>  -0.1600 
 20 C       -3.5770    -5.3200     0.7610 C.ar  1 <1>  -0.1430 
 21 C       -3.0640    -6.1490    -1.4380 C.ar  1 <1>  -0.1500 
 22 C       -3.9740    -5.9840    -0.3960 C.ar  1 <1>   0.0830 
 23 C       -4.5520    -5.1230     1.9130 C.3   1 <1>  -0.0970 
 24 O       -5.2530    -6.4430    -0.4520 O.3   1 <1>  -0.3630 
 25 C       -5.7520    -7.1040    -1.5900 C.3   1 <1>   0.1200 
 26 C       -7.2100    -7.4670    -1.3220 C.3   1 <1>  -0.2400 
 27 H        2.2540    -3.1030    -1.0070 H     1 <1>   0.0800 
 28 H        1.8180    -2.4820     0.5630 H     1 <1>   0.0800 
 29 H        3.3890     1.2550    -1.8900 H     1 <1>   0.0800 
 30 H        1.8190     1.5290    -1.1910 H     1 <1>   0.0800 
 31 H        3.5620    -0.7490     1.3050 H     1 <1>   0.0800 
 32 H        4.1070    -1.7890     0.0080 H     1 <1>   0.0800 
 33 H       -0.5600    -2.4090    -0.1180 H     1 <1>   0.0800 
 34 H       -0.1360    -3.0750    -1.6660 H     1 <1>   0.0800 
 35 H        2.7880     1.9550     0.9700 H     1 <1>   0.0800 
 36 H        5.3990     0.0670    -0.9440 H     1 <1>   0.0800 
 37 H        5.9390    -0.3230     0.6550 H     1 <1>   0.0800 
 38 H        0.3270    -4.4590     0.9920 H     1 <1>   0.0800 
 39 H        0.7170    -5.1230    -0.5650 H     1 <1>   0.0800 
 40 H        3.7590     3.6200    -1.3350 H     1 <1>   0.0800 
 41 H        2.4120     3.8970    -0.2720 H     1 <1>   0.0800 
 42 H        5.8230     1.6290     2.2090 H     1 <1>   0.4000 
 43 H        6.9350     2.1050     0.3650 H     1 <1>   0.0800 
 44 H        5.9710     2.4570    -1.0230 H     1 <1>   0.0800 
 45 H        4.2400     5.4160     0.3140 H     1 <1>   0.0800 
 46 H        3.9790     4.2770     1.5990 H     1 <1>   0.0800 
 47 H       -1.9760    -4.3200     1.7560 H     1 <1>   0.1500 
 48 H       -1.0830    -5.7910    -2.1350 H     1 <1>   0.1500 
 49 H        6.2420     4.0710     1.4780 H     1 <1>   0.0800 
 50 H        6.3260     4.5750    -0.1800 H     1 <1>   0.0800 
 51 H       -3.3370    -6.6530    -2.3440 H     1 <1>   0.1500 
 52 H       -4.0960    -4.5860     2.7230 H     1 <1>   0.0800 
 53 H       -4.8830    -6.0800     2.2750 H     1 <1>   0.0800 
 54 H       -5.4080    -4.5700     1.5710 H     1 <1>   0.0800 
 55 H       -5.6740    -6.4380    -2.4320 H     1 <1>   0.0800 
 56 H       -5.1630    -7.9900    -1.7550 H     1 <1>   0.0800 
 57 H       -7.7840    -6.5760    -1.1420 H     1 <1>   0.0800 
 58 H       -7.2770    -8.1180    -0.4690 H     1 <1>   0.0800 
 59 H       -7.6210    -7.9750    -2.1750 H     1 <1>   0.0800 
@<TRIPOS>BOND
  1   1   2  2   
  2   2   3  am  
  3   2   4  1   
  4   3   5  1   
  5   3   6  1   
  6   4   7  1   
  7   4  27  1   
  8   4  28  1   
  9   5   8  1   
 10   5  29  1   
 11   5  30  1   
 12   6   9  1   
 13   6  31  1   
 14   6  32  1   
 15   7  10  1   
 16   7  33  1   
 17   7  34  1   
 18   8  11  1   
 19   8  12  1   
 20   8  35  1   
 21   9  11  1   
 22   9  36  1   
 23   9  37  1   
 24  10  13  1   
 25  10  38  1   
 26  10  39  1   
 27  11  14  1   
 28  11  15  1   
 29  12  16  1   
 30  12  40  1   
 31  12  41  1   
 32  13  17  ar  
 33  13  18  ar  
 34  14  42  1   
 35  15  19  1   
 36  15  43  1   
 37  15  44  1   
 38  16  19  1   
 39  16  45  1   
 40  16  46  1   
 41  17  20  ar  
 42  17  47  1   
 43  18  21  ar  
 44  18  48  1   
 45  19  49  1   
 46  19  50  1   
 47  20  22  ar  
 48  20  23  1   
 49  21  22  ar  
 50  21  51  1   
 51  22  24  1   
 52  23  52  1   
 53  23  53  1   
 54  23  54  1   
 55  24  25  1   
 56  25  26  1   
 57  25  55  1   
 58  25  56  1   
 59  26  57  1   
 60  26  58  1   
 61  26  59  1   
@<TRIPOS>SUBSTRUCTURE
  1 ****   4 GROUP 4 **** **** 0

# MOE 2024.06 (io_trps.svl 2023.06)
