@<TRIPOS>MOLECULE
NONAME
48 50 1 0 0 
SMALL
USER_CHARGES


@<TRIPOS>ATOM
  1 O       -0.9550     0.9640    -1.1760 O.2   1 <1>  -0.5700 
  2 C       -1.0080     2.1690    -1.2400 C.2   1 <1>   0.5690 
  3 N       -1.4440     2.9690    -0.2130 N.am  1 <1>  -0.6600 
  4 C       -0.5560     2.8330    -2.5380 C.3   1 <1>   0.1810 
  5 C       -1.4410     4.4630    -0.3650 C.3   1 <1>   0.3640 
  6 C       -1.8560     2.4800     1.1320 C.3   1 <1>   0.2200 
  7 O        0.1030     4.0430    -2.2830 O.3   1 <1>  -0.5600 
  8 C       -2.8730     5.0000    -0.3510 C.ar  1 <1>  -0.1440 
  9 C       -0.6960     5.0060    -1.6150 C.3   1 <1>   0.2610 
 10 C       -0.6530     1.8810     1.8600 C.3   1 <1>  -0.2400 
 11 C       -3.0200     1.4920     1.0420 C.3   1 <1>  -0.2400 
 12 C       -3.9030     4.3480    -1.0170 C.ar  1 <1>  -0.1500 
 13 C       -3.1520     6.1770     0.3300 C.ar  1 <1>  -0.1500 
 14 C        0.1250     6.2300    -1.1890 C.2   1 <1>   0.5690 
 15 C       -5.1890     4.8580    -0.9950 C.ar  1 <1>  -0.1500 
 16 C       -4.4380     6.6890     0.3520 C.ar  1 <1>  -0.1500 
 17 O       -0.3350     7.3160    -1.4610 O.2   1 <1>  -0.5700 
 18 N        1.3020     6.1240    -0.4770 N.am  1 <1>  -0.6600 
 19 C       -5.4580     6.0290    -0.3090 C.ar  1 <1>  -0.1500 
 20 C        2.0980     7.3320    -0.1050 C.3   1 <1>   0.1400 
 21 C        1.9810     4.8470    -0.0880 C.3   1 <1>   0.1400 
 22 C        2.5620     7.2510     1.3580 C.3   1 <1>   0.1200 
 23 C        2.4620     4.9050     1.3720 C.3   1 <1>   0.1200 
 24 O        3.2350     6.0480     1.5990 O.3   1 <1>  -0.5600 
 25 H       -1.4020     3.0210    -3.1730 H     1 <1>   0.0800 
 26 H        0.1320     2.1860    -3.0500 H     1 <1>   0.0800 
 27 H       -0.9440     4.8580     0.5040 H     1 <1>   0.0800 
 28 H       -2.2030     3.3200     1.7120 H     1 <1>   0.0800 
 29 H       -1.4240     5.3440    -2.3310 H     1 <1>   0.0800 
 30 H       -0.3020     1.0000     1.3530 H     1 <1>   0.0800 
 31 H       -0.9340     1.6020     2.8590 H     1 <1>   0.0800 
 32 H        0.1430     2.5990     1.9180 H     1 <1>   0.0800 
 33 H       -2.7230     0.5800     0.5570 H     1 <1>   0.0800 
 34 H       -3.8400     1.9310     0.5050 H     1 <1>   0.0800 
 35 H       -3.3610     1.2440     2.0300 H     1 <1>   0.0800 
 36 H       -3.7150     3.4360    -1.5550 H     1 <1>   0.1500 
 37 H       -2.3710     6.7130     0.8420 H     1 <1>   0.1500 
 38 H       -5.9820     4.3440    -1.5110 H     1 <1>   0.1500 
 39 H       -4.6450     7.6030     0.8810 H     1 <1>   0.1500 
 40 H       -6.4580     6.4270    -0.2920 H     1 <1>   0.1500 
 41 H        2.9600     7.3980    -0.7460 H     1 <1>   0.0800 
 42 H        1.5180     8.2290    -0.2410 H     1 <1>   0.0800 
 43 H        1.3250     4.0040    -0.1940 H     1 <1>   0.0800 
 44 H        2.8270     4.6880    -0.7330 H     1 <1>   0.0800 
 45 H        1.7210     7.3180     2.0260 H     1 <1>   0.0800 
 46 H        3.2410     8.0560     1.5760 H     1 <1>   0.0800 
 47 H        3.0720     4.0470     1.5950 H     1 <1>   0.0800 
 48 H        1.6240     4.9170     2.0470 H     1 <1>   0.0800 
@<TRIPOS>BOND
  1   1   2  2   
  2   2   3  am  
  3   2   4  1   
  4   3   5  1   
  5   3   6  1   
  6   4   7  1   
  7   4  25  1   
  8   4  26  1   
  9   5   8  1   
 10   5   9  1   
 11   5  27  1   
 12   6  10  1   
 13   6  11  1   
 14   6  28  1   
 15   7   9  1   
 16   8  12  ar  
 17   8  13  ar  
 18   9  14  1   
 19   9  29  1   
 20  10  30  1   
 21  10  31  1   
 22  10  32  1   
 23  11  33  1   
 24  11  34  1   
 25  11  35  1   
 26  12  15  ar  
 27  12  36  1   
 28  13  16  ar  
 29  13  37  1   
 30  14  17  2   
 31  14  18  am  
 32  15  19  ar  
 33  15  38  1   
 34  16  19  ar  
 35  16  39  1   
 36  18  20  1   
 37  18  21  1   
 38  19  40  1   
 39  20  22  1   
 40  20  41  1   
 41  20  42  1   
 42  21  23  1   
 43  21  43  1   
 44  21  44  1   
 45  22  24  1   
 46  22  45  1   
 47  22  46  1   
 48  23  24  1   
 49  23  47  1   
 50  23  48  1   
@<TRIPOS>SUBSTRUCTURE
  1 ****   5 GROUP 4 **** **** 0

# MOE 2024.06 (io_trps.svl 2023.06)
