@<TRIPOS>MOLECULE
NONAME
45 47 1 0 0 
SMALL
USER_CHARGES


@<TRIPOS>ATOM
  1 F       -0.9390    -1.0570     2.4540 F     1 <1>  -0.1900 
  2 C       -1.4960    -1.4980     1.3590 C.ar  1 <1>   0.1900 
  3 C       -1.6310    -0.6490     0.2740 C.ar  1 <1>   0.1600 
  4 C       -1.9380    -2.7980     1.3090 C.ar  1 <1>  -0.1500 
  5 N       -2.1840    -1.0210    -0.8740 N.ar  1 <1>  -0.6200 
  6 C       -2.5290    -3.2120     0.1220 C.ar  1 <1>   0.0860 
  7 C       -2.6030    -2.2790    -0.9180 C.ar  1 <1>   0.1600 
  8 C       -3.0460    -4.5550    -0.0420 C.2   1 <1>   0.5440 
  9 O       -2.5160    -5.4910     0.5280 O.2   1 <1>  -0.5700 
 10 N       -4.1630    -4.8270    -0.8000 N.am  1 <1>  -0.6600 
 11 C       -4.4170    -6.2270    -1.2330 C.3   1 <1>   0.1400 
 12 C       -5.4060    -4.0220    -0.6430 C.3   1 <1>   0.1400 
 13 C       -5.2680    -6.9340    -0.1540 C.3   1 <1>   0.4230 
 14 C       -6.2800    -4.6960     0.4240 C.3   1 <1>  -0.1600 
 15 N       -5.4220    -8.4340    -0.3680 N.4   1 <1>  -0.9590 
 16 C       -6.6110    -6.1870     0.1130 C.3   1 <1>   0.0000 
 17 C       -6.5470    -9.0500     0.4080 C.3   1 <1>   0.3430 
 18 C       -5.4760    -8.8830    -1.7970 C.3   1 <1>   0.2630 
 19 C       -7.3100    -6.8130     1.3560 C.3   1 <1>  -0.1600 
 20 C       -7.5350    -6.2860    -1.1350 C.3   1 <1>   0.1200 
 21 C       -6.8460    -8.2480     1.6730 C.3   1 <1>  -0.1600 
 22 O       -8.6370    -5.4550    -1.0230 O.3   1 <1>  -0.6800 
 23 H       -1.2720     0.3620     0.3570 H     1 <1>   0.1500 
 24 H       -1.8290    -3.4600     2.1500 H     1 <1>   0.1500 
 25 H       -3.0390    -2.6000    -1.8490 H     1 <1>   0.1500 
 26 H       -4.9120    -6.2120    -2.1860 H     1 <1>   0.0800 
 27 H       -3.4760    -6.7390    -1.3470 H     1 <1>   0.0800 
 28 H       -5.1740    -3.0170    -0.3330 H     1 <1>   0.0800 
 29 H       -5.9280    -3.9640    -1.5840 H     1 <1>   0.0800 
 30 H       -4.7000    -6.8210     0.7560 H     1 <1>   0.0800 
 31 H       -5.7510    -4.6280     1.3590 H     1 <1>   0.0800 
 32 H       -7.1830    -4.1220     0.5440 H     1 <1>   0.0800 
 33 H       -4.5560    -8.8280     0.0330 H     1 <1>   0.4500 
 34 H       -7.4380    -9.0740    -0.1990 H     1 <1>   0.0800 
 35 H       -6.2980   -10.0670     0.6700 H     1 <1>   0.0800 
 36 H       -6.3360    -8.4640    -2.2930 H     1 <1>   0.0800 
 37 H       -5.5410    -9.9580    -1.8480 H     1 <1>   0.0800 
 38 H       -4.5880    -8.5750    -2.3260 H     1 <1>   0.0800 
 39 H       -7.1270    -6.2170     2.2350 H     1 <1>   0.0800 
 40 H       -8.3770    -6.8150     1.2180 H     1 <1>   0.0800 
 41 H       -7.9010    -7.2870    -1.2770 H     1 <1>   0.0800 
 42 H       -7.0230    -5.9830    -2.0300 H     1 <1>   0.0800 
 43 H       -7.6140    -8.7490     2.2370 H     1 <1>   0.0800 
 44 H       -5.9650    -8.2260     2.2920 H     1 <1>   0.0800 
 45 H       -9.2130    -5.7000    -0.2720 H     1 <1>   0.4000 
@<TRIPOS>BOND
  1   1   2  1   
  2   2   3  ar  
  3   2   4  ar  
  4   3   5  ar  
  5   3  23  1   
  6   4   6  ar  
  7   4  24  1   
  8   5   7  ar  
  9   6   7  ar  
 10   6   8  1   
 11   7  25  1   
 12   8   9  2   
 13   8  10  am  
 14  10  11  1   
 15  10  12  1   
 16  11  13  1   
 17  11  26  1   
 18  11  27  1   
 19  12  14  1   
 20  12  28  1   
 21  12  29  1   
 22  13  15  1   
 23  13  16  1   
 24  13  30  1   
 25  14  16  1   
 26  14  31  1   
 27  14  32  1   
 28  15  17  1   
 29  15  18  1   
 30  15  33  1   
 31  16  19  1   
 32  16  20  1   
 33  17  21  1   
 34  17  34  1   
 35  17  35  1   
 36  18  36  1   
 37  18  37  1   
 38  18  38  1   
 39  19  21  1   
 40  19  39  1   
 41  19  40  1   
 42  20  22  1   
 43  20  41  1   
 44  20  42  1   
 45  21  43  1   
 46  21  44  1   
 47  22  45  1   
@<TRIPOS>SUBSTRUCTURE
  1 ****  10 GROUP 4 **** **** 0

# MOE 2024.06 (io_trps.svl 2023.06)
