@<TRIPOS>MOLECULE
NONAME
44 45 1 0 0 
SMALL
USER_CHARGES


@<TRIPOS>ATOM
  1 S       -0.1750    -1.0480     0.5670 S.3   1 <1>  -0.0800 
  2 C       -1.3190    -0.1980     1.5780 C.2   1 <1>   0.1980 
  3 C       -1.5070    -1.7860    -0.2760 C.2   1 <1>  -0.1400 
  4 N       -2.5370    -0.4430     1.3160 N.2   1 <1>  -0.5650 
  5 C       -0.7570     0.7220     2.6360 C.3   1 <1>  -0.0600 
  6 C       -2.6610    -1.3500     0.2650 C.2   1 <1>   0.0460 
  7 C       -1.1550    -2.7310    -1.4100 C.3   1 <1>  -0.0600 
  8 C       -4.0910    -1.7250    -0.1540 C.3   1 <1>   0.3710 
  9 N       -4.2420    -3.1820    -0.4370 N.3   1 <1>  -0.8100 
 10 C       -4.4570    -0.8710    -1.3730 C.3   1 <1>  -0.2400 
 11 C       -5.6050    -3.5610    -0.9300 C.3   1 <1>   0.1710 
 12 C       -3.8820    -3.9810     0.7540 C.3   1 <1>   0.0300 
 13 C       -5.7970    -5.0260    -1.3530 C.2   1 <1>   0.5690 
 14 O       -5.6500    -5.3360    -2.5130 O.2   1 <1>  -0.5700 
 15 N       -6.1700    -5.9440    -0.4280 N.am  1 <1>  -0.7300 
 16 C       -6.4150    -7.3700    -0.6940 C.3   1 <1>   0.3200 
 17 C       -7.4030    -7.8770     0.3360 C.2   1 <1>  -0.0400 
 18 O       -7.1450    -7.6600     1.6090 O.3   1 <1>  -0.2800 
 19 C       -8.5720    -8.5380     0.2030 C.2   1 <1>  -0.1500 
 20 C       -8.1330    -8.1670     2.3470 C.2   1 <1>  -0.0920 
 21 C       -9.0430    -8.7290     1.5030 C.2   1 <1>  -0.1500 
 22 C       -8.1540    -8.0810     3.7990 C.2   1 <1>   1.0320 
 23 O       -9.0610    -8.6470     4.4410 O.co2 1 <1>  -0.9000 
 24 O       -7.2910    -7.4400     4.4320 O.co2 1 <1>  -0.9000 
 25 H       -0.1440     0.1620     3.3170 H     1 <1>   0.0800 
 26 H       -1.5620     1.1790     3.1830 H     1 <1>   0.0800 
 27 H       -0.1670     1.4900     2.1730 H     1 <1>   0.0800 
 28 H       -0.5440    -2.2230    -2.1330 H     1 <1>   0.0800 
 29 H       -2.0430    -3.0850    -1.9000 H     1 <1>   0.0800 
 30 H       -0.6150    -3.5770    -1.0250 H     1 <1>   0.0800 
 31 H       -4.7480    -1.4660     0.6590 H     1 <1>   0.0800 
 32 H       -3.9360    -1.2250    -2.2430 H     1 <1>   0.0800 
 33 H       -4.1630     0.1480    -1.1910 H     1 <1>   0.0800 
 34 H       -5.5160    -0.8720    -1.5470 H     1 <1>   0.0800 
 35 H       -5.8400    -2.9840    -1.8040 H     1 <1>   0.0800 
 36 H       -6.3350    -3.3250    -0.1770 H     1 <1>   0.0800 
 37 H       -2.8980    -3.7260     1.1050 H     1 <1>   0.0800 
 38 H       -3.8690    -5.0290     0.5110 H     1 <1>   0.0800 
 39 H       -4.5860    -3.8120     1.5510 H     1 <1>   0.0800 
 40 H       -6.3040    -5.7050     0.5600 H     1 <1>   0.3700 
 41 H       -5.4900    -7.9110    -0.6010 H     1 <1>   0.0800 
 42 H       -6.8040    -7.5030    -1.6890 H     1 <1>   0.0800 
 43 H       -9.0680    -8.8640    -0.6930 H     1 <1>   0.1500 
 44 H       -9.9530    -9.2230     1.7930 H     1 <1>   0.1500 
@<TRIPOS>BOND
  1   1   2  1   
  2   1   3  1   
  3   2   4  2   
  4   2   5  1   
  5   3   6  2   
  6   3   7  1   
  7   4   6  1   
  8   5  25  1   
  9   5  26  1   
 10   5  27  1   
 11   6   8  1   
 12   7  28  1   
 13   7  29  1   
 14   7  30  1   
 15   8   9  1   
 16   8  10  1   
 17   8  31  1   
 18   9  11  1   
 19   9  12  1   
 20  10  32  1   
 21  10  33  1   
 22  10  34  1   
 23  11  13  1   
 24  11  35  1   
 25  11  36  1   
 26  12  37  1   
 27  12  38  1   
 28  12  39  1   
 29  13  14  2   
 30  13  15  am  
 31  15  16  1   
 32  15  40  1   
 33  16  17  1   
 34  16  41  1   
 35  16  42  1   
 36  17  18  1   
 37  17  19  2   
 38  18  20  1   
 39  19  21  1   
 40  19  43  1   
 41  20  21  2   
 42  20  22  1   
 43  21  44  1   
 44  22  23  ar  
 45  22  24  ar  
@<TRIPOS>SUBSTRUCTURE
  1 ****  12 GROUP 4 **** **** 0

# MOE 2024.06 (io_trps.svl 2023.06)
