@<TRIPOS>MOLECULE
NONAME
44 46 1 0 0 
SMALL
USER_CHARGES


@<TRIPOS>ATOM
  1 CL       0.7210     1.5640    -1.5600 Cl    1 <1>  -0.1770 
  2 C        1.9720     1.5850    -0.3310 C.ar  1 <1>   0.1770 
  3 C        2.5340     0.4320     0.2350 C.ar  1 <1>   0.0830 
  4 C        2.4010     2.8410     0.0490 C.ar  1 <1>  -0.1500 
  5 O        2.2190    -0.8610    -0.0300 O.3   1 <1>  -0.3630 
  6 C        3.5330     0.6000     1.1820 C.ar  1 <1>  -0.1500 
  7 C        3.4130     3.0120     0.9930 C.ar  1 <1>   0.0860 
  8 C        1.0620    -1.2760    -0.7190 C.3   1 <1>   0.0400 
  9 C        3.9600     1.8610     1.5570 C.ar  1 <1>  -0.1500 
 10 C        3.8820     4.3280     1.3780 C.2   1 <1>   0.5440 
 11 O        4.0070     4.6000     2.5560 O.2   1 <1>  -0.5700 
 12 N        4.2290     5.2980     0.4540 N.am  1 <1>  -0.6600 
 13 C        4.2970     6.7360     0.8760 C.3   1 <1>   0.1400 
 14 C        4.6560     4.9670    -0.9310 C.3   1 <1>   0.1400 
 15 C        5.7360     7.2860     1.0180 C.3   1 <1>   0.4230 
 16 C        6.0620     5.4900    -1.2740 C.3   1 <1>  -0.0800 
 17 N        6.3060     7.8290    -0.2670 N.4   1 <1>  -0.9590 
 18 C        6.7520     6.2590     1.5810 C.3   1 <1>   0.1200 
 19 C        7.1720     4.9260    -0.3480 C.3   1 <1>   0.1200 
 20 C        6.0520     7.0150    -1.4950 C.3   1 <1>   0.3430 
 21 C        6.0430     9.2830    -0.4710 C.3   1 <1>   0.2630 
 22 O        7.6570     5.8560     0.5800 O.3   1 <1>  -0.5600 
 23 H        1.9390     3.7050    -0.3940 H     1 <1>   0.1500 
 24 H        3.9730    -0.2730     1.6320 H     1 <1>   0.1500 
 25 H        0.9740    -2.3420    -0.6090 H     1 <1>   0.0800 
 26 H        1.1670    -1.0310    -1.7600 H     1 <1>   0.0800 
 27 H        0.2020    -0.7950    -0.2870 H     1 <1>   0.0800 
 28 H        4.7300     1.9610     2.3040 H     1 <1>   0.1500 
 29 H        3.7360     7.3420     0.1870 H     1 <1>   0.0800 
 30 H        3.8140     6.8410     1.8330 H     1 <1>   0.0800 
 31 H        4.6610     3.8980    -1.0640 H     1 <1>   0.0800 
 32 H        3.9340     5.3680    -1.6230 H     1 <1>   0.0800 
 33 H        5.6820     8.0920     1.7300 H     1 <1>   0.0800 
 34 H        6.2580     5.0680    -2.2430 H     1 <1>   0.0800 
 35 H        7.3200     7.6790    -0.1000 H     1 <1>   0.4500 
 36 H        6.2890     5.3950     2.0220 H     1 <1>   0.0800 
 37 H        7.3310     6.7340     2.3520 H     1 <1>   0.0800 
 38 H        8.0180     4.6330    -0.9470 H     1 <1>   0.0800 
 39 H        6.8340     4.0530     0.1860 H     1 <1>   0.0800 
 40 H        5.1020     7.2940    -1.9200 H     1 <1>   0.0800 
 41 H        6.8120     7.2550    -2.2210 H     1 <1>   0.0800 
 42 H        4.9910     9.4560    -0.6310 H     1 <1>   0.0800 
 43 H        6.5860     9.6440    -1.3300 H     1 <1>   0.0800 
 44 H        6.3590     9.8460     0.3920 H     1 <1>   0.0800 
@<TRIPOS>BOND
  1   1   2  1   
  2   2   3  ar  
  3   2   4  ar  
  4   3   5  1   
  5   3   6  ar  
  6   4   7  ar  
  7   4  23  1   
  8   5   8  1   
  9   6   9  ar  
 10   6  24  1   
 11   7   9  ar  
 12   7  10  1   
 13   8  25  1   
 14   8  26  1   
 15   8  27  1   
 16   9  28  1   
 17  10  11  2   
 18  10  12  am  
 19  12  13  1   
 20  12  14  1   
 21  13  15  1   
 22  13  29  1   
 23  13  30  1   
 24  14  16  1   
 25  14  31  1   
 26  14  32  1   
 27  15  17  1   
 28  15  18  1   
 29  15  33  1   
 30  16  19  1   
 31  16  20  1   
 32  16  34  1   
 33  17  20  1   
 34  17  21  1   
 35  17  35  1   
 36  18  22  1   
 37  18  36  1   
 38  18  37  1   
 39  19  22  1   
 40  19  38  1   
 41  19  39  1   
 42  20  40  1   
 43  20  41  1   
 44  21  42  1   
 45  21  43  1   
 46  21  44  1   
@<TRIPOS>SUBSTRUCTURE
  1 ****  12 GROUP 4 **** **** 0

# MOE 2024.06 (io_trps.svl 2023.06)
