@<TRIPOS>MOLECULE
NONAME
58 61 1 0 0 
SMALL
USER_CHARGES


@<TRIPOS>ATOM
  1 O       -1.8180    -0.5520     2.0150 O.3   1 <1>  -0.3630 
  2 C       -2.5150    -1.6550     1.6490 C.ar  1 <1>   0.0830 
  3 C       -0.6150    -0.1890     1.3740 C.3   1 <1>   0.0400 
  4 C       -2.1750    -2.4700     0.5750 C.ar  1 <1>  -0.1500 
  5 C       -3.6260    -1.9660     2.4100 C.ar  1 <1>  -0.1500 
  6 C       -2.9420    -3.5810     0.2560 C.ar  1 <1>  -0.1430 
  7 C       -4.3970    -3.0690     2.1020 C.ar  1 <1>  -0.1500 
  8 C       -4.0700    -3.8750     1.0190 C.ar  1 <1>  -0.1440 
  9 C       -2.5070    -4.4460    -0.9220 C.3   1 <1>  -0.0970 
 10 C       -4.9720    -5.0500     0.6910 C.3   1 <1>   0.4860 
 11 N       -5.8580    -4.6330    -0.4270 N.4   1 <1>  -0.9590 
 12 C       -6.8520    -3.6010     0.0280 C.3   1 <1>   0.3430 
 13 C       -6.5320    -5.7890    -1.0790 C.3   1 <1>   0.3430 
 14 C       -7.6820    -3.0490    -1.1410 C.3   1 <1>   0.1440 
 15 C       -7.3230    -5.3010    -2.2970 C.3   1 <1>  -0.1600 
 16 C       -8.7360    -2.1350    -0.5680 C.ar  1 <1>   0.1670 
 17 C       -8.3380    -4.2030    -1.9280 C.3   1 <1>  -0.1600 
 18 C       -6.8690    -2.0950    -2.0590 C.3   1 <1>  -0.1600 
 19 N       -9.5050    -2.4450     0.4430 N.ar  1 <1>  -0.6200 
 20 C       -8.7760    -0.9370    -1.2090 C.ar  1 <1>  -0.1430 
 21 C       -7.7620    -0.8660    -2.3240 C.3   1 <1>  -0.0170 
 22 C      -10.3600    -1.4850     0.8100 C.ar  1 <1>   0.7200 
 23 C       -9.6860    -0.0130    -0.7630 C.ar  1 <1>   0.1600 
 24 N      -10.4800    -0.2790     0.2480 N.ar  1 <1>  -0.6200 
 25 N      -11.1900    -1.7680     1.8740 N.pl3 1 <1>  -0.8380 
 26 C      -11.9310    -0.6920     2.5910 C.3   1 <1>   0.1290 
 27 C      -11.5970    -3.1570     2.2210 C.3   1 <1>   0.1290 
 28 H       -0.2330     0.6920     1.8560 H     1 <1>   0.0800 
 29 H       -0.8200     0.0220     0.3390 H     1 <1>   0.0800 
 30 H        0.0910    -0.9940     1.4730 H     1 <1>   0.0800 
 31 H       -1.3070    -2.2430    -0.0160 H     1 <1>   0.1500 
 32 H       -3.8770    -1.3350     3.2460 H     1 <1>   0.1500 
 33 H       -5.2540    -3.2840     2.7190 H     1 <1>   0.1500 
 34 H       -1.5340    -4.1510    -1.2720 H     1 <1>   0.0800 
 35 H       -3.1950    -4.3480    -1.7420 H     1 <1>   0.0800 
 36 H       -2.4420    -5.4790    -0.6290 H     1 <1>   0.0800 
 37 H       -5.5560    -5.3270     1.5530 H     1 <1>   0.0800 
 38 H       -4.3690    -5.8930     0.3990 H     1 <1>   0.0800 
 39 H       -5.2430    -4.1720    -1.1080 H     1 <1>   0.4500 
 40 H       -6.3490    -2.7790     0.5090 H     1 <1>   0.0800 
 41 H       -7.5270    -4.0390     0.7470 H     1 <1>   0.0800 
 42 H       -7.2050    -6.2600    -0.3810 H     1 <1>   0.0800 
 43 H       -5.8020    -6.5180    -1.3930 H     1 <1>   0.0800 
 44 H       -7.8520    -6.1360    -2.7240 H     1 <1>   0.0800 
 45 H       -6.6400    -4.9440    -3.0470 H     1 <1>   0.0800 
 46 H       -8.8140    -3.8220    -2.8160 H     1 <1>   0.0800 
 47 H       -9.1120    -4.6400    -1.3190 H     1 <1>   0.0800 
 48 H       -6.5660    -2.5550    -2.9830 H     1 <1>   0.0800 
 49 H       -5.9880    -1.7560    -1.5410 H     1 <1>   0.0800 
 50 H       -8.2640    -0.9530    -3.2730 H     1 <1>   0.0800 
 51 H       -7.1990     0.0510    -2.2920 H     1 <1>   0.0800 
 52 H       -9.7630     0.9530    -1.2330 H     1 <1>   0.1500 
 53 H      -11.3600     0.2210     2.5910 H     1 <1>   0.0800 
 54 H      -12.1070    -0.9820     3.6120 H     1 <1>   0.0800 
 55 H      -12.8720    -0.5150     2.1020 H     1 <1>   0.0800 
 56 H      -11.3620    -3.8370     1.4210 H     1 <1>   0.0800 
 57 H      -12.6580    -3.1960     2.3950 H     1 <1>   0.0800 
 58 H      -11.0810    -3.4710     3.1110 H     1 <1>   0.0800 
@<TRIPOS>BOND
  1   1   2  1   
  2   1   3  1   
  3   2   4  ar  
  4   2   5  ar  
  5   3  28  1   
  6   3  29  1   
  7   3  30  1   
  8   4   6  ar  
  9   4  31  1   
 10   5   7  ar  
 11   5  32  1   
 12   6   8  ar  
 13   6   9  1   
 14   7   8  ar  
 15   7  33  1   
 16   8  10  1   
 17   9  34  1   
 18   9  35  1   
 19   9  36  1   
 20  10  11  1   
 21  10  37  1   
 22  10  38  1   
 23  11  12  1   
 24  11  13  1   
 25  11  39  1   
 26  12  14  1   
 27  12  40  1   
 28  12  41  1   
 29  13  15  1   
 30  13  42  1   
 31  13  43  1   
 32  14  16  1   
 33  14  17  1   
 34  14  18  1   
 35  15  17  1   
 36  15  44  1   
 37  15  45  1   
 38  16  19  ar  
 39  16  20  ar  
 40  17  46  1   
 41  17  47  1   
 42  18  21  1   
 43  18  48  1   
 44  18  49  1   
 45  19  22  ar  
 46  20  21  1   
 47  20  23  ar  
 48  21  50  1   
 49  21  51  1   
 50  22  24  ar  
 51  22  25  1   
 52  23  24  ar  
 53  23  52  1   
 54  25  26  1   
 55  25  27  1   
 56  26  53  1   
 57  26  54  1   
 58  26  55  1   
 59  27  56  1   
 60  27  57  1   
 61  27  58  1   
@<TRIPOS>SUBSTRUCTURE
  1 ****  12 GROUP 4 **** **** 0

# MOE 2024.06 (io_trps.svl 2023.06)
