@<TRIPOS>MOLECULE
NONAME
56 59 1 0 0 
SMALL
USER_CHARGES


@<TRIPOS>ATOM
  1 O       -3.8400     3.2250     1.5770 O.2   1 <1>  -0.5700 
  2 C       -3.2730     2.6040     0.7020 C.2   1 <1>   0.5440 
  3 N       -3.8560     1.4400     0.2270 N.am  1 <1>  -0.6600 
  4 C       -2.0340     3.1280     0.1990 C.ar  1 <1>   0.0860 
  5 C       -3.2450     0.5350    -0.7870 C.3   1 <1>   0.1400 
  6 C       -5.1650     0.9500     0.7570 C.3   1 <1>   0.1400 
  7 C       -0.7920     2.4980     0.3140 C.ar  1 <1>   0.3100 
  8 C       -2.0400     4.3430    -0.4590 C.ar  1 <1>   0.1600 
  9 C       -3.0370    -0.8740    -0.1740 C.3   1 <1>   0.4230 
 10 C       -4.9670    -0.4410     1.3700 C.3   1 <1>  -0.1600 
 11 N        0.2840     3.0170    -0.2540 N.ar  1 <1>  -0.6200 
 12 C       -0.6090     1.2370     1.0150 C.ar  1 <1>   0.0000 
 13 N       -0.9770     4.8700    -1.0090 N.ar  1 <1>  -0.6200 
 14 N       -2.2410    -1.8200    -1.0630 N.4   1 <1>  -0.9590 
 15 C       -4.3600    -1.4760     0.3810 C.3   1 <1>   0.0000 
 16 C        0.1290     4.1640    -0.8790 C.ar  1 <1>   0.7200 
 17 C       -1.1970     0.9730     2.2540 C.ar  1 <1>  -0.1500 
 18 C        0.1930     0.2340     0.4650 C.ar  1 <1>  -0.1500 
 19 C       -2.4460    -3.2730    -0.7600 C.3   1 <1>   0.3430 
 20 C       -2.3710    -1.5940    -2.5400 C.3   1 <1>   0.2630 
 21 C       -4.0430    -2.7800     1.1690 C.3   1 <1>  -0.1600 
 22 C       -5.3530    -1.7660    -0.7820 C.3   1 <1>   0.1200 
 23 N        1.2160     4.6760    -1.4460 N.pl3 1 <1>  -0.9000 
 24 C       -1.0180    -0.2390     2.8940 C.ar  1 <1>  -0.1500 
 25 C        0.3850    -0.9770     1.1050 C.ar  1 <1>  -0.1500 
 26 C       -2.7500    -3.4870     0.7200 C.3   1 <1>  -0.1600 
 27 O       -6.6070    -2.1150    -0.3100 O.3   1 <1>  -0.6800 
 28 C       -0.2260    -1.2170     2.3220 C.ar  1 <1>  -0.1500 
 29 H       -3.9030     0.4920    -1.6360 H     1 <1>   0.0800 
 30 H       -2.3040     0.9260    -1.1210 H     1 <1>   0.0800 
 31 H       -5.5530     1.6160     1.5100 H     1 <1>   0.0800 
 32 H       -5.8880     0.9140    -0.0400 H     1 <1>   0.0800 
 33 H       -2.9670     4.8880    -0.5330 H     1 <1>   0.1500 
 34 H       -2.4270    -0.7090     0.6980 H     1 <1>   0.0800 
 35 H       -4.3220    -0.3210     2.2240 H     1 <1>   0.0800 
 36 H       -5.9140    -0.7870     1.7470 H     1 <1>   0.0800 
 37 H       -1.2600    -1.6210    -0.8080 H     1 <1>   0.4500 
 38 H       -1.7950     1.7280     2.7390 H     1 <1>   0.1500 
 39 H        0.6970     0.4220    -0.4690 H     1 <1>   0.1500 
 40 H       -3.2710    -3.6550    -1.3380 H     1 <1>   0.0800 
 41 H       -1.5650    -3.8320    -1.0340 H     1 <1>   0.0800 
 42 H       -3.3920    -1.7380    -2.8540 H     1 <1>   0.0800 
 43 H       -1.7460    -2.2870    -3.0800 H     1 <1>   0.0800 
 44 H       -2.0660    -0.5930    -2.8000 H     1 <1>   0.0800 
 45 H       -3.9380    -2.5690     2.2210 H     1 <1>   0.0800 
 46 H       -4.8650    -3.4690     1.0880 H     1 <1>   0.0800 
 47 H       -5.0110    -2.5700    -1.4070 H     1 <1>   0.0800 
 48 H       -5.4980    -0.8980    -1.3990 H     1 <1>   0.0800 
 49 H        2.1220     4.3210    -1.1500 H     1 <1>   0.4000 
 50 H        1.1730     5.6460    -1.7470 H     1 <1>   0.4000 
 51 H       -1.4820    -0.4140     3.8510 H     1 <1>   0.1500 
 52 H        1.0310    -1.7240     0.6740 H     1 <1>   0.1500 
 53 H       -2.8420    -4.5430     0.9130 H     1 <1>   0.0800 
 54 H       -1.9180    -3.1360     1.3010 H     1 <1>   0.0800 
 55 H       -6.5940    -2.9430     0.2110 H     1 <1>   0.4000 
 56 H       -0.0690    -2.1510     2.8360 H     1 <1>   0.1500 
@<TRIPOS>BOND
  1   1   2  2   
  2   2   3  am  
  3   2   4  1   
  4   3   5  1   
  5   3   6  1   
  6   4   7  ar  
  7   4   8  ar  
  8   5   9  1   
  9   5  29  1   
 10   5  30  1   
 11   6  10  1   
 12   6  31  1   
 13   6  32  1   
 14   7  11  ar  
 15   7  12  1   
 16   8  13  ar  
 17   8  33  1   
 18   9  14  1   
 19   9  15  1   
 20   9  34  1   
 21  10  15  1   
 22  10  35  1   
 23  10  36  1   
 24  11  16  ar  
 25  12  17  ar  
 26  12  18  ar  
 27  13  16  ar  
 28  14  19  1   
 29  14  20  1   
 30  14  37  1   
 31  15  21  1   
 32  15  22  1   
 33  16  23  1   
 34  17  24  ar  
 35  17  38  1   
 36  18  25  ar  
 37  18  39  1   
 38  19  26  1   
 39  19  40  1   
 40  19  41  1   
 41  20  42  1   
 42  20  43  1   
 43  20  44  1   
 44  21  26  1   
 45  21  45  1   
 46  21  46  1   
 47  22  27  1   
 48  22  47  1   
 49  22  48  1   
 50  23  49  1   
 51  23  50  1   
 52  24  28  ar  
 53  24  51  1   
 54  25  28  ar  
 55  25  52  1   
 56  26  53  1   
 57  26  54  1   
 58  27  55  1   
 59  28  56  1   
@<TRIPOS>SUBSTRUCTURE
  1 ****   5 GROUP 4 **** **** 0

# MOE 2024.06 (io_trps.svl 2023.06)
