@<TRIPOS>MOLECULE
NONAME
46 49 1 0 0 
SMALL
USER_CHARGES


@<TRIPOS>ATOM
  1 S       -0.2490     0.9140     2.2230 S.3   1 <1>  -0.0800 
  2 C       -0.0450     1.8350     0.7480 C.2   1 <1>  -0.1400 
  3 C        1.1930     1.6520     2.9050 C.2   1 <1>  -0.1100 
  4 C        1.0400     2.6180     0.7930 C.2   1 <1>  -0.1810 
  5 C       -1.0010     1.7360    -0.4090 C.3   1 <1>   0.0200 
  6 C        1.7500     2.5190     2.0360 C.2   1 <1>  -0.1500 
  7 C        1.4240     3.5010    -0.3970 C.3   1 <1>   0.4610 
  8 C       -0.7730     2.9740    -1.2920 C.3   1 <1>   0.1200 
  9 O        0.6010     3.1990    -1.5100 O.3   1 <1>  -0.5600 
 10 C        1.2700     4.9910    -0.0550 C.3   1 <1>  -0.1600 
 11 C        2.8590     3.1990    -0.8440 C.3   1 <1>  -0.1600 
 12 C        1.7250     5.8770    -1.2150 C.3   1 <1>   0.1400 
 13 C        3.3060     4.1200    -1.9810 C.3   1 <1>   0.1400 
 14 N        3.1360     5.5370    -1.5500 N.am  1 <1>  -0.6600 
 15 C        4.2110     6.3830    -1.4430 C.2   1 <1>   0.5690 
 16 O        5.3310     6.0300    -1.7300 O.2   1 <1>  -0.5700 
 17 C        4.0120     7.8110    -0.9460 C.3   1 <1>  -0.0990 
 18 C        5.3210     8.5960    -0.7180 C.3   1 <1>  -0.1600 
 19 C        5.0750    10.0580    -0.3210 C.3   1 <1>   0.2810 
 20 N        6.3740    10.7170    -0.0480 N.am  1 <1>  -0.7300 
 21 C        4.3820    10.2630     1.0330 C.2   1 <1>   0.5690 
 22 C        6.4220    11.1260     1.2350 C.2   1 <1>   0.6900 
 23 O        3.2550     9.9460     1.3190 O.2   1 <1>  -0.5700 
 24 N        5.2510    10.8870     1.8590 N.am  1 <1>  -0.4900 
 25 O        7.3910    11.6100     1.7690 O.2   1 <1>  -0.5700 
 26 H        1.4750     1.3550     3.8990 H     1 <1>   0.1500 
 27 H       -0.8110     0.8380    -0.9680 H     1 <1>   0.0800 
 28 H       -2.0170     1.7200    -0.0590 H     1 <1>   0.0800 
 29 H        2.6390     3.0960     2.2210 H     1 <1>   0.1500 
 30 H       -1.1940     3.8470    -0.8280 H     1 <1>   0.0800 
 31 H       -1.2390     2.8360    -2.2520 H     1 <1>   0.0800 
 32 H        0.2520     5.2080     0.2020 H     1 <1>   0.0800 
 33 H        1.8700     5.2200     0.8070 H     1 <1>   0.0800 
 34 H        3.5350     3.3290    -0.0200 H     1 <1>   0.0800 
 35 H        2.9230     2.1730    -1.1580 H     1 <1>   0.0800 
 36 H        1.6170     6.9120    -0.9460 H     1 <1>   0.0800 
 37 H        1.1070     5.6950    -2.0790 H     1 <1>   0.0800 
 38 H        2.7070     3.9430    -2.8580 H     1 <1>   0.0800 
 39 H        4.3320     3.9140    -2.2320 H     1 <1>   0.0800 
 40 H        3.4060     8.3290    -1.6660 H     1 <1>   0.0800 
 41 H        3.4730     7.7590    -0.0190 H     1 <1>   0.0800 
 42 H        5.8950     8.5800    -1.6290 H     1 <1>   0.0800 
 43 H        5.8930     8.1020     0.0490 H     1 <1>   0.0800 
 44 H        4.5440    10.5900    -1.0910 H     1 <1>   0.0800 
 45 H        7.2180    10.5650    -0.6010 H     1 <1>   0.3700 
 46 H        5.0750    11.1400     2.8240 H     1 <1>   0.3700 
@<TRIPOS>BOND
  1   1   2  1   
  2   1   3  1   
  3   2   4  2   
  4   2   5  1   
  5   3   6  2   
  6   3  26  1   
  7   4   6  1   
  8   4   7  1   
  9   5   8  1   
 10   5  27  1   
 11   5  28  1   
 12   6  29  1   
 13   7   9  1   
 14   7  10  1   
 15   7  11  1   
 16   8   9  1   
 17   8  30  1   
 18   8  31  1   
 19  10  12  1   
 20  10  32  1   
 21  10  33  1   
 22  11  13  1   
 23  11  34  1   
 24  11  35  1   
 25  12  14  1   
 26  12  36  1   
 27  12  37  1   
 28  13  14  1   
 29  13  38  1   
 30  13  39  1   
 31  14  15  am  
 32  15  16  2   
 33  15  17  1   
 34  17  18  1   
 35  17  40  1   
 36  17  41  1   
 37  18  19  1   
 38  18  42  1   
 39  18  43  1   
 40  19  20  1   
 41  19  21  1   
 42  19  44  1   
 43  20  22  am  
 44  20  45  1   
 45  21  23  2   
 46  21  24  am  
 47  22  24  am  
 48  22  25  2   
 49  24  46  1   
@<TRIPOS>SUBSTRUCTURE
  1 ****  14 GROUP 4 **** **** 0

# MOE 2024.06 (io_trps.svl 2023.06)
