@<TRIPOS>MOLECULE
NONAME
52 54 1 0 0 
SMALL
USER_CHARGES


@<TRIPOS>ATOM
  1 S       -1.4710     0.2560     0.9910 S.o2  1 <1>   1.0900 
  2 O       -2.2090     1.4370     1.3670 O.2   1 <1>  -0.6500 
  3 O       -0.1380    -0.0030     1.4840 O.2   1 <1>  -0.6500 
  4 C       -2.4330    -1.2010     1.2750 C.3   1 <1>  -0.0550 
  5 C       -1.4460     0.0660    -0.7850 C.3   1 <1>  -0.0550 
  6 C       -1.9710    -2.1690     0.1890 C.3   1 <1>   0.1760 
  7 C       -1.8870    -1.3690    -1.1280 C.3   1 <1>  -0.1600 
  8 N       -2.8840    -3.3320     0.0610 N.pl3 1 <1>   0.3140 
  9 N       -4.2180    -3.1630     0.0040 N.2   1 <1>  -0.7070 
 10 C       -2.5440    -4.6400    -0.0680 C.2   1 <1>  -0.3320 
 11 C       -4.7020    -4.3530    -0.1680 C.2   1 <1>   0.1080 
 12 C       -3.6980    -5.3250    -0.2230 C.2   1 <1>   0.0630 
 13 C       -1.1140    -5.1640    -0.0530 C.3   1 <1>  -0.0600 
 14 C       -6.1920    -4.5910    -0.2760 C.3   1 <1>  -0.0590 
 15 N       -3.8200    -6.7280    -0.3820 N.am  1 <1>  -0.4930 
 16 C       -4.5990    -7.4230    -1.2600 C.2   1 <1>   0.5690 
 17 O       -5.3060    -6.8880    -2.0830 O.2   1 <1>  -0.5700 
 18 C       -4.5760    -8.9560    -1.1980 C.3   1 <1>   0.1710 
 19 N       -5.5710    -9.5820    -0.2830 N.3   1 <1>  -0.8100 
 20 C       -6.9490    -9.2770    -0.7200 C.3   1 <1>   0.2530 
 21 C       -5.3500    -9.2280     1.1280 C.3   1 <1>   0.0300 
 22 C       -7.9680   -10.1070     0.0490 C.ar  1 <1>  -0.1430 
 23 C       -9.0550    -9.5330     0.6790 C.ar  1 <1>  -0.1500 
 24 C       -7.8590   -11.4790     0.1540 C.ar  1 <1>  -0.1500 
 25 C       -9.9520   -10.3370     1.3630 C.ar  1 <1>   0.1600 
 26 C       -8.8110   -12.1910     0.8630 C.ar  1 <1>   0.1600 
 27 N       -9.8570   -11.6520     1.4710 N.ar  1 <1>  -0.6200 
 28 H       -3.4750    -0.9740     1.1470 H     1 <1>   0.0800 
 29 H       -2.2660    -1.6000     2.2570 H     1 <1>   0.0800 
 30 H       -0.4580     0.2570    -1.1590 H     1 <1>   0.0800 
 31 H       -2.1220     0.7650    -1.2410 H     1 <1>   0.0800 
 32 H       -0.9890    -2.5230     0.4480 H     1 <1>   0.0800 
 33 H       -1.1980    -1.8320    -1.8140 H     1 <1>   0.0800 
 34 H       -2.8610    -1.3290    -1.5880 H     1 <1>   0.0800 
 35 H       -0.5400    -4.6950    -0.8330 H     1 <1>   0.0800 
 36 H       -1.0960    -6.2260    -0.2190 H     1 <1>   0.0800 
 37 H       -0.6510    -4.9600     0.8960 H     1 <1>   0.0800 
 38 H       -6.7240    -3.8220     0.2530 H     1 <1>   0.0800 
 39 H       -6.4480    -5.5450     0.1410 H     1 <1>   0.0800 
 40 H       -6.4810    -4.5670    -1.3110 H     1 <1>   0.0800 
 41 H       -3.2170    -7.2730     0.2290 H     1 <1>   0.3700 
 42 H       -3.5920    -9.2770    -0.9110 H     1 <1>   0.0800 
 43 H       -4.7460    -9.3270    -2.1940 H     1 <1>   0.0800 
 44 H       -7.0500    -9.5030    -1.7680 H     1 <1>   0.0800 
 45 H       -7.1530    -8.2280    -0.5860 H     1 <1>   0.0800 
 46 H       -4.3340    -9.4440     1.4090 H     1 <1>   0.0800 
 47 H       -5.9980    -9.8120     1.7600 H     1 <1>   0.0800 
 48 H       -5.5550    -8.1840     1.2980 H     1 <1>   0.0800 
 49 H       -9.2120    -8.4710     0.6450 H     1 <1>   0.1500 
 50 H       -7.0340   -11.9900    -0.3080 H     1 <1>   0.1500 
 51 H      -10.7940    -9.8730     1.8480 H     1 <1>   0.1500 
 52 H       -8.7060   -13.2600     0.9340 H     1 <1>   0.1500 
@<TRIPOS>BOND
  1   1   2  2   
  2   1   3  2   
  3   1   4  1   
  4   1   5  1   
  5   4   6  1   
  6   4  28  1   
  7   4  29  1   
  8   5   7  1   
  9   5  30  1   
 10   5  31  1   
 11   6   7  1   
 12   6   8  1   
 13   6  32  1   
 14   7  33  1   
 15   7  34  1   
 16   8   9  1   
 17   8  10  1   
 18   9  11  2   
 19  10  12  2   
 20  10  13  1   
 21  11  12  1   
 22  11  14  1   
 23  12  15  1   
 24  13  35  1   
 25  13  36  1   
 26  13  37  1   
 27  14  38  1   
 28  14  39  1   
 29  14  40  1   
 30  15  16  am  
 31  15  41  1   
 32  16  17  2   
 33  16  18  1   
 34  18  19  1   
 35  18  42  1   
 36  18  43  1   
 37  19  20  1   
 38  19  21  1   
 39  20  22  1   
 40  20  44  1   
 41  20  45  1   
 42  21  46  1   
 43  21  47  1   
 44  21  48  1   
 45  22  23  ar  
 46  22  24  ar  
 47  23  25  ar  
 48  23  49  1   
 49  24  26  ar  
 50  24  50  1   
 51  25  27  ar  
 52  25  51  1   
 53  26  27  ar  
 54  26  52  1   
@<TRIPOS>SUBSTRUCTURE
  1 ****  12 GROUP 4 **** **** 0

# MOE 2024.06 (io_trps.svl 2023.06)
