@<TRIPOS>MOLECULE
NONAME
37 39 1 0 0 
SMALL
USER_CHARGES


@<TRIPOS>ATOM
  1 S        0.5090    -0.5840     0.8400 S.3   1 <1>  -0.3320 
  2 C        0.1830    -2.3000     0.4720 C.ar  1 <1>   0.7220 
  3 C       -0.4550     0.3750    -0.4130 C.3   1 <1>  -0.0100 
  4 N        0.8090    -3.1660     1.2510 N.ar  1 <1>  -0.6200 
  5 N       -0.6490    -2.5390    -0.5310 N.ar  1 <1>  -0.6200 
  6 C        0.5690    -4.4260     0.9830 C.ar  1 <1>   0.1600 
  7 C       -0.8690    -3.8090    -0.7720 C.ar  1 <1>   0.1600 
  8 C       -0.2890    -4.8100    -0.0240 C.ar  1 <1>  -0.1430 
  9 C       -0.5800    -6.2690    -0.2950 C.3   1 <1>   0.4870 
 10 N       -1.4830    -6.8090     0.7700 N.4   1 <1>  -0.9590 
 11 C       -1.7580    -8.2600     0.6040 C.3   1 <1>   0.6030 
 12 C       -2.8200    -6.1560     0.7920 C.3   1 <1>   0.3430 
 13 C       -0.5170    -9.0420     0.1900 C.2   1 <1>  -0.0400 
 14 C       -2.9220    -8.3000    -0.3810 C.3   1 <1>  -0.1600 
 15 C       -3.6950    -6.9990    -0.1350 C.3   1 <1>  -0.1600 
 16 O        0.5760    -8.8820     0.9160 O.3   1 <1>  -0.2800 
 17 C       -0.2830    -9.9080    -0.8230 C.2   1 <1>  -0.1500 
 18 C        1.5210    -9.6380     0.3930 C.2   1 <1>  -0.0100 
 19 C        1.0550   -10.2980    -0.6880 C.2   1 <1>  -0.1500 
 20 H       -0.2790     1.4200    -0.2320 H     1 <1>   0.0800 
 21 H       -1.4950     0.1310    -0.2890 H     1 <1>   0.0800 
 22 H       -0.1060     0.0890    -1.3890 H     1 <1>   0.0800 
 23 H        1.0740    -5.1590     1.5910 H     1 <1>   0.1500 
 24 H       -1.5330    -4.0430    -1.5890 H     1 <1>   0.1500 
 25 H        0.3530    -6.8120    -0.3040 H     1 <1>   0.0800 
 26 H       -1.0400    -6.3790    -1.2630 H     1 <1>   0.0800 
 27 H       -1.0050    -6.6930     1.6710 H     1 <1>   0.4500 
 28 H       -2.1020    -8.6510     1.5480 H     1 <1>   0.0800 
 29 H       -2.7760    -5.1250     0.4760 H     1 <1>   0.0800 
 30 H       -3.2240    -6.1930     1.7920 H     1 <1>   0.0800 
 31 H       -3.5320    -9.1720    -0.2170 H     1 <1>   0.0800 
 32 H       -2.5550    -8.3240    -1.3920 H     1 <1>   0.0800 
 33 H       -3.8750    -6.4780    -1.0600 H     1 <1>   0.0800 
 34 H       -4.6440    -7.1880     0.3360 H     1 <1>   0.0800 
 35 H       -0.9430   -10.2670    -1.5950 H     1 <1>   0.1500 
 36 H        2.4960    -9.6540     0.8510 H     1 <1>   0.1500 
 37 H        1.5760   -10.9890    -1.3290 H     1 <1>   0.1500 
@<TRIPOS>BOND
  1   1   2  1   
  2   1   3  1   
  3   2   4  ar  
  4   2   5  ar  
  5   3  20  1   
  6   3  21  1   
  7   3  22  1   
  8   4   6  ar  
  9   5   7  ar  
 10   6   8  ar  
 11   6  23  1   
 12   7   8  ar  
 13   7  24  1   
 14   8   9  1   
 15   9  10  1   
 16   9  25  1   
 17   9  26  1   
 18  10  11  1   
 19  10  12  1   
 20  10  27  1   
 21  11  13  1   
 22  11  14  1   
 23  11  28  1   
 24  12  15  1   
 25  12  29  1   
 26  12  30  1   
 27  13  16  1   
 28  13  17  2   
 29  14  15  1   
 30  14  31  1   
 31  14  32  1   
 32  15  33  1   
 33  15  34  1   
 34  16  18  1   
 35  17  19  1   
 36  17  35  1   
 37  18  19  2   
 38  18  36  1   
 39  19  37  1   
@<TRIPOS>SUBSTRUCTURE
  1 ****   9 GROUP 4 **** **** 0

# MOE 2024.06 (io_trps.svl 2023.06)
