@<TRIPOS>MOLECULE
NONAME
59 62 1 0 0 
SMALL
USER_CHARGES


@<TRIPOS>ATOM
  1 O        0.3170    -1.6570    -3.3440 O.2   1 <1>  -0.5700 
  2 C       -0.1670    -1.9510    -2.2790 C.2   1 <1>   0.5690 
  3 N        0.5000    -2.1060    -1.1190 N.am  1 <1>  -0.6600 
  4 C       -1.6360    -2.1960    -2.0830 C.3   1 <1>  -0.0990 
  5 C       -0.3800    -2.5300    -0.0170 C.3   1 <1>   0.1400 
  6 C        1.9720    -2.1150    -0.9660 C.3   1 <1>   0.2840 
  7 C       -1.7860    -2.2050    -0.5490 C.3   1 <1>  -0.0190 
  8 C        2.4440    -3.5240    -0.6410 C.ar  1 <1>  -0.1440 
  9 C       -2.8780    -3.1500    -0.0540 C.2   1 <1>   0.5690 
 10 C        2.7330    -3.9120     0.6650 C.ar  1 <1>   0.0830 
 11 C        2.5750    -4.4390    -1.6750 C.ar  1 <1>  -0.1500 
 12 O       -2.5660    -4.2890     0.2050 O.2   1 <1>  -0.5700 
 13 N       -4.1760    -2.7220     0.0850 N.am  1 <1>  -0.6600 
 14 O        2.5740    -2.9890     1.6510 O.3   1 <1>  -0.3630 
 15 C        3.1590    -5.2150     0.9140 C.ar  1 <1>  -0.1500 
 16 C        2.9970    -5.7310    -1.4200 C.ar  1 <1>  -0.1500 
 17 C       -4.6720    -1.3790    -0.3500 C.3   1 <1>   0.1400 
 18 C       -5.1920    -3.6460     0.6810 C.3   1 <1>   0.1400 
 19 C        2.7510    -3.3210     3.0100 C.3   1 <1>   0.0400 
 20 C        3.2900    -6.1180    -0.1260 C.ar  1 <1>  -0.1500 
 21 C       -6.1410    -1.4710    -0.7570 C.3   1 <1>  -0.1600 
 22 C       -6.2990    -2.8560     1.3810 C.3   1 <1>  -0.1600 
 23 C       -7.0220    -1.8810     0.4350 C.3   1 <1>   0.4180 
 24 O       -7.2850    -0.7390     1.2130 O.3   1 <1>  -0.5600 
 25 C       -8.3240    -2.5110    -0.0580 C.2   1 <1>  -0.2880 
 26 C       -8.3390     0.0980     0.8210 C.3   1 <1>   0.1200 
 27 C       -9.5350    -1.9830     0.1320 C.2   1 <1>  -0.2760 
 28 C       -9.6750    -0.6550     0.8510 C.3   1 <1>  -0.0220 
 29 C      -10.8360    -2.6250    -0.3150 C.3   1 <1>  -0.1020 
 30 H       -1.8820    -3.1540    -2.5030 H     1 <1>   0.0800 
 31 H       -2.2190    -1.4240    -2.5480 H     1 <1>   0.0800 
 32 H       -0.1590    -1.9890     0.8870 H     1 <1>   0.0800 
 33 H       -0.2450    -3.5860     0.1510 H     1 <1>   0.0800 
 34 H        2.2540    -1.4230    -0.1930 H     1 <1>   0.0800 
 35 H        2.4290    -1.7850    -1.8830 H     1 <1>   0.0800 
 36 H       -2.0060    -1.2080    -0.2150 H     1 <1>   0.0800 
 37 H        2.3400    -4.1430    -2.6840 H     1 <1>   0.1500 
 38 H        3.3920    -5.5470     1.9070 H     1 <1>   0.1500 
 39 H        3.0940    -6.4330    -2.2300 H     1 <1>   0.1500 
 40 H       -4.1030    -1.0230    -1.1900 H     1 <1>   0.0800 
 41 H       -4.5650    -0.6780     0.4620 H     1 <1>   0.0800 
 42 H       -4.7180    -4.2980     1.3950 H     1 <1>   0.0800 
 43 H       -5.6110    -4.2560    -0.1010 H     1 <1>   0.0800 
 44 H        2.5390    -2.4470     3.5990 H     1 <1>   0.0800 
 45 H        3.7700    -3.6270     3.1650 H     1 <1>   0.0800 
 46 H        2.0670    -4.1110     3.2680 H     1 <1>   0.0800 
 47 H        3.6180    -7.1240     0.0720 H     1 <1>   0.1500 
 48 H       -6.2250    -2.2040    -1.5390 H     1 <1>   0.0800 
 49 H       -6.4710    -0.5360    -1.1670 H     1 <1>   0.0800 
 50 H       -5.8480    -2.3130     2.1920 H     1 <1>   0.0800 
 51 H       -7.0090    -3.5400     1.8080 H     1 <1>   0.0800 
 52 H       -8.1660    -3.4430    -0.5690 H     1 <1>   0.1500 
 53 H       -8.1410     0.4650    -0.1700 H     1 <1>   0.0800 
 54 H       -8.3660     0.9320     1.5000 H     1 <1>   0.0800 
 55 H      -10.4200    -0.0470     0.3710 H     1 <1>   0.0800 
 56 H       -9.9790    -0.8200     1.8690 H     1 <1>   0.0800 
 57 H      -11.3490    -1.9830    -1.0090 H     1 <1>   0.0800 
 58 H      -11.4720    -2.8000     0.5340 H     1 <1>   0.0800 
 59 H      -10.6450    -3.5660    -0.7990 H     1 <1>   0.0800 
@<TRIPOS>BOND
  1   1   2  2   
  2   2   3  am  
  3   2   4  1   
  4   3   5  1   
  5   3   6  1   
  6   4   7  1   
  7   4  30  1   
  8   4  31  1   
  9   5   7  1   
 10   5  32  1   
 11   5  33  1   
 12   6   8  1   
 13   6  34  1   
 14   6  35  1   
 15   7   9  1   
 16   7  36  1   
 17   8  10  ar  
 18   8  11  ar  
 19   9  12  2   
 20   9  13  am  
 21  10  14  1   
 22  10  15  ar  
 23  11  16  ar  
 24  11  37  1   
 25  13  17  1   
 26  13  18  1   
 27  14  19  1   
 28  15  20  ar  
 29  15  38  1   
 30  16  20  ar  
 31  16  39  1   
 32  17  21  1   
 33  17  40  1   
 34  17  41  1   
 35  18  22  1   
 36  18  42  1   
 37  18  43  1   
 38  19  44  1   
 39  19  45  1   
 40  19  46  1   
 41  20  47  1   
 42  21  23  1   
 43  21  48  1   
 44  21  49  1   
 45  22  23  1   
 46  22  50  1   
 47  22  51  1   
 48  23  24  1   
 49  23  25  1   
 50  24  26  1   
 51  25  27  2   
 52  25  52  1   
 53  26  28  1   
 54  26  53  1   
 55  26  54  1   
 56  27  28  1   
 57  27  29  1   
 58  28  55  1   
 59  28  56  1   
 60  29  57  1   
 61  29  58  1   
 62  29  59  1   
@<TRIPOS>SUBSTRUCTURE
  1 ****   9 GROUP 4 **** **** 0

# MOE 2024.06 (io_trps.svl 2023.06)
