@<TRIPOS>MOLECULE
NONAME
57 59 1 0 0 
SMALL
USER_CHARGES


@<TRIPOS>ATOM
  1 O        0.9700     1.5210    -0.0560 O.2   1 <1>  -0.5700 
  2 C        0.1060     2.3310    -0.2960 C.2   1 <1>   0.5690 
  3 N       -0.3220     3.2340     0.6400 N.am  1 <1>  -0.6600 
  4 C       -0.4930     2.3250    -1.6920 C.3   1 <1>  -0.0990 
  5 C       -1.2610     4.3540     0.3510 C.3   1 <1>   0.1400 
  6 C        0.2300     3.2330     2.0400 C.3   1 <1>   0.2010 
  7 C       -1.1520     3.6560    -2.0760 C.3   1 <1>  -0.1600 
  8 C       -2.0600     4.1200    -0.9350 C.3   1 <1>  -0.1600 
  9 C        1.0230     4.4990     2.3830 C.2   1 <1>   0.5690 
 10 O        0.4340     5.3640     2.9930 O.2   1 <1>  -0.5700 
 11 N        2.3320     4.6680     1.9970 N.am  1 <1>  -0.6600 
 12 C        3.1370     3.6770     1.2070 C.3   1 <1>   0.1400 
 13 C        3.0520     5.9380     2.2780 C.3   1 <1>   0.1400 
 14 C        3.2250     4.0400    -0.2850 C.3   1 <1>   0.1400 
 15 C        2.7420     7.0000     1.2120 C.3   1 <1>  -0.1600 
 16 N        3.6880     5.4470    -0.5020 N.am  1 <1>  -0.6600 
 17 C        2.6470     6.4740    -0.2270 C.3   1 <1>   0.1400 
 18 C        5.0290     5.7400    -0.6260 C.2   1 <1>   0.5440 
 19 O        5.8440     4.8570    -0.4360 O.2   1 <1>  -0.5700 
 20 C        5.4950     7.0780    -0.9350 C.ar  1 <1>   0.0860 
 21 C        6.3860     7.7290    -0.0880 C.ar  1 <1>  -0.1500 
 22 C        5.0770     7.7520    -2.0820 C.ar  1 <1>  -0.1500 
 23 C        6.8350     9.0150    -0.3460 C.ar  1 <1>   0.1170 
 24 C        5.5220     9.0320    -2.3610 C.ar  1 <1>  -0.1500 
 25 N        7.7270     9.6250     0.5400 N.am  1 <1>  -0.5470 
 26 C        6.3980     9.6600    -1.4960 C.ar  1 <1>  -0.1500 
 27 C        7.6840    10.8370     1.1510 C.2   1 <1>   0.5690 
 28 O        8.5860    11.1790     1.8690 O.2   1 <1>  -0.5700 
 29 C        6.5080    11.7670     0.9640 C.3   1 <1>  -0.1790 
 30 H       -1.2250     1.5400    -1.7260 H     1 <1>   0.0800 
 31 H        0.2780     2.0860    -2.4020 H     1 <1>   0.0800 
 32 H       -0.6900     5.2620     0.2550 H     1 <1>   0.0800 
 33 H       -1.9420     4.4770     1.1760 H     1 <1>   0.0800 
 34 H        0.8460     2.3690     2.2060 H     1 <1>   0.0800 
 35 H       -0.5930     3.1610     2.7270 H     1 <1>   0.0800 
 36 H       -1.7230     3.5340    -2.9810 H     1 <1>   0.0800 
 37 H       -0.3910     4.3970    -2.2540 H     1 <1>   0.0800 
 38 H       -2.5570     5.0330    -1.2110 H     1 <1>   0.0800 
 39 H       -2.8200     3.3800    -0.7480 H     1 <1>   0.0800 
 40 H        2.7280     2.6900     1.3020 H     1 <1>   0.0800 
 41 H        4.1360     3.6350     1.6050 H     1 <1>   0.0800 
 42 H        4.1120     5.7490     2.2950 H     1 <1>   0.0800 
 43 H        2.7720     6.3080     3.2500 H     1 <1>   0.0800 
 44 H        2.2630     3.9050    -0.7440 H     1 <1>   0.0800 
 45 H        3.9030     3.3570    -0.7680 H     1 <1>   0.0800 
 46 H        3.4960     7.7640     1.2620 H     1 <1>   0.0800 
 47 H        1.8080     7.4690     1.4620 H     1 <1>   0.0800 
 48 H        2.7310     7.2910    -0.9210 H     1 <1>   0.0800 
 49 H        1.6750     6.0330    -0.3710 H     1 <1>   0.0800 
 50 H        6.7290     7.2140     0.7910 H     1 <1>   0.1500 
 51 H        4.4020     7.2590    -2.7600 H     1 <1>   0.1500 
 52 H        5.1910     9.5360    -3.2540 H     1 <1>   0.1500 
 53 H        8.5330     9.0710     0.8320 H     1 <1>   0.3700 
 54 H        6.7530    10.6490    -1.7220 H     1 <1>   0.1500 
 55 H        5.5910    11.2090     0.9260 H     1 <1>   0.0800 
 56 H        6.6300    12.3260     0.0570 H     1 <1>   0.0800 
 57 H        6.4600    12.4530     1.7900 H     1 <1>   0.0800 
@<TRIPOS>BOND
  1   1   2  2   
  2   2   3  am  
  3   2   4  1   
  4   3   5  1   
  5   3   6  1   
  6   4   7  1   
  7   4  30  1   
  8   4  31  1   
  9   5   8  1   
 10   5  32  1   
 11   5  33  1   
 12   6   9  1   
 13   6  34  1   
 14   6  35  1   
 15   7   8  1   
 16   7  36  1   
 17   7  37  1   
 18   8  38  1   
 19   8  39  1   
 20   9  10  2   
 21   9  11  am  
 22  11  12  1   
 23  11  13  1   
 24  12  14  1   
 25  12  40  1   
 26  12  41  1   
 27  13  15  1   
 28  13  42  1   
 29  13  43  1   
 30  14  16  1   
 31  14  44  1   
 32  14  45  1   
 33  15  17  1   
 34  15  46  1   
 35  15  47  1   
 36  16  17  1   
 37  16  18  am  
 38  17  48  1   
 39  17  49  1   
 40  18  19  2   
 41  18  20  1   
 42  20  21  ar  
 43  20  22  ar  
 44  21  23  ar  
 45  21  50  1   
 46  22  24  ar  
 47  22  51  1   
 48  23  25  1   
 49  23  26  ar  
 50  24  26  ar  
 51  24  52  1   
 52  25  27  am  
 53  25  53  1   
 54  26  54  1   
 55  27  28  2   
 56  27  29  1   
 57  29  55  1   
 58  29  56  1   
 59  29  57  1   
@<TRIPOS>SUBSTRUCTURE
  1 ****  17 GROUP 4 **** **** 0

# MOE 2024.06 (io_trps.svl 2023.06)
