@<TRIPOS>MOLECULE
NONAME
56 58 1 0 0 
SMALL
USER_CHARGES


@<TRIPOS>ATOM
  1 S        2.7910     0.3900     2.9580 S.3   1 <1>  -0.0800 
  2 C        3.5660    -0.3820     1.5920 C.2   1 <1>   0.1980 
  3 C        2.4950     1.7850     1.9640 C.2   1 <1>  -0.1100 
  4 N        3.6020     0.3270     0.5360 N.2   1 <1>  -0.5650 
  5 C        4.0990    -1.7810     1.8010 C.3   1 <1>  -0.0600 
  6 C        2.9900     1.5560     0.7380 C.2   1 <1>   0.0460 
  7 C        2.9390     2.5120    -0.4380 C.3   1 <1>   0.0820 
  8 C        3.5320     3.8680    -0.0940 C.2   1 <1>   0.5690 
  9 O        2.7840     4.8160    -0.1080 O.2   1 <1>  -0.5700 
 10 N        4.8720     4.0370     0.1820 N.am  1 <1>  -0.6600 
 11 C        5.9200     2.9680     0.1140 C.3   1 <1>   0.1400 
 12 C        5.3750     5.3560     0.6560 C.3   1 <1>   0.1400 
 13 C        6.8360     3.1040    -1.1200 C.3   1 <1>   0.3430 
 14 C        5.7820     6.2320    -0.5320 C.3   1 <1>  -0.1600 
 15 N        7.3610     4.4920    -1.3380 N.4   1 <1>  -0.9590 
 16 C        6.3150     5.4700    -1.7460 C.3   1 <1>   0.3430 
 17 C        8.5360     4.5420    -2.2430 C.3   1 <1>   0.5240 
 18 C        9.3510     5.7550    -1.8180 C.2   1 <1>   0.0460 
 19 N        9.4670     6.0560    -0.5050 N.2   1 <1>  -0.5650 
 20 C       10.0120     6.6560    -2.5780 C.2   1 <1>  -0.3020 
 21 C       10.2030     7.1200    -0.4920 C.2   1 <1>   0.0060 
 22 N       10.5680     7.5370    -1.7250 N.pl3 1 <1>   0.0330 
 23 C       10.6300     7.8450     0.7720 C.3   1 <1>   0.0200 
 24 C       12.1300     7.6630     1.0400 C.3   1 <1>  -0.1600 
 25 C       12.5630     8.3760     2.3270 C.3   1 <1>  -0.1600 
 26 C       14.0610     8.1860     2.5830 C.3   1 <1>  -0.2400 
 27 H        1.9810     2.6220     2.4030 H     1 <1>   0.1500 
 28 H        3.2940    -2.4370     2.0780 H     1 <1>   0.0800 
 29 H        4.8390    -1.7780     2.5790 H     1 <1>   0.0800 
 30 H        4.5440    -2.1410     0.8920 H     1 <1>   0.0800 
 31 H        1.9130     2.6380    -0.7310 H     1 <1>   0.0800 
 32 H        3.4660     2.0970    -1.2760 H     1 <1>   0.0800 
 33 H        5.4730     1.9940     0.0910 H     1 <1>   0.0800 
 34 H        6.5190     3.0050     1.0080 H     1 <1>   0.0800 
 35 H        6.2190     5.2070     1.3080 H     1 <1>   0.0800 
 36 H        4.6140     5.8570     1.2320 H     1 <1>   0.0800 
 37 H        6.2860     2.7890    -1.9910 H     1 <1>   0.0800 
 38 H        7.6620     2.4230    -0.9950 H     1 <1>   0.0800 
 39 H        6.5100     6.9540    -0.2080 H     1 <1>   0.0800 
 40 H        4.9150     6.7870    -0.8470 H     1 <1>   0.0800 
 41 H        7.7730     4.8640    -0.4620 H     1 <1>   0.4500 
 42 H        6.7230     6.1840    -2.4440 H     1 <1>   0.0800 
 43 H        5.5010     4.9540    -2.2280 H     1 <1>   0.0800 
 44 H        8.2380     4.6170    -3.2750 H     1 <1>   0.0800 
 45 H        9.1430     3.6620    -2.1100 H     1 <1>   0.0800 
 46 H       10.1280     6.7260    -3.6460 H     1 <1>   0.1500 
 47 H       11.1540     8.3490    -1.9490 H     1 <1>   0.2700 
 48 H       10.0700     7.4540     1.6040 H     1 <1>   0.0800 
 49 H       10.3960     8.8910     0.6810 H     1 <1>   0.0800 
 50 H       12.6950     8.0510     0.2100 H     1 <1>   0.0800 
 51 H       12.3430     6.6110     1.1240 H     1 <1>   0.0800 
 52 H       12.0110     7.9820     3.1640 H     1 <1>   0.0800 
 53 H       12.3500     9.4290     2.2520 H     1 <1>   0.0800 
 54 H       14.2960     7.1410     2.6850 H     1 <1>   0.0800 
 55 H       14.3460     8.6890     3.4900 H     1 <1>   0.0800 
 56 H       14.6380     8.5940     1.7710 H     1 <1>   0.0800 
@<TRIPOS>BOND
  1   1   2  1   
  2   1   3  1   
  3   2   4  2   
  4   2   5  1   
  5   3   6  2   
  6   3  27  1   
  7   4   6  1   
  8   5  28  1   
  9   5  29  1   
 10   5  30  1   
 11   6   7  1   
 12   7   8  1   
 13   7  31  1   
 14   7  32  1   
 15   8   9  2   
 16   8  10  am  
 17  10  11  1   
 18  10  12  1   
 19  11  13  1   
 20  11  33  1   
 21  11  34  1   
 22  12  14  1   
 23  12  35  1   
 24  12  36  1   
 25  13  15  1   
 26  13  37  1   
 27  13  38  1   
 28  14  16  1   
 29  14  39  1   
 30  14  40  1   
 31  15  16  1   
 32  15  17  1   
 33  15  41  1   
 34  16  42  1   
 35  16  43  1   
 36  17  18  1   
 37  17  44  1   
 38  17  45  1   
 39  18  19  1   
 40  18  20  2   
 41  19  21  2   
 42  20  22  1   
 43  20  46  1   
 44  21  22  1   
 45  21  23  1   
 46  22  47  1   
 47  23  24  1   
 48  23  48  1   
 49  23  49  1   
 50  24  25  1   
 51  24  50  1   
 52  24  51  1   
 53  25  26  1   
 54  25  52  1   
 55  25  53  1   
 56  26  54  1   
 57  26  55  1   
 58  26  56  1   
@<TRIPOS>SUBSTRUCTURE
  1 ****  15 GROUP 4 **** **** 0

# MOE 2024.06 (io_trps.svl 2023.06)
