@<TRIPOS>MOLECULE
NONAME
49 51 1 0 0 
SMALL
USER_CHARGES


@<TRIPOS>ATOM
  1 S       -0.5650    -0.1980    -1.2280 S.3   1 <1>  -0.0800 
  2 C       -0.3500     0.1540     0.4730 C.2   1 <1>   0.1980 
  3 C       -1.9270    -1.1970    -0.8170 C.2   1 <1>  -0.1100 
  4 N       -1.1940    -0.4120     1.2380 N.2   1 <1>  -0.5650 
  5 C        0.7880     1.0710     0.8530 C.3   1 <1>  -0.0600 
  6 C       -2.0960    -1.1830     0.5160 C.2   1 <1>   0.0460 
  7 C       -3.1660    -1.9180     1.3130 C.3   1 <1>   0.3210 
  8 N       -3.8440    -2.9390     0.4810 N.am  1 <1>  -0.7300 
  9 C       -5.1810    -3.0570     0.2900 C.2   1 <1>   0.5690 
 10 O       -5.9630    -2.3460     0.8740 O.2   1 <1>  -0.5700 
 11 C       -5.7010    -4.1280    -0.6770 C.3   1 <1>   0.2610 
 12 O       -4.6080    -4.8000    -1.2890 O.3   1 <1>  -0.5600 
 13 C       -6.6760    -5.0750     0.0800 C.3   1 <1>   0.3640 
 14 C       -4.9800    -5.9030    -2.0710 C.3   1 <1>   0.1810 
 15 N       -6.5140    -6.5400    -0.2140 N.am  1 <1>  -0.6600 
 16 C       -8.1200    -4.6560    -0.2090 C.ar  1 <1>  -0.1430 
 17 C       -5.7040    -6.9570    -1.2400 C.2   1 <1>   0.5690 
 18 C       -7.2250    -7.4470     0.7300 C.3   1 <1>   0.2200 
 19 C       -8.7960    -3.8490     0.6950 C.ar  1 <1>  -0.1500 
 20 C       -8.7720    -5.0570    -1.3680 C.ar  1 <1>  -0.1500 
 21 O       -5.5300    -8.1160    -1.5330 O.2   1 <1>  -0.5700 
 22 C       -6.2130    -8.2350     1.5600 C.3   1 <1>  -0.2400 
 23 C       -8.2030    -8.3660    -0.0040 C.3   1 <1>  -0.2400 
 24 C      -10.0990    -3.4530     0.4490 C.ar  1 <1>  -0.1500 
 25 C      -10.0750    -4.6620    -1.6160 C.ar  1 <1>  -0.1500 
 26 C      -10.7400    -3.8600    -0.7070 C.ar  1 <1>  -0.1500 
 27 H       -2.4550    -1.6840    -1.6150 H     1 <1>   0.1500 
 28 H        0.8060     1.2020     1.9200 H     1 <1>   0.0800 
 29 H        0.6560     2.0280     0.3840 H     1 <1>   0.0800 
 30 H        1.7210     0.6430     0.5370 H     1 <1>   0.0800 
 31 H       -3.8790    -1.2050     1.6890 H     1 <1>   0.0800 
 32 H       -2.7030    -2.4050     2.1520 H     1 <1>   0.0800 
 33 H       -3.2320    -3.5760    -0.0390 H     1 <1>   0.3700 
 34 H       -6.2370    -3.6220    -1.4590 H     1 <1>   0.0800 
 35 H       -6.4980    -4.9470     1.1350 H     1 <1>   0.0800 
 36 H       -5.6120    -5.5670    -2.8730 H     1 <1>   0.0800 
 37 H       -4.0840    -6.3300    -2.4850 H     1 <1>   0.0800 
 38 H       -7.8070    -6.8470     1.4110 H     1 <1>   0.0800 
 39 H       -8.3110    -3.5130     1.5970 H     1 <1>   0.1500 
 40 H       -8.2740    -5.6860    -2.0850 H     1 <1>   0.1500 
 41 H       -5.6500    -8.9080     0.9390 H     1 <1>   0.0800 
 42 H       -6.7270    -8.8170     2.3040 H     1 <1>   0.0800 
 43 H       -5.5380    -7.5640     2.0590 H     1 <1>   0.0800 
 44 H       -7.6850    -9.0580    -0.6430 H     1 <1>   0.0800 
 45 H       -8.8900    -7.7850    -0.5910 H     1 <1>   0.0800 
 46 H       -8.7690    -8.9340     0.7100 H     1 <1>   0.0800 
 47 H      -10.6130    -2.8250     1.1560 H     1 <1>   0.1500 
 48 H      -10.5730    -4.9810    -2.5160 H     1 <1>   0.1500 
 49 H      -11.7540    -3.5520    -0.8980 H     1 <1>   0.1500 
@<TRIPOS>BOND
  1   1   2  1   
  2   1   3  1   
  3   2   4  2   
  4   2   5  1   
  5   3   6  2   
  6   3  27  1   
  7   4   6  1   
  8   5  28  1   
  9   5  29  1   
 10   5  30  1   
 11   6   7  1   
 12   7   8  1   
 13   7  31  1   
 14   7  32  1   
 15   8   9  am  
 16   8  33  1   
 17   9  10  2   
 18   9  11  1   
 19  11  12  1   
 20  11  13  1   
 21  11  34  1   
 22  12  14  1   
 23  13  15  1   
 24  13  16  1   
 25  13  35  1   
 26  14  17  1   
 27  14  36  1   
 28  14  37  1   
 29  15  17  am  
 30  15  18  1   
 31  16  19  ar  
 32  16  20  ar  
 33  17  21  2   
 34  18  22  1   
 35  18  23  1   
 36  18  38  1   
 37  19  24  ar  
 38  19  39  1   
 39  20  25  ar  
 40  20  40  1   
 41  22  41  1   
 42  22  42  1   
 43  22  43  1   
 44  23  44  1   
 45  23  45  1   
 46  23  46  1   
 47  24  26  ar  
 48  24  47  1   
 49  25  26  ar  
 50  25  48  1   
 51  26  49  1   
@<TRIPOS>SUBSTRUCTURE
  1 ****  11 GROUP 4 **** **** 0

# MOE 2024.06 (io_trps.svl 2023.06)
