@<TRIPOS>MOLECULE
NONAME
60 62 1 0 0 
SMALL
USER_CHARGES


@<TRIPOS>ATOM
  1 O       -0.6490    -1.2350    -1.9510 O.2   1 <1>  -0.5700 
  2 C       -0.4890    -0.8060    -0.8310 C.2   1 <1>   0.5690 
  3 N       -1.3750    -1.1310     0.1720 N.am  1 <1>  -0.6600 
  4 C        0.7080     0.1180    -0.6080 C.3   1 <1>   0.0820 
  5 C       -2.4730    -2.1010    -0.1090 C.3   1 <1>   0.3200 
  6 C       -1.5200    -0.3680     1.4490 C.3   1 <1>   0.1400 
  7 C        0.3440     1.5470    -0.1920 C.2   1 <1>  -0.1810 
  8 C       -3.6430    -1.2950    -0.6220 C.2   1 <1>  -0.3320 
  9 C       -2.5080     0.8030     1.2660 C.3   1 <1>   0.3430 
 10 C        0.7610     2.1910     0.9680 C.2   1 <1>   0.1080 
 11 C       -0.4280     2.4580    -0.8310 C.2   1 <1>  -0.3320 
 12 N       -3.6030    -0.6700    -1.8120 N.pl3 1 <1>   0.0330 
 13 C       -4.8430    -1.0020    -0.0760 C.2   1 <1>   0.0770 
 14 N       -2.2500     1.9900     2.1460 N.4   1 <1>  -0.9590 
 15 N        0.2310     3.3610     1.0830 N.2   1 <1>  -0.7070 
 16 C        1.7250     1.6600     2.0110 C.3   1 <1>  -0.0590 
 17 N       -0.4400     3.6010    -0.0760 N.pl3 1 <1>   0.5930 
 18 C       -1.1610     2.2820    -2.1580 C.3   1 <1>  -0.0600 
 19 C       -4.7690     0.0030    -1.8960 C.2   1 <1>   0.0060 
 20 N       -5.5320    -0.1590    -0.8640 N.2   1 <1>  -0.5650 
 21 C       -2.1810     1.6670     3.6010 C.3   1 <1>   0.2630 
 22 C       -3.3100     3.0100     1.8870 C.3   1 <1>   0.2630 
 23 C       -1.1050     4.8530    -0.2970 C.ar  1 <1>  -0.0230 
 24 C       -5.1390     0.8530    -3.0930 C.3   1 <1>  -0.0600 
 25 C       -1.6070     5.5800     0.7830 C.ar  1 <1>  -0.1500 
 26 C       -1.2580     5.4000    -1.5700 C.ar  1 <1>  -0.1500 
 27 C       -2.2860     6.7710     0.5960 C.ar  1 <1>  -0.1500 
 28 C       -1.9390     6.5890    -1.7610 C.ar  1 <1>  -0.1500 
 29 C       -2.4600     7.2730    -0.6790 C.ar  1 <1>  -0.1500 
 30 H        1.2730     0.1690    -1.5210 H     1 <1>   0.0800 
 31 H        1.3440    -0.3390     0.1250 H     1 <1>   0.0800 
 32 H       -2.7400    -2.6330     0.7880 H     1 <1>   0.0800 
 33 H       -2.1650    -2.8240    -0.8470 H     1 <1>   0.0800 
 34 H       -0.5600    -0.0040     1.7530 H     1 <1>   0.0800 
 35 H       -1.8790    -1.0270     2.2200 H     1 <1>   0.0800 
 36 H       -3.5070     0.4410     1.4390 H     1 <1>   0.0800 
 37 H       -2.4540     1.1230     0.2380 H     1 <1>   0.0800 
 38 H       -2.8310    -0.7130    -2.4920 H     1 <1>   0.2700 
 39 H       -5.2540    -1.3410     0.8610 H     1 <1>   0.1500 
 40 H       -1.3340     2.4080     1.8540 H     1 <1>   0.4500 
 41 H        2.5750     1.2080     1.5320 H     1 <1>   0.0800 
 42 H        1.2510     0.9380     2.6470 H     1 <1>   0.0800 
 43 H        2.0820     2.4720     2.6200 H     1 <1>   0.0800 
 44 H       -1.2300     1.2480    -2.4340 H     1 <1>   0.0800 
 45 H       -0.6290     2.7840    -2.9460 H     1 <1>   0.0800 
 46 H       -2.1600     2.6770    -2.0970 H     1 <1>   0.0800 
 47 H       -3.1090     1.2310     3.9340 H     1 <1>   0.0800 
 48 H       -1.9970     2.5640     4.1710 H     1 <1>   0.0800 
 49 H       -1.3800     0.9730     3.7950 H     1 <1>   0.0800 
 50 H       -4.2830     2.6130     2.1290 H     1 <1>   0.0800 
 51 H       -3.3060     3.2970     0.8470 H     1 <1>   0.0800 
 52 H       -3.1370     3.8900     2.4840 H     1 <1>   0.0800 
 53 H       -4.4230     1.6420    -3.2280 H     1 <1>   0.0800 
 54 H       -6.1110     1.2890    -2.9430 H     1 <1>   0.0800 
 55 H       -5.1710     0.2450    -3.9790 H     1 <1>   0.0800 
 56 H       -1.4530     5.2270     1.7870 H     1 <1>   0.1500 
 57 H       -0.8370     4.9160    -2.4300 H     1 <1>   0.1500 
 58 H       -2.6700     7.3170     1.4410 H     1 <1>   0.1500 
 59 H       -2.0560     6.9910    -2.7540 H     1 <1>   0.1500 
 60 H       -2.9890     8.1990    -0.8290 H     1 <1>   0.1500 
@<TRIPOS>BOND
  1   1   2  2   
  2   2   3  am  
  3   2   4  1   
  4   3   5  1   
  5   3   6  1   
  6   4   7  1   
  7   4  30  1   
  8   4  31  1   
  9   5   8  1   
 10   5  32  1   
 11   5  33  1   
 12   6   9  1   
 13   6  34  1   
 14   6  35  1   
 15   7  10  1   
 16   7  11  2   
 17   8  12  1   
 18   8  13  2   
 19   9  14  1   
 20   9  36  1   
 21   9  37  1   
 22  10  15  2   
 23  10  16  1   
 24  11  17  1   
 25  11  18  1   
 26  12  19  1   
 27  12  38  1   
 28  13  20  1   
 29  13  39  1   
 30  14  21  1   
 31  14  22  1   
 32  14  40  1   
 33  15  17  1   
 34  16  41  1   
 35  16  42  1   
 36  16  43  1   
 37  17  23  1   
 38  18  44  1   
 39  18  45  1   
 40  18  46  1   
 41  19  20  2   
 42  19  24  1   
 43  21  47  1   
 44  21  48  1   
 45  21  49  1   
 46  22  50  1   
 47  22  51  1   
 48  22  52  1   
 49  23  25  ar  
 50  23  26  ar  
 51  24  53  1   
 52  24  54  1   
 53  24  55  1   
 54  25  27  ar  
 55  25  56  1   
 56  26  28  ar  
 57  26  57  1   
 58  27  29  ar  
 59  27  58  1   
 60  28  29  ar  
 61  28  59  1   
 62  29  60  1   
@<TRIPOS>SUBSTRUCTURE
  1 ****  11 GROUP 4 **** **** 0

# MOE 2024.06 (io_trps.svl 2023.06)
