@<TRIPOS>MOLECULE
NONAME
40 42 1 0 0 
SMALL
USER_CHARGES


@<TRIPOS>ATOM
  1 CL      -1.2020     0.0580    -1.9670 Cl    1 <1>  -0.1770 
  2 C       -2.0380    -0.8590    -0.7420 C.ar  1 <1>   0.1770 
  3 C       -2.6580    -0.1890     0.2940 C.ar  1 <1>  -0.1500 
  4 C       -2.0670    -2.2380    -0.8280 C.ar  1 <1>  -0.1500 
  5 C       -3.3080    -0.9400     1.2520 C.ar  1 <1>   0.1770 
  6 C       -2.7330    -3.0010     0.1320 C.ar  1 <1>   0.0860 
  7 CL      -4.1000    -0.1310     2.5770 Cl    1 <1>  -0.1770 
  8 C       -3.3480    -2.3200     1.1840 C.ar  1 <1>  -0.1500 
  9 C       -2.7660    -4.4480     0.0350 C.2   1 <1>   0.5440 
 10 O       -1.7460    -5.0520    -0.2310 O.2   1 <1>  -0.5700 
 11 N       -3.9270    -5.1620     0.2210 N.am  1 <1>  -0.6600 
 12 C       -5.2990    -4.6150     0.0600 C.3   1 <1>   0.1400 
 13 C       -3.9540    -6.6470     0.1660 C.3   1 <1>   0.1400 
 14 C       -6.1430    -5.8070    -0.3880 C.3   1 <1>   0.2000 
 15 C       -5.4350    -7.0300     0.1860 C.3   1 <1>  -0.0800 
 16 O       -7.4380    -5.7260     0.0960 O.3   1 <1>  -0.6800 
 17 C       -5.7440    -8.3270    -0.5760 C.3   1 <1>   0.0210 
 18 C       -4.9430    -9.4860    -0.0160 C.2   1 <1>   0.1080 
 19 N       -5.0710    -9.9030     1.2050 N.2   1 <1>  -0.7070 
 20 C       -3.9910   -10.2120    -0.7230 C.2   1 <1>  -0.1500 
 21 N       -4.1960   -10.9200     1.3100 N.pl3 1 <1>   0.3000 
 22 C       -3.5280   -11.1250     0.1560 C.2   1 <1>  -0.3320 
 23 C       -2.4710   -12.1970    -0.0400 C.3   1 <1>  -0.0600 
 24 H       -2.6310     0.8840     0.3540 H     1 <1>   0.1500 
 25 H       -1.5670    -2.7320    -1.6440 H     1 <1>   0.1500 
 26 H       -3.8520    -2.8720     1.9570 H     1 <1>   0.1500 
 27 H       -5.6460    -4.2440     1.0080 H     1 <1>   0.0800 
 28 H       -5.3190    -3.8340    -0.6800 H     1 <1>   0.0800 
 29 H       -3.4820    -6.9740    -0.7450 H     1 <1>   0.0800 
 30 H       -3.4280    -7.0700     1.0060 H     1 <1>   0.0800 
 31 H       -6.1810    -5.8410    -1.4630 H     1 <1>   0.0800 
 32 H       -5.7110    -7.1560     1.2190 H     1 <1>   0.0800 
 33 H       -7.4560    -5.9170     1.0540 H     1 <1>   0.4000 
 34 H       -5.5170    -8.2070    -1.6200 H     1 <1>   0.0800 
 35 H       -6.7900    -8.5570    -0.4850 H     1 <1>   0.0800 
 36 H       -3.7040   -10.0570    -1.7470 H     1 <1>   0.1500 
 37 H       -4.0780   -11.4520     2.1810 H     1 <1>   0.2700 
 38 H       -2.0870   -12.1580    -1.0440 H     1 <1>   0.0800 
 39 H       -2.8930   -13.1720     0.1280 H     1 <1>   0.0800 
 40 H       -1.6550   -12.0440     0.6440 H     1 <1>   0.0800 
@<TRIPOS>BOND
  1   1   2  1   
  2   2   3  ar  
  3   2   4  ar  
  4   3   5  ar  
  5   3  24  1   
  6   4   6  ar  
  7   4  25  1   
  8   5   7  1   
  9   5   8  ar  
 10   6   8  ar  
 11   6   9  1   
 12   8  26  1   
 13   9  10  2   
 14   9  11  am  
 15  11  12  1   
 16  11  13  1   
 17  12  14  1   
 18  12  27  1   
 19  12  28  1   
 20  13  15  1   
 21  13  29  1   
 22  13  30  1   
 23  14  15  1   
 24  14  16  1   
 25  14  31  1   
 26  15  17  1   
 27  15  32  1   
 28  16  33  1   
 29  17  18  1   
 30  17  34  1   
 31  17  35  1   
 32  18  19  2   
 33  18  20  1   
 34  19  21  1   
 35  20  22  2   
 36  20  36  1   
 37  21  22  1   
 38  21  37  1   
 39  22  23  1   
 40  23  38  1   
 41  23  39  1   
 42  23  40  1   
@<TRIPOS>SUBSTRUCTURE
  1 ****  11 GROUP 4 **** **** 0

# MOE 2024.06 (io_trps.svl 2023.06)
