@<TRIPOS>MOLECULE
NONAME
32 32 1 0 0 
SMALL
USER_CHARGES


@<TRIPOS>ATOM
  1 O       -0.6870    -1.8530     0.8980 O.3   1 <1>  -0.5600 
  2 C       -0.3990    -1.9360    -0.4620 C.3   1 <1>   0.4800 
  3 C       -0.6280    -0.5610     1.4180 C.3   1 <1>   0.0400 
  4 O       -1.3120    -2.8380    -0.9910 O.3   1 <1>  -0.5600 
  5 C        1.0190    -2.5000    -0.6390 C.3   1 <1>  -0.1600 
  6 C       -2.6110    -2.3440    -1.1100 C.3   1 <1>   0.0400 
  7 C        1.1550    -4.0190    -0.3790 C.3   1 <1>  -0.0800 
  8 C        0.4530    -4.4490     0.9210 C.3   1 <1>   0.3430 
  9 C        2.6360    -4.4350    -0.3730 C.3   1 <1>  -0.1600 
 10 N        0.6280    -5.9110     1.1430 N.4   1 <1>  -0.9060 
 11 C        2.7820    -5.9310    -0.0540 C.3   1 <1>  -0.1600 
 12 C        2.0560    -6.3120     1.2390 C.3   1 <1>   0.3430 
 13 H       -0.5170    -0.9760    -0.9390 H     1 <1>   0.0800 
 14 H       -0.8490    -0.6120     2.4700 H     1 <1>   0.0800 
 15 H       -1.3630     0.0540     0.9260 H     1 <1>   0.0800 
 16 H        0.3600    -0.1590     1.2740 H     1 <1>   0.0800 
 17 H        1.6820    -1.9450     0.0000 H     1 <1>   0.0800 
 18 H        1.3230    -2.2980    -1.6500 H     1 <1>   0.0800 
 19 H       -3.2240    -3.1110    -1.5500 H     1 <1>   0.0800 
 20 H       -2.6070    -1.4760    -1.7470 H     1 <1>   0.0800 
 21 H       -2.9920    -2.0950    -0.1340 H     1 <1>   0.0800 
 22 H        0.6620    -4.5240    -1.1930 H     1 <1>   0.0800 
 23 H       -0.5970    -4.2130     0.8520 H     1 <1>   0.0800 
 24 H        0.8640    -3.8940     1.7490 H     1 <1>   0.0800 
 25 H        3.1720    -3.8610     0.3650 H     1 <1>   0.0800 
 26 H        3.0780    -4.2280    -1.3340 H     1 <1>   0.0800 
 27 H        0.1900    -6.3990     0.3540 H     1 <1>   0.4500 
 28 H        0.1190    -6.1840     1.9910 H     1 <1>   0.4500 
 29 H        3.8270    -6.1710     0.0470 H     1 <1>   0.0800 
 30 H        2.3960    -6.5190    -0.8680 H     1 <1>   0.0800 
 31 H        2.1340    -7.3760     1.3990 H     1 <1>   0.0800 
 32 H        2.5200    -5.8080     2.0720 H     1 <1>   0.0800 
@<TRIPOS>BOND
  1   1   2  1   
  2   1   3  1   
  3   2   4  1   
  4   2   5  1   
  5   2  13  1   
  6   3  14  1   
  7   3  15  1   
  8   3  16  1   
  9   4   6  1   
 10   5   7  1   
 11   5  17  1   
 12   5  18  1   
 13   6  19  1   
 14   6  20  1   
 15   6  21  1   
 16   7   8  1   
 17   7   9  1   
 18   7  22  1   
 19   8  10  1   
 20   8  23  1   
 21   8  24  1   
 22   9  11  1   
 23   9  25  1   
 24   9  26  1   
 25  10  12  1   
 26  10  27  1   
 27  10  28  1   
 28  11  12  1   
 29  11  29  1   
 30  11  30  1   
 31  12  31  1   
 32  12  32  1   
@<TRIPOS>SUBSTRUCTURE
  1 ****   7 GROUP 4 **** **** 0

# MOE 2024.06 (io_trps.svl 2023.06)
