@<TRIPOS>MOLECULE
NONAME
48 49 1 0 0 
SMALL
USER_CHARGES


@<TRIPOS>ATOM
  1 S        0.1360     0.2830     0.3630 S.o2  1 <1>   1.3330 
  2 O       -1.2900     0.4830     0.4910 O.2   1 <1>  -0.6500 
  3 O        0.9720     0.2970     1.5420 O.2   1 <1>  -0.6500 
  4 N        0.4010    -1.1860    -0.4470 N.am  1 <1>  -0.8490 
  5 C        0.7520     1.4960    -0.8020 C.3   1 <1>  -0.0550 
  6 C       -0.5770    -2.2110    -0.0710 C.3   1 <1>   0.1160 
  7 C        1.7610    -1.7080    -0.2760 C.3   1 <1>   0.1160 
  8 C        0.5260     2.9470    -0.3420 C.3   1 <1>  -0.0800 
  9 C        0.9710     3.9630    -1.3910 C.3   1 <1>   0.2000 
 10 C        1.3110     3.3430     0.9110 C.3   1 <1>   0.1400 
 11 O       -0.0290     4.1390    -2.3330 O.3   1 <1>  -0.6800 
 12 C        1.2630     5.2490    -0.6200 C.3   1 <1>   0.1400 
 13 N        1.5400     4.7990     0.7680 N.am  1 <1>  -0.6600 
 14 C        2.0000     5.5800     1.7980 C.2   1 <1>   0.5690 
 15 O        2.2400     5.1030     2.8820 O.2   1 <1>  -0.5700 
 16 C        2.1790     7.0870     1.6290 C.3   1 <1>   0.1810 
 17 O        3.0970     7.3930     0.5900 O.3   1 <1>  -0.3630 
 18 C        3.3250     8.6740     0.1980 C.ar  1 <1>   0.0820 
 19 C        4.1550     8.8720    -0.9030 C.ar  1 <1>  -0.1440 
 20 C        2.7660     9.7740     0.8460 C.ar  1 <1>  -0.1500 
 21 C        4.4080    10.1600    -1.3470 C.ar  1 <1>  -0.1500 
 22 C        4.7880     7.6890    -1.6220 C.3   1 <1>  -0.0970 
 23 C        3.0260    11.0550     0.3930 C.ar  1 <1>  -0.1500 
 24 C        3.8460    11.2480    -0.7030 C.ar  1 <1>  -0.1500 
 25 H        1.7990     1.3330    -0.9690 H     1 <1>   0.0800 
 26 H        0.2460     1.3550    -1.7380 H     1 <1>   0.0800 
 27 H       -0.3900    -3.1220    -0.6130 H     1 <1>   0.0800 
 28 H       -1.5730    -1.8770    -0.3120 H     1 <1>   0.0800 
 29 H       -0.5250    -2.4090     0.9870 H     1 <1>   0.0800 
 30 H        1.8980    -2.5880    -0.8820 H     1 <1>   0.0800 
 31 H        1.9410    -1.9620     0.7560 H     1 <1>   0.0800 
 32 H        2.4840    -0.9710    -0.5810 H     1 <1>   0.0800 
 33 H       -0.5180     3.0930    -0.1230 H     1 <1>   0.0800 
 34 H        1.8630     3.6370    -1.9000 H     1 <1>   0.0800 
 35 H        2.2640     2.8430     0.9510 H     1 <1>   0.0800 
 36 H        0.7610     3.1270     1.8130 H     1 <1>   0.0800 
 37 H       -0.8710     4.3810    -1.9010 H     1 <1>   0.4000 
 38 H        0.4100     5.9050    -0.6200 H     1 <1>   0.0800 
 39 H        2.1200     5.7480    -1.0370 H     1 <1>   0.0800 
 40 H        2.5590     7.5050     2.5430 H     1 <1>   0.0800 
 41 H        1.2310     7.5290     1.3890 H     1 <1>   0.0800 
 42 H        2.1300     9.6600     1.7030 H     1 <1>   0.1500 
 43 H        5.0460    10.3250    -2.1980 H     1 <1>   0.1500 
 44 H        5.4580     8.0180    -2.3950 H     1 <1>   0.0800 
 45 H        4.0220     7.0800    -2.0660 H     1 <1>   0.0800 
 46 H        5.3430     7.0920    -0.9210 H     1 <1>   0.0800 
 47 H        2.5930    11.9030     0.8950 H     1 <1>   0.1500 
 48 H        4.0480    12.2440    -1.0560 H     1 <1>   0.1500 
@<TRIPOS>BOND
  1   1   2  2   
  2   1   3  2   
  3   1   4  am  
  4   1   5  1   
  5   4   6  1   
  6   4   7  1   
  7   5   8  1   
  8   5  25  1   
  9   5  26  1   
 10   6  27  1   
 11   6  28  1   
 12   6  29  1   
 13   7  30  1   
 14   7  31  1   
 15   7  32  1   
 16   8   9  1   
 17   8  10  1   
 18   8  33  1   
 19   9  11  1   
 20   9  12  1   
 21   9  34  1   
 22  10  13  1   
 23  10  35  1   
 24  10  36  1   
 25  11  37  1   
 26  12  13  1   
 27  12  38  1   
 28  12  39  1   
 29  13  14  am  
 30  14  15  2   
 31  14  16  1   
 32  16  17  1   
 33  16  40  1   
 34  16  41  1   
 35  17  18  1   
 36  18  19  ar  
 37  18  20  ar  
 38  19  21  ar  
 39  19  22  1   
 40  20  23  ar  
 41  20  42  1   
 42  21  24  ar  
 43  21  43  1   
 44  22  44  1   
 45  22  45  1   
 46  22  46  1   
 47  23  24  ar  
 48  23  47  1   
 49  24  48  1   
@<TRIPOS>SUBSTRUCTURE
  1 ****  13 GROUP 4 **** **** 0

# MOE 2024.06 (io_trps.svl 2023.06)
