@<TRIPOS>MOLECULE
NONAME
50 52 1 0 0 
SMALL
USER_CHARGES


@<TRIPOS>ATOM
  1 O       -1.0560     0.6440    -1.4840 O.co2 1 <1>  -0.9000 
  2 C       -0.9010     0.9650    -0.3010 C.2   1 <1>   0.9060 
  3 O       -1.1450     0.1700     0.6210 O.co2 1 <1>  -0.9000 
  4 C       -0.5300     2.3980     0.0720 C.3   1 <1>  -0.1060 
  5 C       -1.7860     2.9620     0.7730 C.3   1 <1>   0.2000 
  6 C       -0.2750     3.2350    -1.2040 C.3   1 <1>   0.1400 
  7 C        0.7230     2.4150     0.9970 C.3   1 <1>  -0.0170 
  8 O       -1.9930     2.3150     1.9760 O.3   1 <1>  -0.6800 
  9 C       -1.7280     4.4630     1.0480 C.3   1 <1>  -0.1600 
 10 N       -0.2320     4.7090    -0.8990 N.am  1 <1>  -0.6600 
 11 C        1.9940     1.8450     0.3700 C.ar  1 <1>  -0.1430 
 12 C       -1.4740     5.2180    -0.2540 C.3   1 <1>   0.1400 
 13 C        0.8210     5.4950    -1.2970 C.2   1 <1>   0.5690 
 14 C        2.9740     2.6870    -0.1330 C.ar  1 <1>  -0.1500 
 15 C        2.1890     0.4740     0.3090 C.ar  1 <1>  -0.1500 
 16 O        1.6970     5.0830    -2.0200 O.2   1 <1>  -0.5700 
 17 C        0.9100     6.9410    -0.8280 C.3   1 <1>  -0.0990 
 18 C        4.1300     2.1690    -0.6910 C.ar  1 <1>  -0.1500 
 19 C        3.3450    -0.0480    -0.2470 C.ar  1 <1>  -0.1500 
 20 C        2.2670     7.6030    -1.1120 C.3   1 <1>  -0.0170 
 21 C        4.3180     0.7990    -0.7470 C.ar  1 <1>  -0.1500 
 22 C        2.2810     9.0290    -0.5860 C.ar  1 <1>  -0.1430 
 23 C        1.8420    10.0900    -1.3510 C.ar  1 <1>  -0.1500 
 24 C        2.7280     9.3350     0.6840 C.ar  1 <1>  -0.1500 
 25 C        1.8690    11.3710    -0.8230 C.ar  1 <1>   0.1600 
 26 C        2.7120    10.6510     1.1150 C.ar  1 <1>   0.1600 
 27 N        2.2910    11.6770     0.3930 N.ar  1 <1>  -0.6200 
 28 H       -2.6450     2.7520     0.1560 H     1 <1>   0.0800 
 29 H       -1.0680     3.0610    -1.9110 H     1 <1>   0.0800 
 30 H        0.6370     2.9100    -1.6740 H     1 <1>   0.0800 
 31 H        0.9220     3.4210     1.3140 H     1 <1>   0.0800 
 32 H        0.5180     1.8450     1.8860 H     1 <1>   0.0800 
 33 H       -1.8190     1.3460     1.7910 H     1 <1>   0.4000 
 34 H       -2.6660     4.7810     1.4640 H     1 <1>   0.0800 
 35 H       -0.9500     4.6890     1.7540 H     1 <1>   0.0800 
 36 H       -1.4170     6.2710    -0.0520 H     1 <1>   0.0800 
 37 H       -2.2990     5.0560    -0.9270 H     1 <1>   0.0800 
 38 H        2.8350     3.7520    -0.1000 H     1 <1>   0.1500 
 39 H        1.4320    -0.1930     0.6880 H     1 <1>   0.1500 
 40 H        0.1380     7.5040    -1.3170 H     1 <1>   0.0800 
 41 H        0.7360     6.9660     0.2310 H     1 <1>   0.0800 
 42 H        4.8760     2.8340    -1.0850 H     1 <1>   0.1500 
 43 H        3.4750    -1.1140    -0.2930 H     1 <1>   0.1500 
 44 H        2.4560     7.6060    -2.1720 H     1 <1>   0.0800 
 45 H        3.0510     7.0330    -0.6440 H     1 <1>   0.0800 
 46 H        5.2130     0.3940    -1.1830 H     1 <1>   0.1500 
 47 H        1.4820     9.9340    -2.3510 H     1 <1>   0.1500 
 48 H        3.0880     8.5650     1.3400 H     1 <1>   0.1500 
 49 H        1.5230    12.1870    -1.4350 H     1 <1>   0.1500 
 50 H        3.0660    10.8720     2.1080 H     1 <1>   0.1500 
@<TRIPOS>BOND
  1   1   2  ar  
  2   2   3  ar  
  3   2   4  1   
  4   4   5  1   
  5   4   6  1   
  6   4   7  1   
  7   5   8  1   
  8   5   9  1   
  9   5  28  1   
 10   6  10  1   
 11   6  29  1   
 12   6  30  1   
 13   7  11  1   
 14   7  31  1   
 15   7  32  1   
 16   8  33  1   
 17   9  12  1   
 18   9  34  1   
 19   9  35  1   
 20  10  12  1   
 21  10  13  am  
 22  11  14  ar  
 23  11  15  ar  
 24  12  36  1   
 25  12  37  1   
 26  13  16  2   
 27  13  17  1   
 28  14  18  ar  
 29  14  38  1   
 30  15  19  ar  
 31  15  39  1   
 32  17  20  1   
 33  17  40  1   
 34  17  41  1   
 35  18  21  ar  
 36  18  42  1   
 37  19  21  ar  
 38  19  43  1   
 39  20  22  1   
 40  20  44  1   
 41  20  45  1   
 42  21  46  1   
 43  22  23  ar  
 44  22  24  ar  
 45  23  25  ar  
 46  23  47  1   
 47  24  26  ar  
 48  24  48  1   
 49  25  27  ar  
 50  25  49  1   
 51  26  27  ar  
 52  26  50  1   
@<TRIPOS>SUBSTRUCTURE
  1 ****  13 GROUP 4 **** **** 0

# MOE 2024.06 (io_trps.svl 2023.06)
