@<TRIPOS>MOLECULE
NONAME
47 48 1 0 0 
SMALL
USER_CHARGES


@<TRIPOS>ATOM
  1 S        0.2210     0.5030     0.4570 S.3   1 <1>  -0.0800 
  2 C       -1.5290     0.3390     0.3940 C.2   1 <1>  -0.1400 
  3 C        0.2010     1.7090    -0.8160 C.2   1 <1>  -0.1100 
  4 C       -2.0430     1.1660    -0.5400 C.2   1 <1>  -0.1500 
  5 C       -2.1440    -0.6570     1.3620 C.3   1 <1>   0.6030 
  6 C       -1.0570     1.9420    -1.2280 C.2   1 <1>  -0.1500 
  7 N       -2.4610    -1.9150     0.6290 N.4   1 <1>  -0.9590 
  8 C       -3.4060    -0.0530     1.9790 C.3   1 <1>  -0.2400 
  9 C       -3.0970    -2.9530     1.4940 C.3   1 <1>   0.5240 
 10 C       -1.2580    -2.4600    -0.0870 C.3   1 <1>   0.2630 
 11 C       -3.4740    -4.1550     0.6530 C.2   1 <1>  -0.1810 
 12 C       -4.5700    -4.4300    -0.1030 C.2   1 <1>  -0.0400 
 13 C       -2.6430    -5.2750     0.5390 C.2   1 <1>  -0.1500 
 14 O       -4.4220    -5.6150    -0.6590 O.3   1 <1>  -0.2800 
 15 C       -5.8760    -3.6840    -0.4270 C.3   1 <1>   0.1800 
 16 C       -3.2670    -6.1510    -0.2890 C.2   1 <1>   0.0550 
 17 C       -5.9430    -3.4230    -1.9380 C.3   1 <1>  -0.2400 
 18 C       -7.0690    -4.5590    -0.0140 C.3   1 <1>  -0.2400 
 19 C       -5.9990    -2.3400     0.3020 C.3   1 <1>  -0.2400 
 20 C       -2.8480    -7.4530    -0.7550 C.2   1 <1>   0.7150 
 21 O       -1.7620    -7.9080    -0.4620 O.2   1 <1>  -0.5700 
 22 N       -3.6430    -8.2130    -1.5400 N.am  1 <1>  -0.8000 
 23 H        1.1460     2.1240    -1.1240 H     1 <1>   0.1500 
 24 H       -3.0840     1.2830    -0.7910 H     1 <1>   0.1500 
 25 H       -1.4310    -0.8570     2.1460 H     1 <1>   0.0800 
 26 H       -1.3390     2.6410    -1.9980 H     1 <1>   0.1500 
 27 H       -3.1460    -1.6690    -0.0930 H     1 <1>   0.4500 
 28 H       -4.1690     0.0990     1.2380 H     1 <1>   0.0800 
 29 H       -3.1600     0.9070     2.3980 H     1 <1>   0.0800 
 30 H       -3.7850    -0.6570     2.7810 H     1 <1>   0.0800 
 31 H       -3.9850    -2.5610     1.9600 H     1 <1>   0.0800 
 32 H       -2.4170    -3.2590     2.2720 H     1 <1>   0.0800 
 33 H       -0.4900    -2.7360     0.6170 H     1 <1>   0.0800 
 34 H       -0.8540    -1.7250    -0.7650 H     1 <1>   0.0800 
 35 H       -1.5240    -3.3300    -0.6670 H     1 <1>   0.0800 
 36 H       -1.6890    -5.4310     1.0130 H     1 <1>   0.1500 
 37 H       -5.9190    -4.3520    -2.4800 H     1 <1>   0.0800 
 38 H       -5.1060    -2.8280    -2.2560 H     1 <1>   0.0800 
 39 H       -6.8510    -2.9080    -2.1970 H     1 <1>   0.0800 
 40 H       -7.0560    -5.4920    -0.5490 H     1 <1>   0.0800 
 41 H       -8.0000    -4.0650    -0.2270 H     1 <1>   0.0800 
 42 H       -7.0280    -4.7770     1.0380 H     1 <1>   0.0800 
 43 H       -5.2200    -1.6710    -0.0020 H     1 <1>   0.0800 
 44 H       -5.9730    -2.4820     1.3670 H     1 <1>   0.0800 
 45 H       -6.9400    -1.8760     0.0590 H     1 <1>   0.0800 
 46 H       -3.3260    -9.1330    -1.8410 H     1 <1>   0.3700 
 47 H       -4.5770    -7.9130    -1.8160 H     1 <1>   0.3700 
@<TRIPOS>BOND
  1   1   2  1   
  2   1   3  1   
  3   2   4  2   
  4   2   5  1   
  5   3   6  2   
  6   3  23  1   
  7   4   6  1   
  8   4  24  1   
  9   5   7  1   
 10   5   8  1   
 11   5  25  1   
 12   6  26  1   
 13   7   9  1   
 14   7  10  1   
 15   7  27  1   
 16   8  28  1   
 17   8  29  1   
 18   8  30  1   
 19   9  11  1   
 20   9  31  1   
 21   9  32  1   
 22  10  33  1   
 23  10  34  1   
 24  10  35  1   
 25  11  12  2   
 26  11  13  1   
 27  12  14  1   
 28  12  15  1   
 29  13  16  2   
 30  13  36  1   
 31  14  16  1   
 32  15  17  1   
 33  15  18  1   
 34  15  19  1   
 35  16  20  1   
 36  17  37  1   
 37  17  38  1   
 38  17  39  1   
 39  18  40  1   
 40  18  41  1   
 41  18  42  1   
 42  19  43  1   
 43  19  44  1   
 44  19  45  1   
 45  20  21  2   
 46  20  22  am  
 47  22  46  1   
 48  22  47  1   
@<TRIPOS>SUBSTRUCTURE
  1 ****   7 GROUP 4 **** **** 0

# MOE 2024.06 (io_trps.svl 2023.06)
