@<TRIPOS>MOLECULE
NONAME
46 47 1 0 0 
SMALL
USER_CHARGES


@<TRIPOS>ATOM
  1 O        0.8680     0.4460     1.0430 O.2   1 <1>  -0.5700 
  2 C        1.7450    -0.1930     0.4960 C.2   1 <1>   0.5440 
  3 N        2.4320     0.3690    -0.5640 N.am  1 <1>  -0.6600 
  4 C        2.0650    -1.5330     0.9490 C.ar  1 <1>   0.0860 
  5 C        3.2740    -0.4380    -1.4920 C.3   1 <1>   0.1400 
  6 C        2.3590     1.8220    -0.8570 C.3   1 <1>   0.1400 
  7 C        1.4060    -2.6770     0.4780 C.ar  1 <1>  -0.1440 
  8 C        3.0950    -1.7020     1.8710 C.ar  1 <1>  -0.1500 
  9 C        4.7370    -0.5530    -1.0300 C.3   1 <1>   0.3430 
 10 C        3.6580     2.5180    -0.4480 C.3   1 <1>  -0.1600 
 11 C        1.8030    -3.9340     0.9070 C.ar  1 <1>  -0.1500 
 12 C        0.2350    -2.5750    -0.4960 C.3   1 <1>  -0.0160 
 13 C        3.4890    -2.9570     2.2940 C.ar  1 <1>  -0.1500 
 14 N        5.3590     0.7200    -0.5470 N.4   1 <1>  -0.9590 
 15 C        4.9120     1.9970    -1.1540 C.3   1 <1>   0.3430 
 16 C        2.8440    -4.0770     1.8070 C.ar  1 <1>  -0.1500 
 17 C       -1.0800    -2.4100     0.2680 C.3   1 <1>  -0.2400 
 18 C        6.8420     0.6330    -0.4690 C.3   1 <1>   0.3430 
 19 C        7.2380    -0.1180     0.7840 C.3   1 <1>  -0.2660 
 20 C        6.7470     0.7110     1.9190 C.2   1 <1>   0.9060 
 21 O        7.5130     1.5220     2.4250 O.co2 1 <1>  -0.9000 
 22 O        5.5350     0.6650     2.1480 O.co2 1 <1>  -0.9000 
 23 H        3.2440     0.0010    -2.4730 H     1 <1>   0.0800 
 24 H        2.8640    -1.4290    -1.5840 H     1 <1>   0.0800 
 25 H        1.5400     2.2690    -0.3170 H     1 <1>   0.0800 
 26 H        2.1670     1.9670    -1.9060 H     1 <1>   0.0800 
 27 H        3.5910    -0.8300     2.2660 H     1 <1>   0.1500 
 28 H        5.3160    -0.9440    -1.8490 H     1 <1>   0.0800 
 29 H        4.7820    -1.2760    -0.2320 H     1 <1>   0.0800 
 30 H        3.7840     2.4590     0.6210 H     1 <1>   0.0800 
 31 H        3.5530     3.5600    -0.6890 H     1 <1>   0.0800 
 32 H        1.2960    -4.8130     0.5490 H     1 <1>   0.1500 
 33 H        0.1830    -3.4650    -1.0990 H     1 <1>   0.0800 
 34 H        0.3650    -1.7420    -1.1640 H     1 <1>   0.0800 
 35 H        4.2910    -3.0530     3.0060 H     1 <1>   0.1500 
 36 H        5.0730     0.7960     0.4680 H     1 <1>   0.4500 
 37 H        5.6890     2.7330    -1.0210 H     1 <1>   0.0800 
 38 H        4.7360     1.8780    -2.2100 H     1 <1>   0.0800 
 39 H        3.1440    -5.0570     2.1360 H     1 <1>   0.1500 
 40 H       -1.2390    -3.2460     0.9250 H     1 <1>   0.0800 
 41 H       -1.9040    -2.3460    -0.4200 H     1 <1>   0.0800 
 42 H       -1.0570    -1.5100     0.8580 H     1 <1>   0.0800 
 43 H        7.2620     1.6250    -0.4040 H     1 <1>   0.0800 
 44 H        7.2390     0.1480    -1.3450 H     1 <1>   0.0800 
 45 H        8.3070    -0.1910     0.8510 H     1 <1>   0.0800 
 46 H        6.8130    -1.1010     0.8310 H     1 <1>   0.0800 
@<TRIPOS>BOND
  1   1   2  2   
  2   2   3  am  
  3   2   4  1   
  4   3   5  1   
  5   3   6  1   
  6   4   7  ar  
  7   4   8  ar  
  8   5   9  1   
  9   5  23  1   
 10   5  24  1   
 11   6  10  1   
 12   6  25  1   
 13   6  26  1   
 14   7  11  ar  
 15   7  12  1   
 16   8  13  ar  
 17   8  27  1   
 18   9  14  1   
 19   9  28  1   
 20   9  29  1   
 21  10  15  1   
 22  10  30  1   
 23  10  31  1   
 24  11  16  ar  
 25  11  32  1   
 26  12  17  1   
 27  12  33  1   
 28  12  34  1   
 29  13  16  ar  
 30  13  35  1   
 31  14  15  1   
 32  14  18  1   
 33  14  36  1   
 34  15  37  1   
 35  15  38  1   
 36  16  39  1   
 37  17  40  1   
 38  17  41  1   
 39  17  42  1   
 40  18  19  1   
 41  18  43  1   
 42  18  44  1   
 43  19  20  1   
 44  19  45  1   
 45  19  46  1   
 46  20  21  ar  
 47  20  22  ar  
@<TRIPOS>SUBSTRUCTURE
  1 ****   3 GROUP 4 **** **** 0

# MOE 2024.06 (io_trps.svl 2023.06)
