@<TRIPOS>MOLECULE
NONAME
42 44 1 0 0 
SMALL
USER_CHARGES


@<TRIPOS>ATOM
  1 O       -1.8670    -0.0040     1.0780 O.co2 1 <1>  -0.9000 
  2 C       -2.3270    -0.2570    -0.0390 C.2   1 <1>   0.9060 
  3 O       -1.7040    -0.0850    -1.0910 O.co2 1 <1>  -0.9000 
  4 C       -3.6510    -1.0190    -0.1030 C.3   1 <1>   0.2370 
  5 N       -3.4980    -2.5310    -0.1180 N.4   1 <1>  -0.9590 
  6 C       -2.7890    -3.0210     1.1210 C.3   1 <1>   0.4230 
  7 C       -2.9200    -2.9880    -1.4150 C.3   1 <1>   0.3430 
  8 C       -1.2450    -3.1150     1.0180 C.3   1 <1>   0.1200 
  9 C       -3.4100    -4.3880     1.5160 C.3   1 <1>   0.2090 
 10 C       -2.3530    -4.4200    -1.4150 C.3   1 <1>  -0.0800 
 11 O       -0.8260    -4.3330     0.4670 O.3   1 <1>  -0.5600 
 12 N       -4.0900    -5.0700     0.3530 N.pl3 1 <1>  -0.8380 
 13 C       -0.8990    -4.4250    -0.9150 C.3   1 <1>   0.1200 
 14 C       -3.2290    -5.5290    -0.7790 C.3   1 <1>   0.2090 
 15 C       -5.4560    -5.0590     0.2260 C.ar  1 <1>   0.7200 
 16 N       -6.0290    -6.1480    -0.2690 N.ar  1 <1>  -0.6200 
 17 N       -6.0580    -3.9250     0.5780 N.ar  1 <1>  -0.6200 
 18 C       -7.3370    -6.1090    -0.3850 C.ar  1 <1>   0.1600 
 19 C       -7.3680    -3.9160     0.4510 C.ar  1 <1>   0.1600 
 20 C       -8.0770    -4.9940    -0.0320 C.ar  1 <1>   0.0830 
 21 O       -9.4340    -4.8860    -0.1290 O.3   1 <1>  -0.3620 
 22 C      -10.2090    -5.9840    -0.5630 C.3   1 <1>   0.0400 
 23 H       -4.1670    -0.6950    -0.9880 H     1 <1>   0.0800 
 24 H       -4.2260    -0.7230     0.7540 H     1 <1>   0.0800 
 25 H       -4.4270    -2.9910    -0.0380 H     1 <1>   0.4500 
 26 H       -2.9950    -2.3240     1.9160 H     1 <1>   0.0800 
 27 H       -3.6870    -2.9210    -2.1670 H     1 <1>   0.0800 
 28 H       -2.1310    -2.3110    -1.7050 H     1 <1>   0.0800 
 29 H       -0.8390    -3.0770     2.0130 H     1 <1>   0.0800 
 30 H       -0.8160    -2.2970     0.4660 H     1 <1>   0.0800 
 31 H       -4.1310    -4.2160     2.2960 H     1 <1>   0.0800 
 32 H       -2.6630    -5.0420     1.9320 H     1 <1>   0.0800 
 33 H       -2.2660    -4.6820    -2.4540 H     1 <1>   0.0800 
 34 H       -0.3300    -3.6160    -1.3450 H     1 <1>   0.0800 
 35 H       -0.4240    -5.3510    -1.1880 H     1 <1>   0.0800 
 36 H       -2.6030    -6.3340    -0.4320 H     1 <1>   0.0800 
 37 H       -3.8600    -5.9380    -1.5510 H     1 <1>   0.0800 
 38 H       -7.8210    -6.9870    -0.7720 H     1 <1>   0.1500 
 39 H       -7.9070    -3.0290     0.7350 H     1 <1>   0.1500 
 40 H      -11.2440    -5.6890    -0.5440 H     1 <1>   0.0800 
 41 H      -10.0560    -6.8110     0.1070 H     1 <1>   0.0800 
 42 H       -9.9240    -6.2420    -1.5680 H     1 <1>   0.0800 
@<TRIPOS>BOND
  1   1   2  ar  
  2   2   3  ar  
  3   2   4  1   
  4   4   5  1   
  5   4  23  1   
  6   4  24  1   
  7   5   6  1   
  8   5   7  1   
  9   5  25  1   
 10   6   8  1   
 11   6   9  1   
 12   6  26  1   
 13   7  10  1   
 14   7  27  1   
 15   7  28  1   
 16   8  11  1   
 17   8  29  1   
 18   8  30  1   
 19   9  12  1   
 20   9  31  1   
 21   9  32  1   
 22  10  13  1   
 23  10  14  1   
 24  10  33  1   
 25  11  13  1   
 26  12  14  1   
 27  12  15  1   
 28  13  34  1   
 29  13  35  1   
 30  14  36  1   
 31  14  37  1   
 32  15  16  ar  
 33  15  17  ar  
 34  16  18  ar  
 35  17  19  ar  
 36  18  20  ar  
 37  18  38  1   
 38  19  20  ar  
 39  19  39  1   
 40  20  21  1   
 41  21  22  1   
 42  22  40  1   
 43  22  41  1   
 44  22  42  1   
@<TRIPOS>SUBSTRUCTURE
  1 ****  12 GROUP 4 **** **** 0

# MOE 2024.06 (io_trps.svl 2023.06)
