@<TRIPOS>MOLECULE
NONAME
60 63 1 0 0 
SMALL
USER_CHARGES


@<TRIPOS>ATOM
  1 O       -4.2330     2.4690    -2.0390 O.2   1 <1>  -0.5740 
  2 C       -3.5190     2.0190    -1.1650 C.2   1 <1>   0.5400 
  3 N       -3.3660     0.6510    -1.0510 N.am  1 <1>  -0.6630 
  4 C       -2.8400     2.9540    -0.2980 C.ar  1 <1>   0.0800 
  5 C       -2.5210    -0.0040     0.0230 C.3   1 <1>   0.3590 
  6 C       -4.2090    -0.2420    -1.9050 C.3   1 <1>   0.1340 
  7 C       -1.7540     3.6730    -0.7820 C.ar  1 <1>  -0.1150 
  8 C       -3.2290     3.1410     1.0410 C.ar  1 <1>  -0.1560 
  9 C       -1.1100     0.6040     0.0120 C.ar  1 <1>  -0.1500 
 10 C       -2.3910    -1.5600    -0.0590 C.3   1 <1>   0.1940 
 11 C       -3.6090    -1.6370    -2.0570 C.3   1 <1>   0.1140 
 12 C       -1.0590     4.5100     0.0720 C.ar  1 <1>   0.3040 
 13 C       -2.5370     3.9840     1.8890 C.ar  1 <1>  -0.1150 
 14 C       -0.3860     0.7040    -1.1690 C.ar  1 <1>  -0.1560 
 15 C       -0.5390     1.0730     1.1880 C.ar  1 <1>  -0.1560 
 16 O       -3.4110    -2.1790    -0.7950 O.3   1 <1>  -0.5640 
 17 C       -2.4130    -2.2320     1.3250 C.3   1 <1>   0.1140 
 18 N        0.0530     5.2960    -0.1130 N.pl3 1 <1>  -0.7030 
 19 C       -1.4290     4.6650     1.3940 C.ar  1 <1>   0.3040 
 20 C        0.8770     1.2700    -1.1760 C.ar  1 <1>  -0.1560 
 21 C        0.7250     1.6380     1.1840 C.ar  1 <1>  -0.1560 
 22 O       -1.4700    -1.6800     2.1860 O.3   1 <1>  -0.6830 
 23 C        0.3670     5.8750     1.0270 C.cat 1 <1>   1.0690 
 24 N       -0.5160     5.5380     1.9790 N.pl3 1 <1>  -0.7670 
 25 C        1.4330     1.7390     0.0010 C.ar  1 <1>  -0.1560 
 26 N        1.4170     6.6700     1.2050 N.pl3 1 <1>  -0.7170 
 27 C       -0.5860     5.9530     3.4030 C.3   1 <1>   0.2690 
 28 C        2.2950     7.2650     0.1510 C.3   1 <1>   0.1620 
 29 C        3.2630     6.2570    -0.4900 C.3   1 <1>   0.1140 
 30 O        2.5400     5.2730    -1.1660 O.3   1 <1>  -0.5640 
 31 C        3.3410     4.3830    -1.8790 C.3   1 <1>   0.0330 
 32 H       -2.9820     0.2270     0.9660 H     1 <1>   0.0740 
 33 H       -5.1880    -0.3250    -1.4660 H     1 <1>   0.0740 
 34 H       -4.3220     0.1910    -2.8840 H     1 <1>   0.0740 
 35 H       -1.4450     3.5610    -1.8060 H     1 <1>   0.1440 
 36 H       -4.0880     2.5980     1.4000 H     1 <1>   0.1440 
 37 H       -1.4670    -1.8150    -0.5450 H     1 <1>   0.0740 
 38 H       -2.6730    -1.6070    -2.5880 H     1 <1>   0.0740 
 39 H       -4.2920    -2.2770    -2.5870 H     1 <1>   0.0740 
 40 H       -2.8420     4.1090     2.9120 H     1 <1>   0.1440 
 41 H       -0.8110     0.3440    -2.0920 H     1 <1>   0.1440 
 42 H       -1.0770     0.9930     2.1170 H     1 <1>   0.1440 
 43 H       -2.2040    -3.2830     1.2320 H     1 <1>   0.0740 
 44 H       -3.3800    -2.1020     1.7810 H     1 <1>   0.0740 
 45 H        0.7420     5.2490    -0.8770 H     1 <1>   0.4460 
 46 H        1.4270     1.3390    -2.0990 H     1 <1>   0.1440 
 47 H        1.1600     1.9870     2.1040 H     1 <1>   0.1440 
 48 H       -0.5640    -1.8080     1.8370 H     1 <1>   0.3950 
 49 H        2.4180     2.1720    -0.0030 H     1 <1>   0.1440 
 50 H        1.6080     6.9890     2.1500 H     1 <1>   0.4460 
 51 H       -1.5490     6.3910     3.6070 H     1 <1>   0.0740 
 52 H        0.1760     6.6760     3.6340 H     1 <1>   0.0740 
 53 H       -0.4530     5.0930     4.0390 H     1 <1>   0.0740 
 54 H        1.6860     7.7030    -0.6230 H     1 <1>   0.0740 
 55 H        2.8720     8.0600     0.5920 H     1 <1>   0.0740 
 56 H        3.8800     5.7890     0.2580 H     1 <1>   0.0740 
 57 H        3.8930     6.7650    -1.2010 H     1 <1>   0.0740 
 58 H        2.7040     3.6540    -2.3500 H     1 <1>   0.0740 
 59 H        4.0180     3.8890    -1.2030 H     1 <1>   0.0740 
 60 H        3.8900     4.9210    -2.6340 H     1 <1>   0.0740 
@<TRIPOS>BOND
  1   1   2  2   
  2   2   3  am  
  3   2   4  1   
  4   3   5  1   
  5   3   6  1   
  6   4   7  ar  
  7   4   8  ar  
  8   5   9  1   
  9   5  10  1   
 10   5  32  1   
 11   6  11  1   
 12   6  33  1   
 13   6  34  1   
 14   7  12  ar  
 15   7  35  1   
 16   8  13  ar  
 17   8  36  1   
 18   9  14  ar  
 19   9  15  ar  
 20  10  16  1   
 21  10  17  1   
 22  10  37  1   
 23  11  16  1   
 24  11  38  1   
 25  11  39  1   
 26  12  18  1   
 27  12  19  ar  
 28  13  19  ar  
 29  13  40  1   
 30  14  20  ar  
 31  14  41  1   
 32  15  21  ar  
 33  15  42  1   
 34  17  22  1   
 35  17  43  1   
 36  17  44  1   
 37  18  23  ar  
 38  18  45  1   
 39  19  24  1   
 40  20  25  ar  
 41  20  46  1   
 42  21  25  ar  
 43  21  47  1   
 44  22  48  1   
 45  23  24  ar  
 46  23  26  ar  
 47  24  27  1   
 48  25  49  1   
 49  26  28  1   
 50  26  50  1   
 51  27  51  1   
 52  27  52  1   
 53  27  53  1   
 54  28  29  1   
 55  28  54  1   
 56  28  55  1   
 57  29  30  1   
 58  29  56  1   
 59  29  57  1   
 60  30  31  1   
 61  31  58  1   
 62  31  59  1   
 63  31  60  1   
@<TRIPOS>SUBSTRUCTURE
  1 ****   7 GROUP 4 **** **** 0

# MOE 2024.06 (io_trps.svl 2023.06)
