@<TRIPOS>MOLECULE
NONAME
57 61 1 0 0 
SMALL
USER_CHARGES


@<TRIPOS>ATOM
  1 O       -0.8100    -0.9080     2.1970 O.3   1 <1>  -0.0190 
  2 N        0.1400    -0.0980     2.5490 N.2   1 <1>  -0.4100 
  3 C       -0.2930    -1.5980     1.2090 C.2   1 <1>   0.2980 
  4 C        1.1360    -0.3390     1.7940 C.2   1 <1>   0.3350 
  5 N        0.9120    -1.3050     0.9150 N.2   1 <1>  -0.5650 
  6 C       -1.1430    -2.6760     0.5390 C.3   1 <1>   0.2900 
  7 C        2.4650     0.3820     1.8490 C.3   1 <1>   0.0210 
  8 N       -2.1240    -2.1500    -0.4440 N.3   1 <1>  -0.8100 
  9 C        2.7110     1.1340     0.5440 C.3   1 <1>   0.1200 
 10 C       -3.2370    -1.4160     0.2080 C.3   1 <1>   0.1100 
 11 C       -2.6380    -3.2290    -1.3010 C.3   1 <1>   0.1100 
 12 O        3.9170     1.8210     0.6520 O.3   1 <1>  -0.5600 
 13 C       -4.1750    -0.7660    -0.8270 C.3   1 <1>   0.1430 
 14 C       -3.5400    -2.6530    -2.3980 C.3   1 <1>  -0.1600 
 15 C        4.2630     2.5320    -0.4920 C.3   1 <1>   0.0400 
 16 C       -5.2940    -0.0530    -0.0900 C.ar  1 <1>   0.1670 
 17 C       -4.7000    -1.8410    -1.8000 C.3   1 <1>  -0.1600 
 18 C       -3.4680     0.4000    -1.5680 C.3   1 <1>  -0.1600 
 19 N       -6.3030    -0.6360     0.5140 N.ar  1 <1>  -0.6200 
 20 C       -5.1250     1.2970    -0.1080 C.ar  1 <1>  -0.1440 
 21 C       -3.8740     1.6980    -0.8490 C.3   1 <1>  -0.0160 
 22 C       -7.1810     0.1830     1.1090 C.ar  1 <1>   0.6200 
 23 C       -6.0640     2.0670     0.5260 C.ar  1 <1>   0.1600 
 24 N       -7.0940     1.5210     1.1330 N.ar  1 <1>  -0.6200 
 25 C       -8.3180    -0.4300     1.7840 C.ar  1 <1>   0.0000 
 26 C       -8.2480    -1.7230     2.3140 C.ar  1 <1>  -0.1500 
 27 C       -9.5330     0.2450     1.9350 C.ar  1 <1>  -0.1500 
 28 C       -9.3250    -2.3080     2.9540 C.ar  1 <1>  -0.1500 
 29 C      -10.6150    -0.3330     2.5750 C.ar  1 <1>  -0.1500 
 30 C      -10.5130    -1.6130     3.0870 C.ar  1 <1>  -0.1500 
 31 H       -1.6520    -3.2480     1.2950 H     1 <1>   0.0800 
 32 H       -0.4640    -3.3350     0.0280 H     1 <1>   0.0800 
 33 H        3.2470    -0.3380     2.0030 H     1 <1>   0.0800 
 34 H        2.4580     1.0760     2.6680 H     1 <1>   0.0800 
 35 H        1.9210     1.8440     0.3680 H     1 <1>   0.0800 
 36 H        2.7740     0.4440    -0.2800 H     1 <1>   0.0800 
 37 H       -2.8480    -0.6380     0.8390 H     1 <1>   0.0800 
 38 H       -3.8060    -2.0920     0.8250 H     1 <1>   0.0800 
 39 H       -3.1930    -3.9360    -0.7070 H     1 <1>   0.0800 
 40 H       -1.8140    -3.7450    -1.7650 H     1 <1>   0.0800 
 41 H       -3.9340    -3.4580    -2.9930 H     1 <1>   0.0800 
 42 H       -2.9460    -2.0300    -3.0440 H     1 <1>   0.0800 
 43 H        5.2010     3.0250    -0.3080 H     1 <1>   0.0800 
 44 H        3.5030     3.2650    -0.6990 H     1 <1>   0.0800 
 45 H        4.3680     1.8480    -1.3170 H     1 <1>   0.0800 
 46 H       -5.2840    -1.3880    -2.5810 H     1 <1>   0.0800 
 47 H       -5.3470    -2.5120    -1.2610 H     1 <1>   0.0800 
 48 H       -3.8260     0.4520    -2.5810 H     1 <1>   0.0800 
 49 H       -2.3990     0.2790    -1.5960 H     1 <1>   0.0800 
 50 H       -4.0590     2.4960    -1.5470 H     1 <1>   0.0800 
 51 H       -3.1150     1.9930    -0.1450 H     1 <1>   0.0800 
 52 H       -5.9710     3.1390     0.5390 H     1 <1>   0.1500 
 53 H       -7.3320    -2.2790     2.2210 H     1 <1>   0.1500 
 54 H       -9.6320     1.2420     1.5420 H     1 <1>   0.1500 
 55 H       -9.2390    -3.3050     3.3500 H     1 <1>   0.1500 
 56 H      -11.5360     0.2140     2.6740 H     1 <1>   0.1500 
 57 H      -11.3530    -2.0660     3.5850 H     1 <1>   0.1500 
@<TRIPOS>BOND
  1   1   2  1   
  2   1   3  1   
  3   2   4  2   
  4   3   5  2   
  5   3   6  1   
  6   4   5  1   
  7   4   7  1   
  8   6   8  1   
  9   6  31  1   
 10   6  32  1   
 11   7   9  1   
 12   7  33  1   
 13   7  34  1   
 14   8  10  1   
 15   8  11  1   
 16   9  12  1   
 17   9  35  1   
 18   9  36  1   
 19  10  13  1   
 20  10  37  1   
 21  10  38  1   
 22  11  14  1   
 23  11  39  1   
 24  11  40  1   
 25  12  15  1   
 26  13  16  1   
 27  13  17  1   
 28  13  18  1   
 29  14  17  1   
 30  14  41  1   
 31  14  42  1   
 32  15  43  1   
 33  15  44  1   
 34  15  45  1   
 35  16  19  ar  
 36  16  20  ar  
 37  17  46  1   
 38  17  47  1   
 39  18  21  1   
 40  18  48  1   
 41  18  49  1   
 42  19  22  ar  
 43  20  21  1   
 44  20  23  ar  
 45  21  50  1   
 46  21  51  1   
 47  22  24  ar  
 48  22  25  1   
 49  23  24  ar  
 50  23  52  1   
 51  25  26  ar  
 52  25  27  ar  
 53  26  28  ar  
 54  26  53  1   
 55  27  29  ar  
 56  27  54  1   
 57  28  30  ar  
 58  28  55  1   
 59  29  30  ar  
 60  29  56  1   
 61  30  57  1   
@<TRIPOS>SUBSTRUCTURE
  1 ****  10 GROUP 4 **** **** 0

# MOE 2024.06 (io_trps.svl 2023.06)
