@<TRIPOS>MOLECULE
NONAME
40 42 1 0 0 
SMALL
USER_CHARGES


@<TRIPOS>ATOM
  1 F        1.7500     1.2730     0.4650 F     1 <1>  -0.1900 
  2 C        1.9970     0.0450     0.1000 C.ar  1 <1>   0.1900 
  3 C        3.1840    -0.2720    -0.5720 C.ar  1 <1>   0.0860 
  4 C        1.0300    -0.8910     0.4200 C.ar  1 <1>  -0.1500 
  5 C        4.2230     0.6880    -0.9180 C.2   1 <1>   0.5440 
  6 C        3.3370    -1.6200    -0.9160 C.ar  1 <1>  -0.1500 
  7 C        1.2250    -2.2120     0.0650 C.ar  1 <1>  -0.1500 
  8 O        5.1850     0.3620    -1.5910 O.2   1 <1>  -0.5700 
  9 N        4.2480     1.9830    -0.4730 N.am  1 <1>  -0.6600 
 10 C        2.3810    -2.5720    -0.6050 C.ar  1 <1>  -0.1500 
 11 C        4.7740     2.2340     0.9130 C.3   1 <1>   0.2200 
 12 C        4.2990     3.0810    -1.4860 C.3   1 <1>   0.1400 
 13 C        4.2810     3.5620     1.5100 C.3   1 <1>   0.1200 
 14 C        6.3240     2.1580     0.9390 C.3   1 <1>   0.3430 
 15 C        5.3630     4.1620    -1.2170 C.3   1 <1>  -0.0800 
 16 O        5.1330     4.6090     1.1490 O.3   1 <1>  -0.5600 
 17 N        6.9340     2.2870    -0.4300 N.4   1 <1>  -0.9590 
 18 C        4.9280     5.1420    -0.1160 C.3   1 <1>   0.1200 
 19 C        6.8090     3.6560    -1.0230 C.3   1 <1>   0.3430 
 20 C        8.3370     1.7920    -0.4620 C.3   1 <1>   0.2630 
 21 H        0.1370    -0.5880     0.9380 H     1 <1>   0.1500 
 22 H        4.2230    -1.9340    -1.4420 H     1 <1>   0.1500 
 23 H        0.4830    -2.9550     0.3050 H     1 <1>   0.1500 
 24 H        2.5350    -3.6010    -0.8870 H     1 <1>   0.1500 
 25 H        4.3950     1.4560     1.5530 H     1 <1>   0.0800 
 26 H        4.4830     2.6510    -2.4570 H     1 <1>   0.0800 
 27 H        3.3270     3.5420    -1.5310 H     1 <1>   0.0800 
 28 H        4.3150     3.5000     2.5840 H     1 <1>   0.0800 
 29 H        3.2680     3.7820     1.2180 H     1 <1>   0.0800 
 30 H        6.5960     1.2020     1.3530 H     1 <1>   0.0800 
 31 H        6.7140     2.9180     1.5950 H     1 <1>   0.0800 
 32 H        5.3850     4.7640    -2.1080 H     1 <1>   0.0800 
 33 H        6.3490     1.6540    -1.0240 H     1 <1>   0.4500 
 34 H        3.8920     5.4220    -0.2160 H     1 <1>   0.0800 
 35 H        5.5200     6.0400    -0.1720 H     1 <1>   0.0800 
 36 H        7.3450     4.3630    -0.4100 H     1 <1>   0.0800 
 37 H        7.2840     3.6440    -1.9900 H     1 <1>   0.0800 
 38 H        8.9660     2.4070     0.1610 H     1 <1>   0.0800 
 39 H        8.7170     1.8150    -1.4710 H     1 <1>   0.0800 
 40 H        8.3800     0.7760    -0.1060 H     1 <1>   0.0800 
@<TRIPOS>BOND
  1   1   2  1   
  2   2   3  ar  
  3   2   4  ar  
  4   3   5  1   
  5   3   6  ar  
  6   4   7  ar  
  7   4  21  1   
  8   5   8  2   
  9   5   9  am  
 10   6  10  ar  
 11   6  22  1   
 12   7  10  ar  
 13   7  23  1   
 14   9  11  1   
 15   9  12  1   
 16  10  24  1   
 17  11  13  1   
 18  11  14  1   
 19  11  25  1   
 20  12  15  1   
 21  12  26  1   
 22  12  27  1   
 23  13  16  1   
 24  13  28  1   
 25  13  29  1   
 26  14  17  1   
 27  14  30  1   
 28  14  31  1   
 29  15  18  1   
 30  15  19  1   
 31  15  32  1   
 32  16  18  1   
 33  17  19  1   
 34  17  20  1   
 35  17  33  1   
 36  18  34  1   
 37  18  35  1   
 38  19  36  1   
 39  19  37  1   
 40  20  38  1   
 41  20  39  1   
 42  20  40  1   
@<TRIPOS>SUBSTRUCTURE
  1 ****   9 GROUP 4 **** **** 0

# MOE 2024.06 (io_trps.svl 2023.06)
