@<TRIPOS>MOLECULE
NONAME
51 54 1 0 0 
SMALL
USER_CHARGES


@<TRIPOS>ATOM
  1 O        1.8010    -0.3550     2.1840 O.2   1 <1>  -0.5700 
  2 C        2.0840    -0.7680     1.0760 C.2   1 <1>   0.5440 
  3 N        2.5890     0.1230     0.1410 N.am  1 <1>  -0.6600 
  4 C        1.9180    -2.1710     0.7810 C.ar  1 <1>   0.0860 
  5 C        2.8710     1.5350     0.5600 C.3   1 <1>   0.1400 
  6 C        3.1510    -0.3410    -1.1680 C.3   1 <1>   0.1400 
  7 C        0.7540    -2.6550     0.1400 C.ar  1 <1>   0.1660 
  8 C        2.9020    -3.0760     1.0820 C.ar  1 <1>  -0.1500 
  9 C        4.3640     1.8020     0.8910 C.3   1 <1>   0.4230 
 10 C        4.6410     0.0060    -1.3860 C.3   1 <1>  -0.0800 
 11 N        0.5780    -3.8890    -0.2190 N.ar  1 <1>  -0.6200 
 12 C       -0.3850    -1.6970    -0.1650 C.3   1 <1>  -0.0960 
 13 C        2.7420    -4.4210     0.7230 C.ar  1 <1>   0.0000 
 14 N        5.1740     2.2350    -0.3070 N.4   1 <1>  -0.9590 
 15 C        5.0850     0.6390     1.6280 C.3   1 <1>   0.1200 
 16 C        5.6330    -0.6310    -0.3870 C.3   1 <1>   0.1200 
 17 C        4.8450     1.5110    -1.5710 C.3   1 <1>   0.3430 
 18 C        1.5550    -4.7980     0.0560 C.ar  1 <1>   0.3100 
 19 C        3.7210    -5.3950     0.9940 C.ar  1 <1>  -0.1500 
 20 C        5.0980     3.7150    -0.5150 C.3   1 <1>   0.2630 
 21 O        5.1830    -0.5790     0.9300 O.3   1 <1>  -0.5600 
 22 C        1.3940    -6.1490    -0.3250 C.ar  1 <1>  -0.1430 
 23 C        3.5410    -6.6950     0.6140 C.ar  1 <1>  -0.1500 
 24 C        2.3700    -7.0730    -0.0500 C.ar  1 <1>  -0.1500 
 25 C        0.1240    -6.5840    -1.0470 C.3   1 <1>  -0.0970 
 26 H        2.5280     2.2110    -0.2020 H     1 <1>   0.0800 
 27 H        2.2990     1.7680     1.4400 H     1 <1>   0.0800 
 28 H        3.0450    -1.4070    -1.2640 H     1 <1>   0.0800 
 29 H        2.5620     0.0950    -1.9580 H     1 <1>   0.0800 
 30 H        3.7990    -2.7620     1.5860 H     1 <1>   0.1500 
 31 H        4.3660     2.6270     1.5830 H     1 <1>   0.0800 
 32 H        4.8840    -0.4190    -2.3430 H     1 <1>   0.0800 
 33 H       -0.6980    -1.2000     0.7360 H     1 <1>   0.0800 
 34 H       -1.2280    -2.2310    -0.5650 H     1 <1>   0.0800 
 35 H       -0.0710    -0.9640    -0.8850 H     1 <1>   0.0800 
 36 H        6.1480     1.9950    -0.0740 H     1 <1>   0.4500 
 37 H        4.5430     0.4230     2.5330 H     1 <1>   0.0800 
 38 H        6.0790     0.9370     1.9100 H     1 <1>   0.0800 
 39 H        6.6110    -0.1860    -0.4410 H     1 <1>   0.0800 
 40 H        5.7360    -1.6780    -0.6220 H     1 <1>   0.0800 
 41 H        3.9510     1.9270    -2.0060 H     1 <1>   0.0800 
 42 H        5.6480     1.6650    -2.2740 H     1 <1>   0.0800 
 43 H        4.6180    -5.0980     1.5080 H     1 <1>   0.1500 
 44 H        4.0890     4.0100    -0.7540 H     1 <1>   0.0800 
 45 H        5.7440     4.0140    -1.3260 H     1 <1>   0.0800 
 46 H        5.4080     4.2370     0.3760 H     1 <1>   0.0800 
 47 H        4.2890    -7.4410     0.8200 H     1 <1>   0.1500 
 48 H        2.2550    -8.1030    -0.3380 H     1 <1>   0.1500 
 49 H        0.1400    -7.6360    -1.2680 H     1 <1>   0.0800 
 50 H        0.0240    -6.0400    -1.9690 H     1 <1>   0.0800 
 51 H       -0.7330    -6.3760    -0.4320 H     1 <1>   0.0800 
@<TRIPOS>BOND
  1   1   2  2   
  2   2   3  am  
  3   2   4  1   
  4   3   5  1   
  5   3   6  1   
  6   4   7  ar  
  7   4   8  ar  
  8   5   9  1   
  9   5  26  1   
 10   5  27  1   
 11   6  10  1   
 12   6  28  1   
 13   6  29  1   
 14   7  11  ar  
 15   7  12  1   
 16   8  13  ar  
 17   8  30  1   
 18   9  14  1   
 19   9  15  1   
 20   9  31  1   
 21  10  16  1   
 22  10  17  1   
 23  10  32  1   
 24  11  18  ar  
 25  12  33  1   
 26  12  34  1   
 27  12  35  1   
 28  13  18  ar  
 29  13  19  ar  
 30  14  17  1   
 31  14  20  1   
 32  14  36  1   
 33  15  21  1   
 34  15  37  1   
 35  15  38  1   
 36  16  21  1   
 37  16  39  1   
 38  16  40  1   
 39  17  41  1   
 40  17  42  1   
 41  18  22  ar  
 42  19  23  ar  
 43  19  43  1   
 44  20  44  1   
 45  20  45  1   
 46  20  46  1   
 47  22  24  ar  
 48  22  25  1   
 49  23  24  ar  
 50  23  47  1   
 51  24  48  1   
 52  25  49  1   
 53  25  50  1   
 54  25  51  1   
@<TRIPOS>SUBSTRUCTURE
  1 ****   4 GROUP 4 **** **** 0

# MOE 2024.06 (io_trps.svl 2023.06)
