@<TRIPOS>MOLECULE
NONAME
50 51 1 0 0 
SMALL
USER_CHARGES


@<TRIPOS>ATOM
  1 CL       0.9200    -0.7870     1.3460 Cl    1 <1>  -0.1770 
  2 C        0.3890    -2.2360     0.5320 C.ar  1 <1>   0.1770 
  3 C        1.0650    -3.4220     0.7480 C.ar  1 <1>  -0.1500 
  4 C       -0.7000    -2.1760    -0.3160 C.ar  1 <1>  -0.1500 
  5 C        0.6390    -4.5710     0.1030 C.ar  1 <1>  -0.1500 
  6 C       -1.1210    -3.3280    -0.9590 C.ar  1 <1>  -0.1500 
  7 C       -0.4560    -4.5290    -0.7500 C.ar  1 <1>  -0.1430 
  8 C       -0.9280    -5.7940    -1.4470 C.3   1 <1>  -0.0160 
  9 C       -1.8980    -6.5590    -0.5340 C.3   1 <1>  -0.0990 
 10 C       -2.4530    -7.8350    -1.1510 C.2   1 <1>   0.5690 
 11 O       -2.2340    -8.0610    -2.3150 O.2   1 <1>  -0.5700 
 12 N       -3.2240    -8.6920    -0.4110 N.am  1 <1>  -0.6600 
 13 C       -3.4790   -10.0600    -0.9950 C.3   1 <1>   0.3210 
 14 C       -3.8050    -8.3360     0.9290 C.3   1 <1>   0.1400 
 15 C       -4.3400   -10.9950    -0.1410 C.2   1 <1>   0.0460 
 16 C       -5.0860    -7.4720     0.8280 C.3   1 <1>   0.3430 
 17 N       -5.6790   -10.8320    -0.0420 N.2   1 <1>  -0.5650 
 18 C       -3.9350   -12.0670     0.5810 C.2   1 <1>  -0.3320 
 19 N       -6.0830    -7.9860    -0.1650 N.4   1 <1>  -0.9590 
 20 C       -6.0560   -11.8120     0.7150 C.2   1 <1>   0.0360 
 21 N       -5.0430   -12.5980     1.1300 N.pl3 1 <1>   0.0330 
 22 C       -2.5550   -12.6690     0.8010 C.3   1 <1>  -0.0600 
 23 C       -5.8690    -7.4570    -1.5470 C.3   1 <1>   0.2630 
 24 C       -7.4880    -7.7680     0.2820 C.3   1 <1>   0.2630 
 25 H        1.9120    -3.4410     1.4100 H     1 <1>   0.1500 
 26 H       -1.2060    -1.2400    -0.4690 H     1 <1>   0.1500 
 27 H        1.1650    -5.4960     0.2670 H     1 <1>   0.1500 
 28 H       -1.9660    -3.2830    -1.6240 H     1 <1>   0.1500 
 29 H       -0.0820    -6.4170    -1.6860 H     1 <1>   0.0800 
 30 H       -1.4140    -5.5400    -2.3730 H     1 <1>   0.0800 
 31 H       -2.7140    -5.9090    -0.2850 H     1 <1>   0.0800 
 32 H       -1.3750    -6.8140     0.3690 H     1 <1>   0.0800 
 33 H       -2.5300   -10.5300    -1.1760 H     1 <1>   0.0800 
 34 H       -3.9570    -9.9480    -1.9530 H     1 <1>   0.0800 
 35 H       -3.0760    -7.7960     1.5060 H     1 <1>   0.0800 
 36 H       -4.0220    -9.2210     1.4990 H     1 <1>   0.0800 
 37 H       -4.8140    -6.4620     0.5740 H     1 <1>   0.0800 
 38 H       -5.5380    -7.4460     1.8060 H     1 <1>   0.0800 
 39 H       -5.9320    -9.0220    -0.2090 H     1 <1>   0.4500 
 40 H       -7.0760   -12.0090     1.0000 H     1 <1>   0.1500 
 41 H       -5.1080   -13.4320     1.7230 H     1 <1>   0.2700 
 42 H       -1.7960   -12.0820     0.3170 H     1 <1>   0.0800 
 43 H       -2.5190   -13.6670     0.4000 H     1 <1>   0.0800 
 44 H       -2.3300   -12.7100     1.8520 H     1 <1>   0.0800 
 45 H       -5.9850    -6.3860    -1.5620 H     1 <1>   0.0800 
 46 H       -6.5850    -7.8930    -2.2240 H     1 <1>   0.0800 
 47 H       -4.8820    -7.7050    -1.9000 H     1 <1>   0.0800 
 48 H       -7.7010    -6.7140     0.3530 H     1 <1>   0.0800 
 49 H       -7.6450    -8.2220     1.2470 H     1 <1>   0.0800 
 50 H       -8.1730    -8.2150    -0.4200 H     1 <1>   0.0800 
@<TRIPOS>BOND
  1   1   2  1   
  2   2   3  ar  
  3   2   4  ar  
  4   3   5  ar  
  5   3  25  1   
  6   4   6  ar  
  7   4  26  1   
  8   5   7  ar  
  9   5  27  1   
 10   6   7  ar  
 11   6  28  1   
 12   7   8  1   
 13   8   9  1   
 14   8  29  1   
 15   8  30  1   
 16   9  10  1   
 17   9  31  1   
 18   9  32  1   
 19  10  11  2   
 20  10  12  am  
 21  12  13  1   
 22  12  14  1   
 23  13  15  1   
 24  13  33  1   
 25  13  34  1   
 26  14  16  1   
 27  14  35  1   
 28  14  36  1   
 29  15  17  1   
 30  15  18  2   
 31  16  19  1   
 32  16  37  1   
 33  16  38  1   
 34  17  20  2   
 35  18  21  1   
 36  18  22  1   
 37  19  23  1   
 38  19  24  1   
 39  19  39  1   
 40  20  21  1   
 41  20  40  1   
 42  21  41  1   
 43  22  42  1   
 44  22  43  1   
 45  22  44  1   
 46  23  45  1   
 47  23  46  1   
 48  23  47  1   
 49  24  48  1   
 50  24  49  1   
 51  24  50  1   
@<TRIPOS>SUBSTRUCTURE
  1 ****  10 GROUP 4 **** **** 0

# MOE 2024.06 (io_trps.svl 2023.06)
