@<TRIPOS>MOLECULE
NONAME
52 55 1 0 0 
SMALL
USER_CHARGES


@<TRIPOS>ATOM
  1 O        0.1320     0.6960    -3.9350 O.2   1 <1>  -0.5700 
  2 C       -0.0930     0.0130    -2.9630 C.2   1 <1>   0.5690 
  3 N        0.2400     0.3550    -1.6890 N.am  1 <1>  -0.4930 
  4 C       -0.7750    -1.3330    -3.1700 C.3   1 <1>   0.0450 
  5 C        1.0650     1.3550    -1.1260 C.2   1 <1>   0.0630 
  6 C       -0.8380    -2.1400    -1.8730 C.ar  1 <1>  -0.1440 
  7 C        1.7970     1.1090     0.0410 C.2   1 <1>   0.3720 
  8 C        1.3450     2.6340    -1.4540 C.2   1 <1>  -0.3320 
  9 C       -1.9990    -2.1760    -1.1180 C.ar  1 <1>  -0.1500 
 10 C        0.2990    -2.7800    -1.4050 C.ar  1 <1>  -0.1500 
 11 N        2.4890     2.1360     0.4190 N.2   1 <1>  -0.7070 
 12 N        1.7630    -0.1210     0.7320 N.pl3 1 <1>  -0.8210 
 13 N        2.2200     3.0780    -0.5150 N.pl3 1 <1>   0.3140 
 14 C        0.8240     3.4810    -2.6060 C.3   1 <1>  -0.0600 
 15 C       -2.0140    -2.8230     0.1040 C.ar  1 <1>  -0.1500 
 16 C        0.2850    -3.4220    -0.1820 C.ar  1 <1>  -0.1500 
 17 C        3.1080    -0.5920     1.1630 C.3   1 <1>   0.2090 
 18 C        0.8880    -0.0580     1.9330 C.3   1 <1>   0.2090 
 19 C        2.8420     4.4050    -0.4410 C.3   1 <1>   0.0160 
 20 C       -0.8700    -3.4460     0.5910 C.ar  1 <1>  -0.0230 
 21 C        3.0790    -0.6480     2.6840 C.3   1 <1>  -0.1600 
 22 C        1.6100    -0.8430     3.0180 C.3   1 <1>  -0.1600 
 23 N       -0.8780    -4.0770     1.8630 N.pl3 1 <1>   0.5930 
 24 N       -1.0720    -3.4380     3.0060 N.2   1 <1>  -0.4180 
 25 C       -0.6940    -5.3580     2.1750 C.2   1 <1>   0.0060 
 26 N       -0.9950    -4.3120     3.9410 N.2   1 <1>   0.0000 
 27 N       -0.7600    -5.5190     3.4400 N.2   1 <1>  -0.3380 
 28 C       -0.4510    -6.4760     1.1760 C.3   1 <1>  -0.0600 
 29 H        0.1100    -0.4000    -1.0070 H     1 <1>   0.3700 
 30 H       -0.2280    -1.8810    -3.9140 H     1 <1>   0.0800 
 31 H       -1.7640    -1.1580    -3.5520 H     1 <1>   0.0800 
 32 H       -2.8920    -1.6850    -1.4670 H     1 <1>   0.1500 
 33 H        1.2100    -2.7570    -1.9800 H     1 <1>   0.1500 
 34 H       -0.0580     3.0360    -3.0280 H     1 <1>   0.0800 
 35 H        1.5700     3.5540    -3.3760 H     1 <1>   0.0800 
 36 H        0.5640     4.4660    -2.2660 H     1 <1>   0.0800 
 37 H       -2.9190    -2.8320     0.6910 H     1 <1>   0.1500 
 38 H        1.1870    -3.8890     0.1770 H     1 <1>   0.1500 
 39 H        3.8970     0.0540     0.8120 H     1 <1>   0.0800 
 40 H        3.2670    -1.5780     0.7610 H     1 <1>   0.0800 
 41 H       -0.0760    -0.4860     1.7210 H     1 <1>   0.0800 
 42 H        0.7630     0.9670     2.2440 H     1 <1>   0.0800 
 43 H        3.2830     4.6410    -1.3910 H     1 <1>   0.0800 
 44 H        3.6020     4.3950     0.3180 H     1 <1>   0.0800 
 45 H        2.0910     5.1300    -0.1910 H     1 <1>   0.0800 
 46 H        3.4200     0.2980     3.0680 H     1 <1>   0.0800 
 47 H        3.7020    -1.4340     3.0710 H     1 <1>   0.0800 
 48 H        1.3460    -1.8820     2.9370 H     1 <1>   0.0800 
 49 H        1.3580    -0.4890     4.0010 H     1 <1>   0.0800 
 50 H       -1.2240    -6.4820     0.4280 H     1 <1>   0.0800 
 51 H       -0.4550    -7.4260     1.6810 H     1 <1>   0.0800 
 52 H        0.5020    -6.3460     0.6970 H     1 <1>   0.0800 
@<TRIPOS>BOND
  1   1   2  2   
  2   2   3  am  
  3   2   4  1   
  4   3   5  1   
  5   3  29  1   
  6   4   6  1   
  7   4  30  1   
  8   4  31  1   
  9   5   7  1   
 10   5   8  2   
 11   6   9  ar  
 12   6  10  ar  
 13   7  11  2   
 14   7  12  1   
 15   8  13  1   
 16   8  14  1   
 17   9  15  ar  
 18   9  32  1   
 19  10  16  ar  
 20  10  33  1   
 21  11  13  1   
 22  12  17  1   
 23  12  18  1   
 24  13  19  1   
 25  14  34  1   
 26  14  35  1   
 27  14  36  1   
 28  15  20  ar  
 29  15  37  1   
 30  16  20  ar  
 31  16  38  1   
 32  17  21  1   
 33  17  39  1   
 34  17  40  1   
 35  18  22  1   
 36  18  41  1   
 37  18  42  1   
 38  19  43  1   
 39  19  44  1   
 40  19  45  1   
 41  20  23  1   
 42  21  22  1   
 43  21  46  1   
 44  21  47  1   
 45  22  48  1   
 46  22  49  1   
 47  23  24  1   
 48  23  25  1   
 49  24  26  2   
 50  25  27  2   
 51  25  28  1   
 52  26  27  1   
 53  28  50  1   
 54  28  51  1   
 55  28  52  1   
@<TRIPOS>SUBSTRUCTURE
  1 ****  12 GROUP 4 **** **** 0

# MOE 2024.06 (io_trps.svl 2023.06)
