@<TRIPOS>MOLECULE
NONAME
39 41 1 0 0 
SMALL
USER_CHARGES


@<TRIPOS>ATOM
  1 CL      -0.9600     0.8480     0.9700 Cl    1 <1>  -0.1240 
  2 C       -1.2480    -0.8180     0.5520 C.2   1 <1>   0.1640 
  3 S       -2.1710    -1.7660     1.6990 S.3   1 <1>  -0.0800 
  4 C       -0.8850    -1.5410    -0.5200 C.2   1 <1>  -0.1500 
  5 C       -2.0500    -3.1830     0.6600 C.2   1 <1>  -0.1400 
  6 C       -1.3430    -2.8980    -0.4570 C.2   1 <1>  -0.1500 
  7 C       -2.7300    -4.4350     1.1700 C.3   1 <1>   0.5230 
  8 N       -3.5180    -5.0390     0.0570 N.4   1 <1>  -0.9590 
  9 C       -4.9560    -4.6410     0.0970 C.3   1 <1>   0.4230 
 10 C       -3.3380    -6.5250     0.0440 C.3   1 <1>   0.2630 
 11 C       -5.7370    -5.2170    -1.0830 C.3   1 <1>  -0.1600 
 12 C       -5.1550    -3.1320    -0.0420 C.3   1 <1>  -0.1600 
 13 C       -6.9480    -4.2940    -1.2550 C.3   1 <1>  -0.0800 
 14 C       -6.5760    -2.9610    -0.5890 C.3   1 <1>  -0.0800 
 15 C       -8.2160    -4.7940    -0.5460 C.3   1 <1>  -0.1600 
 16 C       -7.6320    -2.7080     0.4970 C.3   1 <1>  -0.1600 
 17 C       -8.8270    -3.5420     0.0640 C.3   1 <1>   0.2000 
 18 O       -9.6060    -3.8680     1.1510 O.3   1 <1>  -0.6800 
 19 H       -0.3110    -1.1700    -1.3520 H     1 <1>   0.1500 
 20 H       -1.1030    -3.5760    -1.2590 H     1 <1>   0.1500 
 21 H       -3.3770    -4.1950     1.9980 H     1 <1>   0.0800 
 22 H       -1.9750    -5.1210     1.5170 H     1 <1>   0.0800 
 23 H       -3.1270    -4.6440    -0.8070 H     1 <1>   0.4500 
 24 H       -5.4170    -4.9720     1.0140 H     1 <1>   0.0800 
 25 H       -3.7610    -6.9640     0.9330 H     1 <1>   0.0800 
 26 H       -2.2900    -6.7760    -0.0010 H     1 <1>   0.0800 
 27 H       -3.8250    -6.9560    -0.8160 H     1 <1>   0.0800 
 28 H       -5.1430    -5.1610    -1.9790 H     1 <1>   0.0800 
 29 H       -6.0380    -6.2370    -0.9170 H     1 <1>   0.0800 
 30 H       -5.0260    -2.6130     0.8910 H     1 <1>   0.0800 
 31 H       -4.4690    -2.7340    -0.7700 H     1 <1>   0.0800 
 32 H       -7.1630    -4.1370    -2.3000 H     1 <1>   0.0800 
 33 H       -6.6110    -2.1620    -1.3130 H     1 <1>   0.0800 
 34 H       -7.9660    -5.4920     0.2330 H     1 <1>   0.0800 
 35 H       -8.8970    -5.2560    -1.2380 H     1 <1>   0.0800 
 36 H       -7.8920    -1.6650     0.5570 H     1 <1>   0.0800 
 37 H       -7.2810    -3.0460     1.4560 H     1 <1>   0.0800 
 38 H       -9.4310    -3.0130    -0.6550 H     1 <1>   0.0800 
 39 H       -9.0880    -4.3430     1.8240 H     1 <1>   0.4000 
@<TRIPOS>BOND
  1   1   2  1   
  2   2   3  1   
  3   2   4  2   
  4   3   5  1   
  5   4   6  1   
  6   4  19  1   
  7   5   6  2   
  8   5   7  1   
  9   6  20  1   
 10   7   8  1   
 11   7  21  1   
 12   7  22  1   
 13   8   9  1   
 14   8  10  1   
 15   8  23  1   
 16   9  11  1   
 17   9  12  1   
 18   9  24  1   
 19  10  25  1   
 20  10  26  1   
 21  10  27  1   
 22  11  13  1   
 23  11  28  1   
 24  11  29  1   
 25  12  14  1   
 26  12  30  1   
 27  12  31  1   
 28  13  14  1   
 29  13  15  1   
 30  13  32  1   
 31  14  16  1   
 32  14  33  1   
 33  15  17  1   
 34  15  34  1   
 35  15  35  1   
 36  16  17  1   
 37  16  36  1   
 38  16  37  1   
 39  17  18  1   
 40  17  38  1   
 41  18  39  1   
@<TRIPOS>SUBSTRUCTURE
  1 ****  12 GROUP 4 **** **** 0

# MOE 2024.06 (io_trps.svl 2023.06)
