@<TRIPOS>MOLECULE
NONAME
53 56 1 0 0 
SMALL
USER_CHARGES


@<TRIPOS>ATOM
  1 O        2.6630    -1.0090    -2.6440 O.2   1 <1>  -0.5700 
  2 C        2.8420    -1.3790    -1.5080 C.2   1 <1>   0.5690 
  3 N        3.2550    -0.4890    -0.5390 N.am  1 <1>  -0.6600 
  4 C        2.5040    -2.8410    -1.1720 C.3   1 <1>   0.1710 
  5 C        3.2360    -0.7910     0.9210 C.3   1 <1>   0.1400 
  6 C        3.2680     0.9750    -0.8240 C.3   1 <1>   0.1400 
  7 N        1.3880    -2.9840    -0.1910 N.3   1 <1>  -0.8100 
  8 C        1.9580    -0.1870     1.5390 C.3   1 <1>   0.3430 
  9 C        1.9960     1.6090    -0.2290 C.3   1 <1>   0.3430 
 10 C        0.1300    -2.4280    -0.7030 C.3   1 <1>   0.1100 
 11 C        1.0700    -4.3930     0.0980 C.3   1 <1>   0.1100 
 12 N        1.8280     1.2850     1.2360 N.4   1 <1>  -0.9060 
 13 C       -0.9140    -2.9970     0.2460 C.3   1 <1>   0.2000 
 14 C       -0.4360    -4.4380     0.4410 C.3   1 <1>  -0.0800 
 15 O       -0.7670    -2.3420     1.4590 O.3   1 <1>  -0.6800 
 16 C       -1.2080    -5.4120    -0.4690 C.3   1 <1>  -0.0170 
 17 C       -0.7330    -6.8440    -0.2860 C.ar  1 <1>   0.1670 
 18 N        0.1400    -7.3000    -1.1320 N.ar  1 <1>  -0.6200 
 19 C       -1.2500    -7.5980     0.7800 C.ar  1 <1>  -0.1500 
 20 C        0.5730    -8.5760    -0.9680 C.ar  1 <1>   0.3100 
 21 C       -0.8310    -8.8790     0.9690 C.ar  1 <1>  -0.1500 
 22 C        0.1150    -9.4090     0.0760 C.ar  1 <1>   0.0000 
 23 C        1.5180    -9.0930    -1.8690 C.ar  1 <1>  -0.1500 
 24 C        0.6200   -10.7210     0.1780 C.ar  1 <1>  -0.1500 
 25 C        1.9970   -10.3710    -1.7530 C.ar  1 <1>  -0.1500 
 26 C        1.5420   -11.1930    -0.7170 C.ar  1 <1>  -0.1500 
 27 H        3.3870    -3.3110    -0.7790 H     1 <1>   0.0800 
 28 H        2.2470    -3.3460    -2.0880 H     1 <1>   0.0800 
 29 H        3.2640    -1.8500     1.1010 H     1 <1>   0.0800 
 30 H        4.1080    -0.3670     1.3880 H     1 <1>   0.0800 
 31 H        4.1480     1.4210    -0.3940 H     1 <1>   0.0800 
 32 H        3.2990     1.1580    -1.8850 H     1 <1>   0.0800 
 33 H        1.9650    -0.3470     2.6050 H     1 <1>   0.0800 
 34 H        1.1100    -0.7150     1.1340 H     1 <1>   0.0800 
 35 H        1.1500     1.2310    -0.7800 H     1 <1>   0.0800 
 36 H        2.0290     2.6780    -0.3710 H     1 <1>   0.0800 
 37 H        0.1270    -1.3520    -0.7050 H     1 <1>   0.0800 
 38 H       -0.0560    -2.7840    -1.7040 H     1 <1>   0.0800 
 39 H        1.2760    -5.0000    -0.7690 H     1 <1>   0.0800 
 40 H        1.6680    -4.7540     0.9170 H     1 <1>   0.0800 
 41 H        2.5330     1.8010     1.7750 H     1 <1>   0.4500 
 42 H        0.9060     1.6120     1.5550 H     1 <1>   0.4500 
 43 H       -1.9290    -2.8900    -0.0980 H     1 <1>   0.0800 
 44 H       -0.5770    -4.7520     1.4610 H     1 <1>   0.0800 
 45 H        0.1050    -2.6200     1.8030 H     1 <1>   0.4000 
 46 H       -1.0860    -5.1310    -1.5010 H     1 <1>   0.0800 
 47 H       -2.2590    -5.3630    -0.2440 H     1 <1>   0.0800 
 48 H       -1.9720    -7.1510     1.4390 H     1 <1>   0.1500 
 49 H       -1.2030    -9.4870     1.7750 H     1 <1>   0.1500 
 50 H        1.8540    -8.4460    -2.6580 H     1 <1>   0.1500 
 51 H        0.2660   -11.3480     0.9760 H     1 <1>   0.1500 
 52 H        2.7210   -10.7550    -2.4510 H     1 <1>   0.1500 
 53 H        1.9260   -12.1960    -0.6370 H     1 <1>   0.1500 
@<TRIPOS>BOND
  1   1   2  2   
  2   2   3  am  
  3   2   4  1   
  4   3   5  1   
  5   3   6  1   
  6   4   7  1   
  7   4  27  1   
  8   4  28  1   
  9   5   8  1   
 10   5  29  1   
 11   5  30  1   
 12   6   9  1   
 13   6  31  1   
 14   6  32  1   
 15   7  10  1   
 16   7  11  1   
 17   8  12  1   
 18   8  33  1   
 19   8  34  1   
 20   9  12  1   
 21   9  35  1   
 22   9  36  1   
 23  10  13  1   
 24  10  37  1   
 25  10  38  1   
 26  11  14  1   
 27  11  39  1   
 28  11  40  1   
 29  12  41  1   
 30  12  42  1   
 31  13  14  1   
 32  13  15  1   
 33  13  43  1   
 34  14  16  1   
 35  14  44  1   
 36  15  45  1   
 37  16  17  1   
 38  16  46  1   
 39  16  47  1   
 40  17  18  ar  
 41  17  19  ar  
 42  18  20  ar  
 43  19  21  ar  
 44  19  48  1   
 45  20  22  ar  
 46  20  23  ar  
 47  21  22  ar  
 48  21  49  1   
 49  22  24  ar  
 50  23  25  ar  
 51  23  50  1   
 52  24  26  ar  
 53  24  51  1   
 54  25  26  ar  
 55  25  52  1   
 56  26  53  1   
@<TRIPOS>SUBSTRUCTURE
  1 ****  11 GROUP 4 **** **** 0

# MOE 2024.06 (io_trps.svl 2023.06)
