@<TRIPOS>MOLECULE
NONAME
42 45 1 0 0 
SMALL
USER_CHARGES


@<TRIPOS>ATOM
  1 O       -0.6760     1.0540     1.8220 O.3   1 <1>  -0.5600 
  2 C        0.2220     1.3360     0.7850 C.3   1 <1>   0.1200 
  3 C       -1.9580     1.5220     1.5170 C.3   1 <1>   0.1200 
  4 C       -0.4930     2.2840    -0.1760 C.3   1 <1>   0.2890 
  5 C       -1.9490     1.9100     0.0360 C.3   1 <1>  -0.0800 
  6 N       -0.2880     3.6880     0.2620 N.pl3 1 <1>  -0.8690 
  7 C       -2.3730     0.7430    -0.8770 C.3   1 <1>  -0.0170 
  8 C        0.2490     4.6870    -0.5050 C.ar  1 <1>   0.4100 
  9 C       -3.8280     0.3580    -0.6560 C.ar  1 <1>  -0.1430 
 10 N        0.4540     4.4560    -1.7840 N.ar  1 <1>  -0.6200 
 11 C        0.5640     5.9060     0.0570 C.ar  1 <1>  -0.1500 
 12 C       -4.8660     1.1340    -1.1320 C.ar  1 <1>  -0.1500 
 13 C       -4.1880    -0.7840     0.0300 C.ar  1 <1>  -0.1500 
 14 C        0.9720     5.4580    -2.4680 C.ar  1 <1>   0.4700 
 15 C        1.1020     6.8700    -0.7510 C.ar  1 <1>   0.2780 
 16 C       -6.1750     0.7430    -0.9040 C.ar  1 <1>   0.1600 
 17 C       -5.5290    -1.0850     0.2040 C.ar  1 <1>   0.1600 
 18 N        1.3120     6.6590    -2.0350 N.ar  1 <1>  -0.6200 
 19 C        1.4750     8.2390    -0.2060 C.3   1 <1>  -0.0680 
 20 N       -6.5320    -0.3480    -0.2450 N.ar  1 <1>  -0.6200 
 21 C        2.9180     8.6160    -0.0540 C.3   1 <1>  -0.2000 
 22 C        2.0640     8.4250     1.1620 C.3   1 <1>  -0.2000 
 23 H        1.1200     1.7650     1.1910 H     1 <1>   0.0800 
 24 H        0.4520     0.4070     0.2950 H     1 <1>   0.0800 
 25 H       -2.6780     0.7600     1.7560 H     1 <1>   0.0800 
 26 H       -2.1400     2.3870     2.1310 H     1 <1>   0.0800 
 27 H       -0.1670     2.1410    -1.1920 H     1 <1>   0.0800 
 28 H       -2.5950     2.7500    -0.1480 H     1 <1>   0.0800 
 29 H       -0.3160     3.8070     1.2770 H     1 <1>   0.4000 
 30 H       -1.7460    -0.1140    -0.7020 H     1 <1>   0.0800 
 31 H       -2.2460     1.0330    -1.9060 H     1 <1>   0.0800 
 32 H        0.3860     6.0830     1.0980 H     1 <1>   0.1500 
 33 H       -4.6690     2.0380    -1.6790 H     1 <1>   0.1500 
 34 H       -3.4400    -1.4440     0.4320 H     1 <1>   0.1500 
 35 H        1.1410     5.2750    -3.5160 H     1 <1>   0.1500 
 36 H       -6.9710     1.3610    -1.2820 H     1 <1>   0.1500 
 37 H       -5.7900    -1.9800     0.7420 H     1 <1>   0.1500 
 38 H        0.8150     9.0040    -0.5760 H     1 <1>   0.1000 
 39 H        3.6610     7.8760    -0.2980 H     1 <1>   0.1000 
 40 H        3.2170     9.6100    -0.3380 H     1 <1>   0.1000 
 41 H        1.7780     9.2910     1.7330 H     1 <1>   0.1000 
 42 H        2.2670     7.5700     1.7840 H     1 <1>   0.1000 
@<TRIPOS>BOND
  1   1   2  1   
  2   1   3  1   
  3   2   4  1   
  4   2  23  1   
  5   2  24  1   
  6   3   5  1   
  7   3  25  1   
  8   3  26  1   
  9   4   5  1   
 10   4   6  1   
 11   4  27  1   
 12   5   7  1   
 13   5  28  1   
 14   6   8  1   
 15   6  29  1   
 16   7   9  1   
 17   7  30  1   
 18   7  31  1   
 19   8  10  ar  
 20   8  11  ar  
 21   9  12  ar  
 22   9  13  ar  
 23  10  14  ar  
 24  11  15  ar  
 25  11  32  1   
 26  12  16  ar  
 27  12  33  1   
 28  13  17  ar  
 29  13  34  1   
 30  14  18  ar  
 31  14  35  1   
 32  15  18  ar  
 33  15  19  1   
 34  16  20  ar  
 35  16  36  1   
 36  17  20  ar  
 37  17  37  1   
 38  19  21  1   
 39  19  22  1   
 40  19  38  1   
 41  21  22  1   
 42  21  39  1   
 43  21  40  1   
 44  22  41  1   
 45  22  42  1   
@<TRIPOS>SUBSTRUCTURE
  1 ****   6 GROUP 4 **** **** 0

# MOE 2024.06 (io_trps.svl 2023.06)
