@<TRIPOS>MOLECULE
NONAME
40 42 1 0 0 
SMALL
USER_CHARGES


@<TRIPOS>ATOM
  1 O       -2.2100     0.5070    -2.1720 O.2   1 <1>  -0.5700 
  2 C       -2.0640     0.7310    -0.9830 C.2   1 <1>   0.5440 
  3 N       -2.1090    -0.3330    -0.1250 N.am  1 <1>  -0.7300 
  4 C       -1.8580     2.0880    -0.4820 C.ar  1 <1>   0.3960 
  5 C       -2.2630    -1.7590    -0.4970 C.3   1 <1>   0.2200 
  6 N       -1.7750     2.3010     0.8430 N.ar  1 <1>  -0.6200 
  7 C       -1.7500     3.1470    -1.3920 C.ar  1 <1>   0.1600 
  8 C       -3.6530    -2.2750    -0.1530 C.3   1 <1>  -0.0800 
  9 C       -1.4090    -2.6110     0.4330 C.3   1 <1>   0.1200 
 10 C       -1.5860     3.5700     1.1550 C.ar  1 <1>   0.1600 
 11 N       -1.5620     4.4180    -1.0760 N.ar  1 <1>  -0.6200 
 12 C       -3.5240    -2.6500     1.3270 C.3   1 <1>   0.1200 
 13 C       -4.8210    -1.3220    -0.4640 C.3   1 <1>  -0.0160 
 14 O       -2.1560    -2.7490     1.6040 O.3   1 <1>  -0.5600 
 15 C       -1.4820     4.6030     0.2280 C.ar  1 <1>   0.1670 
 16 C       -6.1560    -1.9860    -0.1660 C.ar  1 <1>  -0.1430 
 17 C       -1.2650     6.0330     0.6810 C.3   1 <1>  -0.0970 
 18 C       -6.7510    -2.8520    -1.0620 C.ar  1 <1>  -0.1500 
 19 C       -6.8410    -1.7630     1.0110 C.ar  1 <1>  -0.1500 
 20 C       -7.9640    -3.4400    -0.7430 C.ar  1 <1>   0.1600 
 21 C       -8.0500    -2.4020     1.2320 C.ar  1 <1>   0.1600 
 22 N       -8.6270    -3.2370     0.3840 N.ar  1 <1>  -0.6200 
 23 H       -2.0040    -0.1520     0.8790 H     1 <1>   0.3700 
 24 H       -2.0090    -1.9110    -1.5330 H     1 <1>   0.0800 
 25 H       -1.8250     2.9180    -2.4410 H     1 <1>   0.1500 
 26 H       -3.8090    -3.1870    -0.7010 H     1 <1>   0.0800 
 27 H       -0.4590    -2.1600     0.6580 H     1 <1>   0.0800 
 28 H       -1.2620    -3.5940     0.0200 H     1 <1>   0.0800 
 29 H       -1.5090     3.8070     2.2010 H     1 <1>   0.1500 
 30 H       -3.9960    -3.5920     1.5450 H     1 <1>   0.0800 
 31 H       -3.9270    -1.8840     1.9660 H     1 <1>   0.0800 
 32 H       -4.7850    -1.0410    -1.5030 H     1 <1>   0.0800 
 33 H       -4.7360    -0.4190     0.1150 H     1 <1>   0.0800 
 34 H       -1.2100     6.1000     1.7520 H     1 <1>   0.0800 
 35 H       -2.0770     6.6470     0.3350 H     1 <1>   0.0800 
 36 H       -0.3490     6.4070     0.2610 H     1 <1>   0.0800 
 37 H       -6.2830    -3.0740    -2.0030 H     1 <1>   0.1500 
 38 H       -6.4480    -1.0980     1.7590 H     1 <1>   0.1500 
 39 H       -8.4130    -4.1120    -1.4540 H     1 <1>   0.1500 
 40 H       -8.5690    -2.2160     2.1570 H     1 <1>   0.1500 
@<TRIPOS>BOND
  1   1   2  2   
  2   2   3  am  
  3   2   4  1   
  4   3   5  1   
  5   3  23  1   
  6   4   6  ar  
  7   4   7  ar  
  8   5   8  1   
  9   5   9  1   
 10   5  24  1   
 11   6  10  ar  
 12   7  11  ar  
 13   7  25  1   
 14   8  12  1   
 15   8  13  1   
 16   8  26  1   
 17   9  14  1   
 18   9  27  1   
 19   9  28  1   
 20  10  15  ar  
 21  10  29  1   
 22  11  15  ar  
 23  12  14  1   
 24  12  30  1   
 25  12  31  1   
 26  13  16  1   
 27  13  32  1   
 28  13  33  1   
 29  15  17  1   
 30  16  18  ar  
 31  16  19  ar  
 32  17  34  1   
 33  17  35  1   
 34  17  36  1   
 35  18  20  ar  
 36  18  37  1   
 37  19  21  ar  
 38  19  38  1   
 39  20  22  ar  
 40  20  39  1   
 41  21  22  ar  
 42  21  40  1   
@<TRIPOS>SUBSTRUCTURE
  1 ****   3 GROUP 4 **** **** 0

# MOE 2024.06 (io_trps.svl 2023.06)
