@<TRIPOS>MOLECULE
NONAME
21 21 1 0 0 
SMALL
USER_CHARGES


@<TRIPOS>ATOM
  1 N        5.9430     1.0610     0.1060 N.2   1 <1>  -0.7070 
  2 N        6.4160    -0.2300     0.0690 N.pl3 1 <1>   0.5710 
  3 C        6.9470     1.8260    -0.1450 C.2   1 <1>   0.1080 
  4 C        7.7650    -0.1920    -0.2210 C.2   1 <1>  -0.3320 
  5 C        5.5310    -1.3230     0.3110 C.cat 1 <1>   0.7080 
  6 C        8.1150     1.1010    -0.3590 C.2   1 <1>  -0.1500 
  7 C        6.8440     3.3340    -0.1970 C.3   1 <1>  -0.0590 
  8 C        8.7130    -1.3770    -0.3640 C.3   1 <1>  -0.0600 
  9 N        5.9050    -2.5970     0.2930 N.pl3 1 <1>  -0.7540 
 10 N        4.2570    -1.0700     0.5720 N.pl3 1 <1>  -0.7540 
 11 H        9.0780     1.5280    -0.5850 H     1 <1>   0.1500 
 12 H        6.0650     3.6220    -0.8780 H     1 <1>   0.0800 
 13 H        7.7720     3.7640    -0.5270 H     1 <1>   0.0800 
 14 H        6.6110     3.7150     0.7810 H     1 <1>   0.0800 
 15 H        8.4040    -2.0190    -1.1700 H     1 <1>   0.0800 
 16 H        8.7710    -1.9350     0.5530 H     1 <1>   0.0800 
 17 H        9.7040    -1.0220    -0.5930 H     1 <1>   0.0800 
 18 H        5.2760    -3.3830     0.4660 H     1 <1>   0.4500 
 19 H        6.8670    -2.8910     0.1010 H     1 <1>   0.4500 
 20 H        3.5070    -1.7340     0.7650 H     1 <1>   0.4500 
 21 H        3.9610    -0.0810     0.5870 H     1 <1>   0.4500 
@<TRIPOS>BOND
  1   1   2  1   
  2   1   3  2   
  3   2   4  1   
  4   2   5  ar  
  5   3   6  1   
  6   3   7  1   
  7   4   6  2   
  8   4   8  1   
  9   5   9  ar  
 10   5  10  ar  
 11   6  11  1   
 12   7  12  1   
 13   7  13  1   
 14   7  14  1   
 15   8  15  1   
 16   8  16  1   
 17   8  17  1   
 18   9  18  1   
 19   9  19  1   
 20  10  20  1   
 21  10  21  1   
@<TRIPOS>SUBSTRUCTURE
  1 ****   2 GROUP 4 **** **** 0

# MOE 2024.06 (io_trps.svl 2023.06)
