@<TRIPOS>MOLECULE
NONAME
46 48 1 0 0 
SMALL
USER_CHARGES


@<TRIPOS>ATOM
  1 O       -1.6150     0.2480     2.8670 O.2   1 <1>  -0.5700 
  2 C       -1.9310     0.8920     1.8940 C.2   1 <1>   0.5690 
  3 N       -2.5810     0.3010     0.8410 N.am  1 <1>  -0.6600 
  4 C       -1.6240     2.3870     1.8970 C.3   1 <1>   0.1810 
  5 C       -3.0570     0.9700    -0.3950 C.3   1 <1>   0.1400 
  6 C       -2.8440    -1.1570     0.7730 C.3   1 <1>   0.1400 
  7 O       -0.9470     2.7850     0.7140 O.3   1 <1>  -0.3620 
  8 C       -4.0500    -0.0220    -0.9970 C.3   1 <1>   0.2000 
  9 C       -3.4730    -1.3880    -0.6070 C.3   1 <1>  -0.0800 
 10 C       -0.6490     4.0880     0.4670 C.ar  1 <1>   0.0820 
 11 O       -5.2740     0.1600    -0.3700 O.3   1 <1>  -0.6800 
 12 C       -4.4680    -2.5620    -0.6510 C.3   1 <1>  -0.0170 
 13 C       -0.0370     4.3890    -0.7470 C.ar  1 <1>  -0.1440 
 14 C       -0.9330     5.1120     1.3690 C.ar  1 <1>  -0.1500 
 15 C       -3.7720    -3.8760    -0.3310 C.ar  1 <1>  -0.1440 
 16 C        0.2760     5.7050    -1.0490 C.ar  1 <1>  -0.1500 
 17 C        0.2940     3.2900    -1.7460 C.3   1 <1>  -0.0970 
 18 C       -0.6150     6.4220     1.0570 C.ar  1 <1>  -0.1500 
 19 C       -3.0800    -4.5840    -1.2930 C.ar  1 <1>  -0.1500 
 20 C       -3.7930    -4.4280     0.9340 C.ar  1 <1>  -0.1500 
 21 C       -0.0120     6.7190    -0.1520 C.ar  1 <1>  -0.1500 
 22 C       -2.4570    -5.7730    -0.9530 C.ar  1 <1>   0.1600 
 23 C       -3.1350    -5.6240     1.1700 C.ar  1 <1>   0.1600 
 24 N       -2.4670    -6.3100     0.2570 N.ar  1 <1>  -0.6200 
 25 H       -0.9950     2.6200     2.7360 H     1 <1>   0.0800 
 26 H       -2.5440     2.9350     1.9640 H     1 <1>   0.0800 
 27 H       -3.5150     1.9240    -0.1930 H     1 <1>   0.0800 
 28 H       -2.2230     1.1060    -1.0610 H     1 <1>   0.0800 
 29 H       -1.9300    -1.7160     0.8890 H     1 <1>   0.0800 
 30 H       -3.5270    -1.4260     1.5610 H     1 <1>   0.0800 
 31 H       -4.1850     0.1030    -2.0580 H     1 <1>   0.0800 
 32 H       -2.6690    -1.6040    -1.2890 H     1 <1>   0.0800 
 33 H       -5.1260     0.1870     0.5970 H     1 <1>   0.4000 
 34 H       -4.9070    -2.6210    -1.6320 H     1 <1>   0.0800 
 35 H       -5.2690    -2.4030     0.0490 H     1 <1>   0.0800 
 36 H       -1.3960     4.9170     2.3160 H     1 <1>   0.1500 
 37 H        0.7470     5.9500    -1.9840 H     1 <1>   0.1500 
 38 H        0.8570     3.6760    -2.5760 H     1 <1>   0.0800 
 39 H       -0.6140     2.8520    -2.1180 H     1 <1>   0.0800 
 40 H        0.8770     2.5240    -1.2650 H     1 <1>   0.0800 
 41 H       -0.8350     7.2120     1.7540 H     1 <1>   0.1500 
 42 H       -3.0190    -4.2230    -2.3030 H     1 <1>   0.1500 
 43 H       -4.3120    -3.9420     1.7390 H     1 <1>   0.1500 
 44 H        0.2350     7.7380    -0.3940 H     1 <1>   0.1500 
 45 H       -1.9220    -6.3120    -1.7160 H     1 <1>   0.1500 
 46 H       -3.1610    -6.0390     2.1630 H     1 <1>   0.1500 
@<TRIPOS>BOND
  1   1   2  2   
  2   2   3  am  
  3   2   4  1   
  4   3   5  1   
  5   3   6  1   
  6   4   7  1   
  7   4  25  1   
  8   4  26  1   
  9   5   8  1   
 10   5  27  1   
 11   5  28  1   
 12   6   9  1   
 13   6  29  1   
 14   6  30  1   
 15   7  10  1   
 16   8   9  1   
 17   8  11  1   
 18   8  31  1   
 19   9  12  1   
 20   9  32  1   
 21  10  13  ar  
 22  10  14  ar  
 23  11  33  1   
 24  12  15  1   
 25  12  34  1   
 26  12  35  1   
 27  13  16  ar  
 28  13  17  1   
 29  14  18  ar  
 30  14  36  1   
 31  15  19  ar  
 32  15  20  ar  
 33  16  21  ar  
 34  16  37  1   
 35  17  38  1   
 36  17  39  1   
 37  17  40  1   
 38  18  21  ar  
 39  18  41  1   
 40  19  22  ar  
 41  19  42  1   
 42  20  23  ar  
 43  20  43  1   
 44  21  44  1   
 45  22  24  ar  
 46  22  45  1   
 47  23  24  ar  
 48  23  46  1   
@<TRIPOS>SUBSTRUCTURE
  1 ****   3 GROUP 4 **** **** 0

# MOE 2024.06 (io_trps.svl 2023.06)
