@<TRIPOS>MOLECULE
NONAME
51 53 1 0 0 
SMALL
USER_CHARGES


@<TRIPOS>ATOM
  1 F        0.5530    -3.8740     3.9970 F     1 <1>  -0.1900 
  2 C        0.8970    -4.1980     2.7800 C.ar  1 <1>   0.1900 
  3 C       -0.0480    -4.1210     1.7760 C.ar  1 <1>  -0.1500 
  4 C        2.1950    -4.6050     2.5400 C.ar  1 <1>  -0.1500 
  5 C        0.3240    -4.4670     0.4880 C.ar  1 <1>  -0.1500 
  6 C        2.5530    -4.9490     1.2470 C.ar  1 <1>  -0.1500 
  7 C        1.6230    -4.8830     0.2130 C.ar  1 <1>  -0.1080 
  8 C        1.9820    -5.2620    -1.2220 C.3   1 <1>   0.3330 
  9 N        2.5300    -6.6550    -1.3340 N.am  1 <1>  -0.5100 
 10 C        3.3220    -4.7320    -1.7710 C.3   1 <1>   0.0000 
 11 C        1.6540    -7.6670    -1.5980 C.2   1 <1>   0.7160 
 12 C        3.4940    -6.1370    -2.3740 C.3   1 <1>   0.2250 
 13 O        1.3240    -7.8840    -2.7500 O.2   1 <1>  -0.5700 
 14 C        1.0660    -8.4520    -0.5360 C.2   1 <1>  -0.0860 
 15 C        1.4600    -8.7250     0.7410 C.2   1 <1>  -0.0400 
 16 C       -0.1500    -9.1520    -0.6720 C.2   1 <1>  -0.1500 
 17 O        0.5900    -9.4970     1.3460 O.3   1 <1>  -0.2800 
 18 C        2.6890    -8.3210     1.5310 C.3   1 <1>  -0.0600 
 19 C       -0.3820    -9.7690     0.5060 C.2   1 <1>  -0.0400 
 20 C       -1.5000   -10.6710     0.9970 C.3   1 <1>   0.5230 
 21 N       -2.3150   -11.1800    -0.1500 N.4   1 <1>  -0.9590 
 22 C       -3.5860   -11.8020     0.3050 C.3   1 <1>   0.3430 
 23 C       -1.5030   -12.1120    -0.9820 C.3   1 <1>   0.3430 
 24 C       -4.5590   -10.7160     0.7490 C.3   1 <1>  -0.2400 
 25 C       -2.1070   -12.2040    -2.3790 C.3   1 <1>  -0.2400 
 26 H       -1.0480    -3.7970     2.0020 H     1 <1>   0.1500 
 27 H        2.9020    -4.6490     3.3480 H     1 <1>   0.1500 
 28 H       -0.4050    -4.4110    -0.3020 H     1 <1>   0.1500 
 29 H        3.5610    -5.2720     1.0550 H     1 <1>   0.1500 
 30 H        1.1720    -5.1180    -1.9170 H     1 <1>   0.0000 
 31 H        4.0640    -4.5060    -1.0260 H     1 <1>   0.0000 
 32 H        3.2140    -3.9550    -2.5060 H     1 <1>   0.0000 
 33 H        3.1060    -6.2220    -3.3750 H     1 <1>   0.0000 
 34 H        4.4810    -6.5430    -2.2480 H     1 <1>   0.0000 
 35 H       -0.7260    -9.1470    -1.5810 H     1 <1>   0.1500 
 36 H        3.3890    -7.7900     0.9150 H     1 <1>   0.0800 
 37 H        3.1750    -9.1980     1.9180 H     1 <1>   0.0800 
 38 H        2.3990    -7.6950     2.3550 H     1 <1>   0.0800 
 39 H       -2.1140   -10.1090     1.6800 H     1 <1>   0.0800 
 40 H       -1.0700   -11.4990     1.5360 H     1 <1>   0.0800 
 41 H       -2.5410   -10.3630    -0.7290 H     1 <1>   0.4500 
 42 H       -3.4000   -12.4910     1.1140 H     1 <1>   0.0800 
 43 H       -4.0350   -12.3530    -0.5060 H     1 <1>   0.0800 
 44 H       -1.4650   -13.0890    -0.5250 H     1 <1>   0.0800 
 45 H       -0.4920   -11.7450    -1.0700 H     1 <1>   0.0800 
 46 H       -4.2060   -10.1920     1.6180 H     1 <1>   0.0800 
 47 H       -5.4990   -11.1720     1.0060 H     1 <1>   0.0800 
 48 H       -4.7420   -10.0170    -0.0480 H     1 <1>   0.0800 
 49 H       -3.0910   -12.6350    -2.3600 H     1 <1>   0.0800 
 50 H       -1.4850   -12.8370    -2.9870 H     1 <1>   0.0800 
 51 H       -2.1430   -11.2350    -2.8440 H     1 <1>   0.0800 
@<TRIPOS>BOND
  1   1   2  1   
  2   2   3  ar  
  3   2   4  ar  
  4   3   5  ar  
  5   3  26  1   
  6   4   6  ar  
  7   4  27  1   
  8   5   7  ar  
  9   5  28  1   
 10   6   7  ar  
 11   6  29  1   
 12   7   8  1   
 13   8   9  1   
 14   8  10  1   
 15   8  30  1   
 16   9  11  am  
 17   9  12  1   
 18  10  12  1   
 19  10  31  1   
 20  10  32  1   
 21  11  13  2   
 22  11  14  1   
 23  12  33  1   
 24  12  34  1   
 25  14  15  2   
 26  14  16  1   
 27  15  17  1   
 28  15  18  1   
 29  16  19  2   
 30  16  35  1   
 31  17  19  1   
 32  18  36  1   
 33  18  37  1   
 34  18  38  1   
 35  19  20  1   
 36  20  21  1   
 37  20  39  1   
 38  20  40  1   
 39  21  22  1   
 40  21  23  1   
 41  21  41  1   
 42  22  24  1   
 43  22  42  1   
 44  22  43  1   
 45  23  25  1   
 46  23  44  1   
 47  23  45  1   
 48  24  46  1   
 49  24  47  1   
 50  24  48  1   
 51  25  49  1   
 52  25  50  1   
 53  25  51  1   
@<TRIPOS>SUBSTRUCTURE
  1 ****  14 GROUP 4 **** **** 0

# MOE 2024.06 (io_trps.svl 2023.06)
