@<TRIPOS>MOLECULE
NONAME
53 56 1 0 0 
SMALL
USER_CHARGES


@<TRIPOS>ATOM
  1 N       -1.7710     0.7080    -0.8360 N.ar  1 <1>  -0.6200 
  2 C       -2.0100     0.9700     0.4450 C.ar  1 <1>   0.1660 
  3 C       -0.8560     1.4620    -1.4230 C.ar  1 <1>   0.1660 
  4 C       -1.3670     1.9650     1.1670 C.ar  1 <1>  -0.1500 
  5 C       -3.0730     0.1090     1.1220 C.3   1 <1>   0.4870 
  6 C       -0.1660     2.4800    -0.7840 C.ar  1 <1>  -0.1500 
  7 C       -0.5800     1.1600    -2.8820 C.3   1 <1>  -0.0970 
  8 C       -0.4200     2.7470     0.5440 C.ar  1 <1>  -0.1500 
  9 N       -4.1550    -0.2180     0.1420 N.4   1 <1>  -0.9590 
 10 C       -4.9550     0.9850    -0.2790 C.3   1 <1>   0.3430 
 11 C       -5.0030    -1.3750     0.5650 C.3   1 <1>   0.3430 
 12 C       -5.8700     1.5470     0.8330 C.3   1 <1>   0.1440 
 13 C       -6.3250    -0.9390     1.2190 C.3   1 <1>  -0.1600 
 14 C       -7.0670     2.1200     0.1070 C.ar  1 <1>   0.1670 
 15 C       -6.2760     0.4590     1.8610 C.3   1 <1>  -0.1600 
 16 C       -5.2710     2.7980     1.5350 C.3   1 <1>  -0.1600 
 17 N       -7.9650     1.4050    -0.5190 N.ar  1 <1>  -0.6200 
 18 C       -7.0850     3.4800     0.1400 C.ar  1 <1>  -0.1430 
 19 C       -5.9100     4.0440     0.8940 C.3   1 <1>  -0.0170 
 20 C       -8.9330     2.1060    -1.1160 C.ar  1 <1>   0.7200 
 21 C       -8.1160     4.1170    -0.5040 C.ar  1 <1>   0.1600 
 22 N       -9.0430     3.4380    -1.1350 N.ar  1 <1>  -0.6200 
 23 N       -9.9020     1.3850    -1.7830 N.pl3 1 <1>  -0.8380 
 24 C      -10.8310     2.0330    -2.7500 C.3   1 <1>   0.1290 
 25 C      -10.2280    -0.0250    -1.4340 C.3   1 <1>   0.1290 
 26 H       -1.5920     2.1370     2.2050 H     1 <1>   0.1500 
 27 H       -3.4780     0.6210     1.9780 H     1 <1>   0.0800 
 28 H       -2.6030    -0.8000     1.4560 H     1 <1>   0.0800 
 29 H        0.5670     3.0590    -1.3160 H     1 <1>   0.1500 
 30 H       -1.4820     1.2760    -3.4540 H     1 <1>   0.0800 
 31 H       -0.2340     0.1470    -2.9810 H     1 <1>   0.0800 
 32 H        0.1690     1.8190    -3.2800 H     1 <1>   0.0800 
 33 H        0.1050     3.5290     1.0670 H     1 <1>   0.1500 
 34 H       -3.6030    -0.4810    -0.6950 H     1 <1>   0.4500 
 35 H       -5.5860     0.6940    -1.1040 H     1 <1>   0.0800 
 36 H       -4.3020     1.7630    -0.6390 H     1 <1>   0.0800 
 37 H       -4.4500    -1.9910     1.2560 H     1 <1>   0.0800 
 38 H       -5.2360    -1.9840    -0.2940 H     1 <1>   0.0800 
 39 H       -6.6080    -1.6690     1.9580 H     1 <1>   0.0800 
 40 H       -7.0960    -0.9540     0.4670 H     1 <1>   0.0800 
 41 H       -7.2390     0.7010     2.2790 H     1 <1>   0.0800 
 42 H       -5.5720     0.4360     2.6740 H     1 <1>   0.0800 
 43 H       -4.2000     2.8410     1.4660 H     1 <1>   0.0800 
 44 H       -5.5440     2.7950     2.5770 H     1 <1>   0.0800 
 45 H       -5.2300     4.5180     0.2060 H     1 <1>   0.0800 
 46 H       -6.2270     4.7550     1.6380 H     1 <1>   0.0800 
 47 H       -8.1810     5.1920    -0.5060 H     1 <1>   0.1500 
 48 H      -10.3420     2.8530    -3.2480 H     1 <1>   0.0800 
 49 H      -11.6930     2.4070    -2.2260 H     1 <1>   0.0800 
 50 H      -11.1450     1.3230    -3.4940 H     1 <1>   0.0800 
 51 H       -9.8350    -0.2800    -0.4650 H     1 <1>   0.0800 
 52 H       -9.8040    -0.6840    -2.1710 H     1 <1>   0.0800 
 53 H      -11.2950    -0.1590    -1.4100 H     1 <1>   0.0800 
@<TRIPOS>BOND
  1   1   2  ar  
  2   1   3  ar  
  3   2   4  ar  
  4   2   5  1   
  5   3   6  ar  
  6   3   7  1   
  7   4   8  ar  
  8   4  26  1   
  9   5   9  1   
 10   5  27  1   
 11   5  28  1   
 12   6   8  ar  
 13   6  29  1   
 14   7  30  1   
 15   7  31  1   
 16   7  32  1   
 17   8  33  1   
 18   9  10  1   
 19   9  11  1   
 20   9  34  1   
 21  10  12  1   
 22  10  35  1   
 23  10  36  1   
 24  11  13  1   
 25  11  37  1   
 26  11  38  1   
 27  12  14  1   
 28  12  15  1   
 29  12  16  1   
 30  13  15  1   
 31  13  39  1   
 32  13  40  1   
 33  14  17  ar  
 34  14  18  ar  
 35  15  41  1   
 36  15  42  1   
 37  16  19  1   
 38  16  43  1   
 39  16  44  1   
 40  17  20  ar  
 41  18  19  1   
 42  18  21  ar  
 43  19  45  1   
 44  19  46  1   
 45  20  22  ar  
 46  20  23  1   
 47  21  22  ar  
 48  21  47  1   
 49  23  24  1   
 50  23  25  1   
 51  24  48  1   
 52  24  49  1   
 53  24  50  1   
 54  25  51  1   
 55  25  52  1   
 56  25  53  1   
@<TRIPOS>SUBSTRUCTURE
  1 ****  10 GROUP 4 **** **** 0

# MOE 2024.06 (io_trps.svl 2023.06)
