@<TRIPOS>MOLECULE
NONAME
46 48 1 0 0 
SMALL
USER_CHARGES


@<TRIPOS>ATOM
  1 F       -3.7080     1.6940    -2.2690 F     1 <1>  -0.1900 
  2 C       -2.9850     1.9720    -1.2180 C.ar  1 <1>   0.1900 
  3 C       -2.8910     1.0370    -0.1890 C.ar  1 <1>   0.0860 
  4 C       -2.3490     3.1970    -1.1850 C.ar  1 <1>  -0.1500 
  5 C       -3.5740    -0.2330    -0.2360 C.2   1 <1>   0.5440 
  6 C       -2.0960     1.3850     0.9050 C.ar  1 <1>  -0.1500 
  7 C       -1.5770     3.5110    -0.0820 C.ar  1 <1>   0.0830 
  8 O       -2.9510    -1.2170    -0.5870 O.2   1 <1>  -0.5700 
  9 N       -4.8970    -0.3660     0.1420 N.am  1 <1>  -0.6600 
 10 C       -1.4460     2.6070     0.9640 C.ar  1 <1>  -0.1500 
 11 O       -0.9560     4.6940    -0.0360 O.3   1 <1>  -0.5330 
 12 C       -5.5900    -1.6920     0.1110 C.3   1 <1>   0.1400 
 13 C       -5.7340     0.7740     0.6090 C.3   1 <1>   0.1400 
 14 C       -6.7880    -1.7000    -0.8490 C.3   1 <1>   0.1400 
 15 C       -6.6540     1.2360    -0.5260 C.3   1 <1>  -0.1600 
 16 N       -7.9520    -0.9440    -0.2850 N.am  1 <1>  -0.6600 
 17 C       -8.0130     0.5240    -0.5600 C.3   1 <1>   0.1400 
 18 C       -8.9780    -1.5780     0.4080 C.2   1 <1>   0.5440 
 19 O       -9.9280    -0.9000     0.7670 O.2   1 <1>  -0.5700 
 20 C       -8.9800    -3.0200     0.6870 C.ar  1 <1>   0.3960 
 21 N       -7.9900    -3.5280     1.4450 N.ar  1 <1>  -0.6200 
 22 C       -9.9920    -3.8400     0.1580 C.ar  1 <1>  -0.1430 
 23 C       -8.0150    -4.8230     1.6860 C.ar  1 <1>   0.1600 
 24 C       -9.9920    -5.1940     0.4230 C.ar  1 <1>  -0.1500 
 25 C      -11.1090    -3.2740    -0.7150 C.3   1 <1>  -0.0970 
 26 C       -8.9770    -5.6900     1.2080 C.ar  1 <1>  -0.1500 
 27 H       -2.4460     3.8920    -1.9980 H     1 <1>   0.1500 
 28 H       -1.9920     0.6790     1.7120 H     1 <1>   0.1500 
 29 H       -0.8410     2.8490     1.8180 H     1 <1>   0.1500 
 30 H       -0.4090     4.8300     0.7590 H     1 <1>   0.4500 
 31 H       -5.9160    -1.9460     1.1040 H     1 <1>   0.0800 
 32 H       -4.9050    -2.4590    -0.2040 H     1 <1>   0.0800 
 33 H       -5.1070     1.5910     0.9140 H     1 <1>   0.0800 
 34 H       -6.3150     0.4740     1.4660 H     1 <1>   0.0800 
 35 H       -7.0750    -2.7200    -1.0270 H     1 <1>   0.0800 
 36 H       -6.4960    -1.2830    -1.7970 H     1 <1>   0.0800 
 37 H       -6.1590     1.1250    -1.4730 H     1 <1>   0.0800 
 38 H       -6.8480     2.2850    -0.3990 H     1 <1>   0.0800 
 39 H       -8.4740     0.6780    -1.5210 H     1 <1>   0.0800 
 40 H       -8.6440     0.9930     0.1760 H     1 <1>   0.0800 
 41 H       -7.2240    -5.2200     2.3010 H     1 <1>   0.1500 
 42 H      -10.7560    -5.8480     0.0380 H     1 <1>   0.1500 
 43 H      -10.7000    -2.6650    -1.5020 H     1 <1>   0.0800 
 44 H      -11.7670    -2.6670    -0.1180 H     1 <1>   0.0800 
 45 H      -11.6880    -4.0600    -1.1650 H     1 <1>   0.0800 
 46 H       -8.9310    -6.7370     1.4490 H     1 <1>   0.1500 
@<TRIPOS>BOND
  1   1   2  1   
  2   2   3  ar  
  3   2   4  ar  
  4   3   5  1   
  5   3   6  ar  
  6   4   7  ar  
  7   4  27  1   
  8   5   8  2   
  9   5   9  am  
 10   6  10  ar  
 11   6  28  1   
 12   7  10  ar  
 13   7  11  1   
 14   9  12  1   
 15   9  13  1   
 16  10  29  1   
 17  11  30  1   
 18  12  14  1   
 19  12  31  1   
 20  12  32  1   
 21  13  15  1   
 22  13  33  1   
 23  13  34  1   
 24  14  16  1   
 25  14  35  1   
 26  14  36  1   
 27  15  17  1   
 28  15  37  1   
 29  15  38  1   
 30  16  17  1   
 31  16  18  am  
 32  17  39  1   
 33  17  40  1   
 34  18  19  2   
 35  18  20  1   
 36  20  21  ar  
 37  20  22  ar  
 38  21  23  ar  
 39  22  24  ar  
 40  22  25  1   
 41  23  26  ar  
 42  23  41  1   
 43  24  26  ar  
 44  24  42  1   
 45  25  43  1   
 46  25  44  1   
 47  25  45  1   
 48  26  46  1   
@<TRIPOS>SUBSTRUCTURE
  1 ****   9 GROUP 4 **** **** 0

# MOE 2024.06 (io_trps.svl 2023.06)
