@<TRIPOS>MOLECULE
NONAME
46 48 1 0 0 
SMALL
USER_CHARGES


@<TRIPOS>ATOM
  1 S       -1.1210     0.6840     0.3680 S.3   1 <1>  -0.0800 
  2 C       -0.5260     2.0680    -0.5190 C.2   1 <1>  -0.1100 
  3 C       -1.0090     1.5580     1.8810 C.2   1 <1>  -0.1100 
  4 C       -0.2460     3.1140     0.2990 C.2   1 <1>  -0.0860 
  5 C       -0.5410     2.8020     1.6740 C.2   1 <1>  -0.1500 
  6 C        0.2650     4.4130    -0.0860 C.2   1 <1>   0.7160 
  7 O       -0.2880     5.4120     0.3340 O.2   1 <1>  -0.5700 
  8 N        1.3720     4.5560    -0.8960 N.am  1 <1>  -0.6600 
  9 C        2.3700     3.4690    -1.1650 C.3   1 <1>   0.1400 
 10 C        1.7630     5.8880    -1.4350 C.3   1 <1>   0.1400 
 11 C        3.6040     3.5650    -0.2550 C.3   1 <1>   0.1400 
 12 C        2.5270     6.7280    -0.4010 C.3   1 <1>  -0.1600 
 13 N        4.2450     4.9160    -0.3110 N.am  1 <1>  -0.6600 
 14 C        3.5210     5.9530     0.4740 C.3   1 <1>   0.1400 
 15 C        5.3970     5.1250    -1.0310 C.2   1 <1>   0.5690 
 16 O        5.8910     4.2340    -1.6850 O.2   1 <1>  -0.5700 
 17 C        6.0910     6.4830    -1.0750 C.3   1 <1>   0.0820 
 18 C        6.6490     6.9450     0.2680 C.2   1 <1>  -0.1810 
 19 C        7.4670     6.2020     1.1200 C.2   1 <1>   0.1080 
 20 C        6.4800     8.1290     0.9000 C.2   1 <1>  -0.3320 
 21 N        7.7750     6.8550     2.1950 N.2   1 <1>  -0.7070 
 22 C        7.9690     4.7960     0.8770 C.3   1 <1>  -0.0590 
 23 N        7.1690     8.0460     2.0580 N.pl3 1 <1>   0.3000 
 24 C        5.7040     9.3740     0.5010 C.3   1 <1>  -0.0600 
 25 H       -0.4440     1.9720    -1.5870 H     1 <1>   0.1500 
 26 H       -1.3130     1.0430     2.7750 H     1 <1>   0.1500 
 27 H       -0.3880     3.5450     2.4380 H     1 <1>   0.1500 
 28 H        2.6910     3.5250    -2.1910 H     1 <1>   0.0800 
 29 H        1.9280     2.5020    -1.0270 H     1 <1>   0.0800 
 30 H        0.8800     6.4210    -1.7470 H     1 <1>   0.0800 
 31 H        2.3810     5.7490    -2.3060 H     1 <1>   0.0800 
 32 H        4.3120     2.8100    -0.5510 H     1 <1>   0.0800 
 33 H        3.3180     3.3450     0.7590 H     1 <1>   0.0800 
 34 H        1.8130     7.2040     0.2470 H     1 <1>   0.0800 
 35 H        3.0450     7.5150    -0.9150 H     1 <1>   0.0800 
 36 H        2.9760     5.4730     1.2700 H     1 <1>   0.0800 
 37 H        4.2100     6.6320     0.9410 H     1 <1>   0.0800 
 38 H        5.3980     7.2020    -1.4600 H     1 <1>   0.0800 
 39 H        6.9070     6.4240    -1.7720 H     1 <1>   0.0800 
 40 H        8.2630     4.6770    -0.1490 H     1 <1>   0.0800 
 41 H        7.1930     4.0900     1.1080 H     1 <1>   0.0800 
 42 H        8.8180     4.5990     1.5050 H     1 <1>   0.0800 
 43 H        7.2500     8.7790     2.7710 H     1 <1>   0.2700 
 44 H        5.2580     9.2570    -0.4690 H     1 <1>   0.0800 
 45 H        6.3640    10.2230     0.4670 H     1 <1>   0.0800 
 46 H        4.9230     9.5680     1.2150 H     1 <1>   0.0800 
@<TRIPOS>BOND
  1   1   2  1   
  2   1   3  1   
  3   2   4  2   
  4   2  25  1   
  5   3   5  2   
  6   3  26  1   
  7   4   5  1   
  8   4   6  1   
  9   5  27  1   
 10   6   7  2   
 11   6   8  am  
 12   8   9  1   
 13   8  10  1   
 14   9  11  1   
 15   9  28  1   
 16   9  29  1   
 17  10  12  1   
 18  10  30  1   
 19  10  31  1   
 20  11  13  1   
 21  11  32  1   
 22  11  33  1   
 23  12  14  1   
 24  12  34  1   
 25  12  35  1   
 26  13  14  1   
 27  13  15  am  
 28  14  36  1   
 29  14  37  1   
 30  15  16  2   
 31  15  17  1   
 32  17  18  1   
 33  17  38  1   
 34  17  39  1   
 35  18  19  1   
 36  18  20  2   
 37  19  21  2   
 38  19  22  1   
 39  20  23  1   
 40  20  24  1   
 41  21  23  1   
 42  22  40  1   
 43  22  41  1   
 44  22  42  1   
 45  23  43  1   
 46  24  44  1   
 47  24  45  1   
 48  24  46  1   
@<TRIPOS>SUBSTRUCTURE
  1 ****  13 GROUP 4 **** **** 0

# MOE 2024.06 (io_trps.svl 2023.06)
