@<TRIPOS>MOLECULE
NONAME
32 32 1 0 0 
SMALL
USER_CHARGES


@<TRIPOS>ATOM
  1 O       -0.0500     0.2030     0.4490 O.2   1 <1>  -0.5700 
  2 C        0.9300     0.6830    -0.0980 C.2   1 <1>   0.7800 
  3 O        1.0060     2.0120    -0.2720 O.3   1 <1>  -0.4300 
  4 N        2.0000    -0.0770    -0.5570 N.am  1 <1>  -0.1680 
  5 C        0.0520     2.9910     0.0780 C.3   1 <1>   0.2800 
  6 N        3.0340     0.5320    -1.4500 N.3   1 <1>  -0.7290 
  7 C        2.1160    -1.4620    -0.3520 C.ar  1 <1>   0.4270 
  8 C        0.6640     4.3190    -0.3690 C.3   1 <1>  -0.2400 
  9 C       -0.1530     3.0150     1.5970 C.3   1 <1>  -0.2400 
 10 C       -1.2560     2.7550    -0.6870 C.3   1 <1>  -0.2400 
 11 N        2.6730    -2.1590    -1.3500 N.ar  1 <1>  -0.6200 
 12 C        1.7260    -2.0750     0.8420 C.ar  1 <1>  -0.1500 
 13 C        2.8240    -3.4610    -1.1560 C.ar  1 <1>   0.1600 
 14 C        1.8950    -3.4260     1.0210 C.ar  1 <1>  -0.1500 
 15 C        2.4670    -4.1600    -0.0100 C.ar  1 <1>  -0.1790 
 16 C        2.7000    -5.5860     0.0770 C.2   1 <1>   0.9790 
 17 O        3.2190    -6.1980    -0.8730 O.co2 1 <1>  -0.9000 
 18 O        2.3910    -6.2160     1.1030 O.co2 1 <1>  -0.9000 
 19 H        3.1050    -0.1570    -2.2160 H     1 <1>   0.3600 
 20 H        3.9190     0.4180    -0.9450 H     1 <1>   0.3600 
 21 H        1.5960     4.4890     0.1380 H     1 <1>   0.0800 
 22 H        0.0000     5.1330    -0.1440 H     1 <1>   0.0800 
 23 H        0.8410     4.3070    -1.4300 H     1 <1>   0.0800 
 24 H        0.7930     3.1100     2.1000 H     1 <1>   0.0800 
 25 H       -0.6490     2.1250     1.9380 H     1 <1>   0.0800 
 26 H       -0.7680     3.8530     1.8690 H     1 <1>   0.0800 
 27 H       -1.0610     2.6690    -1.7410 H     1 <1>   0.0800 
 28 H       -1.9260     3.5800    -0.5310 H     1 <1>   0.0800 
 29 H       -1.7520     1.8650    -0.3460 H     1 <1>   0.0800 
 30 H        1.2960    -1.4920     1.6330 H     1 <1>   0.1500 
 31 H        3.2660    -4.0260    -1.9610 H     1 <1>   0.1500 
 32 H        1.6000    -3.9250     1.9300 H     1 <1>   0.1500 
@<TRIPOS>BOND
  1   1   2  2   
  2   2   3  1   
  3   2   4  am  
  4   3   5  1   
  5   4   6  1   
  6   4   7  1   
  7   5   8  1   
  8   5   9  1   
  9   5  10  1   
 10   6  19  1   
 11   6  20  1   
 12   7  11  ar  
 13   7  12  ar  
 14   8  21  1   
 15   8  22  1   
 16   8  23  1   
 17   9  24  1   
 18   9  25  1   
 19   9  26  1   
 20  10  27  1   
 21  10  28  1   
 22  10  29  1   
 23  11  13  ar  
 24  12  14  ar  
 25  12  30  1   
 26  13  15  ar  
 27  13  31  1   
 28  14  15  ar  
 29  14  32  1   
 30  15  16  1   
 31  16  17  ar  
 32  16  18  ar  
@<TRIPOS>SUBSTRUCTURE
  1 ****   7 GROUP 4 **** **** 0

# MOE 2024.06 (io_trps.svl 2023.06)
