@<TRIPOS>MOLECULE
NONAME
52 57 1 0 0 
SMALL
USER_CHARGES


@<TRIPOS>ATOM
  1 S       -1.5240     1.0930     0.5840 S.3   1 <1>  -0.0800 
  2 C       -0.1280     1.7310    -0.2600 C.2   1 <1>  -0.1400 
  3 C       -1.0980     2.0100     2.0220 C.2   1 <1>  -0.1100 
  4 C        0.5890     2.5580     0.5130 C.2   1 <1>  -0.1810 
  5 C        0.1920     1.3730    -1.6860 C.3   1 <1>   0.0200 
  6 C        0.0280     2.7240     1.8240 C.2   1 <1>  -0.1500 
  7 C        1.8630     3.2220    -0.0150 C.3   1 <1>   0.4610 
  8 C        1.1860     2.4230    -2.2080 C.3   1 <1>   0.1200 
  9 O        2.2080     2.6660    -1.2710 O.3   1 <1>  -0.5600 
 10 C        3.0470     2.9280     0.9130 C.3   1 <1>  -0.1600 
 11 C        1.6670     4.7390    -0.1710 C.3   1 <1>  -0.1600 
 12 C        4.3140     3.6570     0.4630 C.3   1 <1>   0.1400 
 13 C        2.9590     5.4280    -0.6100 C.3   1 <1>   0.1400 
 14 N        4.0300     5.1160     0.3760 N.am  1 <1>  -0.6600 
 15 C        4.8030     6.0340     1.0460 C.2   1 <1>   0.5690 
 16 O        5.6870     5.6740     1.7890 O.2   1 <1>  -0.5700 
 17 C        4.5030     7.5280     0.9470 C.3   1 <1>  -0.0190 
 18 C        5.2750     8.3550     1.9890 C.3   1 <1>   0.3380 
 19 C        4.9510     8.2420    -0.3610 C.3   1 <1>  -0.0190 
 20 O        6.4340     8.6080     1.2830 O.3   1 <1>  -0.5600 
 21 C        4.7350     9.7770     2.0240 C.2   1 <1>  -0.2880 
 22 C        5.8030     7.5690    -1.4140 C.2   1 <1>   0.5690 
 23 C        5.9310     9.2820     0.1840 C.3   1 <1>   0.4180 
 24 C        5.1610    10.3600     0.9080 C.2   1 <1>  -0.2880 
 25 O        5.4540     6.5760    -2.0040 O.2   1 <1>  -0.5700 
 26 N        6.9230     8.2890    -1.6970 N.am  1 <1>  -0.6600 
 27 C        7.0340     9.5030    -0.8540 C.3   1 <1>   0.1400 
 28 C        7.9940     7.9070    -2.6460 C.3   1 <1>   0.0600 
 29 H       -1.7450     1.9160     2.8750 H     1 <1>   0.1500 
 30 H        0.6290     0.3920    -1.7280 H     1 <1>   0.0800 
 31 H       -0.6990     1.3840    -2.2860 H     1 <1>   0.0800 
 32 H        0.4910     3.3650     2.5530 H     1 <1>   0.1500 
 33 H        0.6810     3.3500    -2.4120 H     1 <1>   0.0800 
 34 H        1.6480     2.0780    -3.1160 H     1 <1>   0.0800 
 35 H        2.8170     3.2410     1.9140 H     1 <1>   0.0800 
 36 H        3.2230     1.8680     0.9360 H     1 <1>   0.0800 
 37 H        0.8820     4.9410    -0.8720 H     1 <1>   0.0800 
 38 H        1.3640     5.1520     0.7730 H     1 <1>   0.0800 
 39 H        4.6240     3.3010    -0.5060 H     1 <1>   0.0800 
 40 H        5.1120     3.4580     1.1580 H     1 <1>   0.0800 
 41 H        2.7960     6.4860    -0.6960 H     1 <1>   0.0800 
 42 H        3.2620     5.0630    -1.5780 H     1 <1>   0.0800 
 43 H        3.4540     7.6700     1.1230 H     1 <1>   0.0800 
 44 H        5.4940     7.9000     2.9410 H     1 <1>   0.0800 
 45 H        4.1270     8.7260    -0.8500 H     1 <1>   0.0800 
 46 H        4.1340    10.1250     2.8450 H     1 <1>   0.1500 
 47 H        5.0320    11.3460     0.4970 H     1 <1>   0.1500 
 48 H        7.9990     9.5750    -0.3830 H     1 <1>   0.0800 
 49 H        6.8320    10.3750    -1.4490 H     1 <1>   0.0800 
 50 H        8.1170     8.6760    -3.3880 H     1 <1>   0.0800 
 51 H        7.7360     6.9840    -3.1370 H     1 <1>   0.0800 
 52 H        8.9190     7.7700    -2.1130 H     1 <1>   0.0800 
@<TRIPOS>BOND
  1   1   2  1   
  2   1   3  1   
  3   2   4  2   
  4   2   5  1   
  5   3   6  2   
  6   3  29  1   
  7   4   6  1   
  8   4   7  1   
  9   5   8  1   
 10   5  30  1   
 11   5  31  1   
 12   6  32  1   
 13   7   9  1   
 14   7  10  1   
 15   7  11  1   
 16   8   9  1   
 17   8  33  1   
 18   8  34  1   
 19  10  12  1   
 20  10  35  1   
 21  10  36  1   
 22  11  13  1   
 23  11  37  1   
 24  11  38  1   
 25  12  14  1   
 26  12  39  1   
 27  12  40  1   
 28  13  14  1   
 29  13  41  1   
 30  13  42  1   
 31  14  15  am  
 32  15  16  2   
 33  15  17  1   
 34  17  18  1   
 35  17  19  1   
 36  17  43  1   
 37  18  20  1   
 38  18  21  1   
 39  18  44  1   
 40  19  22  1   
 41  19  23  1   
 42  19  45  1   
 43  20  23  1   
 44  21  24  2   
 45  21  46  1   
 46  22  25  2   
 47  22  26  am  
 48  23  24  1   
 49  23  27  1   
 50  24  47  1   
 51  26  27  1   
 52  26  28  1   
 53  27  48  1   
 54  27  49  1   
 55  28  50  1   
 56  28  51  1   
 57  28  52  1   
@<TRIPOS>SUBSTRUCTURE
  1 ****  14 GROUP 4 **** **** 0

# MOE 2024.06 (io_trps.svl 2023.06)
