@<TRIPOS>MOLECULE
NONAME
32 32 1 0 0 
SMALL
USER_CHARGES


@<TRIPOS>ATOM
  1 O       -0.8630    -0.5770    -0.4190 O.2   1 <1>  -0.5700 
  2 C       -1.7100     0.2810    -0.3270 C.2   1 <1>   0.5690 
  3 N       -2.7950     0.1270     0.5110 N.am  1 <1>  -0.6600 
  4 C       -1.4680     1.5190    -1.1590 C.3   1 <1>  -0.1790 
  5 C       -4.0420     0.9710     0.5910 C.3   1 <1>   0.2200 
  6 C       -2.8530    -1.0640     1.4140 C.3   1 <1>   0.0600 
  7 C       -5.0540     0.6620    -0.5500 C.3   1 <1>   0.3440 
  8 C       -3.7330     2.4570     0.8310 C.3   1 <1>  -0.2400 
  9 O       -4.7340     1.2930    -1.7440 O.3   1 <1>  -0.6800 
 10 C       -6.4830     1.0550    -0.1830 C.ar  1 <1>  -0.1440 
 11 C       -6.9380     2.3620    -0.3100 C.ar  1 <1>  -0.1500 
 12 C       -7.3550     0.0850     0.2930 C.ar  1 <1>  -0.1500 
 13 C       -8.2380     2.6920     0.0330 C.ar  1 <1>  -0.1500 
 14 C       -8.6550     0.4140     0.6370 C.ar  1 <1>  -0.1500 
 15 C       -9.0970     1.7180     0.5070 C.ar  1 <1>  -0.1500 
 16 H       -2.3020     1.7260    -1.7950 H     1 <1>   0.0800 
 17 H       -0.6070     1.3690    -1.7830 H     1 <1>   0.0800 
 18 H       -1.2730     2.3560    -0.5180 H     1 <1>   0.0800 
 19 H       -4.5480     0.6580     1.4880 H     1 <1>   0.0800 
 20 H       -3.0350    -0.7470     2.4260 H     1 <1>   0.0800 
 21 H       -1.9280    -1.6140     1.4010 H     1 <1>   0.0800 
 22 H       -3.6440    -1.7220     1.0990 H     1 <1>   0.0800 
 23 H       -5.0290    -0.3960    -0.7430 H     1 <1>   0.0800 
 24 H       -3.4840     2.9600    -0.0830 H     1 <1>   0.0800 
 25 H       -2.9290     2.5610     1.5370 H     1 <1>   0.0800 
 26 H       -4.6010     2.9410     1.2390 H     1 <1>   0.0800 
 27 H       -5.4930     1.2020    -2.3510 H     1 <1>   0.4000 
 28 H       -6.2800     3.1310    -0.6780 H     1 <1>   0.1500 
 29 H       -7.0300    -0.9350     0.4000 H     1 <1>   0.1500 
 30 H       -8.5790     3.7080    -0.0690 H     1 <1>   0.1500 
 31 H       -9.3240    -0.3440     1.0050 H     1 <1>   0.1500 
 32 H      -10.1080     1.9750     0.7740 H     1 <1>   0.1500 
@<TRIPOS>BOND
  1   1   2  2   
  2   2   3  am  
  3   2   4  1   
  4   3   5  1   
  5   3   6  1   
  6   4  16  1   
  7   4  17  1   
  8   4  18  1   
  9   5   7  1   
 10   5   8  1   
 11   5  19  1   
 12   6  20  1   
 13   6  21  1   
 14   6  22  1   
 15   7   9  1   
 16   7  10  1   
 17   7  23  1   
 18   8  24  1   
 19   8  25  1   
 20   8  26  1   
 21   9  27  1   
 22  10  11  ar  
 23  10  12  ar  
 24  11  13  ar  
 25  11  28  1   
 26  12  14  ar  
 27  12  29  1   
 28  13  15  ar  
 29  13  30  1   
 30  14  15  ar  
 31  14  31  1   
 32  15  32  1   
@<TRIPOS>SUBSTRUCTURE
  1 ****   7 GROUP 4 **** **** 0

# MOE 2024.06 (io_trps.svl 2023.06)
