@<TRIPOS>MOLECULE
NONAME
49 52 1 0 0 
SMALL
USER_CHARGES


@<TRIPOS>ATOM
  1 S       -1.1690     0.5970     0.7410 S.o2  1 <1>   1.0900 
  2 O        0.1330     0.3030     1.2940 O.2   1 <1>  -0.6500 
  3 O       -1.8630     1.8280     1.0320 O.2   1 <1>  -0.6500 
  4 C       -2.2070    -0.8000     1.0590 C.3   1 <1>  -0.0550 
  5 C       -1.0920     0.3180    -1.0220 C.3   1 <1>  -0.0550 
  6 C       -1.7580    -1.8390     0.0350 C.3   1 <1>   0.1760 
  7 C       -1.5960    -1.1070    -1.3140 C.3   1 <1>  -0.1600 
  8 N       -2.7240    -2.9630    -0.0570 N.pl3 1 <1>   0.3140 
  9 N       -4.0340    -2.7340    -0.2600 N.2   1 <1>  -0.7070 
 10 C       -2.4640    -4.2930     0.0440 C.2   1 <1>  -0.3320 
 11 C       -4.5840    -3.9070    -0.2750 C.2   1 <1>   0.1080 
 12 C       -3.6490    -4.9290    -0.0890 C.2   1 <1>   0.0630 
 13 C       -1.0790    -4.8840     0.2760 C.3   1 <1>  -0.0600 
 14 C       -6.0720    -4.0780    -0.4900 C.3   1 <1>  -0.0590 
 15 N       -3.8470    -6.3320    -0.0640 N.am  1 <1>  -0.4930 
 16 C       -4.7930    -7.0640     0.5930 C.2   1 <1>   0.7150 
 17 O       -5.6060    -6.5110     1.3080 O.2   1 <1>  -0.5700 
 18 C       -4.7890    -8.4900     0.4260 C.2   1 <1>  -0.2370 
 19 N       -5.4520    -9.3740     1.2180 N.pl3 1 <1>   0.3140 
 20 C       -4.1640    -9.2610    -0.5060 C.2   1 <1>  -0.1500 
 21 N       -5.2630   -10.6400     0.8350 N.2   1 <1>  -0.7070 
 22 C       -6.2930    -9.0860     2.3940 C.3   1 <1>   0.0160 
 23 C       -4.4830   -10.5830    -0.2160 C.2   1 <1>   0.2880 
 24 C       -4.0210   -11.7250    -0.9670 C.2   1 <1>   0.0410 
 25 S       -4.4730   -13.3490    -0.4350 S.3   1 <1>  -0.0800 
 26 C       -3.2530   -11.8340    -2.0810 C.2   1 <1>  -0.1500 
 27 C       -3.5970   -14.1050    -1.7520 C.2   1 <1>  -0.1100 
 28 C       -3.0140   -13.1700    -2.5230 C.2   1 <1>  -0.1500 
 29 H       -3.2330    -0.5340     0.8850 H     1 <1>   0.0800 
 30 H       -2.0900    -1.1590     2.0630 H     1 <1>   0.0800 
 31 H       -0.0810     0.4380    -1.3660 H     1 <1>   0.0800 
 32 H       -1.7110     1.0290    -1.5360 H     1 <1>   0.0800 
 33 H       -0.8020    -2.2220     0.3410 H     1 <1>   0.0800 
 34 H       -0.9140    -1.6350    -1.9570 H     1 <1>   0.0800 
 35 H       -2.5530    -1.0380    -1.8050 H     1 <1>   0.0800 
 36 H       -0.4200    -4.6200    -0.5310 H     1 <1>   0.0800 
 37 H       -1.1290    -5.9560     0.3370 H     1 <1>   0.0800 
 38 H       -0.6690    -4.5170     1.2000 H     1 <1>   0.0800 
 39 H       -6.4550    -3.2550    -1.0650 H     1 <1>   0.0800 
 40 H       -6.5700    -4.1000     0.4620 H     1 <1>   0.0800 
 41 H       -6.2720    -4.9930    -1.0150 H     1 <1>   0.0800 
 42 H       -3.1060    -6.8750    -0.4940 H     1 <1>   0.3700 
 43 H       -3.5440    -8.9520    -1.3250 H     1 <1>   0.1500 
 44 H       -5.7260    -8.5150     3.1060 H     1 <1>   0.0800 
 45 H       -6.6070   -10.0100     2.8410 H     1 <1>   0.0800 
 46 H       -7.1540    -8.5260     2.0830 H     1 <1>   0.0800 
 47 H       -2.8380   -11.0030    -2.6210 H     1 <1>   0.1500 
 48 H       -3.6140   -15.1790    -1.8070 H     1 <1>   0.1500 
 49 H       -2.4180   -13.3690    -3.3970 H     1 <1>   0.1500 
@<TRIPOS>BOND
  1   1   2  2   
  2   1   3  2   
  3   1   4  1   
  4   1   5  1   
  5   4   6  1   
  6   4  29  1   
  7   4  30  1   
  8   5   7  1   
  9   5  31  1   
 10   5  32  1   
 11   6   7  1   
 12   6   8  1   
 13   6  33  1   
 14   7  34  1   
 15   7  35  1   
 16   8   9  1   
 17   8  10  1   
 18   9  11  2   
 19  10  12  2   
 20  10  13  1   
 21  11  12  1   
 22  11  14  1   
 23  12  15  1   
 24  13  36  1   
 25  13  37  1   
 26  13  38  1   
 27  14  39  1   
 28  14  40  1   
 29  14  41  1   
 30  15  16  am  
 31  15  42  1   
 32  16  17  2   
 33  16  18  1   
 34  18  19  1   
 35  18  20  2   
 36  19  21  1   
 37  19  22  1   
 38  20  23  1   
 39  20  43  1   
 40  21  23  2   
 41  22  44  1   
 42  22  45  1   
 43  22  46  1   
 44  23  24  1   
 45  24  25  1   
 46  24  26  2   
 47  25  27  1   
 48  26  28  1   
 49  26  47  1   
 50  27  28  2   
 51  27  48  1   
 52  28  49  1   
@<TRIPOS>SUBSTRUCTURE
  1 ****  15 GROUP 4 **** **** 0

# MOE 2024.06 (io_trps.svl 2023.06)
