@<TRIPOS>MOLECULE
NONAME
45 47 1 0 0 
SMALL
USER_CHARGES


@<TRIPOS>ATOM
  1 O       -1.0020    -0.2910    -1.4150 O.2   1 <1>  -0.5700 
  2 C       -2.1510    -0.1410    -1.0330 C.2   1 <1>   0.7150 
  3 N       -3.0330    -1.1960    -1.2140 N.am  1 <1>  -0.6600 
  4 C       -2.5060     1.1310    -0.4270 C.2   1 <1>   0.0550 
  5 C       -4.5170    -1.0340    -1.1970 C.3   1 <1>   0.1400 
  6 C       -2.5220    -2.5390    -1.6170 C.3   1 <1>   0.1400 
  7 O       -3.6050     1.3180     0.3040 O.3   1 <1>  -0.2800 
  8 C       -1.8190     2.3090    -0.4580 C.2   1 <1>  -0.1500 
  9 C       -5.1110    -1.4320     0.1650 C.3   1 <1>   0.1100 
 10 C       -3.3460    -3.7100    -1.0650 C.3   1 <1>  -0.1600 
 11 C       -3.6360     2.5620     0.7250 C.2   1 <1>  -0.0100 
 12 C       -2.5520     3.2340     0.2850 C.2   1 <1>  -0.1500 
 13 N       -5.1640    -2.8920     0.3820 N.3   1 <1>  -0.8100 
 14 C       -3.8260    -3.5170     0.3760 C.3   1 <1>   0.1100 
 15 C       -5.8900    -3.2000     1.6530 C.3   1 <1>   0.1710 
 16 C       -6.4180    -4.6350     1.7300 C.2   1 <1>   0.5690 
 17 O       -6.7330    -5.0920     2.8050 O.2   1 <1>  -0.5700 
 18 N       -6.4970    -5.3180     0.5610 N.am  1 <1>  -0.4930 
 19 C       -6.8580    -6.6270     0.2790 C.2   1 <1>   0.3520 
 20 N       -6.7190    -7.0810    -0.9260 N.2   1 <1>  -0.7070 
 21 C       -7.3770    -7.5810     1.1490 C.2   1 <1>  -0.1500 
 22 N       -7.1520    -8.3560    -0.8590 N.pl3 1 <1>   0.3140 
 23 C       -7.5540    -8.6790     0.3860 C.2   1 <1>  -0.3020 
 24 C       -7.1580    -9.2240    -2.0420 C.3   1 <1>   0.0160 
 25 H       -4.9650    -1.6270    -1.9740 H     1 <1>   0.0800 
 26 H       -4.7660    -0.0090    -1.4040 H     1 <1>   0.0800 
 27 H       -1.5120    -2.6480    -1.2580 H     1 <1>   0.0800 
 28 H       -2.4910    -2.5950    -2.6920 H     1 <1>   0.0800 
 29 H       -0.8840     2.4990    -0.9560 H     1 <1>   0.1500 
 30 H       -6.1150    -1.0470     0.1990 H     1 <1>   0.0800 
 31 H       -4.5520    -0.9610     0.9560 H     1 <1>   0.0800 
 32 H       -2.7190    -4.5820    -1.0980 H     1 <1>   0.0800 
 33 H       -4.1850    -3.9120    -1.7070 H     1 <1>   0.0800 
 34 H       -4.4600     2.8900     1.3340 H     1 <1>   0.1500 
 35 H       -2.2820     4.2610     0.4540 H     1 <1>   0.1500 
 36 H       -3.1240    -2.9280     0.9450 H     1 <1>   0.0800 
 37 H       -3.8820    -4.4910     0.8340 H     1 <1>   0.0800 
 38 H       -6.7440    -2.5540     1.7440 H     1 <1>   0.0800 
 39 H       -5.2470    -3.0180     2.4960 H     1 <1>   0.0800 
 40 H       -6.1490    -4.8040    -0.2490 H     1 <1>   0.3700 
 41 H       -7.5770    -7.4330     2.1950 H     1 <1>   0.1500 
 42 H       -7.9350    -9.6470     0.6550 H     1 <1>   0.1500 
 43 H       -6.2080    -9.1460    -2.5350 H     1 <1>   0.0800 
 44 H       -7.9370    -8.8990    -2.7070 H     1 <1>   0.0800 
 45 H       -7.3310   -10.2400    -1.7430 H     1 <1>   0.0800 
@<TRIPOS>BOND
  1   1   2  2   
  2   2   3  am  
  3   2   4  1   
  4   3   5  1   
  5   3   6  1   
  6   4   7  1   
  7   4   8  2   
  8   5   9  1   
  9   5  25  1   
 10   5  26  1   
 11   6  10  1   
 12   6  27  1   
 13   6  28  1   
 14   7  11  1   
 15   8  12  1   
 16   8  29  1   
 17   9  13  1   
 18   9  30  1   
 19   9  31  1   
 20  10  14  1   
 21  10  32  1   
 22  10  33  1   
 23  11  12  2   
 24  11  34  1   
 25  12  35  1   
 26  13  14  1   
 27  13  15  1   
 28  14  36  1   
 29  14  37  1   
 30  15  16  1   
 31  15  38  1   
 32  15  39  1   
 33  16  17  2   
 34  16  18  am  
 35  18  19  1   
 36  18  40  1   
 37  19  20  2   
 38  19  21  1   
 39  20  22  1   
 40  21  23  2   
 41  21  41  1   
 42  22  23  1   
 43  22  24  1   
 44  23  42  1   
 45  24  43  1   
 46  24  44  1   
 47  24  45  1   
@<TRIPOS>SUBSTRUCTURE
  1 ****  13 GROUP 4 **** **** 0

# MOE 2024.06 (io_trps.svl 2023.06)
