@<TRIPOS>MOLECULE
NONAME
46 47 1 0 0 
SMALL
USER_CHARGES


@<TRIPOS>ATOM
  1 S       -0.3020    -0.1790     1.4690 S.o2  1 <1>   1.4470 
  2 O       -0.1650    -1.6180     1.4110 O.2   1 <1>  -0.6500 
  3 O       -0.6060     0.4600     2.7330 O.2   1 <1>  -0.6500 
  4 N       -1.4910     0.2980     0.3560 N.am  1 <1>  -0.8490 
  5 C        1.2000     0.5910     0.8020 C.ar  1 <1>  -0.0090 
  6 C       -1.3650    -0.3330    -0.9750 C.3   1 <1>   0.1960 
  7 C       -2.8710     0.3250     0.8910 C.3   1 <1>   0.1960 
  8 C        1.2250     1.9420     0.4790 C.ar  1 <1>  -0.1500 
  9 C        2.3600    -0.1420     0.6010 C.ar  1 <1>  -0.1500 
 10 C       -1.9830    -1.7480    -1.0940 C.3   1 <1>   0.2000 
 11 C       -3.8380    -0.6510     0.2010 C.3   1 <1>  -0.1600 
 12 C        2.3550     2.5660    -0.0330 C.ar  1 <1>  -0.1440 
 13 C        3.5010     0.4510     0.0940 C.ar  1 <1>  -0.1500 
 14 O       -2.4430    -1.8600    -2.3930 O.3   1 <1>  -0.6800 
 15 C       -3.1420    -1.9880    -0.1030 C.3   1 <1>  -0.1860 
 16 C        3.5110     1.8060    -0.2280 C.ar  1 <1>   0.0820 
 17 C        2.2530     4.0650    -0.3530 C.3   1 <1>   0.0630 
 18 C       -4.1260    -3.0940    -0.4670 C.2   1 <1>   0.9060 
 19 O        4.6190     2.4120    -0.7280 O.3   1 <1>  -0.3630 
 20 C        2.4410     4.3490    -1.8470 C.3   1 <1>  -0.2400 
 21 C        3.2090     4.9040     0.5030 C.3   1 <1>  -0.2400 
 22 O       -4.8550    -3.5320     0.4270 O.co2 1 <1>  -0.9000 
 23 O       -4.1940    -3.5180    -1.6300 O.co2 1 <1>  -0.9000 
 24 C        5.8320     1.7250    -0.9360 C.3   1 <1>   0.0400 
 25 H       -1.8720     0.3080    -1.6760 H     1 <1>   0.0800 
 26 H       -0.3320    -0.3760    -1.2720 H     1 <1>   0.0800 
 27 H       -2.8620     0.0870     1.9410 H     1 <1>   0.0800 
 28 H       -3.2580     1.3240     0.7970 H     1 <1>   0.0800 
 29 H        0.3240     2.5090     0.6390 H     1 <1>   0.1500 
 30 H        2.3690    -1.1920     0.8450 H     1 <1>   0.1500 
 31 H       -1.2310    -2.5070    -0.9570 H     1 <1>   0.0800 
 32 H       -4.6830    -0.8220     0.8460 H     1 <1>   0.0800 
 33 H       -4.2120    -0.2220    -0.7130 H     1 <1>   0.0800 
 34 H        4.3710    -0.1610    -0.0420 H     1 <1>   0.1500 
 35 H       -3.1620    -2.5720    -2.3640 H     1 <1>   0.4000 
 36 H       -2.6970    -2.3180     0.8160 H     1 <1>   0.0800 
 37 H        1.2580     4.3920    -0.1040 H     1 <1>   0.0800 
 38 H        3.4450     4.1310    -2.1590 H     1 <1>   0.0800 
 39 H        2.2370     5.3840    -2.0570 H     1 <1>   0.0800 
 40 H        1.7650     3.7420    -2.4230 H     1 <1>   0.0800 
 41 H        4.2330     4.7050     0.2490 H     1 <1>   0.0800 
 42 H        3.0640     4.6750     1.5440 H     1 <1>   0.0800 
 43 H        3.0190     5.9510     0.3520 H     1 <1>   0.0800 
 44 H        6.5480     2.4240    -1.3290 H     1 <1>   0.0800 
 45 H        5.6680     0.9330    -1.6450 H     1 <1>   0.0800 
 46 H        6.1800     1.3370     0.0050 H     1 <1>   0.0800 
@<TRIPOS>BOND
  1   1   2  2   
  2   1   3  2   
  3   1   4  am  
  4   1   5  1   
  5   4   6  1   
  6   4   7  1   
  7   5   8  ar  
  8   5   9  ar  
  9   6  10  1   
 10   6  25  1   
 11   6  26  1   
 12   7  11  1   
 13   7  27  1   
 14   7  28  1   
 15   8  12  ar  
 16   8  29  1   
 17   9  13  ar  
 18   9  30  1   
 19  10  14  1   
 20  10  15  1   
 21  10  31  1   
 22  11  15  1   
 23  11  32  1   
 24  11  33  1   
 25  12  16  ar  
 26  12  17  1   
 27  13  16  ar  
 28  13  34  1   
 29  14  35  1   
 30  15  18  1   
 31  15  36  1   
 32  16  19  1   
 33  17  20  1   
 34  17  21  1   
 35  17  37  1   
 36  18  22  ar  
 37  18  23  ar  
 38  19  24  1   
 39  20  38  1   
 40  20  39  1   
 41  20  40  1   
 42  21  41  1   
 43  21  42  1   
 44  21  43  1   
 45  24  44  1   
 46  24  45  1   
 47  24  46  1   
@<TRIPOS>SUBSTRUCTURE
  1 ****   5 GROUP 4 **** **** 0

# MOE 2024.06 (io_trps.svl 2023.06)
