@<TRIPOS>MOLECULE
NONAME
66 70 1 0 0 
SMALL
USER_CHARGES


@<TRIPOS>ATOM
  1 O        1.8010     0.3950    -0.8200 O.3   1 <1>  -0.5600 
  2 C        1.8750    -0.6790     0.0360 C.3   1 <1>   0.2800 
  3 C        0.5690     0.9040    -0.4920 C.3   1 <1>   0.2000 
  4 C        1.7050     0.0150     1.3810 C.3   1 <1>  -0.0800 
  5 C        3.2640    -1.3120     0.0170 C.3   1 <1>   0.3430 
  6 C        0.6330    -1.4740    -0.3600 C.3   1 <1>  -0.1600 
  7 C        0.8080     1.2300     0.9910 C.3   1 <1>  -0.0800 
  8 C       -0.3310    -0.3280    -0.6770 C.3   1 <1>  -0.1600 
  9 C        3.1500     0.2230     1.8860 C.3   1 <1>   0.3430 
 10 N        4.1040    -0.5050     0.9680 N.4   1 <1>  -0.9590 
 11 C        1.4950     2.5960     1.1880 C.3   1 <1>   0.3430 
 12 C        5.1320     0.3330     0.2390 C.3   1 <1>   0.4860 
 13 N        0.6060     3.7890     1.0560 N.4   1 <1>  -0.9590 
 14 C        4.7330     1.7860     0.0560 C.ar  1 <1>  -0.1430 
 15 C        0.5220     4.2810    -0.3570 C.3   1 <1>   0.3430 
 16 C        1.1660     4.8800     1.9120 C.3   1 <1>   0.3430 
 17 C        4.0990     2.2380    -1.0790 C.ar  1 <1>   0.1600 
 18 C        4.9990     2.7240     1.0280 C.ar  1 <1>   0.1600 
 19 C       -0.4100     5.4880    -0.4440 C.3   1 <1>  -0.1600 
 20 C        0.2400     6.0960     1.8990 C.3   1 <1>  -0.1600 
 21 N        3.7320     3.4890    -1.2170 N.ar  1 <1>  -0.6200 
 22 N        4.6140     3.9690     0.9200 N.ar  1 <1>  -0.6200 
 23 C        0.0470     6.6350     0.4740 C.3   1 <1>  -0.0800 
 24 C        4.0330     4.3230    -0.2250 C.ar  1 <1>   0.7200 
 25 C       -0.9510     7.8050     0.4710 C.3   1 <1>   0.1200 
 26 N        3.6570     5.6450    -0.3680 N.pl3 1 <1>  -0.8380 
 27 O       -1.0930     8.2850    -0.8180 O.3   1 <1>  -0.6800 
 28 C        4.2490     6.6800     0.5380 C.3   1 <1>   0.1290 
 29 C        3.4000     6.1850    -1.7410 C.3   1 <1>   0.1290 
 30 H        0.3070     1.7160    -1.1410 H     1 <1>   0.0800 
 31 H        1.1920    -0.6300     2.0730 H     1 <1>   0.0800 
 32 H        3.6620    -1.3230    -0.9850 H     1 <1>   0.0800 
 33 H        3.1850    -2.3250     0.3760 H     1 <1>   0.0800 
 34 H        0.8260    -2.0640    -1.2400 H     1 <1>   0.0800 
 35 H        0.2760    -2.1110     0.4300 H     1 <1>   0.0800 
 36 H       -0.1150     1.2100     1.5440 H     1 <1>   0.0800 
 37 H       -1.1850    -0.3070    -0.0230 H     1 <1>   0.0800 
 38 H       -0.6720    -0.3870    -1.6970 H     1 <1>   0.0800 
 39 H        3.2310    -0.1830     2.8820 H     1 <1>   0.0800 
 40 H        3.3870     1.2670     1.9450 H     1 <1>   0.0800 
 41 H        4.6360    -1.1830     1.5330 H     1 <1>   0.4500 
 42 H        2.3060     2.6820     0.4920 H     1 <1>   0.0800 
 43 H        1.9180     2.6080     2.1780 H     1 <1>   0.0800 
 44 H        6.0550     0.3140     0.7960 H     1 <1>   0.0800 
 45 H        5.3390    -0.1020    -0.7260 H     1 <1>   0.0800 
 46 H       -0.3440     3.5830     1.3870 H     1 <1>   0.4500 
 47 H        1.5020     4.5620    -0.7050 H     1 <1>   0.0800 
 48 H        0.1430     3.5180    -1.0080 H     1 <1>   0.0800 
 49 H        1.2790     4.5330     2.9260 H     1 <1>   0.0800 
 50 H        2.1380     5.1670     1.5430 H     1 <1>   0.0800 
 51 H        3.8730     1.5630    -1.8900 H     1 <1>   0.1500 
 52 H        5.5280     2.4510     1.9270 H     1 <1>   0.1500 
 53 H       -0.4250     5.8300    -1.4640 H     1 <1>   0.0800 
 54 H       -1.4130     5.1870    -0.1960 H     1 <1>   0.0800 
 55 H       -0.7070     5.8300     2.3330 H     1 <1>   0.0800 
 56 H        0.6750     6.8650     2.5140 H     1 <1>   0.0800 
 57 H        0.9980     7.0030     0.1250 H     1 <1>   0.0800 
 58 H       -0.6170     8.6140     1.0990 H     1 <1>   0.0800 
 59 H       -1.9220     7.4800     0.8050 H     1 <1>   0.0800 
 60 H       -0.3230     8.8260    -1.0810 H     1 <1>   0.4000 
 61 H        3.7470     7.6230     0.4120 H     1 <1>   0.0800 
 62 H        5.2940     6.8070     0.3090 H     1 <1>   0.0800 
 63 H        4.1550     6.3830     1.5680 H     1 <1>   0.0800 
 64 H        2.9710     7.1700    -1.6850 H     1 <1>   0.0800 
 65 H        2.7180     5.5520    -2.2820 H     1 <1>   0.0800 
 66 H        4.3260     6.2390    -2.2890 H     1 <1>   0.0800 
@<TRIPOS>BOND
  1   1   2  1   
  2   1   3  1   
  3   2   4  1   
  4   2   5  1   
  5   2   6  1   
  6   3   7  1   
  7   3   8  1   
  8   3  30  1   
  9   4   7  1   
 10   4   9  1   
 11   4  31  1   
 12   5  10  1   
 13   5  32  1   
 14   5  33  1   
 15   6   8  1   
 16   6  34  1   
 17   6  35  1   
 18   7  11  1   
 19   7  36  1   
 20   8  37  1   
 21   8  38  1   
 22   9  10  1   
 23   9  39  1   
 24   9  40  1   
 25  10  12  1   
 26  10  41  1   
 27  11  13  1   
 28  11  42  1   
 29  11  43  1   
 30  12  14  1   
 31  12  44  1   
 32  12  45  1   
 33  13  15  1   
 34  13  16  1   
 35  13  46  1   
 36  14  17  ar  
 37  14  18  ar  
 38  15  19  1   
 39  15  47  1   
 40  15  48  1   
 41  16  20  1   
 42  16  49  1   
 43  16  50  1   
 44  17  21  ar  
 45  17  51  1   
 46  18  22  ar  
 47  18  52  1   
 48  19  23  1   
 49  19  53  1   
 50  19  54  1   
 51  20  23  1   
 52  20  55  1   
 53  20  56  1   
 54  21  24  ar  
 55  22  24  ar  
 56  23  25  1   
 57  23  57  1   
 58  24  26  1   
 59  25  27  1   
 60  25  58  1   
 61  25  59  1   
 62  26  28  1   
 63  26  29  1   
 64  27  60  1   
 65  28  61  1   
 66  28  62  1   
 67  28  63  1   
 68  29  64  1   
 69  29  65  1   
 70  29  66  1   
@<TRIPOS>SUBSTRUCTURE
  1 ****  11 GROUP 4 **** **** 0

# MOE 2024.06 (io_trps.svl 2023.06)
