@<TRIPOS>MOLECULE
NONAME
55 57 1 0 0 
SMALL
USER_CHARGES


@<TRIPOS>ATOM
  1 O       -0.0290     0.2310     1.0870 O.3   1 <1>  -0.6800 
  2 C        0.4640    -0.5490     0.0490 C.3   1 <1>   0.2000 
  3 C        1.2870    -1.6800     0.6560 C.3   1 <1>  -0.0800 
  4 C        1.5140     0.2860    -0.7010 C.3   1 <1>   0.3430 
  5 C        2.5330    -0.9090     1.0950 C.3   1 <1>   0.3430 
  6 C        1.5610    -2.7950    -0.3930 C.3   1 <1>  -0.0160 
  7 N        2.8450    -0.0070    -0.0530 N.4   1 <1>  -0.9590 
  8 C        3.0000    -3.2980    -0.4500 C.ar  1 <1>   0.1670 
  9 C        3.6320     1.2060     0.3810 C.3   1 <1>   0.3430 
 10 N        3.8790    -2.5200    -1.0760 N.ar  1 <1>  -0.6200 
 11 C        3.3250    -4.5250     0.1260 C.ar  1 <1>   0.1600 
 12 C        4.4840     1.9370    -0.7230 C.3   1 <1>   0.5030 
 13 C        5.0820    -3.0820    -1.1220 C.ar  1 <1>   0.1600 
 14 N        4.5320    -5.0560     0.1110 N.ar  1 <1>  -0.6200 
 15 N        5.2910     3.0810    -0.1680 N.4   1 <1>  -0.9590 
 16 C        3.5930     2.5030    -1.8400 C.3   1 <1>  -0.2400 
 17 C        5.4590     0.9440    -1.3750 C.3   1 <1>  -0.2400 
 18 C        5.3980    -4.3070    -0.5450 C.ar  1 <1>   0.1600 
 19 C        6.3660     2.6920     0.8100 C.3   1 <1>   0.3430 
 20 C        4.4760     4.2220     0.3810 C.3   1 <1>   0.3430 
 21 C        7.2970     3.8780     1.0670 C.3   1 <1>  -0.1600 
 22 C        5.3730     5.4350     0.6300 C.3   1 <1>  -0.1600 
 23 C        6.5310     5.1030     1.5760 C.3   1 <1>  -0.1600 
 24 H       -0.8520    -0.1520     1.4650 H     1 <1>   0.4000 
 25 H       -0.3560    -0.8630    -0.5760 H     1 <1>   0.0800 
 26 H        0.7990    -2.1140     1.5120 H     1 <1>   0.0800 
 27 H        1.2550     1.3290    -0.6420 H     1 <1>   0.0800 
 28 H        1.5440    -0.0170    -1.7350 H     1 <1>   0.0800 
 29 H        3.3560    -1.5660     1.3250 H     1 <1>   0.0800 
 30 H        2.2880    -0.3230     1.9670 H     1 <1>   0.0800 
 31 H        1.3090    -2.4580    -1.3840 H     1 <1>   0.0800 
 32 H        0.9030    -3.6240    -0.1910 H     1 <1>   0.0800 
 33 H        3.3900    -0.6240    -0.6950 H     1 <1>   0.4500 
 34 H        2.9500     1.9140     0.8200 H     1 <1>   0.0800 
 35 H        4.3160     0.8940     1.1510 H     1 <1>   0.0800 
 36 H        2.5570    -5.0970     0.6190 H     1 <1>   0.1500 
 37 H        5.8630    -2.5570    -1.6420 H     1 <1>   0.1500 
 38 H        5.7950     3.4780    -0.9730 H     1 <1>   0.4500 
 39 H        3.1680     1.7090    -2.4270 H     1 <1>   0.0800 
 40 H        4.1660     3.1170    -2.5140 H     1 <1>   0.0800 
 41 H        2.7760     3.0800    -1.4470 H     1 <1>   0.0800 
 42 H        4.9230     0.2140    -1.9560 H     1 <1>   0.0800 
 43 H        6.0280     0.4010    -0.6420 H     1 <1>   0.0800 
 44 H        6.1330     1.4490    -2.0450 H     1 <1>   0.0800 
 45 H        6.4040    -4.6810    -0.6300 H     1 <1>   0.1500 
 46 H        5.9240     2.3800     1.7430 H     1 <1>   0.0800 
 47 H        6.9570     1.8780     0.4230 H     1 <1>   0.0800 
 48 H        3.7060     4.5100    -0.3150 H     1 <1>   0.0800 
 49 H        4.0080     3.9320     1.3070 H     1 <1>   0.0800 
 50 H        8.0340     3.5940     1.7990 H     1 <1>   0.0800 
 51 H        7.8260     4.1240     0.1620 H     1 <1>   0.0800 
 52 H        5.7560     5.7990    -0.3080 H     1 <1>   0.0800 
 53 H        4.7820     6.2270     1.0600 H     1 <1>   0.0800 
 54 H        7.1990     5.9480     1.6480 H     1 <1>   0.0800 
 55 H        6.1480     4.9070     2.5640 H     1 <1>   0.0800 
@<TRIPOS>BOND
  1   1   2  1   
  2   1  24  1   
  3   2   3  1   
  4   2   4  1   
  5   2  25  1   
  6   3   5  1   
  7   3   6  1   
  8   3  26  1   
  9   4   7  1   
 10   4  27  1   
 11   4  28  1   
 12   5   7  1   
 13   5  29  1   
 14   5  30  1   
 15   6   8  1   
 16   6  31  1   
 17   6  32  1   
 18   7   9  1   
 19   7  33  1   
 20   8  10  ar  
 21   8  11  ar  
 22   9  12  1   
 23   9  34  1   
 24   9  35  1   
 25  10  13  ar  
 26  11  14  ar  
 27  11  36  1   
 28  12  15  1   
 29  12  16  1   
 30  12  17  1   
 31  13  18  ar  
 32  13  37  1   
 33  14  18  ar  
 34  15  19  1   
 35  15  20  1   
 36  15  38  1   
 37  16  39  1   
 38  16  40  1   
 39  16  41  1   
 40  17  42  1   
 41  17  43  1   
 42  17  44  1   
 43  18  45  1   
 44  19  21  1   
 45  19  46  1   
 46  19  47  1   
 47  20  22  1   
 48  20  48  1   
 49  20  49  1   
 50  21  23  1   
 51  21  50  1   
 52  21  51  1   
 53  22  23  1   
 54  22  52  1   
 55  22  53  1   
 56  23  54  1   
 57  23  55  1   
@<TRIPOS>SUBSTRUCTURE
  1 ****   7 GROUP 4 **** **** 0

# MOE 2024.06 (io_trps.svl 2023.06)
