@<TRIPOS>MOLECULE
NONAME
47 49 1 0 0 
SMALL
USER_CHARGES


@<TRIPOS>ATOM
  1 S        0.5080     0.7520    -0.8330 S.o2  1 <1>   1.4470 
  2 O        0.9670     0.4700    -2.1750 O.2   1 <1>  -0.6500 
  3 O        0.2460     2.1370    -0.4990 O.2   1 <1>  -0.6500 
  4 N        1.7560     0.2700     0.2150 N.am  1 <1>  -0.8490 
  5 C       -0.8800    -0.3170    -0.3700 C.ar  1 <1>  -0.0090 
  6 C        2.0650     1.1370     1.3860 C.3   1 <1>   0.1960 
  7 C        2.9040    -0.4350    -0.3770 C.3   1 <1>   0.1960 
  8 C       -0.9910    -1.6060    -0.8810 C.ar  1 <1>  -0.1500 
  9 C       -1.8510     0.1120     0.5280 C.ar  1 <1>  -0.1500 
 10 C        3.0500     2.3180     1.1200 C.3   1 <1>   0.4230 
 11 C        4.0580     0.4640    -0.8860 C.3   1 <1>  -0.0800 
 12 C       -2.0320    -2.4410    -0.5120 C.ar  1 <1>  -0.1500 
 13 C       -2.8940    -0.7150     0.9030 C.ar  1 <1>  -0.1500 
 14 N        2.9750     2.7460    -0.3300 N.4   1 <1>  -0.9590 
 15 C        4.4640     1.9780     1.6690 C.3   1 <1>   0.1200 
 16 C        5.2640     0.4660     0.0650 C.3   1 <1>   0.1200 
 17 C        3.7130     1.8980    -1.3240 C.3   1 <1>   0.3430 
 18 C       -2.9940    -1.9960     0.3880 C.ar  1 <1>   0.0830 
 19 C        3.3530     4.2120    -0.5190 C.3   1 <1>   0.2370 
 20 O        4.8510     0.6680     1.3730 O.3   1 <1>  -0.5600 
 21 O       -4.0430    -2.7430     0.8060 O.3   1 <1>  -0.3630 
 22 C        4.7830     4.5910    -0.1330 C.2   1 <1>   0.9060 
 23 C       -4.2460    -4.0570     0.3340 C.3   1 <1>   0.0400 
 24 O        5.7020     4.2350    -0.8770 O.co2 1 <1>  -0.9000 
 25 O        4.9590     5.0950     0.9790 O.co2 1 <1>  -0.9000 
 26 H        1.1470     1.5460     1.7700 H     1 <1>   0.0800 
 27 H        2.4620     0.5210     2.1740 H     1 <1>   0.0800 
 28 H        3.2960    -1.1170     0.3600 H     1 <1>   0.0800 
 29 H        2.5580    -1.0530    -1.1890 H     1 <1>   0.0800 
 30 H       -0.2530    -1.9630    -1.5790 H     1 <1>   0.1500 
 31 H       -1.7950     1.1050     0.9410 H     1 <1>   0.1500 
 32 H        2.7090     3.1500     1.7120 H     1 <1>   0.0800 
 33 H        4.4280    -0.0100    -1.7770 H     1 <1>   0.0800 
 34 H       -2.0780    -3.4280    -0.9330 H     1 <1>   0.1500 
 35 H       -3.6420    -0.3740     1.5970 H     1 <1>   0.1500 
 36 H        1.9700     2.6780    -0.5640 H     1 <1>   0.4500 
 37 H        4.4320     2.0450     2.7410 H     1 <1>   0.0800 
 38 H        5.2290     2.6530     1.3360 H     1 <1>   0.0800 
 39 H        5.9900     1.2190    -0.2020 H     1 <1>   0.0800 
 40 H        5.7500    -0.4940     0.0400 H     1 <1>   0.0800 
 41 H        3.1250     1.8450    -2.2250 H     1 <1>   0.0800 
 42 H        4.6380     2.3880    -1.5830 H     1 <1>   0.0800 
 43 H        3.2240     4.4860    -1.5490 H     1 <1>   0.0800 
 44 H        2.7020     4.8290     0.0730 H     1 <1>   0.0800 
 45 H       -5.1350    -4.4440     0.7990 H     1 <1>   0.0800 
 46 H       -3.3990    -4.6610     0.6070 H     1 <1>   0.0800 
 47 H       -4.3740    -4.0290    -0.7330 H     1 <1>   0.0800 
@<TRIPOS>BOND
  1   1   2  2   
  2   1   3  2   
  3   1   4  am  
  4   1   5  1   
  5   4   6  1   
  6   4   7  1   
  7   5   8  ar  
  8   5   9  ar  
  9   6  10  1   
 10   6  26  1   
 11   6  27  1   
 12   7  11  1   
 13   7  28  1   
 14   7  29  1   
 15   8  12  ar  
 16   8  30  1   
 17   9  13  ar  
 18   9  31  1   
 19  10  14  1   
 20  10  15  1   
 21  10  32  1   
 22  11  16  1   
 23  11  17  1   
 24  11  33  1   
 25  12  18  ar  
 26  12  34  1   
 27  13  18  ar  
 28  13  35  1   
 29  14  17  1   
 30  14  19  1   
 31  14  36  1   
 32  15  20  1   
 33  15  37  1   
 34  15  38  1   
 35  16  20  1   
 36  16  39  1   
 37  16  40  1   
 38  17  41  1   
 39  17  42  1   
 40  18  21  1   
 41  19  22  1   
 42  19  43  1   
 43  19  44  1   
 44  21  23  1   
 45  22  24  ar  
 46  22  25  ar  
 47  23  45  1   
 48  23  46  1   
 49  23  47  1   
@<TRIPOS>SUBSTRUCTURE
  1 ****   4 GROUP 4 **** **** 0

# MOE 2024.06 (io_trps.svl 2023.06)
