@<TRIPOS>MOLECULE
NONAME
49 50 1 0 0 
SMALL
USER_CHARGES


@<TRIPOS>ATOM
  1 S       -0.9770     0.4360     1.3020 S.o2  1 <1>   1.4470 
  2 O       -0.7160    -0.3960     2.4590 O.2   1 <1>  -0.6500 
  3 O       -2.0020     1.4540     1.3930 O.2   1 <1>  -0.6500 
  4 N       -1.3770    -0.5960     0.0200 N.am  1 <1>  -0.8490 
  5 C        0.5690     1.2170     0.7570 C.ar  1 <1>  -0.0090 
  6 C       -0.4810    -1.7630    -0.1800 C.3   1 <1>   0.1960 
  7 C       -2.7970    -0.9070    -0.1300 C.3   1 <1>   0.1960 
  8 C        0.8000     1.5120    -0.5820 C.ar  1 <1>  -0.1500 
  9 C        1.5550     1.5620     1.6740 C.ar  1 <1>  -0.1500 
 10 C       -1.1380    -3.1620    -0.0340 C.3   1 <1>  -0.1060 
 11 C       -3.2530    -1.9860     0.8600 C.3   1 <1>  -0.1600 
 12 C        1.9720     2.1190    -1.0040 C.ar  1 <1>  -0.1440 
 13 C        2.7300     2.1710     1.2730 C.ar  1 <1>  -0.1500 
 14 C       -1.8200    -3.5630    -1.3530 C.2   1 <1>   0.9060 
 15 C       -2.2220    -3.1090     1.0730 C.3   1 <1>   0.2000 
 16 C       -0.0610    -4.2310     0.3280 C.3   1 <1>  -0.1600 
 17 C        2.9480     2.4550    -0.0720 C.ar  1 <1>   0.0820 
 18 C        2.1780     2.4100    -2.4840 C.3   1 <1>  -0.0970 
 19 O       -1.3690    -3.1550    -2.4310 O.co2 1 <1>  -0.9000 
 20 O       -2.8270    -4.2830    -1.3250 O.co2 1 <1>  -0.9000 
 21 O       -1.6440    -2.9200     2.3240 O.3   1 <1>  -0.6800 
 22 C        1.0560    -4.4060    -0.7170 C.3   1 <1>  -0.1600 
 23 O        4.0800     3.0530    -0.5260 O.3   1 <1>  -0.3630 
 24 C        2.0740    -5.4540    -0.2590 C.3   1 <1>  -0.2400 
 25 C        5.1100     3.4610     0.3470 C.3   1 <1>   0.0400 
 26 H       -0.0300    -1.6770    -1.1550 H     1 <1>   0.0800 
 27 H        0.3280    -1.7030     0.5260 H     1 <1>   0.0800 
 28 H       -3.3950    -0.0190    -0.0120 H     1 <1>   0.0800 
 29 H       -2.9610    -1.2580    -1.1360 H     1 <1>   0.0800 
 30 H        0.0430     1.2540    -1.3040 H     1 <1>   0.1500 
 31 H        1.3970     1.3460     2.7170 H     1 <1>   0.1500 
 32 H       -4.1410    -2.4310     0.4490 H     1 <1>   0.0800 
 33 H       -3.5300    -1.5380     1.7980 H     1 <1>   0.0800 
 34 H        3.4600     2.4160     2.0200 H     1 <1>   0.1500 
 35 H       -2.7340    -4.0570     1.1210 H     1 <1>   0.0800 
 36 H        0.3930    -3.9820     1.2710 H     1 <1>   0.0800 
 37 H       -0.5610    -5.1770     0.4550 H     1 <1>   0.0800 
 38 H        1.3310     2.0940    -3.0650 H     1 <1>   0.0800 
 39 H        3.0500     1.8900    -2.8370 H     1 <1>   0.0800 
 40 H        2.3230     3.4660    -2.6310 H     1 <1>   0.0800 
 41 H       -1.2790    -2.0020     2.3880 H     1 <1>   0.4000 
 42 H        0.6300    -4.7190    -1.6560 H     1 <1>   0.0800 
 43 H        1.5640    -3.4720    -0.8820 H     1 <1>   0.0800 
 44 H        1.5890    -6.4040    -0.1170 H     1 <1>   0.0800 
 45 H        2.5330    -5.1540     0.6660 H     1 <1>   0.0800 
 46 H        2.8410    -5.5690    -1.0050 H     1 <1>   0.0800 
 47 H        5.8860     3.9140    -0.2420 H     1 <1>   0.0800 
 48 H        5.4960     2.5970     0.8590 H     1 <1>   0.0800 
 49 H        4.7130     4.1790     1.0430 H     1 <1>   0.0800 
@<TRIPOS>BOND
  1   1   2  2   
  2   1   3  2   
  3   1   4  am  
  4   1   5  1   
  5   4   6  1   
  6   4   7  1   
  7   5   8  ar  
  8   5   9  ar  
  9   6  10  1   
 10   6  26  1   
 11   6  27  1   
 12   7  11  1   
 13   7  28  1   
 14   7  29  1   
 15   8  12  ar  
 16   8  30  1   
 17   9  13  ar  
 18   9  31  1   
 19  10  14  1   
 20  10  15  1   
 21  10  16  1   
 22  11  15  1   
 23  11  32  1   
 24  11  33  1   
 25  12  17  ar  
 26  12  18  1   
 27  13  17  ar  
 28  13  34  1   
 29  14  19  ar  
 30  14  20  ar  
 31  15  21  1   
 32  15  35  1   
 33  16  22  1   
 34  16  36  1   
 35  16  37  1   
 36  17  23  1   
 37  18  38  1   
 38  18  39  1   
 39  18  40  1   
 40  21  41  1   
 41  22  24  1   
 42  22  42  1   
 43  22  43  1   
 44  23  25  1   
 45  24  44  1   
 46  24  45  1   
 47  24  46  1   
 48  25  47  1   
 49  25  48  1   
 50  25  49  1   
@<TRIPOS>SUBSTRUCTURE
  1 ****   6 GROUP 4 **** **** 0

# MOE 2024.06 (io_trps.svl 2023.06)
