@<TRIPOS>MOLECULE
NONAME
50 52 1 0 0 
SMALL
USER_CHARGES


@<TRIPOS>ATOM
  1 O        0.8040     0.1550    -1.6480 O.2   1 <1>  -0.5700 
  2 C        1.5530     0.5600    -0.7760 C.2   1 <1>   0.5440 
  3 N        1.2010     1.6880    -0.0710 N.am  1 <1>  -0.6600 
  4 C        2.7740    -0.1470    -0.4870 C.ar  1 <1>   0.0860 
  5 C        1.8040     2.0600     1.2290 C.3   1 <1>   0.1400 
  6 C       -0.0900     2.3850    -0.2720 C.3   1 <1>   0.1400 
  7 C        2.7310    -1.4540     0.0280 C.ar  1 <1>   0.4100 
  8 C        4.0170     0.4330    -0.6940 C.ar  1 <1>  -0.1500 
  9 C        0.9250     3.1840     1.7650 C.3   1 <1>  -0.1600 
 10 C       -0.4280     2.9740     1.0920 C.3   1 <1>  -0.1600 
 11 N        3.8130    -2.1630     0.3430 N.ar  1 <1>  -0.6200 
 12 N        1.5210    -2.0650     0.2470 N.pl3 1 <1>  -0.8690 
 13 C        5.1350    -0.3030    -0.3740 C.ar  1 <1>  -0.1500 
 14 C        4.9770    -1.5800     0.1360 C.ar  1 <1>   0.1600 
 15 C        1.3440    -3.5280     0.3920 C.3   1 <1>   0.2090 
 16 C       -0.1020    -3.9640     0.0510 C.3   1 <1>   0.0000 
 17 C       -1.1330    -3.1960     0.9140 C.3   1 <1>  -0.1600 
 18 C       -0.4540    -3.6150    -1.4180 C.3   1 <1>  -0.1600 
 19 C       -0.1810    -5.4870     0.3060 C.3   1 <1>   0.1200 
 20 C       -1.7570    -2.1410     0.0020 C.3   1 <1>  -0.1600 
 21 C       -1.7380    -2.7850    -1.3780 C.3   1 <1>  -0.1600 
 22 O       -1.4390    -5.9930    -0.0300 O.3   1 <1>  -0.5600 
 23 C       -1.5740    -7.3600     0.1750 C.3   1 <1>   0.0400 
 24 H        2.8230     2.3860     1.1030 H     1 <1>   0.0800 
 25 H        1.7720     1.2090     1.8900 H     1 <1>   0.0800 
 26 H       -0.8560     1.7060    -0.6080 H     1 <1>   0.0800 
 27 H        0.0450     3.1650    -1.0010 H     1 <1>   0.0800 
 28 H        4.0930     1.4290    -1.0950 H     1 <1>   0.1500 
 29 H        1.3410     4.1280     1.4610 H     1 <1>   0.0800 
 30 H        0.8570     3.1610     2.8390 H     1 <1>   0.0800 
 31 H       -1.0050     2.2550     1.6460 H     1 <1>   0.0800 
 32 H       -0.9920     3.8860     1.0050 H     1 <1>   0.0800 
 33 H        0.7270    -1.6360    -0.2510 H     1 <1>   0.4000 
 34 H        6.1210     0.1020    -0.5170 H     1 <1>   0.1500 
 35 H        5.8570    -2.1490     0.3850 H     1 <1>   0.1500 
 36 H        1.5810    -3.7980     1.4070 H     1 <1>   0.0800 
 37 H        2.0360    -4.0340    -0.2590 H     1 <1>   0.0800 
 38 H       -0.6920    -2.7490     1.7880 H     1 <1>   0.0800 
 39 H       -1.9160    -3.8610     1.2380 H     1 <1>   0.0800 
 40 H       -0.5990    -4.4940    -2.0210 H     1 <1>   0.0800 
 41 H        0.3240    -3.0290    -1.8760 H     1 <1>   0.0800 
 42 H        0.0000    -5.6960     1.3460 H     1 <1>   0.0800 
 43 H        0.5540    -5.9980    -0.2930 H     1 <1>   0.0800 
 44 H       -1.1520    -1.2510    -0.0040 H     1 <1>   0.0800 
 45 H       -2.7550    -1.8830     0.3100 H     1 <1>   0.0800 
 46 H       -2.5850    -3.4440    -1.4710 H     1 <1>   0.0800 
 47 H       -1.7690    -2.0510    -2.1650 H     1 <1>   0.0800 
 48 H       -2.5720    -7.6430    -0.1120 H     1 <1>   0.0800 
 49 H       -1.4200    -7.5800     1.2170 H     1 <1>   0.0800 
 50 H       -0.8590    -7.8840    -0.4350 H     1 <1>   0.0800 
@<TRIPOS>BOND
  1   1   2  2   
  2   2   3  am  
  3   2   4  1   
  4   3   5  1   
  5   3   6  1   
  6   4   7  ar  
  7   4   8  ar  
  8   5   9  1   
  9   5  24  1   
 10   5  25  1   
 11   6  10  1   
 12   6  26  1   
 13   6  27  1   
 14   7  11  ar  
 15   7  12  1   
 16   8  13  ar  
 17   8  28  1   
 18   9  10  1   
 19   9  29  1   
 20   9  30  1   
 21  10  31  1   
 22  10  32  1   
 23  11  14  ar  
 24  12  15  1   
 25  12  33  1   
 26  13  14  ar  
 27  13  34  1   
 28  14  35  1   
 29  15  16  1   
 30  15  36  1   
 31  15  37  1   
 32  16  17  1   
 33  16  18  1   
 34  16  19  1   
 35  17  20  1   
 36  17  38  1   
 37  17  39  1   
 38  18  21  1   
 39  18  40  1   
 40  18  41  1   
 41  19  22  1   
 42  19  42  1   
 43  19  43  1   
 44  20  21  1   
 45  20  44  1   
 46  20  45  1   
 47  21  46  1   
 48  21  47  1   
 49  22  23  1   
 50  23  48  1   
 51  23  49  1   
 52  23  50  1   
@<TRIPOS>SUBSTRUCTURE
  1 ****  12 GROUP 4 **** **** 0

# MOE 2024.06 (io_trps.svl 2023.06)
