@<TRIPOS>MOLECULE
NONAME
40 42 1 0 0 
SMALL
USER_CHARGES


@<TRIPOS>ATOM
  1 S       -0.6630    -0.2790     0.3200 S.3   1 <1>  -0.0800 
  2 C       -1.2530    -1.1240    -1.0720 C.2   1 <1>   0.4420 
  3 C       -0.1980     1.0100    -0.7430 C.2   1 <1>   0.1980 
  4 N       -1.0730    -0.4610    -2.1550 N.2   1 <1>  -0.3380 
  5 N       -1.8210    -2.3590    -0.8430 N.am  1 <1>  -0.4940 
  6 N       -0.4720     0.7520    -1.9610 N.2   1 <1>  -0.3380 
  7 C        0.4760     2.2380    -0.1290 C.3   1 <1>   0.3800 
  8 C       -2.3230    -3.2590    -1.7370 C.2   1 <1>   0.5690 
  9 O       -0.2170     2.6140     1.0290 O.3   1 <1>  -0.5600 
 10 C        0.4930     3.4350    -1.0870 C.3   1 <1>  -0.2400 
 11 O       -2.3100    -3.1110    -2.9300 O.2   1 <1>  -0.5700 
 12 C       -2.9110    -4.5380    -1.1900 C.3   1 <1>  -0.0990 
 13 C        0.5350     3.2720     2.0020 C.3   1 <1>   0.0400 
 14 C       -1.9030    -5.6850    -1.3070 C.3   1 <1>   0.0200 
 15 C       -2.4620    -6.9330    -0.6560 C.2   1 <1>   0.0060 
 16 N       -2.4580    -7.1280     0.6150 N.2   1 <1>  -0.5650 
 17 N       -3.0250    -7.9430    -1.3680 N.pl3 1 <1>   0.0330 
 18 C       -3.0500    -8.3440     0.7740 C.ar  1 <1>   0.2270 
 19 C       -3.4130    -8.8690    -0.4560 C.ar  1 <1>  -0.1520 
 20 C       -3.3100    -9.0550     1.9430 C.ar  1 <1>  -0.1500 
 21 C       -4.0450   -10.1130    -0.5700 C.ar  1 <1>  -0.1500 
 22 C       -3.9300   -10.2740     1.8170 C.ar  1 <1>   0.1900 
 23 C       -4.3040   -10.8190     0.5840 C.ar  1 <1>  -0.1500 
 24 F       -4.1900   -10.9680     2.8950 F     1 <1>  -0.1900 
 25 H       -1.8720    -2.6270     0.1350 H     1 <1>   0.3700 
 26 H        1.4810     1.9650     0.1430 H     1 <1>   0.0800 
 27 H       -0.5150     3.7220    -1.3290 H     1 <1>   0.0800 
 28 H        0.9930     3.1620    -1.9980 H     1 <1>   0.0800 
 29 H        1.0120     4.2690    -0.6560 H     1 <1>   0.0800 
 30 H       -3.7980    -4.7780    -1.7480 H     1 <1>   0.0800 
 31 H       -3.1930    -4.4050    -0.1610 H     1 <1>   0.0800 
 32 H       -0.1130     3.4830     2.8350 H     1 <1>   0.0800 
 33 H        0.9170     4.1950     1.6040 H     1 <1>   0.0800 
 34 H        1.3390     2.6330     2.3240 H     1 <1>   0.0800 
 35 H       -0.9900    -5.4180    -0.8040 H     1 <1>   0.0800 
 36 H       -1.6710    -5.8710    -2.3410 H     1 <1>   0.0800 
 37 H       -3.1360    -8.0020    -2.3830 H     1 <1>   0.2700 
 38 H       -3.0280    -8.6490     2.8950 H     1 <1>   0.1500 
 39 H       -4.3180   -10.5010    -1.5360 H     1 <1>   0.1500 
 40 H       -4.7860   -11.7800     0.5600 H     1 <1>   0.1500 
@<TRIPOS>BOND
  1   1   2  1   
  2   1   3  1   
  3   2   4  2   
  4   2   5  1   
  5   3   6  2   
  6   3   7  1   
  7   4   6  1   
  8   5   8  am  
  9   5  25  1   
 10   7   9  1   
 11   7  10  1   
 12   7  26  1   
 13   8  11  2   
 14   8  12  1   
 15   9  13  1   
 16  10  27  1   
 17  10  28  1   
 18  10  29  1   
 19  12  14  1   
 20  12  30  1   
 21  12  31  1   
 22  13  32  1   
 23  13  33  1   
 24  13  34  1   
 25  14  15  1   
 26  14  35  1   
 27  14  36  1   
 28  15  16  2   
 29  15  17  1   
 30  16  18  1   
 31  17  19  1   
 32  17  37  1   
 33  18  19  ar  
 34  18  20  ar  
 35  19  21  ar  
 36  20  22  ar  
 37  20  38  1   
 38  21  23  ar  
 39  21  39  1   
 40  22  23  ar  
 41  22  24  1   
 42  23  40  1   
@<TRIPOS>SUBSTRUCTURE
  1 ****  12 GROUP 4 **** **** 0

# MOE 2024.06 (io_trps.svl 2023.06)
