@<TRIPOS>MOLECULE
NONAME
51 54 1 0 0 
SMALL
USER_CHARGES


@<TRIPOS>ATOM
  1 CL       0.6940    -0.6140    -1.2090 Cl    1 <1>  -0.1770 
  2 C       -0.3490    -1.8380    -0.5290 C.ar  1 <1>   0.1770 
  3 C       -0.1320    -3.1610    -0.8310 C.ar  1 <1>  -0.1500 
  4 C       -1.3880    -1.4340     0.3150 C.ar  1 <1>  -0.1500 
  5 C       -0.9840    -4.1230    -0.2730 C.ar  1 <1>  -0.1520 
  6 C       -2.2240    -2.3770     0.8660 C.ar  1 <1>  -0.1500 
  7 N       -1.0140    -5.4930    -0.3900 N.pl3 1 <1>   0.0480 
  8 C       -2.0200    -3.7320     0.5700 C.ar  1 <1>   0.0000 
  9 C       -2.0610    -5.9780     0.3710 C.2   1 <1>  -0.2370 
 10 C       -0.0740    -6.2940    -1.2030 C.3   1 <1>   0.0160 
 11 C       -2.6740    -4.9090     0.9620 C.2   1 <1>  -0.1500 
 12 C       -2.4010    -7.3760     0.5040 C.2   1 <1>   0.7150 
 13 O       -1.5530    -8.2440     0.3800 O.2   1 <1>  -0.5700 
 14 N       -3.6900    -7.7740     0.7630 N.am  1 <1>  -0.6600 
 15 C       -3.9710    -9.1310     1.3130 C.3   1 <1>   0.1400 
 16 C       -4.8640    -7.1470     0.0930 C.3   1 <1>   0.1400 
 17 C       -4.3800   -10.0560     0.1460 C.3   1 <1>   0.4230 
 18 C       -5.3610    -8.0750    -1.0300 C.3   1 <1>  -0.1600 
 19 N       -4.5670   -11.5000     0.5140 N.4   1 <1>  -0.9590 
 20 C       -5.6620    -9.5200    -0.5340 C.3   1 <1>  -0.1060 
 21 C       -4.8800   -12.3890    -0.6440 C.3   1 <1>   0.3430 
 22 C       -3.5380   -12.0770     1.4200 C.3   1 <1>   0.2630 
 23 C       -6.7890    -9.5240     0.5160 C.2   1 <1>   0.9060 
 24 C       -6.0730   -10.4150    -1.7400 C.3   1 <1>  -0.1600 
 25 C       -5.1270   -11.6100    -1.9440 C.3   1 <1>  -0.1600 
 26 O       -6.8690   -10.4930     1.2890 O.co2 1 <1>  -0.9000 
 27 O       -7.5710    -8.5780     0.5860 O.co2 1 <1>  -0.9000 
 28 H        0.6760    -3.4410    -1.4800 H     1 <1>   0.1500 
 29 H       -1.5150    -0.3860     0.5190 H     1 <1>   0.1500 
 30 H       -3.0310    -2.0980     1.5190 H     1 <1>   0.1500 
 31 H       -0.6280    -6.9960    -1.7980 H     1 <1>   0.0800 
 32 H        0.5890    -6.8290    -0.5470 H     1 <1>   0.0800 
 33 H        0.4970    -5.6570    -1.8500 H     1 <1>   0.0800 
 34 H       -3.5180    -4.9310     1.6290 H     1 <1>   0.1500 
 35 H       -3.0870    -9.5020     1.7980 H     1 <1>   0.0800 
 36 H       -4.7560    -9.0600     2.0470 H     1 <1>   0.0800 
 37 H       -5.6440    -6.9840     0.8190 H     1 <1>   0.0800 
 38 H       -4.6020    -6.1930    -0.3290 H     1 <1>   0.0800 
 39 H       -3.5770   -10.0040    -0.5690 H     1 <1>   0.0800 
 40 H       -6.2570    -7.6470    -1.4490 H     1 <1>   0.0800 
 41 H       -4.6200    -8.0960    -1.8090 H     1 <1>   0.0800 
 42 H       -5.4780   -11.4310     1.0450 H     1 <1>   0.4500 
 43 H       -4.0720   -13.0830    -0.8030 H     1 <1>   0.0800 
 44 H       -5.7660   -12.9570    -0.4070 H     1 <1>   0.0800 
 45 H       -2.5700   -12.0560     0.9450 H     1 <1>   0.0800 
 46 H       -3.7890   -13.0960     1.6630 H     1 <1>   0.0800 
 47 H       -3.4910   -11.5120     2.3360 H     1 <1>   0.0800 
 48 H       -7.0700   -10.7930    -1.5730 H     1 <1>   0.0800 
 49 H       -6.1170    -9.8390    -2.6480 H     1 <1>   0.0800 
 50 H       -4.1850   -11.2660    -2.3340 H     1 <1>   0.0800 
 51 H       -5.5470   -12.2770    -2.6770 H     1 <1>   0.0800 
@<TRIPOS>BOND
  1   1   2  1   
  2   2   3  ar  
  3   2   4  ar  
  4   3   5  ar  
  5   3  28  1   
  6   4   6  ar  
  7   4  29  1   
  8   5   7  1   
  9   5   8  ar  
 10   6   8  ar  
 11   6  30  1   
 12   7   9  1   
 13   7  10  1   
 14   8  11  1   
 15   9  11  2   
 16   9  12  1   
 17  10  31  1   
 18  10  32  1   
 19  10  33  1   
 20  11  34  1   
 21  12  13  2   
 22  12  14  am  
 23  14  15  1   
 24  14  16  1   
 25  15  17  1   
 26  15  35  1   
 27  15  36  1   
 28  16  18  1   
 29  16  37  1   
 30  16  38  1   
 31  17  19  1   
 32  17  20  1   
 33  17  39  1   
 34  18  20  1   
 35  18  40  1   
 36  18  41  1   
 37  19  21  1   
 38  19  22  1   
 39  19  42  1   
 40  20  23  1   
 41  20  24  1   
 42  21  25  1   
 43  21  43  1   
 44  21  44  1   
 45  22  45  1   
 46  22  46  1   
 47  22  47  1   
 48  23  26  ar  
 49  23  27  ar  
 50  24  25  1   
 51  24  48  1   
 52  24  49  1   
 53  25  50  1   
 54  25  51  1   
@<TRIPOS>SUBSTRUCTURE
  1 ****  14 GROUP 4 **** **** 0

# MOE 2024.06 (io_trps.svl 2023.06)
