@<TRIPOS>MOLECULE
NONAME
56 58 1 0 0 
SMALL
USER_CHARGES


@<TRIPOS>ATOM
  1 O       -2.7620     0.8700    -2.1080 O.2   1 <1>  -0.5700 
  2 C       -2.3020     1.0680    -1.0090 C.2   1 <1>   0.5690 
  3 N       -2.0310     0.0430    -0.1630 N.am  1 <1>  -0.7300 
  4 C       -2.0550     2.5030    -0.5440 C.3   1 <1>  -0.0190 
  5 C       -2.3370    -1.3730    -0.4500 C.3   1 <1>   0.2200 
  6 C       -0.5830     2.6930    -0.0990 C.3   1 <1>  -0.1600 
  7 C       -3.0890     2.8590     0.5520 C.3   1 <1>  -0.1600 
  8 C       -3.7340    -1.6810     0.0580 C.3   1 <1>  -0.0800 
  9 C       -1.4780    -2.2850     0.4190 C.3   1 <1>   0.1200 
 10 C        0.0010     4.0600    -0.4930 C.3   1 <1>  -0.1600 
 11 C       -3.0530     4.3200     1.0220 C.3   1 <1>  -0.1600 
 12 C       -3.4820    -2.0280     1.5290 C.3   1 <1>   0.1200 
 13 C       -4.3740    -2.8460    -0.7210 C.3   1 <1>  -0.0170 
 14 O       -2.1330    -2.3790     1.6480 O.3   1 <1>  -0.5600 
 15 C        1.4510     4.1910    -0.0190 C.3   1 <1>  -0.2400 
 16 C       -4.2200     4.6180     1.9670 C.3   1 <1>  -0.2400 
 17 C       -5.8290    -3.0530    -0.3100 C.ar  1 <1>  -0.1440 
 18 C       -6.8620    -2.1810    -0.7310 C.ar  1 <1>   0.0000 
 19 C       -6.1740    -4.1020     0.4900 C.ar  1 <1>  -0.1500 
 20 C       -8.1750    -2.4510    -0.2740 C.ar  1 <1>   0.3100 
 21 C       -6.6730    -1.0630    -1.5770 C.ar  1 <1>  -0.1500 
 22 C       -7.5070    -4.2830     0.8790 C.ar  1 <1>   0.1600 
 23 N       -8.4800    -3.5030     0.5290 N.ar  1 <1>  -0.6200 
 24 C       -9.2200    -1.5980    -0.6640 C.ar  1 <1>  -0.1500 
 25 C       -7.7140    -0.2520    -1.9400 C.ar  1 <1>  -0.1500 
 26 C       -9.0040    -0.5200    -1.4780 C.ar  1 <1>  -0.1500 
 27 H       -1.7140     0.2320     0.7900 H     1 <1>   0.3700 
 28 H       -2.2400     3.1320    -1.3980 H     1 <1>   0.0800 
 29 H       -2.2110    -1.5710    -1.5020 H     1 <1>   0.0800 
 30 H       -0.4990     2.5460     0.9630 H     1 <1>   0.0800 
 31 H        0.0230     1.9410    -0.5750 H     1 <1>   0.0800 
 32 H       -4.0700     2.6540     0.1560 H     1 <1>   0.0800 
 33 H       -2.9480     2.2160     1.4030 H     1 <1>   0.0800 
 34 H       -4.3700    -0.8180    -0.0190 H     1 <1>   0.0800 
 35 H       -0.4830    -1.9030     0.5650 H     1 <1>   0.0800 
 36 H       -1.4310    -3.2730    -0.0020 H     1 <1>   0.0800 
 37 H       -0.0270     4.1670    -1.5640 H     1 <1>   0.0800 
 38 H       -0.5760     4.8610    -0.0690 H     1 <1>   0.0800 
 39 H       -2.1330     4.5150     1.5430 H     1 <1>   0.0800 
 40 H       -3.1110     4.9780     0.1710 H     1 <1>   0.0800 
 41 H       -4.0890    -2.8440     1.8790 H     1 <1>   0.0800 
 42 H       -3.6490    -1.1670     2.1540 H     1 <1>   0.0800 
 43 H       -3.8160    -3.7500    -0.5490 H     1 <1>   0.0800 
 44 H       -4.3340    -2.6500    -1.7780 H     1 <1>   0.0800 
 45 H        2.0630     3.4220    -0.4570 H     1 <1>   0.0800 
 46 H        1.5060     4.1110     1.0530 H     1 <1>   0.0800 
 47 H        1.8470     5.1480    -0.3100 H     1 <1>   0.0800 
 48 H       -4.1750     3.9810     2.8340 H     1 <1>   0.0800 
 49 H       -5.1600     4.4580     1.4690 H     1 <1>   0.0800 
 50 H       -4.1770     5.6420     2.2930 H     1 <1>   0.0800 
 51 H       -5.4450    -4.8080     0.8420 H     1 <1>   0.1500 
 52 H       -5.6910    -0.8360    -1.9500 H     1 <1>   0.1500 
 53 H       -7.7360    -5.1230     1.5120 H     1 <1>   0.1500 
 54 H      -10.2040    -1.8260    -0.2990 H     1 <1>   0.1500 
 55 H       -7.5520     0.5970    -2.5830 H     1 <1>   0.1500 
 56 H       -9.8150     0.1260    -1.7690 H     1 <1>   0.1500 
@<TRIPOS>BOND
  1   1   2  2   
  2   2   3  am  
  3   2   4  1   
  4   3   5  1   
  5   3  27  1   
  6   4   6  1   
  7   4   7  1   
  8   4  28  1   
  9   5   8  1   
 10   5   9  1   
 11   5  29  1   
 12   6  10  1   
 13   6  30  1   
 14   6  31  1   
 15   7  11  1   
 16   7  32  1   
 17   7  33  1   
 18   8  12  1   
 19   8  13  1   
 20   8  34  1   
 21   9  14  1   
 22   9  35  1   
 23   9  36  1   
 24  10  15  1   
 25  10  37  1   
 26  10  38  1   
 27  11  16  1   
 28  11  39  1   
 29  11  40  1   
 30  12  14  1   
 31  12  41  1   
 32  12  42  1   
 33  13  17  1   
 34  13  43  1   
 35  13  44  1   
 36  15  45  1   
 37  15  46  1   
 38  15  47  1   
 39  16  48  1   
 40  16  49  1   
 41  16  50  1   
 42  17  18  ar  
 43  17  19  ar  
 44  18  20  ar  
 45  18  21  ar  
 46  19  22  ar  
 47  19  51  1   
 48  20  23  ar  
 49  20  24  ar  
 50  21  25  ar  
 51  21  52  1   
 52  22  23  ar  
 53  22  53  1   
 54  24  26  ar  
 55  24  54  1   
 56  25  26  ar  
 57  25  55  1   
 58  26  56  1   
@<TRIPOS>SUBSTRUCTURE
  1 ****   8 GROUP 4 **** **** 0

# MOE 2024.06 (io_trps.svl 2023.06)
