@<TRIPOS>MOLECULE
NONAME
53 55 1 0 0 
SMALL
USER_CHARGES


@<TRIPOS>ATOM
  1 O       -0.0990    -0.7640     0.6730 O.2   1 <1>  -0.5700 
  2 C       -0.7650    -0.0340    -0.0220 C.2   1 <1>   0.5690 
  3 N       -2.1220    -0.2610    -0.1570 N.am  1 <1>  -0.6600 
  4 C        0.0040     1.1200    -0.6880 C.3   1 <1>   0.2370 
  5 C       -2.7200    -1.4240     0.5990 C.3   1 <1>   0.3210 
  6 C       -3.0980     0.6400    -0.8520 C.3   1 <1>   0.1400 
  7 N       -0.6140     2.4390    -0.3760 N.pl3 1 <1>   0.0480 
  8 C        0.2090     0.8930    -2.1990 C.3   1 <1>  -0.2400 
  9 C       -4.0050    -1.9830    -0.0150 C.2   1 <1>   0.0460 
 10 C       -3.9010     1.4630     0.1760 C.3   1 <1>   0.3430 
 11 C       -0.9350     2.8940     0.8670 C.ar  1 <1>  -0.1520 
 12 C       -1.1430     3.3590    -1.2310 C.2   1 <1>   0.0360 
 13 N       -5.2010    -1.3820     0.1860 N.2   1 <1>  -0.5650 
 14 C       -4.1510    -3.0930    -0.7780 C.2   1 <1>  -0.3320 
 15 N       -4.3730     2.7850    -0.3540 N.4   1 <1>  -0.9590 
 16 C       -1.6370     4.0690     0.6710 C.ar  1 <1>   0.2270 
 17 C       -0.7020     2.4090     2.1580 C.ar  1 <1>  -0.1500 
 18 N       -1.7940     4.3110    -0.6590 N.2   1 <1>  -0.5650 
 19 C       -6.0400    -2.1430    -0.4380 C.2   1 <1>   0.0360 
 20 N       -5.4650    -3.2000    -1.0470 N.pl3 1 <1>   0.0330 
 21 C       -3.1300    -4.1000    -1.2830 C.3   1 <1>  -0.0600 
 22 C       -5.0890     3.5240     0.7250 C.3   1 <1>   0.2630 
 23 C       -5.2360     2.6550    -1.5650 C.3   1 <1>   0.2630 
 24 C       -2.0960     4.8060     1.7600 C.ar  1 <1>  -0.1500 
 25 C       -1.1760     3.1320     3.2290 C.ar  1 <1>  -0.1500 
 26 C       -1.8690     4.3320     3.0340 C.ar  1 <1>  -0.1500 
 27 H        0.9810     1.1360    -0.2380 H     1 <1>   0.0800 
 28 H       -2.9280    -1.1180     1.6080 H     1 <1>   0.0800 
 29 H       -2.0030    -2.2240     0.6530 H     1 <1>   0.0800 
 30 H       -3.7690     0.0560    -1.4570 H     1 <1>   0.0800 
 31 H       -2.5830     1.2930    -1.5220 H     1 <1>   0.0800 
 32 H       -0.7260     0.8420    -2.7250 H     1 <1>   0.0800 
 33 H        0.7210    -0.0420    -2.3480 H     1 <1>   0.0800 
 34 H        0.8210     1.6720    -2.6180 H     1 <1>   0.0800 
 35 H       -3.2650     1.6440     1.0270 H     1 <1>   0.0800 
 36 H       -4.7450     0.8850     0.5110 H     1 <1>   0.0800 
 37 H       -1.0290     3.2720    -2.2990 H     1 <1>   0.1500 
 38 H       -3.5260     3.3520    -0.5900 H     1 <1>   0.4500 
 39 H       -0.1560     1.4920     2.3130 H     1 <1>   0.1500 
 40 H       -7.1030    -1.9750    -0.4790 H     1 <1>   0.1500 
 41 H       -5.9350    -3.9340    -1.5860 H     1 <1>   0.2700 
 42 H       -2.1340    -3.8120    -1.0000 H     1 <1>   0.0800 
 43 H       -3.1700    -4.1640    -2.3560 H     1 <1>   0.0800 
 44 H       -3.3330    -5.0730    -0.8700 H     1 <1>   0.0800 
 45 H       -5.9800     2.9920     1.0160 H     1 <1>   0.0800 
 46 H       -5.3670     4.5080     0.3820 H     1 <1>   0.0800 
 47 H       -4.4520     3.6300     1.5880 H     1 <1>   0.0800 
 48 H       -6.1050     2.0580    -1.3410 H     1 <1>   0.0800 
 49 H       -4.6910     2.1850    -2.3670 H     1 <1>   0.0800 
 50 H       -5.5590     3.6280    -1.8980 H     1 <1>   0.0800 
 51 H       -2.6110     5.7330     1.5850 H     1 <1>   0.1500 
 52 H       -1.0070     2.7820     4.2350 H     1 <1>   0.1500 
 53 H       -2.2120     4.8860     3.8920 H     1 <1>   0.1500 
@<TRIPOS>BOND
  1   1   2  2   
  2   2   3  am  
  3   2   4  1   
  4   3   5  1   
  5   3   6  1   
  6   4   7  1   
  7   4   8  1   
  8   4  27  1   
  9   5   9  1   
 10   5  28  1   
 11   5  29  1   
 12   6  10  1   
 13   6  30  1   
 14   6  31  1   
 15   7  11  1   
 16   7  12  1   
 17   8  32  1   
 18   8  33  1   
 19   8  34  1   
 20   9  13  1   
 21   9  14  2   
 22  10  15  1   
 23  10  35  1   
 24  10  36  1   
 25  11  16  ar  
 26  11  17  ar  
 27  12  18  2   
 28  12  37  1   
 29  13  19  2   
 30  14  20  1   
 31  14  21  1   
 32  15  22  1   
 33  15  23  1   
 34  15  38  1   
 35  16  18  1   
 36  16  24  ar  
 37  17  25  ar  
 38  17  39  1   
 39  19  20  1   
 40  19  40  1   
 41  20  41  1   
 42  21  42  1   
 43  21  43  1   
 44  21  44  1   
 45  22  45  1   
 46  22  46  1   
 47  22  47  1   
 48  23  48  1   
 49  23  49  1   
 50  23  50  1   
 51  24  26  ar  
 52  24  51  1   
 53  25  26  ar  
 54  25  52  1   
 55  26  53  1   
@<TRIPOS>SUBSTRUCTURE
  1 ****   6 GROUP 4 **** **** 0

# MOE 2024.06 (io_trps.svl 2023.06)
