@<TRIPOS>MOLECULE
NONAME
54 57 1 0 0 
SMALL
USER_CHARGES


@<TRIPOS>ATOM
  1 O       -0.6160     0.0650    -0.1910 O.2   1 <1>  -0.5700 
  2 C       -1.7040     0.6110    -0.1590 C.2   1 <1>   0.7160 
  3 N       -2.8260    -0.1840    -0.0830 N.am  1 <1>  -0.6600 
  4 C       -1.8070     2.0530    -0.2150 C.2   1 <1>  -0.0860 
  5 C       -4.1840     0.2450    -0.5000 C.3   1 <1>   0.1400 
  6 C       -2.7390    -1.6630    -0.0240 C.3   1 <1>   0.1400 
  7 C       -0.9670     2.9300    -0.9120 C.2   1 <1>   0.1080 
  8 C       -2.7020     2.8980     0.3730 C.2   1 <1>  -0.3020 
  9 C       -4.8870    -1.0420    -0.9300 C.3   1 <1>   0.2000 
 10 C       -4.1750    -2.1660    -0.1830 C.3   1 <1>  -0.0800 
 11 N       -1.3110     4.1710    -0.7810 N.2   1 <1>  -0.7070 
 12 C        0.2290     2.5260    -1.7480 C.3   1 <1>  -0.0590 
 13 N       -2.3850     4.1510     0.0220 N.pl3 1 <1>   0.3140 
 14 O       -6.2320    -1.0240    -0.5930 O.3   1 <1>  -0.6800 
 15 C       -4.2720    -3.5200    -0.9060 C.3   1 <1>  -0.0170 
 16 C       -3.0710     5.3910     0.4320 C.3   1 <1>   0.0960 
 17 C       -3.5700    -4.6160    -0.1120 C.ar  1 <1>  -0.1430 
 18 C       -2.6160     5.8310     1.8310 C.3   1 <1>  -0.1600 
 19 C       -4.1620    -5.2300     1.0180 C.ar  1 <1>   0.0000 
 20 C       -2.3230    -5.0340    -0.4750 C.ar  1 <1>  -0.1500 
 21 C       -3.3300     7.1130     2.2730 C.3   1 <1>  -0.2400 
 22 C       -3.4090    -6.2170     1.6990 C.ar  1 <1>   0.3100 
 23 C       -5.4530    -4.9240     1.5110 C.ar  1 <1>  -0.1500 
 24 C       -1.6680    -6.0260     0.2650 C.ar  1 <1>   0.1600 
 25 N       -2.1680    -6.6030     1.3100 N.ar  1 <1>  -0.6200 
 26 C       -3.9640    -6.8330     2.8320 C.ar  1 <1>  -0.1500 
 27 C       -5.9650    -5.5460     2.6170 C.ar  1 <1>  -0.1500 
 28 C       -5.2130    -6.5120     3.2890 C.ar  1 <1>  -0.1500 
 29 H       -4.6850     0.6900     0.3410 H     1 <1>   0.0800 
 30 H       -4.1300     0.9430    -1.3180 H     1 <1>   0.0800 
 31 H       -2.1170    -2.0090    -0.8320 H     1 <1>   0.0800 
 32 H       -2.3110    -1.9820     0.9120 H     1 <1>   0.0800 
 33 H       -3.5240     2.6640     1.0220 H     1 <1>   0.1500 
 34 H       -4.8050    -1.1630    -1.9970 H     1 <1>   0.0800 
 35 H       -4.5870    -2.2520     0.8070 H     1 <1>   0.0800 
 36 H       -0.0500     1.7550    -2.4410 H     1 <1>   0.0800 
 37 H        1.0090     2.1590    -1.1070 H     1 <1>   0.0800 
 38 H        0.5970     3.3730    -2.2970 H     1 <1>   0.0800 
 39 H       -6.3410    -0.9400     0.3730 H     1 <1>   0.4000 
 40 H       -3.8220    -3.4360    -1.8810 H     1 <1>   0.0800 
 41 H       -5.3030    -3.7830    -1.0650 H     1 <1>   0.0800 
 42 H       -2.8400     6.1550    -0.2880 H     1 <1>   0.0800 
 43 H       -4.1300     5.2150     0.4200 H     1 <1>   0.0800 
 44 H       -2.8230     5.0480     2.5410 H     1 <1>   0.0800 
 45 H       -1.5530     6.0040     1.8160 H     1 <1>   0.0800 
 46 H       -1.8120    -4.6180    -1.3240 H     1 <1>   0.1500 
 47 H       -4.3940     6.9610     2.3130 H     1 <1>   0.0800 
 48 H       -3.1180     7.9170     1.5890 H     1 <1>   0.0800 
 49 H       -2.9900     7.4030     3.2520 H     1 <1>   0.0800 
 50 H       -6.0510    -4.1890     1.0070 H     1 <1>   0.1500 
 51 H       -0.6840    -6.3250    -0.0560 H     1 <1>   0.1500 
 52 H       -3.3680    -7.5740     3.3320 H     1 <1>   0.1500 
 53 H       -6.9490    -5.3050     2.9810 H     1 <1>   0.1500 
 54 H       -5.6250    -6.9930     4.1590 H     1 <1>   0.1500 
@<TRIPOS>BOND
  1   1   2  2   
  2   2   3  am  
  3   2   4  1   
  4   3   5  1   
  5   3   6  1   
  6   4   7  1   
  7   4   8  2   
  8   5   9  1   
  9   5  29  1   
 10   5  30  1   
 11   6  10  1   
 12   6  31  1   
 13   6  32  1   
 14   7  11  2   
 15   7  12  1   
 16   8  13  1   
 17   8  33  1   
 18   9  10  1   
 19   9  14  1   
 20   9  34  1   
 21  10  15  1   
 22  10  35  1   
 23  11  13  1   
 24  12  36  1   
 25  12  37  1   
 26  12  38  1   
 27  13  16  1   
 28  14  39  1   
 29  15  17  1   
 30  15  40  1   
 31  15  41  1   
 32  16  18  1   
 33  16  42  1   
 34  16  43  1   
 35  17  19  ar  
 36  17  20  ar  
 37  18  21  1   
 38  18  44  1   
 39  18  45  1   
 40  19  22  ar  
 41  19  23  ar  
 42  20  24  ar  
 43  20  46  1   
 44  21  47  1   
 45  21  48  1   
 46  21  49  1   
 47  22  25  ar  
 48  22  26  ar  
 49  23  27  ar  
 50  23  50  1   
 51  24  25  ar  
 52  24  51  1   
 53  26  28  ar  
 54  26  52  1   
 55  27  28  ar  
 56  27  53  1   
 57  28  54  1   
@<TRIPOS>SUBSTRUCTURE
  1 ****   6 GROUP 4 **** **** 0

# MOE 2024.06 (io_trps.svl 2023.06)
