@<TRIPOS>MOLECULE
NONAME
52 54 1 0 0 
SMALL
USER_CHARGES


@<TRIPOS>ATOM
  1 O       -1.2120    -0.2370     2.0210 O.co2 1 <1>  -0.9000 
  2 C       -1.8730    -0.4530     0.9880 C.2   1 <1>   0.9790 
  3 O       -1.2620    -0.6520    -0.0780 O.co2 1 <1>  -0.9000 
  4 C       -3.3320    -0.4710     1.0250 C.ar  1 <1>  -0.1790 
  5 C       -4.0900    -0.7200    -0.1190 C.ar  1 <1>  -0.1500 
  6 C       -4.0360    -0.2400     2.2060 C.ar  1 <1>  -0.1500 
  7 C       -5.4770    -0.7360    -0.1050 C.ar  1 <1>  -0.1440 
  8 C       -5.4170    -0.2550     2.2390 C.ar  1 <1>  -0.1500 
  9 C       -6.1510    -0.5010     1.0900 C.ar  1 <1>  -0.1430 
 10 C       -6.2020    -1.0200    -1.4120 C.3   1 <1>   0.2840 
 11 C       -7.6700    -0.5110     1.1800 C.3   1 <1>  -0.0960 
 12 N       -6.7240    -2.3920    -1.3660 N.am  1 <1>  -0.7300 
 13 C       -7.6550    -2.9150    -2.1980 C.2   1 <1>   0.5690 
 14 O       -8.1080    -2.2880    -3.1270 O.2   1 <1>  -0.5700 
 15 C       -8.1470    -4.3410    -1.9340 C.3   1 <1>   0.1710 
 16 N       -8.5350    -4.5810    -0.5170 N.3   1 <1>  -0.8100 
 17 C       -9.7550    -3.8600    -0.1450 C.3   1 <1>   0.1100 
 18 C       -8.8380    -5.9890    -0.2380 C.3   1 <1>   0.1100 
 19 C      -10.1610    -4.5100     1.1710 C.3   1 <1>   0.2000 
 20 C       -9.8050    -5.9860     0.9610 C.3   1 <1>  -0.0800 
 21 O       -9.3280    -4.0070     2.1530 O.3   1 <1>  -0.6800 
 22 C      -11.0610    -6.8370     0.7010 C.3   1 <1>  -0.0170 
 23 C      -10.7140    -8.3010     0.4820 C.ar  1 <1>   0.1670 
 24 N      -10.5670    -8.6920    -0.7750 N.ar  1 <1>  -0.6200 
 25 C      -10.5650    -9.1390     1.5770 C.ar  1 <1>  -0.1500 
 26 C      -10.2610    -9.9680    -0.9470 C.ar  1 <1>   0.1600 
 27 C      -10.2440   -10.4650     1.3830 C.ar  1 <1>  -0.1500 
 28 C      -10.0900   -10.8810     0.0790 C.ar  1 <1>  -0.1500 
 29 H       -3.5550    -0.9050    -1.0360 H     1 <1>   0.1500 
 30 H       -3.4750    -0.0460     3.1050 H     1 <1>   0.1500 
 31 H       -5.9140    -0.0730     3.1750 H     1 <1>   0.1500 
 32 H       -5.5260    -0.9280    -2.2440 H     1 <1>   0.0800 
 33 H       -7.0100    -0.3250    -1.5590 H     1 <1>   0.0800 
 34 H       -8.0010    -0.1670     2.1430 H     1 <1>   0.0800 
 35 H       -8.0330    -1.5120     1.0370 H     1 <1>   0.0800 
 36 H       -8.0970     0.1300     0.4300 H     1 <1>   0.0800 
 37 H       -6.4390    -2.9230    -0.5400 H     1 <1>   0.3700 
 38 H       -7.3490    -5.0120    -2.1960 H     1 <1>   0.0800 
 39 H       -8.9800    -4.5470    -2.5830 H     1 <1>   0.0800 
 40 H       -9.5850    -2.8030    -0.0400 H     1 <1>   0.0800 
 41 H      -10.5230    -4.0270    -0.8810 H     1 <1>   0.0800 
 42 H       -9.3080    -6.4350    -1.0990 H     1 <1>   0.0800 
 43 H       -7.9360    -6.5320    -0.0130 H     1 <1>   0.0800 
 44 H      -11.1830    -4.3260     1.4520 H     1 <1>   0.0800 
 45 H       -9.3060    -6.3790     1.8300 H     1 <1>   0.0800 
 46 H       -8.4170    -4.0430     1.7880 H     1 <1>   0.4000 
 47 H      -11.5890    -6.4660    -0.1600 H     1 <1>   0.0800 
 48 H      -11.7240    -6.7600     1.5440 H     1 <1>   0.0800 
 49 H      -10.6960    -8.7580     2.5730 H     1 <1>   0.1500 
 50 H      -10.1400   -10.3050    -1.9620 H     1 <1>   0.1500 
 51 H      -10.1200   -11.1420     2.2110 H     1 <1>   0.1500 
 52 H       -9.8400   -11.9030    -0.1440 H     1 <1>   0.1500 
@<TRIPOS>BOND
  1   1   2  ar  
  2   2   3  ar  
  3   2   4  1   
  4   4   5  ar  
  5   4   6  ar  
  6   5   7  ar  
  7   5  29  1   
  8   6   8  ar  
  9   6  30  1   
 10   7   9  ar  
 11   7  10  1   
 12   8   9  ar  
 13   8  31  1   
 14   9  11  1   
 15  10  12  1   
 16  10  32  1   
 17  10  33  1   
 18  11  34  1   
 19  11  35  1   
 20  11  36  1   
 21  12  13  am  
 22  12  37  1   
 23  13  14  2   
 24  13  15  1   
 25  15  16  1   
 26  15  38  1   
 27  15  39  1   
 28  16  17  1   
 29  16  18  1   
 30  17  19  1   
 31  17  40  1   
 32  17  41  1   
 33  18  20  1   
 34  18  42  1   
 35  18  43  1   
 36  19  20  1   
 37  19  21  1   
 38  19  44  1   
 39  20  22  1   
 40  20  45  1   
 41  21  46  1   
 42  22  23  1   
 43  22  47  1   
 44  22  48  1   
 45  23  24  ar  
 46  23  25  ar  
 47  24  26  ar  
 48  25  27  ar  
 49  25  49  1   
 50  26  28  ar  
 51  26  50  1   
 52  27  28  ar  
 53  27  51  1   
 54  28  52  1   
@<TRIPOS>SUBSTRUCTURE
  1 ****  16 GROUP 4 **** **** 0

# MOE 2024.06 (io_trps.svl 2023.06)
