@<TRIPOS>MOLECULE
NONAME
47 49 1 0 0 
SMALL
USER_CHARGES


@<TRIPOS>ATOM
  1 S       -1.0580    -0.8670    -0.9610 S.3   1 <1>  -0.0800 
  2 C       -1.1570     0.8190    -0.4750 C.2   1 <1>   0.0600 
  3 C       -2.7280    -0.8770    -1.5090 C.2   1 <1>  -0.1400 
  4 C        0.0060     1.4140     0.0990 C.1   1 <1>  -0.0200 
  5 C       -2.3920     1.2930    -0.7430 C.2   1 <1>  -0.1500 
  6 C       -3.2810     0.3390    -1.3300 C.2   1 <1>  -0.1500 
  7 C       -3.2740    -2.1700    -2.0890 C.3   1 <1>   0.5230 
  8 C        0.9830     1.9030     0.5730 C.1   1 <1>  -0.2000 
  9 N       -3.6460    -3.1170    -1.0130 N.4   1 <1>  -0.9590 
 10 C        2.2080     2.5080     1.1590 C.3   1 <1>   0.3200 
 11 C       -2.4640    -3.7530    -0.3660 C.3   1 <1>   0.3430 
 12 C       -4.6390    -2.6030    -0.0360 C.3   1 <1>   0.3430 
 13 O        3.1860     2.4760     0.1900 O.3   1 <1>  -0.6800 
 14 C       -2.8960    -4.9580     0.4710 C.3   1 <1>  -0.1060 
 15 C       -5.1000    -3.7310     0.8860 C.3   1 <1>  -0.1600 
 16 C       -3.5850    -5.9700    -0.4430 C.2   1 <1>   0.9060 
 17 C       -3.9050    -4.4510     1.5180 C.3   1 <1>   0.2000 
 18 C       -1.6590    -5.5830     1.1630 C.3   1 <1>  -0.0650 
 19 O       -4.0600    -6.9880     0.0620 O.co2 1 <1>  -0.9000 
 20 O       -3.7710    -5.6800    -1.6360 O.co2 1 <1>  -0.9000 
 21 O       -4.3920    -5.5090     2.2500 O.3   1 <1>  -0.6800 
 22 C       -0.5120    -5.8890     0.1890 C.3   1 <1>  -0.1950 
 23 C        0.8750    -6.0830     0.7100 C.3   1 <1>  -0.2000 
 24 C        0.5480    -4.8790    -0.1250 C.3   1 <1>  -0.2000 
 25 H       -2.7120     2.3020    -0.5460 H     1 <1>   0.1500 
 26 H       -4.2870     0.6240    -1.5880 H     1 <1>   0.1500 
 27 H       -2.5410    -2.6210    -2.7380 H     1 <1>   0.0800 
 28 H       -4.1480    -1.9490    -2.6790 H     1 <1>   0.0800 
 29 H       -4.0630    -3.9570    -1.4940 H     1 <1>   0.4500 
 30 H        2.5480     1.9400     2.0080 H     1 <1>   0.0800 
 31 H        2.0440     3.5330     1.4450 H     1 <1>   0.0800 
 32 H       -1.7830    -4.0950    -1.1290 H     1 <1>   0.0800 
 33 H       -1.9520    -3.0430     0.2600 H     1 <1>   0.0800 
 34 H       -4.1920    -1.8170     0.5510 H     1 <1>   0.0800 
 35 H       -5.4920    -2.1980    -0.5560 H     1 <1>   0.0800 
 36 H        3.1160     1.6350    -0.3010 H     1 <1>   0.4000 
 37 H       -5.6970    -4.4260     0.3200 H     1 <1>   0.0800 
 38 H       -5.7170    -3.3190     1.6630 H     1 <1>   0.0800 
 39 H       -3.4170    -3.7870     2.2130 H     1 <1>   0.0800 
 40 H       -1.3020    -4.9240     1.9350 H     1 <1>   0.0800 
 41 H       -1.9510    -6.5030     1.6420 H     1 <1>   0.0800 
 42 H       -4.4680    -6.2940     1.6310 H     1 <1>   0.4000 
 43 H       -0.8140    -6.5640    -0.5970 H     1 <1>   0.1000 
 44 H        1.0600    -5.9530     1.7620 H     1 <1>   0.1000 
 45 H        1.4750    -6.8680     0.2820 H     1 <1>   0.1000 
 46 H        0.9390    -4.8320    -1.1270 H     1 <1>   0.1000 
 47 H        0.5500    -3.9200     0.3640 H     1 <1>   0.1000 
@<TRIPOS>BOND
  1   1   2  1   
  2   1   3  1   
  3   2   4  1   
  4   2   5  2   
  5   3   6  2   
  6   3   7  1   
  7   4   8  3   
  8   5   6  1   
  9   5  25  1   
 10   6  26  1   
 11   7   9  1   
 12   7  27  1   
 13   7  28  1   
 14   8  10  1   
 15   9  11  1   
 16   9  12  1   
 17   9  29  1   
 18  10  13  1   
 19  10  30  1   
 20  10  31  1   
 21  11  14  1   
 22  11  32  1   
 23  11  33  1   
 24  12  15  1   
 25  12  34  1   
 26  12  35  1   
 27  13  36  1   
 28  14  16  1   
 29  14  17  1   
 30  14  18  1   
 31  15  17  1   
 32  15  37  1   
 33  15  38  1   
 34  16  19  ar  
 35  16  20  ar  
 36  17  21  1   
 37  17  39  1   
 38  18  22  1   
 39  18  40  1   
 40  18  41  1   
 41  21  42  1   
 42  22  23  1   
 43  22  24  1   
 44  22  43  1   
 45  23  24  1   
 46  23  44  1   
 47  23  45  1   
 48  24  46  1   
 49  24  47  1   
@<TRIPOS>SUBSTRUCTURE
  1 ****  11 GROUP 4 **** **** 0

# MOE 2024.06 (io_trps.svl 2023.06)
