@<TRIPOS>MOLECULE
NONAME
48 50 1 0 0 
SMALL
USER_CHARGES


@<TRIPOS>ATOM
  1 O        0.6160    -0.7940    -3.1340 O.3   1 <1>  -0.6800 
  2 C        1.9380    -0.6230    -2.7410 C.3   1 <1>   0.2000 
  3 C        2.2460    -1.4680    -1.5090 C.3   1 <1>  -0.0800 
  4 C        2.2090     0.8110    -2.3070 C.3   1 <1>   0.2090 
  5 C        3.2760    -0.6550    -0.7160 C.3   1 <1>   0.2090 
  6 C        2.7520    -2.8730    -1.8710 C.3   1 <1>   0.0210 
  7 N        3.3090     0.7080    -1.3110 N.pl3 1 <1>  -0.8380 
  8 C        3.0860    -3.6710    -0.6270 C.2   1 <1>   0.1080 
  9 C        4.5410     1.1830    -1.6970 C.ar  1 <1>   0.4100 
 10 N        2.1790    -4.0960     0.1960 N.2   1 <1>  -0.7070 
 11 C        4.3690    -4.0270    -0.2260 C.2   1 <1>  -0.1500 
 12 N        5.1040     0.5870    -2.7300 N.ar  1 <1>  -0.6200 
 13 C        5.1600     2.2310    -1.0290 C.ar  1 <1>  -0.1430 
 14 N        2.8670    -4.7450     1.1540 N.pl3 1 <1>   0.3000 
 15 C        4.1970    -4.7150     0.9210 C.2   1 <1>  -0.3320 
 16 C        6.2830     1.0510    -3.0860 C.ar  1 <1>   0.4770 
 17 C        6.3900     2.6150    -1.5050 C.ar  1 <1>   0.1600 
 18 C        4.4610     2.8840     0.1670 C.3   1 <1>  -0.0170 
 19 C        5.2350    -5.3570     1.8230 C.3   1 <1>  -0.0600 
 20 N        6.9690     2.0340    -2.5370 N.ar  1 <1>  -0.6200 
 21 C        6.9380     0.3810    -4.2690 C.3   1 <1>  -0.0970 
 22 C        5.2460     4.0150     0.8500 C.3   1 <1>  -0.1600 
 23 C        4.4690     4.5950     2.0360 C.3   1 <1>  -0.2400 
 24 H        0.4210    -1.7410    -3.2640 H     1 <1>   0.4000 
 25 H        2.5850    -0.8730    -3.5650 H     1 <1>   0.0800 
 26 H        1.3630    -1.5500    -0.8970 H     1 <1>   0.0800 
 27 H        1.3410     1.2290    -1.8280 H     1 <1>   0.0800 
 28 H        2.4980     1.4200    -3.1460 H     1 <1>   0.0800 
 29 H        4.2540    -1.1030    -0.7780 H     1 <1>   0.0800 
 30 H        2.9900    -0.5960     0.3200 H     1 <1>   0.0800 
 31 H        3.6280    -2.7990    -2.4910 H     1 <1>   0.0800 
 32 H        1.9950    -3.4020    -2.4200 H     1 <1>   0.0800 
 33 H        5.2840    -3.7890    -0.7400 H     1 <1>   0.1500 
 34 H        2.4020    -5.1970     1.9500 H     1 <1>   0.2700 
 35 H        6.9340     3.4180    -1.0430 H     1 <1>   0.1500 
 36 H        3.5140     3.2690    -0.1700 H     1 <1>   0.0800 
 37 H        4.2530     2.1170     0.8930 H     1 <1>   0.0800 
 38 H        6.2210    -5.1920     1.4260 H     1 <1>   0.0800 
 39 H        5.0660    -6.4170     1.8900 H     1 <1>   0.0800 
 40 H        5.1880    -4.9300     2.8090 H     1 <1>   0.0800 
 41 H        7.1260     1.1110    -5.0330 H     1 <1>   0.0800 
 42 H        6.3040    -0.3890    -4.6680 H     1 <1>   0.0800 
 43 H        7.8690    -0.0550    -3.9600 H     1 <1>   0.0800 
 44 H        6.1890     3.6350     1.2030 H     1 <1>   0.0800 
 45 H        5.4370     4.8020     0.1400 H     1 <1>   0.0800 
 46 H        4.2780     3.8310     2.7710 H     1 <1>   0.0800 
 47 H        3.5290     5.0020     1.7080 H     1 <1>   0.0800 
 48 H        5.0380     5.3800     2.5010 H     1 <1>   0.0800 
@<TRIPOS>BOND
  1   1   2  1   
  2   1  24  1   
  3   2   3  1   
  4   2   4  1   
  5   2  25  1   
  6   3   5  1   
  7   3   6  1   
  8   3  26  1   
  9   4   7  1   
 10   4  27  1   
 11   4  28  1   
 12   5   7  1   
 13   5  29  1   
 14   5  30  1   
 15   6   8  1   
 16   6  31  1   
 17   6  32  1   
 18   7   9  1   
 19   8  10  2   
 20   8  11  1   
 21   9  12  ar  
 22   9  13  ar  
 23  10  14  1   
 24  11  15  2   
 25  11  33  1   
 26  12  16  ar  
 27  13  17  ar  
 28  13  18  1   
 29  14  15  1   
 30  14  34  1   
 31  15  19  1   
 32  16  20  ar  
 33  16  21  1   
 34  17  20  ar  
 35  17  35  1   
 36  18  22  1   
 37  18  36  1   
 38  18  37  1   
 39  19  38  1   
 40  19  39  1   
 41  19  40  1   
 42  21  41  1   
 43  21  42  1   
 44  21  43  1   
 45  22  23  1   
 46  22  44  1   
 47  22  45  1   
 48  23  46  1   
 49  23  47  1   
 50  23  48  1   
@<TRIPOS>SUBSTRUCTURE
  1 ****   5 GROUP 4 **** **** 0

# MOE 2024.06 (io_trps.svl 2023.06)
