@<TRIPOS>MOLECULE
NONAME
45 47 1 0 0 
SMALL
USER_CHARGES


@<TRIPOS>ATOM
  1 S        0.7030     1.5810     0.9670 S.o2  1 <1>   1.5000 
  2 O        2.0930     1.8750     0.6850 O.2   1 <1>  -0.6500 
  3 O       -0.0750     2.5020     1.7580 O.2   1 <1>  -0.6500 
  4 N       -0.1110     1.5470    -0.4990 N.am  1 <1>  -0.9140 
  5 C        0.5090    -0.0990     1.6050 C.2   1 <1>  -0.0220 
  6 C        0.5240     2.3410    -1.5710 C.3   1 <1>   0.2570 
  7 S        1.5120    -1.3710     0.9080 S.3   1 <1>  -0.0800 
  8 C       -0.3030    -0.6350     2.5410 C.2   1 <1>  -0.1500 
  9 C        0.5760     3.8560    -1.3220 C.2   1 <1>   0.5690 
 10 C        0.7880    -2.5930     1.9360 C.2   1 <1>  -0.1100 
 11 C       -0.1450    -2.0450     2.7330 C.2   1 <1>  -0.1500 
 12 O       -0.2970     4.5440    -1.7930 O.2   1 <1>  -0.5700 
 13 N        1.5870     4.3790    -0.5790 N.am  1 <1>  -0.7300 
 14 C        1.7390     5.8080    -0.2120 C.3   1 <1>   0.1400 
 15 C        3.1190     6.3090    -0.6300 C.3   1 <1>  -0.0170 
 16 C        3.2930     7.7510    -0.2070 C.ar  1 <1>   0.4770 
 17 N        3.0740     8.6670    -1.1410 N.ar  1 <1>  -0.6200 
 18 N        3.6410     7.9440     1.0580 N.ar  1 <1>  -0.6200 
 19 C        3.2180     9.9220    -0.7720 C.ar  1 <1>   0.1670 
 20 C        3.7780     9.2050     1.3870 C.ar  1 <1>   0.1670 
 21 C        3.5810    10.2360     0.5190 C.ar  1 <1>  -0.1430 
 22 C        2.9640    10.9750    -1.8300 C.3   1 <1>  -0.0970 
 23 C        4.1650     9.6880     2.7580 C.3   1 <1>  -0.0170 
 24 C        3.8090    11.5700     1.1920 C.3   1 <1>  -0.0170 
 25 C        4.4220    11.1930     2.5540 C.3   1 <1>  -0.1600 
 26 H       -0.9950     2.0100    -0.2800 H     1 <1>   0.4200 
 27 H       -0.0330     2.1850    -2.4790 H     1 <1>   0.0800 
 28 H        1.5220     1.9800    -1.7500 H     1 <1>   0.0800 
 29 H       -1.0240    -0.0810     3.1190 H     1 <1>   0.1500 
 30 H        1.1430    -3.6040     1.8310 H     1 <1>   0.1500 
 31 H       -0.7390    -2.5760     3.4580 H     1 <1>   0.1500 
 32 H        2.2200     3.7270    -0.0910 H     1 <1>   0.3700 
 33 H        1.6190     5.9140     0.8540 H     1 <1>   0.0800 
 34 H        0.9800     6.3990    -0.6970 H     1 <1>   0.0800 
 35 H        3.2220     6.2350    -1.6970 H     1 <1>   0.0800 
 36 H        3.8830     5.7160    -0.1630 H     1 <1>   0.0800 
 37 H        1.9730    10.8490    -2.2270 H     1 <1>   0.0800 
 38 H        3.6730    10.8550    -2.6290 H     1 <1>   0.0800 
 39 H        3.0530    11.9660    -1.4300 H     1 <1>   0.0800 
 40 H        5.0440     9.1770     3.1100 H     1 <1>   0.0800 
 41 H        3.3480     9.5200     3.4360 H     1 <1>   0.0800 
 42 H        2.8670    12.0730     1.3250 H     1 <1>   0.0800 
 43 H        4.4780    12.1910     0.6230 H     1 <1>   0.0800 
 44 H        5.4850    11.3620     2.5180 H     1 <1>   0.0800 
 45 H        4.0030    11.7780     3.3540 H     1 <1>   0.0800 
@<TRIPOS>BOND
  1   1   2  2   
  2   1   3  2   
  3   1   4  am  
  4   1   5  1   
  5   4   6  1   
  6   4  26  1   
  7   5   7  1   
  8   5   8  2   
  9   6   9  1   
 10   6  27  1   
 11   6  28  1   
 12   7  10  1   
 13   8  11  1   
 14   8  29  1   
 15   9  12  2   
 16   9  13  am  
 17  10  11  2   
 18  10  30  1   
 19  11  31  1   
 20  13  14  1   
 21  13  32  1   
 22  14  15  1   
 23  14  33  1   
 24  14  34  1   
 25  15  16  1   
 26  15  35  1   
 27  15  36  1   
 28  16  17  ar  
 29  16  18  ar  
 30  17  19  ar  
 31  18  20  ar  
 32  19  21  ar  
 33  19  22  1   
 34  20  21  ar  
 35  20  23  1   
 36  21  24  1   
 37  22  37  1   
 38  22  38  1   
 39  22  39  1   
 40  23  25  1   
 41  23  40  1   
 42  23  41  1   
 43  24  25  1   
 44  24  42  1   
 45  24  43  1   
 46  25  44  1   
 47  25  45  1   
@<TRIPOS>SUBSTRUCTURE
  1 ****  14 GROUP 4 **** **** 0

# MOE 2024.06 (io_trps.svl 2023.06)
