@<TRIPOS>MOLECULE
NONAME
49 52 1 0 0 
SMALL
USER_CHARGES


@<TRIPOS>ATOM
  1 S        0.0770    -0.8330    -0.9950 S.3   1 <1>  -0.0800 
  2 C       -1.4560    -0.9110    -0.1180 C.2   1 <1>  -0.0450 
  3 C       -0.3560     0.6740    -1.7710 C.2   1 <1>  -0.1100 
  4 C       -1.6940    -2.0320     0.7610 C.2   1 <1>   0.7150 
  5 C       -2.1930     0.1840    -0.4440 C.2   1 <1>  -0.1500 
  6 C       -1.5780     1.0720    -1.3740 C.2   1 <1>  -0.1500 
  7 O       -0.7660    -2.5440     1.3610 O.2   1 <1>  -0.5700 
  8 N       -2.9630    -2.5420     0.9550 N.am  1 <1>  -0.6600 
  9 C       -4.0410    -2.4820    -0.0700 C.3   1 <1>   0.1400 
 10 C       -3.2920    -3.3930     2.1330 C.3   1 <1>   0.1400 
 11 C       -4.3620    -3.8990    -0.5500 C.3   1 <1>  -0.1600 
 12 C       -3.6100    -4.8150     1.6660 C.3   1 <1>  -0.1600 
 13 C       -4.7290    -4.8350     0.6140 C.3   1 <1>   0.4240 
 14 O       -5.8600    -4.3010     1.2630 O.3   1 <1>  -0.5600 
 15 C       -4.9800    -6.2750     0.1190 C.ar  1 <1>  -0.1430 
 16 C       -7.1120    -4.6030     0.7300 C.3   1 <1>   0.1200 
 17 C       -6.2260    -6.8760     0.2450 C.ar  1 <1>  -0.1430 
 18 C       -3.9570    -7.0040    -0.4740 C.ar  1 <1>  -0.1500 
 19 C       -7.3630    -6.1000     0.8800 C.3   1 <1>  -0.0170 
 20 C       -6.4360    -8.1690    -0.2060 C.ar  1 <1>  -0.1500 
 21 C       -4.1470    -8.2990    -0.9240 C.ar  1 <1>   0.0830 
 22 C       -5.4100    -8.8970    -0.8020 C.ar  1 <1>   0.0830 
 23 O       -3.0440    -8.8850    -1.4700 O.3   1 <1>  -0.3630 
 24 O       -5.6160   -10.1600    -1.2810 O.3   1 <1>  -0.3630 
 25 C       -2.7990   -10.2640    -1.2990 C.3   1 <1>   0.0400 
 26 C       -6.9010   -10.7380    -1.3440 C.3   1 <1>   0.0400 
 27 H        0.3580     1.1090    -2.4480 H     1 <1>   0.1500 
 28 H       -3.1680     0.4000    -0.0430 H     1 <1>   0.1500 
 29 H       -2.0760     1.9690    -1.7010 H     1 <1>   0.1500 
 30 H       -3.7380    -1.8900    -0.9150 H     1 <1>   0.0800 
 31 H       -4.9170    -2.0310     0.3660 H     1 <1>   0.0800 
 32 H       -4.1450    -2.9750     2.6410 H     1 <1>   0.0800 
 33 H       -2.4710    -3.4140     2.8290 H     1 <1>   0.0800 
 34 H       -3.4970    -4.2840    -1.0580 H     1 <1>   0.0800 
 35 H       -5.1600    -3.8740    -1.2680 H     1 <1>   0.0800 
 36 H       -3.9050    -5.4180     2.5050 H     1 <1>   0.0800 
 37 H       -2.7100    -5.2400     1.2630 H     1 <1>   0.0800 
 38 H       -7.1390    -4.3070    -0.3030 H     1 <1>   0.0800 
 39 H       -7.8480    -4.0410     1.2780 H     1 <1>   0.0800 
 40 H       -2.9790    -6.5750    -0.5950 H     1 <1>   0.1500 
 41 H       -8.2950    -6.3510     0.4080 H     1 <1>   0.0800 
 42 H       -7.4330    -6.3490     1.9240 H     1 <1>   0.0800 
 43 H       -7.4130    -8.5940    -0.0840 H     1 <1>   0.1500 
 44 H       -1.7490   -10.4380    -1.4450 H     1 <1>   0.0800 
 45 H       -3.3640   -10.8090    -2.0330 H     1 <1>   0.0800 
 46 H       -3.0870   -10.5520    -0.3030 H     1 <1>   0.0800 
 47 H       -6.8120   -11.6960    -1.8220 H     1 <1>   0.0800 
 48 H       -7.5440   -10.0990    -1.9230 H     1 <1>   0.0800 
 49 H       -7.2770   -10.8640    -0.3440 H     1 <1>   0.0800 
@<TRIPOS>BOND
  1   1   2  1   
  2   1   3  1   
  3   2   4  1   
  4   2   5  2   
  5   3   6  2   
  6   3  27  1   
  7   4   7  2   
  8   4   8  am  
  9   5   6  1   
 10   5  28  1   
 11   6  29  1   
 12   8   9  1   
 13   8  10  1   
 14   9  11  1   
 15   9  30  1   
 16   9  31  1   
 17  10  12  1   
 18  10  32  1   
 19  10  33  1   
 20  11  13  1   
 21  11  34  1   
 22  11  35  1   
 23  12  13  1   
 24  12  36  1   
 25  12  37  1   
 26  13  14  1   
 27  13  15  1   
 28  14  16  1   
 29  15  17  ar  
 30  15  18  ar  
 31  16  19  1   
 32  16  38  1   
 33  16  39  1   
 34  17  19  1   
 35  17  20  ar  
 36  18  21  ar  
 37  18  40  1   
 38  19  41  1   
 39  19  42  1   
 40  20  22  ar  
 41  20  43  1   
 42  21  22  ar  
 43  21  23  1   
 44  22  24  1   
 45  23  25  1   
 46  24  26  1   
 47  25  44  1   
 48  25  45  1   
 49  25  46  1   
 50  26  47  1   
 51  26  48  1   
 52  26  49  1   
@<TRIPOS>SUBSTRUCTURE
  1 ****  13 GROUP 4 **** **** 0

# MOE 2024.06 (io_trps.svl 2023.06)
