@<TRIPOS>MOLECULE
NONAME
38 39 1 0 0 
SMALL
USER_CHARGES


@<TRIPOS>ATOM
  1 S       -0.2240     0.2320    -0.8620 S.o2  1 <1>   1.3330 
  2 O        0.1900     1.1320    -1.9140 O.2   1 <1>  -0.6500 
  3 O       -0.9630    -0.9650    -1.1930 O.2   1 <1>  -0.6500 
  4 N        1.1610    -0.2530    -0.0040 N.am  1 <1>  -0.8490 
  5 C       -1.1500     1.1560     0.3740 C.3   1 <1>  -0.0550 
  6 C        2.3570    -0.3240    -0.8510 C.3   1 <1>   0.1160 
  7 C        0.9890    -1.5160     0.7240 C.3   1 <1>   0.1160 
  8 C       -0.6980     2.6060     0.6660 C.3   1 <1>  -0.0800 
  9 C       -1.0730     3.6050    -0.4310 C.3   1 <1>   0.2000 
 10 C        0.7970     2.8380     0.8890 C.3   1 <1>   0.1400 
 11 O       -2.3890     4.0040    -0.2570 O.3   1 <1>  -0.6800 
 12 C       -0.1080     4.7810    -0.2650 C.3   1 <1>   0.1400 
 13 N        1.0160     4.2670     0.5630 N.am  1 <1>  -0.6600 
 14 C        2.2820     4.8090     0.5650 C.2   1 <1>   0.7160 
 15 O        3.2170     4.1020     0.8940 O.2   1 <1>  -0.5700 
 16 C        2.5330     6.1750     0.1710 C.2   1 <1>  -0.0860 
 17 C        3.6360     6.6630    -0.4580 C.2   1 <1>  -0.0100 
 18 C        1.7200     7.3150     0.3590 C.2   1 <1>  -0.1500 
 19 O        3.5390     7.9530    -0.6710 O.3   1 <1>  -0.2800 
 20 C        2.3880     8.3550    -0.1790 C.2   1 <1>  -0.0100 
 21 H       -2.1760     1.1960     0.0620 H     1 <1>   0.0800 
 22 H       -1.1280     0.6030     1.2920 H     1 <1>   0.0800 
 23 H        3.2120    -0.6160    -0.2670 H     1 <1>   0.0800 
 24 H        2.5620     0.6420    -1.2830 H     1 <1>   0.0800 
 25 H        2.2100    -1.0340    -1.6470 H     1 <1>   0.0800 
 26 H        1.8580    -1.7150     1.3280 H     1 <1>   0.0800 
 27 H        0.8470    -2.3320     0.0340 H     1 <1>   0.0800 
 28 H        0.1310    -1.4590     1.3710 H     1 <1>   0.0800 
 29 H       -1.1820     2.9170     1.5750 H     1 <1>   0.0800 
 30 H       -0.9750     3.1920    -1.4190 H     1 <1>   0.0800 
 31 H        1.4020     2.2540     0.2180 H     1 <1>   0.0800 
 32 H        1.0900     2.6270     1.9030 H     1 <1>   0.0800 
 33 H       -2.5150     4.4050     0.6240 H     1 <1>   0.4000 
 34 H       -0.5890     5.5940     0.2480 H     1 <1>   0.0800 
 35 H        0.2540     5.1070    -1.2250 H     1 <1>   0.0800 
 36 H        4.5200     6.1400    -0.7790 H     1 <1>   0.1500 
 37 H        0.7650     7.3250     0.8500 H     1 <1>   0.1500 
 38 H        2.1300     9.3980    -0.2500 H     1 <1>   0.1500 
@<TRIPOS>BOND
  1   1   2  2   
  2   1   3  2   
  3   1   4  am  
  4   1   5  1   
  5   4   6  1   
  6   4   7  1   
  7   5   8  1   
  8   5  21  1   
  9   5  22  1   
 10   6  23  1   
 11   6  24  1   
 12   6  25  1   
 13   7  26  1   
 14   7  27  1   
 15   7  28  1   
 16   8   9  1   
 17   8  10  1   
 18   8  29  1   
 19   9  11  1   
 20   9  12  1   
 21   9  30  1   
 22  10  13  1   
 23  10  31  1   
 24  10  32  1   
 25  11  33  1   
 26  12  13  1   
 27  12  34  1   
 28  12  35  1   
 29  13  14  am  
 30  14  15  2   
 31  14  16  1   
 32  16  17  2   
 33  16  18  1   
 34  17  19  1   
 35  17  36  1   
 36  18  20  2   
 37  18  37  1   
 38  19  20  1   
 39  20  38  1   
@<TRIPOS>SUBSTRUCTURE
  1 ****  10 GROUP 4 **** **** 0

# MOE 2024.06 (io_trps.svl 2023.06)
