@<TRIPOS>MOLECULE
NONAME
46 47 1 0 0 
SMALL
USER_CHARGES


@<TRIPOS>ATOM
  1 O       -0.6650     0.0850     1.9930 O.2   1 <1>  -0.5700 
  2 C       -1.5650     0.5390     1.3300 C.2   1 <1>   0.5690 
  3 N       -2.7870    -0.0440     1.2920 N.am  1 <1>  -0.7300 
  4 C       -1.3170     1.7990     0.5040 C.3   1 <1>  -0.0190 
  5 C       -3.1190    -1.3430     1.8970 C.3   1 <1>   0.2840 
  6 C       -2.2720     2.9440     0.8930 C.3   1 <1>  -0.1600 
  7 C       -1.3720     1.5090    -1.0160 C.3   1 <1>  -0.1600 
  8 C       -4.0420    -2.0780     0.9360 C.ar  1 <1>  -0.1440 
  9 C       -1.9160     4.2630     0.1750 C.3   1 <1>   0.2000 
 10 C       -1.6750     2.7540    -1.8730 C.3   1 <1>  -0.1600 
 11 C       -3.5690    -2.8520    -0.1260 C.ar  1 <1>  -0.1430 
 12 C       -5.4080    -1.9530     1.1430 C.ar  1 <1>  -0.1500 
 13 O       -3.1080     4.9780    -0.0370 O.3   1 <1>  -0.5600 
 14 C       -1.2040     4.0380    -1.1860 C.3   1 <1>   0.2000 
 15 C       -4.4800    -3.5100    -0.9520 C.ar  1 <1>  -0.1430 
 16 C       -2.0640    -2.9870    -0.3760 C.3   1 <1>  -0.0970 
 17 C       -6.3060    -2.5940     0.3150 C.ar  1 <1>  -0.1500 
 18 C       -3.5670     5.7050     1.0600 C.3   1 <1>   0.0400 
 19 O       -1.4820     5.0970    -2.0240 O.3   1 <1>  -0.6800 
 20 C       -5.8400    -3.3710    -0.7270 C.ar  1 <1>  -0.1500 
 21 C       -4.0390    -4.3960    -2.1110 C.3   1 <1>  -0.0970 
 22 H       -3.5030     0.3070     0.6540 H     1 <1>   0.3700 
 23 H       -0.3180     2.1260     0.7390 H     1 <1>   0.0800 
 24 H       -2.2260    -1.9130     2.0880 H     1 <1>   0.0800 
 25 H       -3.6130    -1.1780     2.8380 H     1 <1>   0.0800 
 26 H       -2.2300     3.0980     1.9570 H     1 <1>   0.0800 
 27 H       -3.2770     2.6590     0.6310 H     1 <1>   0.0800 
 28 H       -0.4240     1.0930    -1.3120 H     1 <1>   0.0800 
 29 H       -2.1210     0.7660    -1.2310 H     1 <1>   0.0800 
 30 H       -1.2600     4.8550     0.7910 H     1 <1>   0.0800 
 31 H       -2.7380     2.8220    -2.0290 H     1 <1>   0.0800 
 32 H       -1.1980     2.6560    -2.8330 H     1 <1>   0.0800 
 33 H       -5.7820    -1.3540     1.9540 H     1 <1>   0.1500 
 34 H       -0.1370     3.9970    -1.0480 H     1 <1>   0.0800 
 35 H       -1.8490    -3.1400    -1.4160 H     1 <1>   0.0800 
 36 H       -1.6790    -3.8200     0.1830 H     1 <1>   0.0800 
 37 H       -1.5320    -2.1010    -0.0840 H     1 <1>   0.0800 
 38 H       -7.3640    -2.4920     0.4800 H     1 <1>   0.1500 
 39 H       -4.4730     6.2070     0.7730 H     1 <1>   0.0800 
 40 H       -2.8240     6.4320     1.3400 H     1 <1>   0.0800 
 41 H       -3.7700     5.0350     1.8780 H     1 <1>   0.0800 
 42 H       -2.3730     5.4200    -1.7590 H     1 <1>   0.4000 
 43 H       -6.5500    -3.8700    -1.3630 H     1 <1>   0.1500 
 44 H       -4.8690    -4.9470    -2.5140 H     1 <1>   0.0800 
 45 H       -3.3030    -5.1050    -1.7770 H     1 <1>   0.0800 
 46 H       -3.6200    -3.7920    -2.8950 H     1 <1>   0.0800 
@<TRIPOS>BOND
  1   1   2  2   
  2   2   3  am  
  3   2   4  1   
  4   3   5  1   
  5   3  22  1   
  6   4   6  1   
  7   4   7  1   
  8   4  23  1   
  9   5   8  1   
 10   5  24  1   
 11   5  25  1   
 12   6   9  1   
 13   6  26  1   
 14   6  27  1   
 15   7  10  1   
 16   7  28  1   
 17   7  29  1   
 18   8  11  ar  
 19   8  12  ar  
 20   9  13  1   
 21   9  14  1   
 22   9  30  1   
 23  10  14  1   
 24  10  31  1   
 25  10  32  1   
 26  11  15  ar  
 27  11  16  1   
 28  12  17  ar  
 29  12  33  1   
 30  13  18  1   
 31  14  19  1   
 32  14  34  1   
 33  15  20  ar  
 34  15  21  1   
 35  16  35  1   
 36  16  36  1   
 37  16  37  1   
 38  17  20  ar  
 39  17  38  1   
 40  18  39  1   
 41  18  40  1   
 42  18  41  1   
 43  19  42  1   
 44  20  43  1   
 45  21  44  1   
 46  21  45  1   
 47  21  46  1   
@<TRIPOS>SUBSTRUCTURE
  1 ****   3 GROUP 4 **** **** 0

# MOE 2024.06 (io_trps.svl 2023.06)
