@<TRIPOS>MOLECULE
NONAME
55 57 1 0 0 
SMALL
USER_CHARGES


@<TRIPOS>ATOM
  1 O       -0.0810     0.5440    -0.1570 O.3   1 <1>  -0.3630 
  2 C        1.1900     1.0300    -0.1590 C.ar  1 <1>   0.0830 
  3 C       -1.1820     1.3410    -0.5100 C.3   1 <1>   0.1200 
  4 C        2.2050     0.2220     0.3580 C.ar  1 <1>  -0.1440 
  5 C        1.4940     2.2980    -0.6510 C.ar  1 <1>  -0.1500 
  6 C       -2.4380     0.4950    -0.2870 C.3   1 <1>   0.3430 
  7 C        3.5120     0.7030     0.3940 C.ar  1 <1>  -0.1440 
  8 C        1.8950    -1.1780     0.8900 C.3   1 <1>  -0.0970 
  9 C        2.7930     2.7620    -0.6190 C.ar  1 <1>  -0.1500 
 10 N       -3.7020     1.2210    -0.6360 N.4   1 <1>  -0.9590 
 11 C        3.7950     1.9680    -0.0970 C.ar  1 <1>  -0.1500 
 12 C        4.6600    -0.1210     0.9630 C.3   1 <1>  -0.0970 
 13 C       -4.8610     0.2600    -0.6910 C.3   1 <1>   0.3430 
 14 C       -3.9900     2.3700     0.2730 C.3   1 <1>   0.3430 
 15 C       -6.2450     0.9550    -0.7310 C.3   1 <1>   0.0000 
 16 C       -5.1290     3.2140    -0.3120 C.3   1 <1>  -0.1600 
 17 C       -6.9180     0.7870     0.6510 C.3   1 <1>   0.2000 
 18 C       -6.0960     2.4200    -1.2100 C.3   1 <1>  -0.1600 
 19 C       -7.1820     0.1700    -1.6590 C.3   1 <1>  -0.1600 
 20 O       -7.9480     1.7180     0.7700 O.3   1 <1>  -0.5600 
 21 C       -7.5170    -0.6280     0.6330 C.3   1 <1>  -0.1600 
 22 C       -7.6700    -1.0280    -0.8410 C.3   1 <1>  -0.1600 
 23 C       -8.3860     1.9810     2.0680 C.3   1 <1>   0.0400 
 24 H       -1.1750     2.2100     0.1230 H     1 <1>   0.0800 
 25 H       -1.0780     1.6130    -1.5460 H     1 <1>   0.0800 
 26 H        0.7450     2.9430    -1.0660 H     1 <1>   0.1500 
 27 H       -2.4710     0.1890     0.7460 H     1 <1>   0.0800 
 28 H       -2.3540    -0.3890    -0.8990 H     1 <1>   0.0800 
 29 H        2.6340    -1.8810     0.5520 H     1 <1>   0.0800 
 30 H        0.9420    -1.5390     0.5530 H     1 <1>   0.0800 
 31 H        1.8940    -1.1640     1.9650 H     1 <1>   0.0800 
 32 H        3.0310     3.7400    -0.9990 H     1 <1>   0.1500 
 33 H       -3.6100     1.6160    -1.5820 H     1 <1>   0.4500 
 34 H        4.8030     2.3440    -0.0760 H     1 <1>   0.1500 
 35 H        5.5550     0.4690     1.0490 H     1 <1>   0.0800 
 36 H        4.8670    -0.9560     0.3190 H     1 <1>   0.0800 
 37 H        4.4080    -0.4850     1.9430 H     1 <1>   0.0800 
 38 H       -4.7580    -0.3530    -1.5710 H     1 <1>   0.0800 
 39 H       -4.8300    -0.3980     0.1620 H     1 <1>   0.0800 
 40 H       -4.2830     1.9950     1.2400 H     1 <1>   0.0800 
 41 H       -3.1180     2.9900     0.4020 H     1 <1>   0.0800 
 42 H       -5.6810     3.6410     0.5080 H     1 <1>   0.0800 
 43 H       -4.7190     4.0370    -0.8720 H     1 <1>   0.0800 
 44 H       -6.2280     0.9310     1.4650 H     1 <1>   0.0800 
 45 H       -5.7210     2.4180    -2.2200 H     1 <1>   0.0800 
 46 H       -7.0530     2.9160    -1.2370 H     1 <1>   0.0800 
 47 H       -8.0380     0.7820    -1.8950 H     1 <1>   0.0800 
 48 H       -6.7180    -0.1300    -2.5820 H     1 <1>   0.0800 
 49 H       -6.8450    -1.3140     1.1180 H     1 <1>   0.0800 
 50 H       -8.4640    -0.6700     1.1400 H     1 <1>   0.0800 
 51 H       -7.0740    -1.9000    -1.0520 H     1 <1>   0.0800 
 52 H       -8.6980    -1.2510    -1.0760 H     1 <1>   0.0800 
 53 H       -9.1870     2.6960     2.0100 H     1 <1>   0.0800 
 54 H       -7.5750     2.3950     2.6420 H     1 <1>   0.0800 
 55 H       -8.7480     1.0760     2.5230 H     1 <1>   0.0800 
@<TRIPOS>BOND
  1   1   2  1   
  2   1   3  1   
  3   2   4  ar  
  4   2   5  ar  
  5   3   6  1   
  6   3  24  1   
  7   3  25  1   
  8   4   7  ar  
  9   4   8  1   
 10   5   9  ar  
 11   5  26  1   
 12   6  10  1   
 13   6  27  1   
 14   6  28  1   
 15   7  11  ar  
 16   7  12  1   
 17   8  29  1   
 18   8  30  1   
 19   8  31  1   
 20   9  11  ar  
 21   9  32  1   
 22  10  13  1   
 23  10  14  1   
 24  10  33  1   
 25  11  34  1   
 26  12  35  1   
 27  12  36  1   
 28  12  37  1   
 29  13  15  1   
 30  13  38  1   
 31  13  39  1   
 32  14  16  1   
 33  14  40  1   
 34  14  41  1   
 35  15  17  1   
 36  15  18  1   
 37  15  19  1   
 38  16  18  1   
 39  16  42  1   
 40  16  43  1   
 41  17  20  1   
 42  17  21  1   
 43  17  44  1   
 44  18  45  1   
 45  18  46  1   
 46  19  22  1   
 47  19  47  1   
 48  19  48  1   
 49  20  23  1   
 50  21  22  1   
 51  21  49  1   
 52  21  50  1   
 53  22  51  1   
 54  22  52  1   
 55  23  53  1   
 56  23  54  1   
 57  23  55  1   
@<TRIPOS>SUBSTRUCTURE
  1 ****   6 GROUP 4 **** **** 0

# MOE 2024.06 (io_trps.svl 2023.06)
