@<TRIPOS>MOLECULE
NONAME
42 43 1 0 0 
SMALL
USER_CHARGES


@<TRIPOS>ATOM
  1 O       -1.8350     1.1020    -2.7400 O.2   1 <1>  -0.5700 
  2 C       -2.1220     1.2960    -1.5750 C.2   1 <1>   0.5440 
  3 N       -2.6080     0.2380    -0.8320 N.am  1 <1>  -0.6600 
  4 C       -2.0120     2.6350    -1.0480 C.ar  1 <1>   0.0860 
  5 C       -2.3400    -1.1600    -1.2990 C.3   1 <1>   0.3200 
  6 C       -3.1910     0.4230     0.5450 C.3   1 <1>   0.1400 
  7 C       -1.0960     2.9600    -0.0410 C.ar  1 <1>   0.3920 
  8 C       -2.8180     3.6540    -1.5360 C.ar  1 <1>  -0.1500 
  9 C       -3.3500    -2.1750    -0.7890 C.2   1 <1>  -0.3320 
 10 C       -4.5470     1.1530     0.4970 C.3   1 <1>   0.1200 
 11 O       -0.2890     1.9800     0.4120 O.3   1 <1>  -0.3630 
 12 N       -0.9680     4.1670     0.5090 N.ar  1 <1>  -0.6200 
 13 C       -2.6840     4.9090    -0.9840 C.ar  1 <1>  -0.1500 
 14 N       -4.6870    -2.0170    -0.8350 N.pl3 1 <1>   0.0330 
 15 C       -3.1370    -3.3810    -0.2190 C.2   1 <1>   0.0770 
 16 O       -5.2310     0.8240    -0.6690 O.3   1 <1>  -0.6800 
 17 C        0.7040     2.2170     1.3860 C.3   1 <1>   0.1200 
 18 C       -1.7580     5.1080     0.0240 C.ar  1 <1>   0.1600 
 19 C       -5.1990    -3.1350    -0.2810 C.2   1 <1>   0.0070 
 20 N       -4.2990    -3.9810     0.0990 N.2   1 <1>  -0.5650 
 21 C        1.4150     0.8960     1.6650 C.3   1 <1>  -0.2400 
 22 C       -6.6870    -3.3540    -0.1190 C.3   1 <1>  -0.0600 
 23 H       -1.3530    -1.4460    -0.9760 H     1 <1>   0.0800 
 24 H       -2.3490    -1.1940    -2.3760 H     1 <1>   0.0800 
 25 H       -2.5110     0.9800     1.1650 H     1 <1>   0.0800 
 26 H       -3.3240    -0.5250     1.0350 H     1 <1>   0.0800 
 27 H       -3.5240     3.4610    -2.3260 H     1 <1>   0.1500 
 28 H       -4.3950     2.2180     0.5010 H     1 <1>   0.0800 
 29 H       -5.1590     0.8890     1.3420 H     1 <1>   0.0800 
 30 H       -3.2890     5.7280    -1.3320 H     1 <1>   0.1500 
 31 H       -5.2040    -1.1840    -1.1450 H     1 <1>   0.2700 
 32 H       -2.1940    -3.8600    -0.0140 H     1 <1>   0.1500 
 33 H       -4.5770     0.8280    -1.4040 H     1 <1>   0.4000 
 34 H        0.2290     2.5940     2.2760 H     1 <1>   0.0800 
 35 H        1.3900     2.9520     1.0000 H     1 <1>   0.0800 
 36 H       -1.6620     6.0930     0.4500 H     1 <1>   0.1500 
 37 H        0.7160     0.1690     2.0370 H     1 <1>   0.0800 
 38 H        2.1810     1.0460     2.4040 H     1 <1>   0.0800 
 39 H        1.8740     0.5270     0.7650 H     1 <1>   0.0800 
 40 H       -7.1130    -2.5640     0.4730 H     1 <1>   0.0800 
 41 H       -6.8650    -4.2920     0.3760 H     1 <1>   0.0800 
 42 H       -7.1630    -3.3750    -1.0820 H     1 <1>   0.0800 
@<TRIPOS>BOND
  1   1   2  2   
  2   2   3  am  
  3   2   4  1   
  4   3   5  1   
  5   3   6  1   
  6   4   7  ar  
  7   4   8  ar  
  8   5   9  1   
  9   5  23  1   
 10   5  24  1   
 11   6  10  1   
 12   6  25  1   
 13   6  26  1   
 14   7  11  1   
 15   7  12  ar  
 16   8  13  ar  
 17   8  27  1   
 18   9  14  1   
 19   9  15  2   
 20  10  16  1   
 21  10  28  1   
 22  10  29  1   
 23  11  17  1   
 24  12  18  ar  
 25  13  18  ar  
 26  13  30  1   
 27  14  19  1   
 28  14  31  1   
 29  15  20  1   
 30  15  32  1   
 31  16  33  1   
 32  17  21  1   
 33  17  34  1   
 34  17  35  1   
 35  18  36  1   
 36  19  20  2   
 37  19  22  1   
 38  21  37  1   
 39  21  38  1   
 40  21  39  1   
 41  22  40  1   
 42  22  41  1   
 43  22  42  1   
@<TRIPOS>SUBSTRUCTURE
  1 ****   3 GROUP 4 **** **** 0

# MOE 2024.06 (io_trps.svl 2023.06)
