@<TRIPOS>MOLECULE
NONAME
56 58 1 0 0 
SMALL
USER_CHARGES


@<TRIPOS>ATOM
  1 CL       0.5950     0.3940    -1.1280 Cl    1 <1>  -0.1770 
  2 C        0.2710    -1.3180    -1.1500 C.ar  1 <1>   0.1770 
  3 C        1.0520    -2.1720    -0.4040 C.ar  1 <1>  -0.1500 
  4 C       -0.7680    -1.7950    -1.9240 C.ar  1 <1>  -0.1500 
  5 C        0.8040    -3.5430    -0.4110 C.ar  1 <1>   0.1170 
  6 C       -1.0210    -3.1520    -1.9400 C.ar  1 <1>  -0.1500 
  7 N        1.6080    -4.4260     0.3260 N.am  1 <1>  -0.5470 
  8 C       -0.2580    -4.0510    -1.1860 C.ar  1 <1>   0.0860 
  9 C        2.4180    -4.2510     1.4120 C.2   1 <1>   0.5690 
 10 C       -0.5800    -5.4670    -1.2170 C.2   1 <1>   0.5440 
 11 O        2.5380    -3.2030     1.9930 O.2   1 <1>  -0.5700 
 12 C        3.1790    -5.4610     1.9290 C.3   1 <1>  -0.0990 
 13 O        0.2940    -6.3200    -1.2000 O.2   1 <1>  -0.5700 
 14 N       -1.8840    -5.9130    -1.2350 N.am  1 <1>  -0.6600 
 15 C        3.8950    -6.2690     0.8320 C.3   1 <1>  -0.2400 
 16 C       -2.1940    -7.2930    -1.6980 C.3   1 <1>   0.1400 
 17 C       -2.9030    -5.3350    -0.3170 C.3   1 <1>   0.1400 
 18 C       -2.3040    -8.2320    -0.4750 C.3   1 <1>   0.4230 
 19 C       -3.0110    -6.2470     0.9120 C.3   1 <1>  -0.1600 
 20 N       -2.4510    -9.7050    -0.8370 N.4   1 <1>  -0.9590 
 21 C       -3.3530    -7.7250     0.5610 C.3   1 <1>   0.0000 
 22 C       -2.9720   -10.5610     0.2780 C.3   1 <1>   0.3430 
 23 C       -3.2150    -9.9900    -2.0960 C.3   1 <1>   0.2630 
 24 C       -3.2480    -8.5810     1.8580 C.3   1 <1>  -0.1600 
 25 C       -4.7860    -7.8210    -0.0370 C.3   1 <1>   0.1200 
 26 C       -2.6120    -9.9680     1.6390 C.3   1 <1>  -0.1600 
 27 O       -5.7160    -7.1710     0.7560 O.3   1 <1>  -0.6800 
 28 H        1.8580    -1.7600     0.1750 H     1 <1>   0.1500 
 29 H       -1.3600    -1.1080    -2.5030 H     1 <1>   0.1500 
 30 H       -1.8260    -3.5260    -2.5490 H     1 <1>   0.1500 
 31 H        1.5670    -5.3920    -0.0210 H     1 <1>   0.3700 
 32 H        3.9110    -5.1170     2.6400 H     1 <1>   0.0800 
 33 H        2.4910    -6.0960     2.4560 H     1 <1>   0.0800 
 34 H        4.5630    -5.6300     0.2790 H     1 <1>   0.0800 
 35 H        3.1890    -6.7070     0.1480 H     1 <1>   0.0800 
 36 H        4.4730    -7.0600     1.2760 H     1 <1>   0.0800 
 37 H       -3.1090    -7.2660    -2.2600 H     1 <1>   0.0800 
 38 H       -1.4080    -7.6350    -2.3490 H     1 <1>   0.0800 
 39 H       -2.6150    -4.3460    -0.0030 H     1 <1>   0.0800 
 40 H       -3.8520    -5.2580    -0.8220 H     1 <1>   0.0800 
 41 H       -1.3520    -8.1400     0.0240 H     1 <1>   0.0800 
 42 H       -2.0670    -6.2010     1.4280 H     1 <1>   0.0800 
 43 H       -3.7450    -5.8350     1.5830 H     1 <1>   0.0800 
 44 H       -1.4830   -10.0190    -1.0030 H     1 <1>   0.4500 
 45 H       -4.0450   -10.6350     0.2120 H     1 <1>   0.0800 
 46 H       -2.5660   -11.5580     0.1950 H     1 <1>   0.0800 
 47 H       -4.2320    -9.6450    -2.0090 H     1 <1>   0.0800 
 48 H       -3.2300   -11.0510    -2.2910 H     1 <1>   0.0800 
 49 H       -2.7540    -9.5020    -2.9390 H     1 <1>   0.0800 
 50 H       -2.6560    -8.0720     2.6010 H     1 <1>   0.0800 
 51 H       -4.2230    -8.7090     2.2950 H     1 <1>   0.0800 
 52 H       -5.1080    -8.8410    -0.1380 H     1 <1>   0.0800 
 53 H       -4.8400    -7.3520    -1.0030 H     1 <1>   0.0800 
 54 H       -2.9470   -10.6350     2.4160 H     1 <1>   0.0800 
 55 H       -1.5410    -9.9020     1.7230 H     1 <1>   0.0800 
 56 H       -5.8200    -7.5940     1.6320 H     1 <1>   0.4000 
@<TRIPOS>BOND
  1   1   2  1   
  2   2   3  ar  
  3   2   4  ar  
  4   3   5  ar  
  5   3  28  1   
  6   4   6  ar  
  7   4  29  1   
  8   5   7  1   
  9   5   8  ar  
 10   6   8  ar  
 11   6  30  1   
 12   7   9  am  
 13   7  31  1   
 14   8  10  1   
 15   9  11  2   
 16   9  12  1   
 17  10  13  2   
 18  10  14  am  
 19  12  15  1   
 20  12  32  1   
 21  12  33  1   
 22  14  16  1   
 23  14  17  1   
 24  15  34  1   
 25  15  35  1   
 26  15  36  1   
 27  16  18  1   
 28  16  37  1   
 29  16  38  1   
 30  17  19  1   
 31  17  39  1   
 32  17  40  1   
 33  18  20  1   
 34  18  21  1   
 35  18  41  1   
 36  19  21  1   
 37  19  42  1   
 38  19  43  1   
 39  20  22  1   
 40  20  23  1   
 41  20  44  1   
 42  21  24  1   
 43  21  25  1   
 44  22  26  1   
 45  22  45  1   
 46  22  46  1   
 47  23  47  1   
 48  23  48  1   
 49  23  49  1   
 50  24  26  1   
 51  24  50  1   
 52  24  51  1   
 53  25  27  1   
 54  25  52  1   
 55  25  53  1   
 56  26  54  1   
 57  26  55  1   
 58  27  56  1   
@<TRIPOS>SUBSTRUCTURE
  1 ****  10 GROUP 4 **** **** 0

# MOE 2024.06 (io_trps.svl 2023.06)
