@<TRIPOS>MOLECULE
NONAME
49 51 1 0 0 
SMALL
USER_CHARGES


@<TRIPOS>ATOM
  1 S        0.8180    -0.0390    -0.1380 S.o2  1 <1>   1.3330 
  2 O        1.6730     0.1480     1.0140 O.2   1 <1>  -0.6500 
  3 O        1.4140    -0.3690    -1.4130 O.2   1 <1>  -0.6500 
  4 N       -0.3180    -1.2410     0.2460 N.am  1 <1>  -0.8490 
  5 C       -0.1880     1.4230    -0.3740 C.3   1 <1>  -0.0550 
  6 C       -0.7520    -1.2040     1.6470 C.3   1 <1>   0.1160 
  7 C        0.1630    -2.5830    -0.0920 C.3   1 <1>   0.1160 
  8 C        0.6210     2.6380    -0.8730 C.3   1 <1>  -0.0800 
  9 C       -0.2240     3.8570    -1.2380 C.3   1 <1>   0.2000 
 10 C        1.6480     3.1740     0.1410 C.3   1 <1>   0.1100 
 11 O       -1.2000     4.0340    -0.2750 O.3   1 <1>  -0.6800 
 12 C        0.7760     4.9920    -1.0730 C.3   1 <1>   0.1100 
 13 N        1.4990     4.6390     0.1590 N.3   1 <1>  -0.8100 
 14 C        2.7830     5.3370     0.2930 C.3   1 <1>   0.2900 
 15 C        2.5600     6.8170     0.5450 C.2   1 <1>  -0.3320 
 16 N        3.5230     7.7470     0.3160 N.pl3 1 <1>   0.5930 
 17 C        1.4710     7.4690     1.0080 C.2   1 <1>  -0.1500 
 18 N        3.0510     8.9860     0.6060 N.2   1 <1>  -0.7070 
 19 C        4.8380     7.5180    -0.1760 C.ar  1 <1>  -0.0230 
 20 C        1.8370     8.8070     1.0210 C.2   1 <1>   0.1390 
 21 C        5.2360     8.0570    -1.3950 C.ar  1 <1>  -0.1500 
 22 C        5.7470     6.7490     0.5440 C.ar  1 <1>  -0.1500 
 23 C        6.5050     7.8190    -1.8920 C.ar  1 <1>  -0.1500 
 24 C        7.0160     6.5090     0.0480 C.ar  1 <1>  -0.1500 
 25 C        7.3950     7.0420    -1.1710 C.ar  1 <1>  -0.1500 
 26 H       -0.9490     1.2030    -1.0970 H     1 <1>   0.0800 
 27 H       -0.6770     1.6720     0.5470 H     1 <1>   0.0800 
 28 H       -1.5280    -1.9310     1.8120 H     1 <1>   0.0800 
 29 H       -1.1430    -0.2310     1.8890 H     1 <1>   0.0800 
 30 H        0.0750    -1.4180     2.3040 H     1 <1>   0.0800 
 31 H       -0.5860    -3.3190     0.1450 H     1 <1>   0.0800 
 32 H        1.0660    -2.8060     0.4530 H     1 <1>   0.0800 
 33 H        0.3720    -2.6450    -1.1470 H     1 <1>   0.0800 
 34 H        1.1620     2.3430    -1.7560 H     1 <1>   0.0800 
 35 H       -0.6830     3.8050    -2.2100 H     1 <1>   0.0800 
 36 H        2.6420     2.8820    -0.1580 H     1 <1>   0.0800 
 37 H        1.4600     2.7940     1.1320 H     1 <1>   0.0800 
 38 H       -0.7260     4.3460     0.5280 H     1 <1>   0.4000 
 39 H        0.2880     5.9480    -0.9950 H     1 <1>   0.0800 
 40 H        1.4510     5.0030    -1.9120 H     1 <1>   0.0800 
 41 H        3.3270     4.9220     1.1250 H     1 <1>   0.0800 
 42 H        3.3680     5.1920    -0.6000 H     1 <1>   0.0800 
 43 H        0.5200     7.0620     1.3040 H     1 <1>   0.1500 
 44 H        1.1920     9.6110     1.3360 H     1 <1>   0.1500 
 45 H        4.5470     8.6690    -1.9520 H     1 <1>   0.1500 
 46 H        5.4640     6.3410     1.4990 H     1 <1>   0.1500 
 47 H        6.8020     8.2410    -2.8360 H     1 <1>   0.1500 
 48 H        7.7120     5.9110     0.6120 H     1 <1>   0.1500 
 49 H        8.3830     6.8570    -1.5570 H     1 <1>   0.1500 
@<TRIPOS>BOND
  1   1   2  2   
  2   1   3  2   
  3   1   4  am  
  4   1   5  1   
  5   4   6  1   
  6   4   7  1   
  7   5   8  1   
  8   5  26  1   
  9   5  27  1   
 10   6  28  1   
 11   6  29  1   
 12   6  30  1   
 13   7  31  1   
 14   7  32  1   
 15   7  33  1   
 16   8   9  1   
 17   8  10  1   
 18   8  34  1   
 19   9  11  1   
 20   9  12  1   
 21   9  35  1   
 22  10  13  1   
 23  10  36  1   
 24  10  37  1   
 25  11  38  1   
 26  12  13  1   
 27  12  39  1   
 28  12  40  1   
 29  13  14  1   
 30  14  15  1   
 31  14  41  1   
 32  14  42  1   
 33  15  16  1   
 34  15  17  2   
 35  16  18  1   
 36  16  19  1   
 37  17  20  1   
 38  17  43  1   
 39  18  20  2   
 40  19  21  ar  
 41  19  22  ar  
 42  20  44  1   
 43  21  23  ar  
 44  21  45  1   
 45  22  24  ar  
 46  22  46  1   
 47  23  25  ar  
 48  23  47  1   
 49  24  25  ar  
 50  24  48  1   
 51  25  49  1   
@<TRIPOS>SUBSTRUCTURE
  1 ****  13 GROUP 4 **** **** 0

# MOE 2024.06 (io_trps.svl 2023.06)
