@<TRIPOS>MOLECULE
NONAME
45 48 1 0 0 
SMALL
USER_CHARGES


@<TRIPOS>ATOM
  1 S       -2.0230    -0.6750    -2.7820 S.3   1 <1>  -0.4600 
  2 C       -2.6200     0.4250    -1.4590 C.3   1 <1>   0.2510 
  3 C       -2.5150    -2.2710    -2.0660 C.3   1 <1>   0.2510 
  4 C       -3.2420    -0.5330    -0.4710 C.2   1 <1>   0.1080 
  5 C       -3.1910    -1.8780    -0.7740 C.2   1 <1>  -0.1810 
  6 N       -3.8370    -0.2890     0.6520 N.2   1 <1>  -0.7070 
  7 C       -3.8030    -2.5070     0.2550 C.2   1 <1>  -0.0880 
  8 N       -4.1870    -1.5150     1.1180 N.pl3 1 <1>   0.3140 
  9 N       -4.0080    -3.9040     0.3660 N.am  1 <1>  -0.4940 
 10 C       -4.9630    -1.6200     2.3610 C.3   1 <1>   0.0160 
 11 C       -4.0770    -4.7380     1.4580 C.2   1 <1>   0.5440 
 12 O       -3.8960    -4.3010     2.5770 O.2   1 <1>  -0.5700 
 13 C       -4.3010    -6.1500     1.2570 C.ar  1 <1>   0.0860 
 14 C       -5.3670    -6.6600     0.4720 C.ar  1 <1>   0.0000 
 15 C       -3.4470    -7.0670     1.8110 C.ar  1 <1>  -0.1500 
 16 C       -5.4140    -8.0520     0.2220 C.ar  1 <1>   0.3100 
 17 C       -6.3960    -5.8560    -0.0610 C.ar  1 <1>  -0.1500 
 18 C       -3.5910    -8.4280     1.5460 C.ar  1 <1>   0.1660 
 19 N       -4.5120    -8.9060     0.7760 N.ar  1 <1>  -0.6200 
 20 C       -6.4330    -8.5750    -0.6140 C.ar  1 <1>  -0.1430 
 21 C       -7.3760    -6.3840    -0.8500 C.ar  1 <1>  -0.1500 
 22 C       -2.6300    -9.4200     2.1660 C.3   1 <1>  -0.0970 
 23 C       -7.4010    -7.7500    -1.1450 C.ar  1 <1>  -0.1430 
 24 C       -6.4180   -10.0830    -0.8910 C.3   1 <1>  -0.0970 
 25 C       -8.5260    -8.2500    -2.0440 C.3   1 <1>  -0.0970 
 26 H       -3.3440     1.1020    -1.8750 H     1 <1>   0.0800 
 27 H       -1.7800     0.9470    -1.0400 H     1 <1>   0.0800 
 28 H       -1.6250    -2.8530    -1.9010 H     1 <1>   0.0800 
 29 H       -3.1860    -2.7540    -2.7530 H     1 <1>   0.0800 
 30 H       -4.0240    -4.3980    -0.5270 H     1 <1>   0.3700 
 31 H       -5.4620    -0.6870     2.5450 H     1 <1>   0.0800 
 32 H       -4.2940    -1.8360     3.1720 H     1 <1>   0.0800 
 33 H       -5.6880    -2.4050     2.2660 H     1 <1>   0.0800 
 34 H       -2.6480    -6.7350     2.4500 H     1 <1>   0.1500 
 35 H       -6.4270    -4.8040     0.1600 H     1 <1>   0.1500 
 36 H       -8.1450    -5.7430    -1.2480 H     1 <1>   0.1500 
 37 H       -1.9210    -8.9320     2.8080 H     1 <1>   0.0800 
 38 H       -2.0980    -9.9390     1.3890 H     1 <1>   0.0800 
 39 H       -3.1820   -10.1390     2.7440 H     1 <1>   0.0800 
 40 H       -5.4720   -10.3620    -1.3200 H     1 <1>   0.0800 
 41 H       -7.1900   -10.4020    -1.5620 H     1 <1>   0.0800 
 42 H       -6.5390   -10.6190     0.0340 H     1 <1>   0.0800 
 43 H       -9.1110    -8.9880    -1.5240 H     1 <1>   0.0800 
 44 H       -8.1170    -8.6890    -2.9360 H     1 <1>   0.0800 
 45 H       -9.1820    -7.4500    -2.3350 H     1 <1>   0.0800 
@<TRIPOS>BOND
  1   1   2  1   
  2   1   3  1   
  3   2   4  1   
  4   2  26  1   
  5   2  27  1   
  6   3   5  1   
  7   3  28  1   
  8   3  29  1   
  9   4   5  1   
 10   4   6  2   
 11   5   7  2   
 12   6   8  1   
 13   7   8  1   
 14   7   9  1   
 15   8  10  1   
 16   9  11  am  
 17   9  30  1   
 18  10  31  1   
 19  10  32  1   
 20  10  33  1   
 21  11  12  2   
 22  11  13  1   
 23  13  14  ar  
 24  13  15  ar  
 25  14  16  ar  
 26  14  17  ar  
 27  15  18  ar  
 28  15  34  1   
 29  16  19  ar  
 30  16  20  ar  
 31  17  21  ar  
 32  17  35  1   
 33  18  19  ar  
 34  18  22  1   
 35  20  23  ar  
 36  20  24  1   
 37  21  23  ar  
 38  21  36  1   
 39  22  37  1   
 40  22  38  1   
 41  22  39  1   
 42  23  25  1   
 43  24  40  1   
 44  24  41  1   
 45  24  42  1   
 46  25  43  1   
 47  25  44  1   
 48  25  45  1   
@<TRIPOS>SUBSTRUCTURE
  1 ****   9 GROUP 4 **** **** 0

# MOE 2024.06 (io_trps.svl 2023.06)
