@<TRIPOS>MOLECULE
NONAME
57 59 1 0 0 
SMALL
USER_CHARGES


@<TRIPOS>ATOM
  1 O        1.1370    -0.4200     0.9480 O.3   1 <1>  -0.5600 
  2 C        2.1860    -1.2140     0.4650 C.3   1 <1>   0.2000 
  3 C        0.0930    -0.1540     0.0630 C.3   1 <1>   0.1200 
  4 C        1.9810    -2.6570     0.9790 C.3   1 <1>   0.3430 
  5 C        3.5160    -0.6020     0.9660 C.3   1 <1>   0.2090 
  6 C       -0.6440    -1.4400    -0.3280 C.3   1 <1>  -0.1600 
  7 N        0.7260    -3.3430     0.5000 N.4   1 <1>  -0.9590 
  8 N        3.4720     0.8760     0.8130 N.pl3 1 <1>  -0.8690 
  9 C       -0.5320    -2.5560     0.7120 C.3   1 <1>   0.3430 
 10 C        0.6030    -4.6910     1.1240 C.3   1 <1>   0.4860 
 11 C        4.3390     1.8620     0.5590 C.ar  1 <1>   0.7710 
 12 C       -0.4490    -5.4770     0.3690 C.ar  1 <1>  -0.1440 
 13 N        3.8050     3.0460     0.3830 N.ar  1 <1>  -0.6200 
 14 N        5.6610     1.6350     0.4950 N.ar  1 <1>  -0.1790 
 15 C       -0.1800    -5.9750    -0.8990 C.ar  1 <1>  -0.1500 
 16 C       -1.6940    -5.7020     0.9400 C.ar  1 <1>  -0.1500 
 17 C        4.6100     4.0540     0.1030 C.ar  1 <1>   0.4100 
 18 C        6.5240     2.6480     0.2480 C.ar  1 <1>   0.2110 
 19 C       -1.1510    -6.6750    -1.5930 C.ar  1 <1>  -0.1500 
 20 C       -2.6640    -6.4020     0.2440 C.ar  1 <1>  -0.1500 
 21 N        4.0130     5.2500    -0.1270 N.pl3 1 <1>  -0.8380 
 22 C        6.0200     3.8920     0.0500 C.ar  1 <1>  -0.1440 
 23 C       -2.3940    -6.8850    -1.0230 C.ar  1 <1>  -0.1500 
 24 C        2.8600     5.7140     0.6990 C.3   1 <1>   0.1290 
 25 C        4.1840     6.0060    -1.3990 C.3   1 <1>   0.1290 
 26 C        6.9590     5.0750    -0.1800 C.3   1 <1>  -0.0960 
 27 H        2.1880    -1.1960    -0.6120 H     1 <1>   0.0800 
 28 H        0.4790     0.3630    -0.8010 H     1 <1>   0.0800 
 29 H       -0.5830     0.5100     0.5770 H     1 <1>   0.0800 
 30 H        1.9730    -2.6200     2.0570 H     1 <1>   0.0800 
 31 H        2.8330    -3.2460     0.6830 H     1 <1>   0.0800 
 32 H        4.3420    -1.0190     0.4150 H     1 <1>   0.0800 
 33 H        3.6430    -0.8380     2.0100 H     1 <1>   0.0800 
 34 H       -0.3140    -1.7840    -1.2910 H     1 <1>   0.0800 
 35 H       -1.6830    -1.1870    -0.4400 H     1 <1>   0.0800 
 36 H        0.7820    -3.5190    -0.5110 H     1 <1>   0.4500 
 37 H        2.5030     1.2200     0.9120 H     1 <1>   0.4000 
 38 H       -1.3860    -3.2040     0.5910 H     1 <1>   0.0800 
 39 H       -0.5630    -2.1420     1.7080 H     1 <1>   0.0800 
 40 H        0.3260    -4.6010     2.1620 H     1 <1>   0.0800 
 41 H        1.5410    -5.2190     1.0650 H     1 <1>   0.0800 
 42 H        5.9740     0.6900     0.6750 H     1 <1>   0.4570 
 43 H        0.7820    -5.8370    -1.3630 H     1 <1>   0.1500 
 44 H       -1.9280    -5.3420     1.9280 H     1 <1>   0.1500 
 45 H        7.5820     2.4390     0.2280 H     1 <1>   0.1500 
 46 H       -0.9450    -7.0620    -2.5770 H     1 <1>   0.1500 
 47 H       -3.6310    -6.5760     0.6860 H     1 <1>   0.1500 
 48 H       -3.1490    -7.4310    -1.5640 H     1 <1>   0.1500 
 49 H        2.8320     5.1820     1.6350 H     1 <1>   0.0800 
 50 H        1.9380     5.5370     0.1720 H     1 <1>   0.0800 
 51 H        2.9560     6.7650     0.9050 H     1 <1>   0.0800 
 52 H        4.7870     5.4460    -2.0920 H     1 <1>   0.0800 
 53 H        4.6550     6.9530    -1.2000 H     1 <1>   0.0800 
 54 H        3.2240     6.1810    -1.8540 H     1 <1>   0.0800 
 55 H        6.6470     5.9150     0.4170 H     1 <1>   0.0800 
 56 H        6.9500     5.3680    -1.2150 H     1 <1>   0.0800 
 57 H        7.9700     4.8320     0.0920 H     1 <1>   0.0800 
@<TRIPOS>BOND
  1   1   2  1   
  2   1   3  1   
  3   2   4  1   
  4   2   5  1   
  5   2  27  1   
  6   3   6  1   
  7   3  28  1   
  8   3  29  1   
  9   4   7  1   
 10   4  30  1   
 11   4  31  1   
 12   5   8  1   
 13   5  32  1   
 14   5  33  1   
 15   6   9  1   
 16   6  34  1   
 17   6  35  1   
 18   7   9  1   
 19   7  10  1   
 20   7  36  1   
 21   8  11  1   
 22   8  37  1   
 23   9  38  1   
 24   9  39  1   
 25  10  12  1   
 26  10  40  1   
 27  10  41  1   
 28  11  13  ar  
 29  11  14  ar  
 30  12  15  ar  
 31  12  16  ar  
 32  13  17  ar  
 33  14  18  ar  
 34  14  42  1   
 35  15  19  ar  
 36  15  43  1   
 37  16  20  ar  
 38  16  44  1   
 39  17  21  1   
 40  17  22  ar  
 41  18  22  ar  
 42  18  45  1   
 43  19  23  ar  
 44  19  46  1   
 45  20  23  ar  
 46  20  47  1   
 47  21  24  1   
 48  21  25  1   
 49  22  26  1   
 50  23  48  1   
 51  24  49  1   
 52  24  50  1   
 53  24  51  1   
 54  25  52  1   
 55  25  53  1   
 56  25  54  1   
 57  26  55  1   
 58  26  56  1   
 59  26  57  1   
@<TRIPOS>SUBSTRUCTURE
  1 ****   2 GROUP 4 **** **** 0

# MOE 2024.06 (io_trps.svl 2023.06)
