@<TRIPOS>MOLECULE
NONAME
47 50 1 0 0 
SMALL
USER_CHARGES


@<TRIPOS>ATOM
  1 O        2.3370    -1.7380     1.8140 O.3   1 <1>  -0.2170 
  2 N        1.6280    -0.6520     1.6050 N.2   1 <1>  -0.5130 
  3 C        3.0260    -2.1580     0.6570 C.3   1 <1>   0.2000 
  4 C        1.9570    -0.0930     0.5130 C.2   1 <1>   0.3030 
  5 C        3.0270    -0.8890    -0.1920 C.3   1 <1>  -0.0990 
  6 C        2.2190    -3.3350     0.0600 C.3   1 <1>   0.3430 
  7 C        1.3910     1.1060    -0.0640 C.ar  1 <1>   0.0860 
  8 N        0.7410    -3.0850     0.1550 N.4   1 <1>  -0.9590 
  9 C        0.2500     1.6870     0.4950 C.ar  1 <1>  -0.1500 
 10 C        1.9300     1.7250    -1.1970 C.ar  1 <1>  -0.1500 
 11 C       -0.0250    -4.2680     0.6820 C.3   1 <1>   0.3430 
 12 C        0.1160    -2.5440    -1.1050 C.3   1 <1>   0.3430 
 13 C       -0.3350     2.8130    -0.0540 C.ar  1 <1>  -0.1500 
 14 C        1.3480     2.8510    -1.7500 C.ar  1 <1>  -0.1500 
 15 C       -1.5260    -3.9560     0.8640 C.3   1 <1>   0.2090 
 16 C       -1.3800    -2.2220    -0.9170 C.3   1 <1>   0.2090 
 17 C        0.2130     3.3970    -1.1810 C.ar  1 <1>  -0.1500 
 18 N       -2.1260    -3.4020    -0.3860 N.pl3 1 <1>  -0.8380 
 19 C       -3.4900    -3.2190    -0.3170 C.ar  1 <1>   0.4100 
 20 N       -3.9100    -2.2620     0.4980 N.ar  1 <1>  -0.6200 
 21 C       -4.3380    -4.0190    -1.0760 C.ar  1 <1>  -0.1500 
 22 C       -5.2230    -2.0980     0.5560 C.ar  1 <1>   0.1600 
 23 C       -5.6990    -3.8360    -1.0050 C.ar  1 <1>  -0.1500 
 24 C       -6.1450    -2.8410    -0.1590 C.ar  1 <1>  -0.1500 
 25 H        4.0230    -2.4570     0.9300 H     1 <1>   0.0800 
 26 H        2.7980    -1.0830    -1.2230 H     1 <1>   0.0800 
 27 H        3.9730    -0.3840    -0.1130 H     1 <1>   0.0800 
 28 H        2.4670    -4.2180     0.6250 H     1 <1>   0.0800 
 29 H        2.5120    -3.5100    -0.9610 H     1 <1>   0.0800 
 30 H        0.6560    -2.3370     0.8800 H     1 <1>   0.4500 
 31 H       -0.1870     1.2530     1.3780 H     1 <1>   0.1500 
 32 H        2.8190     1.3380    -1.6600 H     1 <1>   0.1500 
 33 H        0.3830    -4.5740     1.6310 H     1 <1>   0.0800 
 34 H        0.0660    -5.0940    -0.0030 H     1 <1>   0.0800 
 35 H        0.2070    -3.2690    -1.8950 H     1 <1>   0.0800 
 36 H        0.6230    -1.6460    -1.4130 H     1 <1>   0.0800 
 37 H       -1.2150     3.2390     0.3970 H     1 <1>   0.1500 
 38 H        1.7790     3.3120    -2.6230 H     1 <1>   0.1500 
 39 H       -1.6530    -3.2500     1.6670 H     1 <1>   0.0800 
 40 H       -2.0470    -4.8580     1.1370 H     1 <1>   0.0800 
 41 H       -1.8060    -1.9320    -1.8630 H     1 <1>   0.0800 
 42 H       -1.4880    -1.3910    -0.2410 H     1 <1>   0.0800 
 43 H       -0.2410     4.2750    -1.6100 H     1 <1>   0.1500 
 44 H       -3.9130    -4.7710    -1.7120 H     1 <1>   0.1500 
 45 H       -5.5850    -1.3250     1.2130 H     1 <1>   0.1500 
 46 H       -6.3840    -4.4370    -1.5790 H     1 <1>   0.1500 
 47 H       -7.1970    -2.6450    -0.0550 H     1 <1>   0.1500 
@<TRIPOS>BOND
  1   1   2  1   
  2   1   3  1   
  3   2   4  2   
  4   3   5  1   
  5   3   6  1   
  6   3  25  1   
  7   4   5  1   
  8   4   7  1   
  9   5  26  1   
 10   5  27  1   
 11   6   8  1   
 12   6  28  1   
 13   6  29  1   
 14   7   9  ar  
 15   7  10  ar  
 16   8  11  1   
 17   8  12  1   
 18   8  30  1   
 19   9  13  ar  
 20   9  31  1   
 21  10  14  ar  
 22  10  32  1   
 23  11  15  1   
 24  11  33  1   
 25  11  34  1   
 26  12  16  1   
 27  12  35  1   
 28  12  36  1   
 29  13  17  ar  
 30  13  37  1   
 31  14  17  ar  
 32  14  38  1   
 33  15  18  1   
 34  15  39  1   
 35  15  40  1   
 36  16  18  1   
 37  16  41  1   
 38  16  42  1   
 39  17  43  1   
 40  18  19  1   
 41  19  20  ar  
 42  19  21  ar  
 43  20  22  ar  
 44  21  23  ar  
 45  21  44  1   
 46  22  24  ar  
 47  22  45  1   
 48  23  24  ar  
 49  23  46  1   
 50  24  47  1   
@<TRIPOS>SUBSTRUCTURE
  1 ****  16 GROUP 4 **** **** 0

# MOE 2024.06 (io_trps.svl 2023.06)
