@<TRIPOS>MOLECULE
NONAME
40 42 1 0 0 
SMALL
USER_CHARGES


@<TRIPOS>ATOM
  1 O       -1.0820    -1.5740    -0.1590 O.2   1 <1>  -0.5700 
  2 C        0.0820    -1.8900    -0.2760 C.2   1 <1>   0.7800 
  3 O        0.8190    -1.5060    -1.3060 O.3   1 <1>  -0.4300 
  4 N        0.7690    -2.6940     0.5600 N.am  1 <1>  -0.6600 
  5 C        2.1110    -2.0840    -1.2440 C.3   1 <1>   0.1200 
  6 C        2.1040    -2.9550     0.0190 C.3   1 <1>   0.1400 
  7 C        0.1860    -3.5000     1.6720 C.3   1 <1>   0.2010 
  8 C        0.0710    -4.9900     1.3390 C.2   1 <1>   0.5690 
  9 O        0.9100    -5.7320     1.7940 O.2   1 <1>  -0.5700 
 10 N       -0.9410    -5.4600     0.5430 N.am  1 <1>  -0.6600 
 11 C       -2.0130    -4.6560    -0.0980 C.3   1 <1>   0.1400 
 12 C       -1.1200    -6.8970     0.2370 C.3   1 <1>   0.1400 
 13 C       -2.9810    -5.6800    -0.7010 C.3   1 <1>   0.2000 
 14 C       -2.6050    -7.0330    -0.0960 C.3   1 <1>  -0.0800 
 15 O       -4.2990    -5.3870    -0.3880 O.3   1 <1>  -0.6800 
 16 C       -2.9350    -8.2100    -1.0290 C.3   1 <1>  -0.0170 
 17 C       -2.5570    -9.5430    -0.4050 C.ar  1 <1>   0.1670 
 18 N       -1.3050    -9.9380    -0.5670 N.ar  1 <1>  -0.6200 
 19 C       -3.5100   -10.2760     0.3000 C.ar  1 <1>   0.1600 
 20 C       -1.0700   -11.1000     0.0200 C.ar  1 <1>   0.1600 
 21 N       -3.2780   -11.4380     0.8880 N.ar  1 <1>  -0.6200 
 22 C       -2.0240   -11.8250     0.7230 C.ar  1 <1>   0.1600 
 23 H        2.2730    -2.6690    -2.1310 H     1 <1>   0.0800 
 24 H        2.8380    -1.2940    -1.1780 H     1 <1>   0.0800 
 25 H        2.8680    -2.6490     0.7140 H     1 <1>   0.0800 
 26 H        2.2250    -3.9970    -0.2260 H     1 <1>   0.0800 
 27 H        0.8090    -3.3920     2.5410 H     1 <1>   0.0800 
 28 H       -0.7870    -3.1190     1.9200 H     1 <1>   0.0800 
 29 H       -2.5020    -4.0340     0.6320 H     1 <1>   0.0800 
 30 H       -1.5950    -4.0450    -0.8790 H     1 <1>   0.0800 
 31 H       -0.5080    -7.1550    -0.6120 H     1 <1>   0.0800 
 32 H       -0.8410    -7.5140     1.0750 H     1 <1>   0.0800 
 33 H       -2.8820    -5.6850    -1.7730 H     1 <1>   0.0800 
 34 H       -3.1230    -7.1650     0.8380 H     1 <1>   0.0800 
 35 H       -4.4050    -5.2910     0.5780 H     1 <1>   0.4000 
 36 H       -2.4110    -8.1000    -1.9620 H     1 <1>   0.0800 
 37 H       -3.9890    -8.2010    -1.2480 H     1 <1>   0.0800 
 38 H       -4.5080    -9.8830     0.3840 H     1 <1>   0.1500 
 39 H       -0.0740   -11.4980    -0.0590 H     1 <1>   0.1500 
 40 H       -1.7370   -12.7620     1.1670 H     1 <1>   0.1500 
@<TRIPOS>BOND
  1   1   2  2   
  2   2   3  1   
  3   2   4  am  
  4   3   5  1   
  5   4   6  1   
  6   4   7  1   
  7   5   6  1   
  8   5  23  1   
  9   5  24  1   
 10   6  25  1   
 11   6  26  1   
 12   7   8  1   
 13   7  27  1   
 14   7  28  1   
 15   8   9  2   
 16   8  10  am  
 17  10  11  1   
 18  10  12  1   
 19  11  13  1   
 20  11  29  1   
 21  11  30  1   
 22  12  14  1   
 23  12  31  1   
 24  12  32  1   
 25  13  14  1   
 26  13  15  1   
 27  13  33  1   
 28  14  16  1   
 29  14  34  1   
 30  15  35  1   
 31  16  17  1   
 32  16  36  1   
 33  16  37  1   
 34  17  18  ar  
 35  17  19  ar  
 36  18  20  ar  
 37  19  21  ar  
 38  19  38  1   
 39  20  22  ar  
 40  20  39  1   
 41  21  22  ar  
 42  22  40  1   
@<TRIPOS>SUBSTRUCTURE
  1 ****  12 GROUP 4 **** **** 0

# MOE 2024.06 (io_trps.svl 2023.06)
