@<TRIPOS>MOLECULE
NONAME
59 62 1 0 0 
SMALL
USER_CHARGES


@<TRIPOS>ATOM
  1 O       -1.2130    -1.1220    -1.1780 O.2   1 <1>  -0.5700 
  2 C       -0.1640    -1.7170    -1.2520 C.2   1 <1>   0.5690 
  3 N        1.0180    -1.0510    -1.4330 N.am  1 <1>  -0.6600 
  4 C       -0.2440    -3.2270    -1.1210 C.3   1 <1>  -0.0990 
  5 C        2.2940    -1.6850    -1.8990 C.3   1 <1>   0.1400 
  6 C        1.1070     0.4210    -1.1260 C.3   1 <1>   0.2840 
  7 C        0.7930    -4.0300    -1.9040 C.3   1 <1>   0.1200 
  8 C        2.7940    -2.8950    -1.0650 C.3   1 <1>   0.2800 
  9 C        2.0580     0.6950     0.0450 C.ar  1 <1>   0.1660 
 10 O        2.0240    -4.0610    -1.2410 O.3   1 <1>  -0.5600 
 11 C        4.2150    -3.2550    -1.5390 C.3   1 <1>  -0.1600 
 12 C        2.8170    -2.5760     0.4430 C.3   1 <1>  -0.1600 
 13 N        1.5550     0.4850     1.2590 N.ar  1 <1>  -0.6200 
 14 C        3.3700     1.1060    -0.1970 C.ar  1 <1>   0.0820 
 15 C        4.8800    -4.3180    -0.6600 C.3   1 <1>   0.2090 
 16 C        3.4950    -3.6620     1.2720 C.3   1 <1>   0.2090 
 17 C        2.3880     0.6440     2.2700 C.ar  1 <1>   0.1600 
 18 O        3.7430     1.3580    -1.4890 O.3   1 <1>  -0.3630 
 19 C        4.2480     1.2100     0.8850 C.ar  1 <1>   0.0820 
 20 N        4.8730    -3.8460     0.7450 N.pl3 1 <1>  -0.8380 
 21 C        3.7190     0.9870     2.1430 C.ar  1 <1>  -0.1500 
 22 C        4.5780     2.4600    -1.7800 C.3   1 <1>   0.0400 
 23 O        5.5670     1.4750     0.7020 O.3   1 <1>  -0.3630 
 24 C        5.9630    -3.2730     1.3830 C.ar  1 <1>   0.4100 
 25 C        6.5280     1.0040     1.6240 C.3   1 <1>   0.0400 
 26 N        5.9540    -3.2680     2.7060 N.ar  1 <1>  -0.6200 
 27 C        7.0180    -2.7140     0.6970 C.ar  1 <1>  -0.1500 
 28 C        6.9980    -2.7180     3.2900 C.ar  1 <1>   0.4700 
 29 C        8.0430    -2.1600     1.4220 C.ar  1 <1>   0.4100 
 30 N        8.0500    -2.1510     2.7320 N.ar  1 <1>  -0.6200 
 31 N        9.1220    -1.5780     0.8430 N.pl3 1 <1>  -0.9000 
 32 H       -1.2140    -3.5190    -1.4780 H     1 <1>   0.0800 
 33 H       -0.1990    -3.4920    -0.0820 H     1 <1>   0.0800 
 34 H        3.0690    -0.9450    -1.8760 H     1 <1>   0.0800 
 35 H        2.1960    -1.9650    -2.9320 H     1 <1>   0.0800 
 36 H        0.1390     0.8080    -0.8630 H     1 <1>   0.0800 
 37 H        1.4250     0.9430    -2.0090 H     1 <1>   0.0800 
 38 H        0.9200    -3.6650    -2.9070 H     1 <1>   0.0800 
 39 H        0.4620    -5.0520    -1.9680 H     1 <1>   0.0800 
 40 H        4.8330    -2.3760    -1.5180 H     1 <1>   0.0800 
 41 H        4.1780    -3.6030    -2.5550 H     1 <1>   0.0800 
 42 H        1.8210    -2.4160     0.8090 H     1 <1>   0.0800 
 43 H        3.3650    -1.6680     0.6020 H     1 <1>   0.0800 
 44 H        5.8850    -4.5120    -0.9890 H     1 <1>   0.0800 
 45 H        4.3280    -5.2410    -0.7230 H     1 <1>   0.0800 
 46 H        2.9520    -4.5880     1.1910 H     1 <1>   0.0800 
 47 H        3.5110    -3.3710     2.3080 H     1 <1>   0.0800 
 48 H        1.9880     0.4820     3.2570 H     1 <1>   0.1500 
 49 H        4.3200     1.0750     3.0270 H     1 <1>   0.1500 
 50 H        4.4080     2.7500    -2.8010 H     1 <1>   0.0800 
 51 H        5.6040     2.1630    -1.6540 H     1 <1>   0.0800 
 52 H        4.3350     3.2740    -1.1200 H     1 <1>   0.0800 
 53 H        7.4970     1.0570     1.1610 H     1 <1>   0.0800 
 54 H        6.3040    -0.0190     1.8730 H     1 <1>   0.0800 
 55 H        6.5070     1.6240     2.5020 H     1 <1>   0.0800 
 56 H        7.0420    -2.6910    -0.3700 H     1 <1>   0.1500 
 57 H        6.9880    -2.7290     4.3670 H     1 <1>   0.1500 
 58 H        9.8800    -1.3830     1.5000 H     1 <1>   0.4000 
 59 H        9.4430    -1.9430    -0.0530 H     1 <1>   0.4000 
@<TRIPOS>BOND
  1   1   2  2   
  2   2   3  am  
  3   2   4  1   
  4   3   5  1   
  5   3   6  1   
  6   4   7  1   
  7   4  32  1   
  8   4  33  1   
  9   5   8  1   
 10   5  34  1   
 11   5  35  1   
 12   6   9  1   
 13   6  36  1   
 14   6  37  1   
 15   7  10  1   
 16   7  38  1   
 17   7  39  1   
 18   8  10  1   
 19   8  11  1   
 20   8  12  1   
 21   9  13  ar  
 22   9  14  ar  
 23  11  15  1   
 24  11  40  1   
 25  11  41  1   
 26  12  16  1   
 27  12  42  1   
 28  12  43  1   
 29  13  17  ar  
 30  14  18  1   
 31  14  19  ar  
 32  15  20  1   
 33  15  44  1   
 34  15  45  1   
 35  16  20  1   
 36  16  46  1   
 37  16  47  1   
 38  17  21  ar  
 39  17  48  1   
 40  18  22  1   
 41  19  21  ar  
 42  19  23  1   
 43  20  24  1   
 44  21  49  1   
 45  22  50  1   
 46  22  51  1   
 47  22  52  1   
 48  23  25  1   
 49  24  26  ar  
 50  24  27  ar  
 51  25  53  1   
 52  25  54  1   
 53  25  55  1   
 54  26  28  ar  
 55  27  29  ar  
 56  27  56  1   
 57  28  30  ar  
 58  28  57  1   
 59  29  30  ar  
 60  29  31  1   
 61  31  58  1   
 62  31  59  1   
@<TRIPOS>SUBSTRUCTURE
  1 ****  12 GROUP 4 **** **** 0

# MOE 2024.06 (io_trps.svl 2023.06)
