@<TRIPOS>MOLECULE
NONAME
46 48 1 0 0 
SMALL
USER_CHARGES


@<TRIPOS>ATOM
  1 F        2.3400     0.1940    -1.1930 F     1 <1>  -0.1900 
  2 C        2.7260    -0.0630     0.0310 C.ar  1 <1>   0.1900 
  3 C        1.8880    -0.8390     0.8270 C.ar  1 <1>   0.0820 
  4 C        3.9560     0.4480     0.4570 C.ar  1 <1>   0.0860 
  5 O        0.7070    -1.2560     0.2750 O.3   1 <1>  -0.3630 
  6 C        2.3410    -1.1130     2.1210 C.ar  1 <1>   0.1900 
  7 C        4.8020     1.2700    -0.3860 C.2   1 <1>   0.5440 
  8 C        4.3540     0.1280     1.7580 C.ar  1 <1>  -0.1500 
  9 C       -0.1660    -2.1700     0.9030 C.3   1 <1>   0.0400 
 10 F        1.6390    -1.8230     2.9640 F     1 <1>  -0.1900 
 11 C        3.5570    -0.6430     2.5850 C.ar  1 <1>  -0.1500 
 12 O        6.0150     1.1700    -0.3320 O.2   1 <1>  -0.5700 
 13 N        4.3170     2.2740    -1.1910 N.am  1 <1>  -0.6600 
 14 C        4.9770     2.6040    -2.4990 C.3   1 <1>   0.1400 
 15 C        3.4020     3.3100    -0.6550 C.3   1 <1>   0.1400 
 16 C        6.2540     3.4590    -2.3310 C.3   1 <1>   0.3430 
 17 C        4.1990     4.3270     0.1760 C.3   1 <1>  -0.1600 
 18 N        6.3910     3.9590    -0.9320 N.4   1 <1>  -0.9590 
 19 C        5.3790     4.9840    -0.5520 C.3   1 <1>   0.3430 
 20 C        7.7780     4.2820    -0.5360 C.3   1 <1>   0.5240 
 21 C        7.8210     4.2540     0.9750 C.2   1 <1>  -0.1810 
 22 C        7.7990     3.1700     1.7820 C.2   1 <1>  -0.0100 
 23 C        7.8750     5.3630     1.8330 C.2   1 <1>  -0.1500 
 24 O        7.8240     3.5350     3.0460 O.3   1 <1>  -0.2800 
 25 C        7.8740     4.8510     3.0820 C.2   1 <1>  -0.0100 
 26 H        5.3030     0.4870     2.1230 H     1 <1>   0.1500 
 27 H       -0.9670    -2.3880     0.2210 H     1 <1>   0.0800 
 28 H       -0.5630    -1.7200     1.7960 H     1 <1>   0.0800 
 29 H        0.3730    -3.0730     1.1320 H     1 <1>   0.0800 
 30 H        3.8730    -0.8820     3.5860 H     1 <1>   0.1500 
 31 H        4.2790     3.1180    -3.1360 H     1 <1>   0.0800 
 32 H        5.2400     1.6860    -2.9990 H     1 <1>   0.0800 
 33 H        2.6500     2.8470    -0.0360 H     1 <1>   0.0800 
 34 H        2.8930     3.8020    -1.4670 H     1 <1>   0.0800 
 35 H        6.2480     4.2770    -3.0320 H     1 <1>   0.0800 
 36 H        7.0980     2.8310    -2.5660 H     1 <1>   0.0800 
 37 H        4.5530     3.8600     1.0780 H     1 <1>   0.0800 
 38 H        3.5220     5.1060     0.4810 H     1 <1>   0.0800 
 39 H        6.1550     3.1090    -0.3780 H     1 <1>   0.4500 
 40 H        5.8270     5.7070     0.1110 H     1 <1>   0.0800 
 41 H        5.0300     5.5050    -1.4290 H     1 <1>   0.0800 
 42 H        8.0710     5.2490    -0.9100 H     1 <1>   0.0800 
 43 H        8.4540     3.5350    -0.9200 H     1 <1>   0.0800 
 44 H        7.7620     2.1170     1.5520 H     1 <1>   0.1500 
 45 H        7.9150     6.4000     1.5470 H     1 <1>   0.1500 
 46 H        7.9100     5.3410     4.0410 H     1 <1>   0.1500 
@<TRIPOS>BOND
  1   1   2  1   
  2   2   3  ar  
  3   2   4  ar  
  4   3   5  1   
  5   3   6  ar  
  6   4   7  1   
  7   4   8  ar  
  8   5   9  1   
  9   6  10  1   
 10   6  11  ar  
 11   7  12  2   
 12   7  13  am  
 13   8  11  ar  
 14   8  26  1   
 15   9  27  1   
 16   9  28  1   
 17   9  29  1   
 18  11  30  1   
 19  13  14  1   
 20  13  15  1   
 21  14  16  1   
 22  14  31  1   
 23  14  32  1   
 24  15  17  1   
 25  15  33  1   
 26  15  34  1   
 27  16  18  1   
 28  16  35  1   
 29  16  36  1   
 30  17  19  1   
 31  17  37  1   
 32  17  38  1   
 33  18  19  1   
 34  18  20  1   
 35  18  39  1   
 36  19  40  1   
 37  19  41  1   
 38  20  21  1   
 39  20  42  1   
 40  20  43  1   
 41  21  22  2   
 42  21  23  1   
 43  22  24  1   
 44  22  44  1   
 45  23  25  2   
 46  23  45  1   
 47  24  25  1   
 48  25  46  1   
@<TRIPOS>SUBSTRUCTURE
  1 ****   7 GROUP 4 **** **** 0

# MOE 2024.06 (io_trps.svl 2023.06)
