@<TRIPOS>MOLECULE
NONAME
49 51 1 0 0 
SMALL
USER_CHARGES


@<TRIPOS>ATOM
  1 CL      -1.5130    -3.0290     2.2020 Cl    1 <1>  -0.1240 
  2 C       -2.8020    -2.1410     1.4310 C.2   1 <1>   0.2640 
  3 O       -3.6410    -2.8050     0.6650 O.3   1 <1>  -0.2800 
  4 C       -3.1010    -0.8300     1.4940 C.2   1 <1>  -0.1500 
  5 C       -4.5150    -1.9240     0.2050 C.2   1 <1>  -0.0400 
  6 C       -4.2370    -0.6860     0.6820 C.2   1 <1>  -0.1500 
  7 C       -5.6260    -2.3960    -0.7190 C.3   1 <1>   0.5230 
  8 N       -6.4140    -3.4600    -0.0340 N.4   1 <1>  -0.9590 
  9 C       -5.7390    -4.7980    -0.2410 C.3   1 <1>   0.3430 
 10 C       -7.8500    -3.4140    -0.4460 C.3   1 <1>   0.3430 
 11 C       -6.4750    -5.9810     0.4040 C.3   1 <1>   0.1400 
 12 C       -8.7410    -4.1160     0.5860 C.3   1 <1>  -0.1600 
 13 N       -7.7630    -6.2320    -0.3020 N.am  1 <1>  -0.6600 
 14 C       -8.9770    -5.6000     0.2780 C.3   1 <1>   0.1400 
 15 C       -7.7620    -7.0300    -1.4250 C.2   1 <1>   0.5690 
 16 O       -6.7270    -7.2030    -2.0270 O.2   1 <1>  -0.5700 
 17 C       -9.0220    -7.6980    -2.0000 C.3   1 <1>   0.1810 
 18 O       -9.9700    -8.0140    -1.0150 O.3   1 <1>  -0.5600 
 19 C      -11.0770    -8.7260    -1.4730 C.3   1 <1>   0.2630 
 20 C      -12.1230    -8.7390    -0.3710 C.ar  1 <1>  -0.1440 
 21 C      -11.8250    -9.2940     0.8650 C.ar  1 <1>  -0.1500 
 22 C      -13.3840    -8.2020    -0.5870 C.ar  1 <1>  -0.1500 
 23 C      -12.7750    -9.3140     1.8720 C.ar  1 <1>  -0.1500 
 24 C      -14.3340    -8.2210     0.4190 C.ar  1 <1>  -0.1500 
 25 C      -14.0300    -8.7780     1.6490 C.ar  1 <1>  -0.1500 
 26 H       -2.5960    -0.0510     2.0370 H     1 <1>   0.1500 
 27 H       -4.7440     0.2490     0.5070 H     1 <1>   0.1500 
 28 H       -5.2080    -2.7720    -1.6380 H     1 <1>   0.0800 
 29 H       -6.2590    -1.5560    -0.9500 H     1 <1>   0.0800 
 30 H       -6.3570    -3.2430     0.9690 H     1 <1>   0.4500 
 31 H       -4.7440    -4.7630     0.1700 H     1 <1>   0.0800 
 32 H       -5.6460    -5.0040    -1.2950 H     1 <1>   0.0800 
 33 H       -7.9790    -3.8670    -1.4160 H     1 <1>   0.0800 
 34 H       -8.1640    -2.3850    -0.5110 H     1 <1>   0.0800 
 35 H       -6.6400    -5.8090     1.4530 H     1 <1>   0.0800 
 36 H       -5.8550    -6.8580     0.3170 H     1 <1>   0.0800 
 37 H       -9.7040    -3.6390     0.5840 H     1 <1>   0.0800 
 38 H       -8.3450    -3.9990     1.5790 H     1 <1>   0.0800 
 39 H       -9.7900    -5.6700    -0.4250 H     1 <1>   0.0800 
 40 H       -9.2730    -6.1310     1.1680 H     1 <1>   0.0800 
 41 H       -8.7310    -8.6080    -2.4940 H     1 <1>   0.0800 
 42 H       -9.4770    -7.0370    -2.7140 H     1 <1>   0.0800 
 43 H      -10.7670    -9.7300    -1.7100 H     1 <1>   0.0800 
 44 H      -11.4640    -8.2470    -2.3560 H     1 <1>   0.0800 
 45 H      -10.8480    -9.7080     1.0440 H     1 <1>   0.1500 
 46 H      -13.6340    -7.7650    -1.5380 H     1 <1>   0.1500 
 47 H      -12.5360    -9.7470     2.8270 H     1 <1>   0.1500 
 48 H      -15.3110    -7.8030     0.2460 H     1 <1>   0.1500 
 49 H      -14.7690    -8.7930     2.4310 H     1 <1>   0.1500 
@<TRIPOS>BOND
  1   1   2  1   
  2   2   3  1   
  3   2   4  2   
  4   3   5  1   
  5   4   6  1   
  6   4  26  1   
  7   5   6  2   
  8   5   7  1   
  9   6  27  1   
 10   7   8  1   
 11   7  28  1   
 12   7  29  1   
 13   8   9  1   
 14   8  10  1   
 15   8  30  1   
 16   9  11  1   
 17   9  31  1   
 18   9  32  1   
 19  10  12  1   
 20  10  33  1   
 21  10  34  1   
 22  11  13  1   
 23  11  35  1   
 24  11  36  1   
 25  12  14  1   
 26  12  37  1   
 27  12  38  1   
 28  13  14  1   
 29  13  15  am  
 30  14  39  1   
 31  14  40  1   
 32  15  16  2   
 33  15  17  1   
 34  17  18  1   
 35  17  41  1   
 36  17  42  1   
 37  18  19  1   
 38  19  20  1   
 39  19  43  1   
 40  19  44  1   
 41  20  21  ar  
 42  20  22  ar  
 43  21  23  ar  
 44  21  45  1   
 45  22  24  ar  
 46  22  46  1   
 47  23  25  ar  
 48  23  47  1   
 49  24  25  ar  
 50  24  48  1   
 51  25  49  1   
@<TRIPOS>SUBSTRUCTURE
  1 ****  13 GROUP 4 **** **** 0

# MOE 2024.06 (io_trps.svl 2023.06)
