@<TRIPOS>MOLECULE
NONAME
56 58 1 0 0 
SMALL
USER_CHARGES


@<TRIPOS>ATOM
  1 O       -0.4710     1.3810     0.1560 O.2   1 <1>  -0.5700 
  2 C       -1.6610     1.5080     0.3700 C.2   1 <1>   0.5440 
  3 N       -2.4290     0.3670     0.5330 N.am  1 <1>  -0.6600 
  4 C       -2.1960     2.8560     0.4400 C.ar  1 <1>   0.0860 
  5 C       -3.8330     0.1370     0.0680 C.3   1 <1>   0.2200 
  6 C       -1.7540    -0.8910     0.9700 C.3   1 <1>   0.0600 
  7 C       -2.8680     3.3230     1.5670 C.ar  1 <1>  -0.1500 
  8 C       -2.0360     3.7300    -0.6330 C.ar  1 <1>  -0.1500 
  9 C       -4.2300     0.8600    -1.2190 C.3   1 <1>  -0.1600 
 10 C       -4.8650     0.5120     1.1290 C.3   1 <1>  -0.1600 
 11 C       -3.4140     4.6000     1.6010 C.ar  1 <1>   0.0820 
 12 C       -2.5650     5.0130    -0.6020 C.ar  1 <1>   0.0820 
 13 C       -5.7350     1.1390    -1.1010 C.3   1 <1>  -0.0800 
 14 C       -6.0580     1.1490     0.4000 C.3   1 <1>  -0.0800 
 15 O       -4.1370     5.0750     2.6410 O.3   1 <1>  -0.3630 
 16 C       -3.2490     5.4440     0.5190 C.ar  1 <1>  -0.1500 
 17 O       -2.4670     5.8840    -1.6340 O.3   1 <1>  -0.3630 
 18 C       -6.1220     2.5260    -1.6230 C.3   1 <1>  -0.1600 
 19 C       -6.3220     2.6180     0.7770 C.3   1 <1>  -0.1600 
 20 C       -3.9640     4.5360     3.9360 C.3   1 <1>   0.0400 
 21 C       -1.4190     5.7560    -2.5740 C.3   1 <1>   0.0400 
 22 C       -5.8560     3.4340    -0.4270 C.3   1 <1>   0.4230 
 23 N       -6.4800     4.7880    -0.5100 N.4   1 <1>  -0.9590 
 24 C       -7.9740     4.8060    -0.6090 C.3   1 <1>   0.2630 
 25 C       -5.8830     5.5770    -1.6330 C.3   1 <1>   0.2630 
 26 H       -3.9560    -0.9150    -0.1320 H     1 <1>   0.0800 
 27 H       -2.3830    -1.4320     1.6540 H     1 <1>   0.0800 
 28 H       -0.8240    -0.6680     1.4670 H     1 <1>   0.0800 
 29 H       -1.5450    -1.5070     0.1120 H     1 <1>   0.0800 
 30 H       -2.9480     2.6650     2.4120 H     1 <1>   0.1500 
 31 H       -1.4910     3.3730    -1.4890 H     1 <1>   0.1500 
 32 H       -3.6920     1.7750    -1.3430 H     1 <1>   0.0800 
 33 H       -4.0250     0.2380    -2.0730 H     1 <1>   0.0800 
 34 H       -5.1850    -0.3840     1.6330 H     1 <1>   0.0800 
 35 H       -4.4490     1.1660     1.8670 H     1 <1>   0.0800 
 36 H       -6.2870     0.3590    -1.6020 H     1 <1>   0.0800 
 37 H       -6.9460     0.5660     0.5870 H     1 <1>   0.0800 
 38 H       -3.6420     6.4440     0.5560 H     1 <1>   0.1500 
 39 H       -7.1670     2.5160    -1.8740 H     1 <1>   0.0800 
 40 H       -5.5420     2.8020    -2.4850 H     1 <1>   0.0800 
 41 H       -5.8060     2.9160     1.6710 H     1 <1>   0.0800 
 42 H       -7.3770     2.7270     0.9380 H     1 <1>   0.0800 
 43 H       -4.4880     5.1650     4.6340 H     1 <1>   0.0800 
 44 H       -2.9150     4.5270     4.1750 H     1 <1>   0.0800 
 45 H       -4.3730     3.5420     3.9650 H     1 <1>   0.0800 
 46 H       -1.4090     6.6380    -3.1890 H     1 <1>   0.0800 
 47 H       -1.5940     4.8890    -3.1850 H     1 <1>   0.0800 
 48 H       -0.4840     5.6700    -2.0470 H     1 <1>   0.0800 
 49 H       -4.7870     3.5470    -0.3450 H     1 <1>   0.0800 
 50 H       -6.2110     5.2590     0.3690 H     1 <1>   0.4500 
 51 H       -8.2980     4.2970    -1.5020 H     1 <1>   0.0800 
 52 H       -8.3310     5.8220    -0.6450 H     1 <1>   0.0800 
 53 H       -8.4180     4.3240     0.2450 H     1 <1>   0.0800 
 54 H       -6.1450     5.1370    -2.5810 H     1 <1>   0.0800 
 55 H       -4.8100     5.5960    -1.5520 H     1 <1>   0.0800 
 56 H       -6.2440     6.5920    -1.6120 H     1 <1>   0.0800 
@<TRIPOS>BOND
  1   1   2  2   
  2   2   3  am  
  3   2   4  1   
  4   3   5  1   
  5   3   6  1   
  6   4   7  ar  
  7   4   8  ar  
  8   5   9  1   
  9   5  10  1   
 10   5  26  1   
 11   6  27  1   
 12   6  28  1   
 13   6  29  1   
 14   7  11  ar  
 15   7  30  1   
 16   8  12  ar  
 17   8  31  1   
 18   9  13  1   
 19   9  32  1   
 20   9  33  1   
 21  10  14  1   
 22  10  34  1   
 23  10  35  1   
 24  11  15  1   
 25  11  16  ar  
 26  12  16  ar  
 27  12  17  1   
 28  13  14  1   
 29  13  18  1   
 30  13  36  1   
 31  14  19  1   
 32  14  37  1   
 33  15  20  1   
 34  16  38  1   
 35  17  21  1   
 36  18  22  1   
 37  18  39  1   
 38  18  40  1   
 39  19  22  1   
 40  19  41  1   
 41  19  42  1   
 42  20  43  1   
 43  20  44  1   
 44  20  45  1   
 45  21  46  1   
 46  21  47  1   
 47  21  48  1   
 48  22  23  1   
 49  22  49  1   
 50  23  24  1   
 51  23  25  1   
 52  23  50  1   
 53  24  51  1   
 54  24  52  1   
 55  24  53  1   
 56  25  54  1   
 57  25  55  1   
 58  25  56  1   
@<TRIPOS>SUBSTRUCTURE
  1 ****   4 GROUP 4 **** **** 0

# MOE 2024.06 (io_trps.svl 2023.06)
