@<TRIPOS>MOLECULE
NONAME
53 56 1 0 0 
SMALL
USER_CHARGES


@<TRIPOS>ATOM
  1 CL      -1.7320    -2.8720     4.9400 Cl    1 <1>  -0.1770 
  2 C       -2.2010    -3.7380     3.5010 C.ar  1 <1>   0.1770 
  3 C       -1.2280    -4.1930     2.6320 C.ar  1 <1>  -0.1500 
  4 C       -3.5390    -3.9600     3.2430 C.ar  1 <1>  -0.1500 
  5 C       -1.6070    -4.8780     1.4920 C.ar  1 <1>  -0.1500 
  6 C       -3.9050    -4.6460     2.0980 C.ar  1 <1>  -0.1500 
  7 C       -2.9520    -5.1240     1.1930 C.ar  1 <1>   0.0530 
  8 C       -3.3240    -5.8380    -0.0080 C.2   1 <1>   0.0870 
  9 O       -2.4260    -6.0670    -0.9420 O.3   1 <1>  -0.0190 
 10 C       -4.4820    -6.3940    -0.4500 C.2   1 <1>  -0.2330 
 11 N       -2.9050    -6.7290    -1.9640 N.2   1 <1>  -0.4100 
 12 C       -4.1450    -6.9130    -1.6960 C.2   1 <1>   0.3720 
 13 C       -5.7630    -6.6000     0.1330 C.2   1 <1>   1.0330 
 14 N       -5.0370    -7.5800    -2.5250 N.pl3 1 <1>  -0.8520 
 15 O       -5.8660    -7.0810     1.2750 O.co2 1 <1>  -0.9000 
 16 O       -6.7950    -6.5610    -0.5590 O.co2 1 <1>  -0.9000 
 17 C       -4.7640    -9.0040    -2.7900 C.3   1 <1>   0.3040 
 18 C       -5.8100    -9.8870    -2.0860 C.3   1 <1>  -0.1900 
 19 C       -6.0570   -11.2590    -2.6450 C.3   1 <1>  -0.2000 
 20 C       -7.0950   -10.1900    -2.8140 C.3   1 <1>  -0.2000 
 21 C       -5.6710    -9.7680    -0.5550 C.3   1 <1>   0.4380 
 22 N       -6.9070   -10.0940     0.1950 N.4   1 <1>  -0.9590 
 23 C       -7.9760    -9.0500     0.0580 C.3   1 <1>   0.3430 
 24 C       -6.6310   -10.2030     1.6620 C.3   1 <1>   0.3430 
 25 C       -9.3030    -9.5650     0.6620 C.3   1 <1>   0.1100 
 26 C       -7.9310   -10.4440     2.4730 C.3   1 <1>   0.1100 
 27 N       -9.1020   -10.7060     1.5980 N.3   1 <1>  -0.8100 
 28 C      -10.3130   -10.9690     2.3810 C.3   1 <1>   0.0300 
 29 H       -0.1920    -4.0100     2.8500 H     1 <1>   0.1500 
 30 H       -4.2850    -3.6020     3.9290 H     1 <1>   0.1500 
 31 H       -0.8440    -5.2300     0.8200 H     1 <1>   0.1500 
 32 H       -4.9500    -4.8100     1.9110 H     1 <1>   0.1500 
 33 H       -6.0000    -7.4080    -2.1800 H     1 <1>   0.4000 
 34 H       -3.7720    -9.2600    -2.4560 H     1 <1>   0.0800 
 35 H       -4.8010    -9.1620    -3.8550 H     1 <1>   0.0800 
 36 H       -6.2800   -12.0790    -1.9830 H     1 <1>   0.1000 
 37 H       -5.5210   -11.5840    -3.5210 H     1 <1>   0.1000 
 38 H       -7.2390    -9.7580    -3.7900 H     1 <1>   0.1000 
 39 H       -8.0320   -10.3550    -2.3150 H     1 <1>   0.1000 
 40 H       -5.3680    -8.7730    -0.3020 H     1 <1>   0.0800 
 41 H       -4.8760   -10.4210    -0.2370 H     1 <1>   0.0800 
 42 H       -7.3270   -10.9760    -0.1110 H     1 <1>   0.4500 
 43 H       -8.1140    -8.7480    -0.9650 H     1 <1>   0.0800 
 44 H       -7.6900    -8.1740     0.6120 H     1 <1>   0.0800 
 45 H       -6.1690    -9.2910     2.0110 H     1 <1>   0.0800 
 46 H       -5.9450   -11.0110     1.8450 H     1 <1>   0.0800 
 47 H       -9.9540    -9.8770    -0.1350 H     1 <1>   0.0800 
 48 H       -9.7800    -8.7430     1.1700 H     1 <1>   0.0800 
 49 H       -8.1210    -9.5750     3.0810 H     1 <1>   0.0800 
 50 H       -7.7790   -11.2780     3.1360 H     1 <1>   0.0800 
 51 H      -11.1380   -11.1780     1.7210 H     1 <1>   0.0800 
 52 H      -10.5620   -10.1180     2.9940 H     1 <1>   0.0800 
 53 H      -10.1620   -11.8260     3.0150 H     1 <1>   0.0800 
@<TRIPOS>BOND
  1   1   2  1   
  2   2   3  ar  
  3   2   4  ar  
  4   3   5  ar  
  5   3  29  1   
  6   4   6  ar  
  7   4  30  1   
  8   5   7  ar  
  9   5  31  1   
 10   6   7  ar  
 11   6  32  1   
 12   7   8  1   
 13   8   9  1   
 14   8  10  2   
 15   9  11  1   
 16  10  12  1   
 17  10  13  1   
 18  11  12  2   
 19  12  14  1   
 20  13  15  ar  
 21  13  16  ar  
 22  14  17  1   
 23  14  33  1   
 24  17  18  1   
 25  17  34  1   
 26  17  35  1   
 27  18  19  1   
 28  18  20  1   
 29  18  21  1   
 30  19  20  1   
 31  19  36  1   
 32  19  37  1   
 33  20  38  1   
 34  20  39  1   
 35  21  22  1   
 36  21  40  1   
 37  21  41  1   
 38  22  23  1   
 39  22  24  1   
 40  22  42  1   
 41  23  25  1   
 42  23  43  1   
 43  23  44  1   
 44  24  26  1   
 45  24  45  1   
 46  24  46  1   
 47  25  27  1   
 48  25  47  1   
 49  25  48  1   
 50  26  27  1   
 51  26  49  1   
 52  26  50  1   
 53  27  28  1   
 54  28  51  1   
 55  28  52  1   
 56  28  53  1   
@<TRIPOS>SUBSTRUCTURE
  1 ****  13 GROUP 4 **** **** 0

# MOE 2024.06 (io_trps.svl 2023.06)
