@<TRIPOS>MOLECULE
NONAME
53 56 1 0 0 
SMALL
USER_CHARGES


@<TRIPOS>ATOM
  1 O        0.1070     0.9170    -0.5860 O.2   1 <1>  -0.5700 
  2 C        0.1530     2.0770    -0.2660 C.2   1 <1>   0.5690 
  3 N       -0.9240     2.6820     0.2810 N.am  1 <1>  -0.7300 
  4 C        1.4260     2.8920    -0.5120 C.3   1 <1>   0.1810 
  5 C       -0.9400     4.1010     0.7120 C.3   1 <1>   0.3640 
  6 O        1.4670     4.0960     0.2240 O.3   1 <1>  -0.5600 
  7 C       -2.2380     4.7460     0.2350 C.ar  1 <1>  -0.1440 
  8 C        0.2850     4.8790     0.1620 C.3   1 <1>   0.2610 
  9 C       -2.9220     5.6190     1.0710 C.ar  1 <1>   0.1600 
 10 C       -2.7570     4.4980    -1.0240 C.ar  1 <1>  -0.1500 
 11 C        0.4770     6.2200     0.8900 C.2   1 <1>   0.5690 
 12 N       -4.0480     6.2410     0.7600 N.ar  1 <1>  -0.6200 
 13 C       -3.9290     5.1380    -1.3610 C.ar  1 <1>  -0.1500 
 14 O       -0.0050     6.3360     1.9980 O.2   1 <1>  -0.5700 
 15 N        1.1530     7.2570     0.2890 N.am  1 <1>  -0.5090 
 16 C       -4.5260     5.9870    -0.4460 C.ar  1 <1>   0.1600 
 17 C        1.1750     8.6110     0.8930 C.3   1 <1>   0.0490 
 18 C        2.1060     7.0830    -0.8440 C.3   1 <1>   0.2840 
 19 C       -0.1200     9.3030     1.1880 C.3   1 <1>  -0.2000 
 20 C        0.7390     9.7770     0.0590 C.3   1 <1>  -0.2000 
 21 C        3.5380     7.3070    -0.3800 C.ar  1 <1>  -0.1430 
 22 C        4.2510     8.4160    -0.8070 C.ar  1 <1>  -0.1500 
 23 C        4.1450     6.4010     0.4750 C.ar  1 <1>  -0.1500 
 24 C        5.5560     8.6130    -0.3880 C.ar  1 <1>  -0.1500 
 25 C        5.4490     6.5980     0.8940 C.ar  1 <1>  -0.1500 
 26 C        6.1620     7.7050     0.4650 C.ar  1 <1>  -0.1430 
 27 C        7.5950     7.9210     0.9260 C.3   1 <1>  -0.0170 
 28 C        8.5760     7.2540    -0.0390 C.3   1 <1>  -0.2400 
 29 H       -1.7620     2.1250     0.4620 H     1 <1>   0.3700 
 30 H        1.5010     3.1290    -1.5570 H     1 <1>   0.0800 
 31 H        2.2820     2.3060    -0.2280 H     1 <1>   0.0800 
 32 H       -0.9120     4.1100     1.7890 H     1 <1>   0.0800 
 33 H        0.0990     5.0950    -0.8740 H     1 <1>   0.0800 
 34 H       -2.5230     5.8250     2.0520 H     1 <1>   0.1500 
 35 H       -2.2770     3.8310    -1.7210 H     1 <1>   0.1500 
 36 H       -4.3820     4.9830    -2.3240 H     1 <1>   0.1500 
 37 H       -5.4430     6.4820    -0.7190 H     1 <1>   0.1500 
 38 H        1.9930     8.7430     1.5830 H     1 <1>   0.1000 
 39 H        2.0370     6.0990    -1.2660 H     1 <1>   0.0800 
 40 H        1.8580     7.7860    -1.6190 H     1 <1>   0.0800 
 41 H       -1.0390     8.7860     0.9740 H     1 <1>   0.1000 
 42 H       -0.1840     9.9050     2.0770 H     1 <1>   0.1000 
 43 H        1.2510    10.7150     0.1740 H     1 <1>   0.1000 
 44 H        0.3810     9.6170    -0.9420 H     1 <1>   0.1000 
 45 H        3.7970     9.1350    -1.4660 H     1 <1>   0.1500 
 46 H        3.6040     5.5380     0.8240 H     1 <1>   0.1500 
 47 H        6.0990     9.4770    -0.7280 H     1 <1>   0.1500 
 48 H        5.9060     5.8850     1.5570 H     1 <1>   0.1500 
 49 H        7.8020     8.9760     0.9830 H     1 <1>   0.0800 
 50 H        7.7230     7.5110     1.9130 H     1 <1>   0.0800 
 51 H        8.4680     7.6720    -1.0250 H     1 <1>   0.0800 
 52 H        8.3840     6.1970    -0.0910 H     1 <1>   0.0800 
 53 H        9.5870     7.4070     0.2940 H     1 <1>   0.0800 
@<TRIPOS>BOND
  1   1   2  2   
  2   2   3  am  
  3   2   4  1   
  4   3   5  1   
  5   3  29  1   
  6   4   6  1   
  7   4  30  1   
  8   4  31  1   
  9   5   7  1   
 10   5   8  1   
 11   5  32  1   
 12   6   8  1   
 13   7   9  ar  
 14   7  10  ar  
 15   8  11  1   
 16   8  33  1   
 17   9  12  ar  
 18   9  34  1   
 19  10  13  ar  
 20  10  35  1   
 21  11  14  2   
 22  11  15  am  
 23  12  16  ar  
 24  13  16  ar  
 25  13  36  1   
 26  15  17  1   
 27  15  18  1   
 28  16  37  1   
 29  17  19  1   
 30  17  20  1   
 31  17  38  1   
 32  18  21  1   
 33  18  39  1   
 34  18  40  1   
 35  19  20  1   
 36  19  41  1   
 37  19  42  1   
 38  20  43  1   
 39  20  44  1   
 40  21  22  ar  
 41  21  23  ar  
 42  22  24  ar  
 43  22  45  1   
 44  23  25  ar  
 45  23  46  1   
 46  24  26  ar  
 47  24  47  1   
 48  25  26  ar  
 49  25  48  1   
 50  26  27  1   
 51  27  28  1   
 52  27  49  1   
 53  27  50  1   
 54  28  51  1   
 55  28  52  1   
 56  28  53  1   
@<TRIPOS>SUBSTRUCTURE
  1 ****  11 GROUP 4 **** **** 0

# MOE 2024.06 (io_trps.svl 2023.06)
