@<TRIPOS>MOLECULE
NONAME
59 62 1 0 0 
SMALL
USER_CHARGES


@<TRIPOS>ATOM
  1 O        0.1750    -0.3760     1.1700 O.2   1 <1>  -0.5700 
  2 C        1.0330    -0.8550     0.4490 C.2   1 <1>   0.5440 
  3 N        1.9780    -0.0470    -0.1250 N.am  1 <1>  -0.4930 
  4 C        1.0780    -2.2860     0.2230 C.ar  1 <1>   0.0860 
  5 C        2.1910     1.3500    -0.0250 C.2   1 <1>   0.0630 
  6 C        0.5150    -3.1750     1.1420 C.ar  1 <1>  -0.1500 
  7 C        1.6770    -2.8470    -0.9090 C.ar  1 <1>  -0.1500 
  8 C        3.4730     1.9100     0.0350 C.2   1 <1>   0.3720 
  9 C        1.3490     2.4060     0.0160 C.2   1 <1>  -0.3320 
 10 C        0.5570    -4.5420     0.9500 C.ar  1 <1>  -0.1500 
 11 C        1.7200    -4.2140    -1.1030 C.ar  1 <1>  -0.1500 
 12 N        3.4480     3.2020     0.1340 N.2   1 <1>  -0.7070 
 13 N        4.6610     1.1520     0.0070 N.pl3 1 <1>  -0.8210 
 14 N        2.1320     3.5090     0.1300 N.pl3 1 <1>   0.3140 
 15 C       -0.1710     2.4430    -0.0550 C.3   1 <1>  -0.0600 
 16 C        1.1630    -5.0870    -0.1750 C.ar  1 <1>   0.1000 
 17 C        5.6960     1.7190    -0.9040 C.3   1 <1>   0.2090 
 18 C        5.2530     1.0460     1.3670 C.3   1 <1>   0.2090 
 19 C        1.6860     4.9030     0.2400 C.3   1 <1>   0.0160 
 20 N        1.2020    -6.4620    -0.3590 N.pl3 1 <1>  -0.8380 
 21 C        6.8670     2.1310    -0.0230 C.3   1 <1>  -0.1600 
 22 C        6.7540     1.2200     1.1880 C.3   1 <1>  -0.1600 
 23 C        2.4370    -7.1450    -0.8420 C.3   1 <1>   0.2090 
 24 C       -0.0630    -7.2520    -0.4280 C.3   1 <1>   0.2090 
 25 C        2.5790    -8.5350    -0.1860 C.3   1 <1>   0.3430 
 26 C        0.1260    -8.6420     0.2170 C.3   1 <1>   0.3430 
 27 N        1.3310    -9.3780    -0.3240 N.4   1 <1>  -0.9590 
 28 C        1.5000   -10.7010     0.3490 C.3   1 <1>   0.2630 
 29 H        2.8420    -0.5100    -0.4110 H     1 <1>   0.3700 
 30 H        0.0390    -2.7760     2.0220 H     1 <1>   0.1500 
 31 H        2.1060    -2.2030    -1.6570 H     1 <1>   0.1500 
 32 H        0.1240    -5.1930     1.6850 H     1 <1>   0.1500 
 33 H        2.1810    -4.6080    -1.9890 H     1 <1>   0.1500 
 34 H       -0.5510     1.5000    -0.4040 H     1 <1>   0.0800 
 35 H       -0.5010     3.2050    -0.7360 H     1 <1>   0.0800 
 36 H       -0.5800     2.6330     0.9210 H     1 <1>   0.0800 
 37 H        5.3230     2.5560    -1.4720 H     1 <1>   0.0800 
 38 H        6.0040     0.9490    -1.5890 H     1 <1>   0.0800 
 39 H        5.0180     0.0920     1.8050 H     1 <1>   0.0800 
 40 H        4.8690     1.8290     2.0010 H     1 <1>   0.0800 
 41 H        0.9560     4.9800     1.0240 H     1 <1>   0.0800 
 42 H        1.2580     5.2100    -0.6950 H     1 <1>   0.0800 
 43 H        2.5310     5.5250     0.4720 H     1 <1>   0.0800 
 44 H        6.7270     3.1560     0.2750 H     1 <1>   0.0800 
 45 H        7.8080     2.0330    -0.5320 H     1 <1>   0.0800 
 46 H        7.1960     0.2630     0.9750 H     1 <1>   0.0800 
 47 H        7.2140     1.6400     2.0640 H     1 <1>   0.0800 
 48 H        3.2980    -6.5460    -0.5960 H     1 <1>   0.0800 
 49 H        2.3960    -7.2460    -1.9130 H     1 <1>   0.0800 
 50 H       -0.3550    -7.3640    -1.4580 H     1 <1>   0.0800 
 51 H       -0.8530    -6.7240     0.0780 H     1 <1>   0.0800 
 52 H        2.7970    -8.3870     0.8590 H     1 <1>   0.0800 
 53 H        3.4190    -9.0470    -0.6270 H     1 <1>   0.0800 
 54 H       -0.7640    -9.2260     0.0560 H     1 <1>   0.0800 
 55 H        0.2400    -8.5010     1.2790 H     1 <1>   0.0800 
 56 H        1.1730    -9.5320    -1.3300 H     1 <1>   0.4500 
 57 H        1.6680   -10.5660     1.4060 H     1 <1>   0.0800 
 58 H        2.3420   -11.2300    -0.0680 H     1 <1>   0.0800 
 59 H        0.6170   -11.3050     0.2160 H     1 <1>   0.0800 
@<TRIPOS>BOND
  1   1   2  2   
  2   2   3  am  
  3   2   4  1   
  4   3   5  1   
  5   3  29  1   
  6   4   6  ar  
  7   4   7  ar  
  8   5   8  1   
  9   5   9  2   
 10   6  10  ar  
 11   6  30  1   
 12   7  11  ar  
 13   7  31  1   
 14   8  12  2   
 15   8  13  1   
 16   9  14  1   
 17   9  15  1   
 18  10  16  ar  
 19  10  32  1   
 20  11  16  ar  
 21  11  33  1   
 22  12  14  1   
 23  13  17  1   
 24  13  18  1   
 25  14  19  1   
 26  15  34  1   
 27  15  35  1   
 28  15  36  1   
 29  16  20  1   
 30  17  21  1   
 31  17  37  1   
 32  17  38  1   
 33  18  22  1   
 34  18  39  1   
 35  18  40  1   
 36  19  41  1   
 37  19  42  1   
 38  19  43  1   
 39  20  23  1   
 40  20  24  1   
 41  21  22  1   
 42  21  44  1   
 43  21  45  1   
 44  22  46  1   
 45  22  47  1   
 46  23  25  1   
 47  23  48  1   
 48  23  49  1   
 49  24  26  1   
 50  24  50  1   
 51  24  51  1   
 52  25  27  1   
 53  25  52  1   
 54  25  53  1   
 55  26  27  1   
 56  26  54  1   
 57  26  55  1   
 58  27  28  1   
 59  27  56  1   
 60  28  57  1   
 61  28  58  1   
 62  28  59  1   
@<TRIPOS>SUBSTRUCTURE
  1 ****   4 GROUP 4 **** **** 0

# MOE 2024.06 (io_trps.svl 2023.06)
