@<TRIPOS>MOLECULE
NONAME
55 58 1 0 0 
SMALL
USER_CHARGES


@<TRIPOS>ATOM
  1 O       -0.1540    -2.0490    -1.5170 O.2   1 <1>  -0.5700 
  2 C        0.9250    -2.5350    -1.3010 C.2   1 <1>   0.5690 
  3 N        1.6810    -3.0470    -2.2930 N.am  1 <1>  -0.7300 
  4 C        1.4780    -2.6000     0.1060 C.3   1 <1>  -0.0990 
  5 C        3.0050    -3.6640    -2.0670 C.3   1 <1>   0.1400 
  6 C        2.9670    -2.2080     0.1160 C.3   1 <1>  -0.0800 
  7 C        3.7990    -2.8470    -1.0260 C.3   1 <1>  -0.0800 
  8 C        3.6730    -2.5680     1.4320 C.3   1 <1>  -0.1600 
  9 C        4.8960    -3.6670    -0.3370 C.3   1 <1>  -0.1600 
 10 C        5.0800    -2.9810     1.0130 C.3   1 <1>   0.2200 
 11 N        5.7740    -3.8260     2.0370 N.am  1 <1>  -0.6600 
 12 C        6.8950    -3.4160     2.7290 C.2   1 <1>   0.5690 
 13 C        5.2600    -5.2150     2.2590 C.3   1 <1>   0.0600 
 14 O        7.4520    -4.1490     3.5130 O.2   1 <1>  -0.5700 
 15 C        7.4890    -2.0220     2.5530 C.3   1 <1>   0.0820 
 16 C        8.1340    -1.8110     1.1870 C.2   1 <1>  -0.1810 
 17 C        8.4710    -0.5650     0.5990 C.ar  1 <1>   0.0000 
 18 C        8.4810    -2.7570     0.2940 C.2   1 <1>  -0.0100 
 19 C        8.4020     0.7860     0.9600 C.ar  1 <1>  -0.1430 
 20 C        8.9880    -0.8990    -0.6450 C.ar  1 <1>   0.1400 
 21 O        8.9870    -2.2250    -0.8070 O.3   1 <1>  -0.2800 
 22 C        8.8440     1.7340     0.0580 C.ar  1 <1>  -0.1500 
 23 C        7.8630     1.2250     2.3120 C.3   1 <1>  -0.0970 
 24 C        9.4340     0.0520    -1.5610 C.ar  1 <1>  -0.1430 
 25 C        9.3600     1.3850    -1.1940 C.ar  1 <1>  -0.1430 
 26 C        9.9850    -0.3950    -2.9100 C.3   1 <1>  -0.0970 
 27 C        9.8300     2.4960    -2.1230 C.3   1 <1>  -0.0970 
 28 H        1.2940    -3.0320    -3.2390 H     1 <1>   0.3700 
 29 H        0.9160    -1.9430     0.7440 H     1 <1>   0.0800 
 30 H        1.3490    -3.6070     0.4580 H     1 <1>   0.0800 
 31 H        2.8510    -4.6690    -1.7150 H     1 <1>   0.0800 
 32 H        3.5520    -3.7080    -2.9940 H     1 <1>   0.0800 
 33 H        3.0200    -1.1390    -0.0160 H     1 <1>   0.0800 
 34 H        4.2820    -2.0410    -1.5550 H     1 <1>   0.0800 
 35 H        3.1670    -3.3860     1.9100 H     1 <1>   0.0800 
 36 H        3.6980    -1.7300     2.1040 H     1 <1>   0.0800 
 37 H        5.8100    -3.6610    -0.9060 H     1 <1>   0.0800 
 38 H        4.5590    -4.6780    -0.2070 H     1 <1>   0.0800 
 39 H        5.6300    -2.0760     0.8280 H     1 <1>   0.0800 
 40 H        4.2030    -5.2740     2.0770 H     1 <1>   0.0800 
 41 H        5.4440    -5.5240     3.2740 H     1 <1>   0.0800 
 42 H        5.7700    -5.8940     1.5980 H     1 <1>   0.0800 
 43 H        6.7030    -1.3100     2.7040 H     1 <1>   0.0800 
 44 H        8.2300    -1.8600     3.3140 H     1 <1>   0.0800 
 45 H        8.4020    -3.8300     0.3480 H     1 <1>   0.1500 
 46 H        8.7950     2.7760     0.3210 H     1 <1>   0.1500 
 47 H        8.0190     2.2780     2.4620 H     1 <1>   0.0800 
 48 H        8.3700     0.6980     3.0990 H     1 <1>   0.0800 
 49 H        6.8090     1.0280     2.3680 H     1 <1>   0.0800 
 50 H        9.5700     0.2020    -3.7010 H     1 <1>   0.0800 
 51 H        9.7380    -1.4220    -3.1070 H     1 <1>   0.0800 
 52 H       11.0550    -0.2950    -2.9160 H     1 <1>   0.0800 
 53 H        9.8850     3.4370    -1.6050 H     1 <1>   0.0800 
 54 H        9.1450     2.5990    -2.9450 H     1 <1>   0.0800 
 55 H       10.8090     2.2720    -2.5070 H     1 <1>   0.0800 
@<TRIPOS>BOND
  1   1   2  2   
  2   2   3  am  
  3   2   4  1   
  4   3   5  1   
  5   3  28  1   
  6   4   6  1   
  7   4  29  1   
  8   4  30  1   
  9   5   7  1   
 10   5  31  1   
 11   5  32  1   
 12   6   7  1   
 13   6   8  1   
 14   6  33  1   
 15   7   9  1   
 16   7  34  1   
 17   8  10  1   
 18   8  35  1   
 19   8  36  1   
 20   9  10  1   
 21   9  37  1   
 22   9  38  1   
 23  10  11  1   
 24  10  39  1   
 25  11  12  am  
 26  11  13  1   
 27  12  14  2   
 28  12  15  1   
 29  13  40  1   
 30  13  41  1   
 31  13  42  1   
 32  15  16  1   
 33  15  43  1   
 34  15  44  1   
 35  16  17  1   
 36  16  18  2   
 37  17  19  ar  
 38  17  20  ar  
 39  18  21  1   
 40  18  45  1   
 41  19  22  ar  
 42  19  23  1   
 43  20  21  1   
 44  20  24  ar  
 45  22  25  ar  
 46  22  46  1   
 47  23  47  1   
 48  23  48  1   
 49  23  49  1   
 50  24  25  ar  
 51  24  26  1   
 52  25  27  1   
 53  26  50  1   
 54  26  51  1   
 55  26  52  1   
 56  27  53  1   
 57  27  54  1   
 58  27  55  1   
@<TRIPOS>SUBSTRUCTURE
  1 ****  10 GROUP 4 **** **** 0

# MOE 2024.06 (io_trps.svl 2023.06)
