@<TRIPOS>MOLECULE
NONAME
51 53 1 0 0 
SMALL
USER_CHARGES


@<TRIPOS>ATOM
  1 O       -2.3860     1.0090    -1.9160 O.2   1 <1>  -0.5700 
  2 C       -2.1660     1.1630    -0.7320 C.2   1 <1>   0.7160 
  3 N       -2.2480     0.0550     0.0840 N.am  1 <1>  -0.6600 
  4 C       -1.9490     2.4750    -0.1850 C.2   1 <1>  -0.0860 
  5 C       -2.9510     0.1200     1.4010 C.3   1 <1>   0.1400 
  6 C       -2.2300    -1.3150    -0.5080 C.3   1 <1>   0.1400 
  7 C       -0.9620     2.8810     0.7020 C.2   1 <1>   0.1080 
  8 C       -2.6330     3.6250    -0.3620 C.2   1 <1>  -0.0400 
  9 C       -4.3990    -0.4180     1.2800 C.3   1 <1>   0.4230 
 10 C       -3.6700    -1.8320    -0.6720 C.3   1 <1>   0.3430 
 11 N       -1.1220     4.1120     1.0120 N.2   1 <1>  -0.4100 
 12 C        0.1840     2.0380     1.2400 C.3   1 <1>   0.0210 
 13 O       -2.1520     4.6040     0.3640 O.3   1 <1>  -0.0190 
 14 C       -3.8310     3.9220    -1.2450 C.3   1 <1>  -0.0600 
 15 N       -4.4470    -1.7940     0.6300 N.4   1 <1>  -0.9590 
 16 C       -5.2920     0.5860     0.5140 C.3   1 <1>   0.1200 
 17 C        1.1780     1.6660     0.1340 C.3   1 <1>  -0.2400 
 18 C       -5.8860    -2.2160     0.4760 C.3   1 <1>   0.4230 
 19 O       -6.5980     0.0980     0.4180 O.3   1 <1>  -0.5600 
 20 C       -6.7230    -1.1300    -0.2430 C.3   1 <1>   0.1200 
 21 C       -5.9790    -3.5920    -0.2050 C.3   1 <1>  -0.1600 
 22 C       -7.3660    -4.2330    -0.0420 C.3   1 <1>  -0.1600 
 23 C       -7.3940    -5.6340    -0.6600 C.3   1 <1>  -0.2400 
 24 H       -2.4080    -0.4680     2.1200 H     1 <1>   0.0800 
 25 H       -2.9770     1.1310     1.7700 H     1 <1>   0.0800 
 26 H       -1.7420    -1.3000    -1.4690 H     1 <1>   0.0800 
 27 H       -1.6670    -1.9770     0.1280 H     1 <1>   0.0800 
 28 H       -4.8020    -0.4900     2.2780 H     1 <1>   0.0800 
 29 H       -3.6350    -2.8390    -1.0520 H     1 <1>   0.0800 
 30 H       -4.1630    -1.2190    -1.4100 H     1 <1>   0.0800 
 31 H        0.7020     2.6010     1.9980 H     1 <1>   0.0800 
 32 H       -0.1990     1.1480     1.7020 H     1 <1>   0.0800 
 33 H       -4.1260     3.0520    -1.8030 H     1 <1>   0.0800 
 34 H       -3.5770     4.7020    -1.9410 H     1 <1>   0.0800 
 35 H       -4.6580     4.2530    -0.6440 H     1 <1>   0.0800 
 36 H       -4.0050    -2.4580     1.2760 H     1 <1>   0.4500 
 37 H       -4.9220     0.7730    -0.4790 H     1 <1>   0.0800 
 38 H       -5.3360     1.5240     1.0420 H     1 <1>   0.0800 
 39 H        1.5620     2.5590    -0.3270 H     1 <1>   0.0800 
 40 H        0.7050     1.0650    -0.6210 H     1 <1>   0.0800 
 41 H        2.0020     1.1130     0.5490 H     1 <1>   0.0800 
 42 H       -6.3080    -2.3240     1.4620 H     1 <1>   0.0800 
 43 H       -7.7660    -1.3910    -0.2300 H     1 <1>   0.0800 
 44 H       -6.4170    -1.0060    -1.2680 H     1 <1>   0.0800 
 45 H       -5.7670    -3.5040    -1.2570 H     1 <1>   0.0800 
 46 H       -5.2560    -4.2540     0.2380 H     1 <1>   0.0800 
 47 H       -7.6190    -4.3100     1.0030 H     1 <1>   0.0800 
 48 H       -8.1210    -3.6340    -0.5240 H     1 <1>   0.0800 
 49 H       -6.6790    -6.2790    -0.1810 H     1 <1>   0.0800 
 50 H       -7.1740    -5.5930    -1.7130 H     1 <1>   0.0800 
 51 H       -8.3720    -6.0690    -0.5380 H     1 <1>   0.0800 
@<TRIPOS>BOND
  1   1   2  2   
  2   2   3  am  
  3   2   4  1   
  4   3   5  1   
  5   3   6  1   
  6   4   7  1   
  7   4   8  2   
  8   5   9  1   
  9   5  24  1   
 10   5  25  1   
 11   6  10  1   
 12   6  26  1   
 13   6  27  1   
 14   7  11  2   
 15   7  12  1   
 16   8  13  1   
 17   8  14  1   
 18   9  15  1   
 19   9  16  1   
 20   9  28  1   
 21  10  15  1   
 22  10  29  1   
 23  10  30  1   
 24  11  13  1   
 25  12  17  1   
 26  12  31  1   
 27  12  32  1   
 28  14  33  1   
 29  14  34  1   
 30  14  35  1   
 31  15  18  1   
 32  15  36  1   
 33  16  19  1   
 34  16  37  1   
 35  16  38  1   
 36  17  39  1   
 37  17  40  1   
 38  17  41  1   
 39  18  20  1   
 40  18  21  1   
 41  18  42  1   
 42  19  20  1   
 43  20  43  1   
 44  20  44  1   
 45  21  22  1   
 46  21  45  1   
 47  21  46  1   
 48  22  23  1   
 49  22  47  1   
 50  22  48  1   
 51  23  49  1   
 52  23  50  1   
 53  23  51  1   
@<TRIPOS>SUBSTRUCTURE
  1 ****   3 GROUP 4 **** **** 0

# MOE 2024.06 (io_trps.svl 2023.06)
