@<TRIPOS>MOLECULE
NONAME
59 61 1 0 0 
SMALL
USER_CHARGES


@<TRIPOS>ATOM
  1 O        0.2580    -1.3860     1.8650 O.2   1 <1>  -0.5700 
  2 C       -0.1540    -0.3380     1.4320 C.2   1 <1>   0.5690 
  3 N       -1.4500     0.0210     1.2990 N.am  1 <1>  -0.6600 
  4 C        0.7560     0.7650     0.9680 C.3   1 <1>  -0.0990 
  5 C       -1.6100     1.3970     0.7950 C.3   1 <1>   0.1400 
  6 C       -2.6170    -0.7820     1.7390 C.3   1 <1>   0.1400 
  7 C       -0.1870     1.9690     0.8070 C.3   1 <1>  -0.1600 
  8 C       -3.5610    -1.0470     0.5630 C.3   1 <1>  -0.1600 
  9 C       -4.8840    -1.6850     1.0250 C.3   1 <1>  -0.0990 
 10 C       -5.8670    -1.8320    -0.1320 C.2   1 <1>   0.5690 
 11 O       -6.3540    -0.8050    -0.5420 O.2   1 <1>  -0.5700 
 12 N       -6.2020    -3.0390    -0.6950 N.am  1 <1>  -0.6600 
 13 C       -5.7260    -4.3720    -0.1750 C.3   1 <1>   0.3640 
 14 C       -7.1840    -3.0370    -1.8220 C.3   1 <1>   0.1400 
 15 C       -4.2140    -4.4900    -0.3830 C.ar  1 <1>  -0.1430 
 16 C       -6.4140    -5.6430    -0.7730 C.3   1 <1>   0.2000 
 17 C       -7.2760    -4.3800    -2.5460 C.3   1 <1>   0.1200 
 18 C       -3.4210    -4.9900     0.6410 C.ar  1 <1>  -0.1500 
 19 C       -3.6110    -4.1120    -1.5760 C.ar  1 <1>  -0.1500 
 20 O       -7.5080    -5.3760    -1.6080 O.3   1 <1>  -0.5600 
 21 C       -6.9320    -6.5930     0.3180 C.3   1 <1>   0.1200 
 22 C       -2.0510    -5.1130     0.4920 C.ar  1 <1>   0.0820 
 23 C       -2.2390    -4.2110    -1.7320 C.ar  1 <1>  -0.1500 
 24 O       -5.9070    -6.9800     1.1760 O.3   1 <1>  -0.6800 
 25 O       -1.3770    -5.6560     1.5390 O.3   1 <1>  -0.3630 
 26 C       -1.4510    -4.6880    -0.7000 C.ar  1 <1>   0.0820 
 27 C       -0.4490    -6.6870     1.2790 C.3   1 <1>   0.0400 
 28 O       -0.1120    -4.6980    -0.8930 O.3   1 <1>  -0.3630 
 29 C        0.5990    -3.7020    -0.1880 C.3   1 <1>   0.0400 
 30 H        1.5260     0.9510     1.6940 H     1 <1>   0.0800 
 31 H        1.1920     0.4820     0.0280 H     1 <1>   0.0800 
 32 H       -2.0020     1.3690    -0.2080 H     1 <1>   0.0800 
 33 H       -2.2680     1.9640     1.4320 H     1 <1>   0.0800 
 34 H       -2.2750    -1.7190     2.1480 H     1 <1>   0.0800 
 35 H       -3.1320    -0.2440     2.5150 H     1 <1>   0.0800 
 36 H        0.0200     2.5260    -0.0890 H     1 <1>   0.0800 
 37 H       -0.0840     2.6250     1.6540 H     1 <1>   0.0800 
 38 H       -3.7940    -0.1220     0.0680 H     1 <1>   0.0800 
 39 H       -3.0710    -1.6960    -0.1410 H     1 <1>   0.0800 
 40 H       -5.3450    -1.0410     1.7510 H     1 <1>   0.0800 
 41 H       -4.6900    -2.6180     1.5130 H     1 <1>   0.0800 
 42 H       -5.9150    -4.3790     0.8840 H     1 <1>   0.0800 
 43 H       -8.1550    -2.7840    -1.4330 H     1 <1>   0.0800 
 44 H       -6.9100    -2.2750    -2.5310 H     1 <1>   0.0800 
 45 H       -5.7010    -6.1810    -1.3720 H     1 <1>   0.0800 
 46 H       -6.3730    -4.5990    -3.0890 H     1 <1>   0.0800 
 47 H       -8.1040    -4.3730    -3.2330 H     1 <1>   0.0800 
 48 H       -3.8580    -5.2980     1.5750 H     1 <1>   0.1500 
 49 H       -4.2040    -3.7250    -2.3870 H     1 <1>   0.1500 
 50 H       -7.3530    -7.4790    -0.1230 H     1 <1>   0.0800 
 51 H       -7.6830    -6.0970     0.9100 H     1 <1>   0.0800 
 52 H       -1.7710    -3.9050    -2.6500 H     1 <1>   0.1500 
 53 H       -5.2580    -7.5510     0.7160 H     1 <1>   0.4000 
 54 H       -0.3030    -7.2420     2.1880 H     1 <1>   0.0800 
 55 H        0.4830    -6.2540     0.9670 H     1 <1>   0.0800 
 56 H       -0.8420    -7.3300     0.5120 H     1 <1>   0.0800 
 57 H        1.6430    -3.8000    -0.4190 H     1 <1>   0.0800 
 58 H        0.4410    -3.8320     0.8680 H     1 <1>   0.0800 
 59 H        0.2400    -2.7360    -0.4950 H     1 <1>   0.0800 
@<TRIPOS>BOND
  1   1   2  2   
  2   2   3  am  
  3   2   4  1   
  4   3   5  1   
  5   3   6  1   
  6   4   7  1   
  7   4  30  1   
  8   4  31  1   
  9   5   7  1   
 10   5  32  1   
 11   5  33  1   
 12   6   8  1   
 13   6  34  1   
 14   6  35  1   
 15   7  36  1   
 16   7  37  1   
 17   8   9  1   
 18   8  38  1   
 19   8  39  1   
 20   9  10  1   
 21   9  40  1   
 22   9  41  1   
 23  10  11  2   
 24  10  12  am  
 25  12  13  1   
 26  12  14  1   
 27  13  15  1   
 28  13  16  1   
 29  13  42  1   
 30  14  17  1   
 31  14  43  1   
 32  14  44  1   
 33  15  18  ar  
 34  15  19  ar  
 35  16  20  1   
 36  16  21  1   
 37  16  45  1   
 38  17  20  1   
 39  17  46  1   
 40  17  47  1   
 41  18  22  ar  
 42  18  48  1   
 43  19  23  ar  
 44  19  49  1   
 45  21  24  1   
 46  21  50  1   
 47  21  51  1   
 48  22  25  1   
 49  22  26  ar  
 50  23  26  ar  
 51  23  52  1   
 52  24  53  1   
 53  25  27  1   
 54  26  28  1   
 55  27  54  1   
 56  27  55  1   
 57  27  56  1   
 58  28  29  1   
 59  29  57  1   
 60  29  58  1   
 61  29  59  1   
@<TRIPOS>SUBSTRUCTURE
  1 ****  15 GROUP 4 **** **** 0

# MOE 2024.06 (io_trps.svl 2023.06)
