@<TRIPOS>MOLECULE
NONAME
44 45 1 0 0 
SMALL
USER_CHARGES


@<TRIPOS>ATOM
  1 CL       2.1720    -5.9490    -0.7200 Cl    1 <1>  -0.1770 
  2 C        0.6550    -5.6890     0.1020 C.ar  1 <1>   0.1770 
  3 C       -0.3160    -4.9110    -0.5020 C.ar  1 <1>  -0.1500 
  4 C        0.4480    -6.2660     1.3400 C.ar  1 <1>  -0.1500 
  5 C       -1.5250    -4.7020     0.1460 C.ar  1 <1>  -0.1440 
  6 C       -0.7570    -6.0570     1.9880 C.ar  1 <1>  -0.1500 
  7 C       -1.7360    -5.2770     1.3920 C.ar  1 <1>  -0.1500 
  8 C       -2.6230    -3.8630    -0.5050 C.3   1 <1>   0.0450 
  9 C       -3.7490    -4.7030    -1.0850 C.2   1 <1>   0.5690 
 10 O       -4.7820    -4.1610    -1.3930 O.2   1 <1>  -0.5700 
 11 N       -3.5740    -6.0400    -1.2410 N.am  1 <1>  -0.7300 
 12 C       -4.6010    -6.9930    -1.7100 C.3   1 <1>   0.2200 
 13 C       -4.9440    -7.9420    -0.5750 C.3   1 <1>  -0.0800 
 14 C       -3.9990    -7.9360    -2.7500 C.3   1 <1>   0.1200 
 15 C       -3.8270    -8.9810    -0.6980 C.3   1 <1>   0.1200 
 16 C       -6.3390    -8.5690    -0.7750 C.3   1 <1>  -0.0550 
 17 O       -3.4960    -9.0390    -2.0520 O.3   1 <1>  -0.5600 
 18 S       -6.9300    -9.4720     0.6580 S.o2  1 <1>   1.3330 
 19 O       -7.0580    -8.5280     1.7450 O.2   1 <1>  -0.6500 
 20 O       -6.1410   -10.6690     0.8470 O.2   1 <1>  -0.6500 
 21 N       -8.4880    -9.9480     0.1800 N.am  1 <1>  -0.8490 
 22 C       -9.4020   -10.0810     1.3170 C.3   1 <1>   0.1160 
 23 C       -8.4990   -11.1810    -0.6160 C.3   1 <1>   0.1160 
 24 H       -0.1170    -4.4810    -1.4670 H     1 <1>   0.1500 
 25 H        1.2200    -6.8670     1.7870 H     1 <1>   0.1500 
 26 H       -0.9340    -6.4990     2.9540 H     1 <1>   0.1500 
 27 H       -2.6700    -5.1230     1.9070 H     1 <1>   0.1500 
 28 H       -2.2130    -3.2610    -1.2940 H     1 <1>   0.0800 
 29 H       -3.0430    -3.1960     0.2260 H     1 <1>   0.0800 
 30 H       -2.6820    -6.4570    -0.9560 H     1 <1>   0.3700 
 31 H       -5.4550    -6.4610    -2.0940 H     1 <1>   0.0800 
 32 H       -4.9180    -7.4390     0.3770 H     1 <1>   0.0800 
 33 H       -3.2070    -7.4750    -3.3140 H     1 <1>   0.0800 
 34 H       -4.7590    -8.2970    -3.4190 H     1 <1>   0.0800 
 35 H       -4.1050    -9.9650    -0.3630 H     1 <1>   0.0800 
 36 H       -2.9500    -8.6600    -0.1620 H     1 <1>   0.0800 
 37 H       -6.3230    -9.2190    -1.6280 H     1 <1>   0.0800 
 38 H       -7.0400    -7.7820    -0.9760 H     1 <1>   0.0800 
 39 H      -10.3820   -10.3680     0.9780 H     1 <1>   0.0800 
 40 H       -9.4890    -9.1390     1.8330 H     1 <1>   0.0800 
 41 H       -9.0350   -10.8220     2.0090 H     1 <1>   0.0800 
 42 H       -9.4960   -11.3830    -0.9700 H     1 <1>   0.0800 
 43 H       -8.1610   -12.0150    -0.0240 H     1 <1>   0.0800 
 44 H       -7.8510   -11.0790    -1.4700 H     1 <1>   0.0800 
@<TRIPOS>BOND
  1   1   2  1   
  2   2   3  ar  
  3   2   4  ar  
  4   3   5  ar  
  5   3  24  1   
  6   4   6  ar  
  7   4  25  1   
  8   5   7  ar  
  9   5   8  1   
 10   6   7  ar  
 11   6  26  1   
 12   7  27  1   
 13   8   9  1   
 14   8  28  1   
 15   8  29  1   
 16   9  10  2   
 17   9  11  am  
 18  11  12  1   
 19  11  30  1   
 20  12  13  1   
 21  12  14  1   
 22  12  31  1   
 23  13  15  1   
 24  13  16  1   
 25  13  32  1   
 26  14  17  1   
 27  14  33  1   
 28  14  34  1   
 29  15  17  1   
 30  15  35  1   
 31  15  36  1   
 32  16  18  1   
 33  16  37  1   
 34  16  38  1   
 35  18  19  2   
 36  18  20  2   
 37  18  21  am  
 38  21  22  1   
 39  21  23  1   
 40  22  39  1   
 41  22  40  1   
 42  22  41  1   
 43  23  42  1   
 44  23  43  1   
 45  23  44  1   
@<TRIPOS>SUBSTRUCTURE
  1 ****  13 GROUP 4 **** **** 0

# MOE 2024.06 (io_trps.svl 2023.06)
