@<TRIPOS>MOLECULE
NONAME
59 61 1 0 0 
SMALL
USER_CHARGES


@<TRIPOS>ATOM
  1 O        4.1000     0.2790    -1.3130 O.2   1 <1>  -0.5700 
  2 C        2.9630     0.1060    -0.9110 C.2   1 <1>   0.7800 
  3 O        2.0090     0.9450    -1.3200 O.3   1 <1>  -0.4300 
  4 N        2.6000    -0.8800    -0.0230 N.am  1 <1>  -0.6600 
  5 C        2.2500     1.9500    -2.2840 C.3   1 <1>   0.0400 
  6 C        3.3210    -2.2020     0.1000 C.3   1 <1>   0.2810 
  7 C        1.2060    -0.9530     0.5010 C.3   1 <1>   0.1400 
  8 C        4.8470    -2.1890    -0.1670 C.2   1 <1>   0.5690 
  9 C        2.5650    -3.2290    -0.7650 C.3   1 <1>  -0.1600 
 10 C        0.4100    -1.9650    -0.3310 C.3   1 <1>  -0.1600 
 11 O        5.2520    -2.5890    -1.2380 O.2   1 <1>  -0.5700 
 12 N        5.7500    -1.7270     0.7730 N.am  1 <1>  -0.6600 
 13 C        1.0870    -3.3440    -0.3550 C.3   1 <1>  -0.1600 
 14 C        7.1690    -1.5700     0.3520 C.3   1 <1>   0.1400 
 15 C        5.4020    -1.1410     2.0950 C.3   1 <1>   0.1400 
 16 C        7.2660    -0.3500    -0.5760 C.3   1 <1>   0.3430 
 17 C        6.0430     0.2400     2.2830 C.3   1 <1>  -0.1600 
 18 N        7.0520     0.9940     0.0790 N.4   1 <1>  -0.9590 
 19 C        5.9030     1.1210     1.0420 C.3   1 <1>   0.3430 
 20 C        6.8590     1.9810    -1.0130 C.3   1 <1>   0.5240 
 21 C        6.9460     3.3660    -0.4180 C.2   1 <1>  -0.1810 
 22 C        8.0070     4.0650     0.0480 C.2   1 <1>  -0.3320 
 23 C        5.8540     4.2040    -0.2280 C.2   1 <1>   0.1390 
 24 N        7.5220     5.2490     0.4910 N.pl3 1 <1>   0.3140 
 25 C        9.4820     3.6910     0.0950 C.3   1 <1>  -0.0600 
 26 N        6.1920     5.3210     0.3260 N.2   1 <1>  -0.7070 
 27 C        8.2730     6.3700     1.0770 C.3   1 <1>   0.0160 
 28 H        1.3240     2.4620    -2.4780 H     1 <1>   0.0800 
 29 H        2.6100     1.4870    -3.1870 H     1 <1>   0.0800 
 30 H        2.9790     2.6390    -1.8980 H     1 <1>   0.0800 
 31 H        3.2110    -2.5330     1.1160 H     1 <1>   0.0800 
 32 H        0.7270     0.0100     0.4650 H     1 <1>   0.0800 
 33 H        1.2300    -1.2660     1.5310 H     1 <1>   0.0800 
 34 H        3.0350    -4.1920    -0.6690 H     1 <1>   0.0800 
 35 H        2.6360    -2.9370    -1.7990 H     1 <1>   0.0800 
 36 H        0.3170    -1.5900    -1.3360 H     1 <1>   0.0800 
 37 H       -0.5820    -2.0570     0.0730 H     1 <1>   0.0800 
 38 H        1.0220    -3.7880     0.6240 H     1 <1>   0.0800 
 39 H        0.5690    -3.9900    -1.0430 H     1 <1>   0.0800 
 40 H        7.4700    -2.4480    -0.1960 H     1 <1>   0.0800 
 41 H        7.8270    -1.4790     1.1970 H     1 <1>   0.0800 
 42 H        5.7310    -1.8060     2.8760 H     1 <1>   0.0800 
 43 H        4.3350    -1.0350     2.1840 H     1 <1>   0.0800 
 44 H        6.5310    -0.4860    -1.3540 H     1 <1>   0.0800 
 45 H        8.2340    -0.3600    -1.0480 H     1 <1>   0.0800 
 46 H        7.0700     0.1610     2.5870 H     1 <1>   0.0800 
 47 H        5.5210     0.7210     3.0910 H     1 <1>   0.0800 
 48 H        7.8980     1.2870     0.5780 H     1 <1>   0.4500 
 49 H        5.8450     2.1450     1.3770 H     1 <1>   0.0800 
 50 H        4.9740     0.8920     0.5550 H     1 <1>   0.0800 
 51 H        5.9010     1.8330    -1.4860 H     1 <1>   0.0800 
 52 H        7.6300     1.8690    -1.7580 H     1 <1>   0.0800 
 53 H        4.8360     3.9730    -0.4960 H     1 <1>   0.1500 
 54 H        9.6530     2.7290    -0.3520 H     1 <1>   0.0800 
 55 H        9.8280     3.6660     1.1130 H     1 <1>   0.0800 
 56 H       10.0630     4.4180    -0.4460 H     1 <1>   0.0800 
 57 H        8.7940     6.0300     1.9510 H     1 <1>   0.0800 
 58 H        7.5860     7.1500     1.3490 H     1 <1>   0.0800 
 59 H        8.9710     6.7440     0.3520 H     1 <1>   0.0800 
@<TRIPOS>BOND
  1   1   2  2   
  2   2   3  1   
  3   2   4  am  
  4   3   5  1   
  5   4   6  1   
  6   4   7  1   
  7   5  28  1   
  8   5  29  1   
  9   5  30  1   
 10   6   8  1   
 11   6   9  1   
 12   6  31  1   
 13   7  10  1   
 14   7  32  1   
 15   7  33  1   
 16   8  11  2   
 17   8  12  am  
 18   9  13  1   
 19   9  34  1   
 20   9  35  1   
 21  10  13  1   
 22  10  36  1   
 23  10  37  1   
 24  12  14  1   
 25  12  15  1   
 26  13  38  1   
 27  13  39  1   
 28  14  16  1   
 29  14  40  1   
 30  14  41  1   
 31  15  17  1   
 32  15  42  1   
 33  15  43  1   
 34  16  18  1   
 35  16  44  1   
 36  16  45  1   
 37  17  19  1   
 38  17  46  1   
 39  17  47  1   
 40  18  19  1   
 41  18  20  1   
 42  18  48  1   
 43  19  49  1   
 44  19  50  1   
 45  20  21  1   
 46  20  51  1   
 47  20  52  1   
 48  21  22  2   
 49  21  23  1   
 50  22  24  1   
 51  22  25  1   
 52  23  26  2   
 53  23  53  1   
 54  24  26  1   
 55  24  27  1   
 56  25  54  1   
 57  25  55  1   
 58  25  56  1   
 59  27  57  1   
 60  27  58  1   
 61  27  59  1   
@<TRIPOS>SUBSTRUCTURE
  1 ****  19 GROUP 4 **** **** 0

# MOE 2024.06 (io_trps.svl 2023.06)
