@<TRIPOS>MOLECULE
NONAME
40 41 1 0 0 
SMALL
USER_CHARGES


@<TRIPOS>ATOM
  1 S        0.4400    -0.0930    -0.3940 S.o2  1 <1>   1.3330 
  2 O        1.8280    -0.0640     0.0130 O.2   1 <1>  -0.6500 
  3 O        0.1170    -0.2500    -1.7940 O.2   1 <1>  -0.6500 
  4 N       -0.3270    -1.3350     0.4710 N.am  1 <1>  -0.8490 
  5 C       -0.3880     1.3820     0.1930 C.3   1 <1>  -0.0550 
  6 C        0.1860    -1.5000     1.8350 C.3   1 <1>   0.1160 
  7 C       -0.2760    -2.6170    -0.2390 C.3   1 <1>   0.1160 
  8 C        0.1050     2.6680    -0.4990 C.3   1 <1>  -0.0800 
  9 C       -0.6990     3.9210    -0.1540 C.3   1 <1>   0.2000 
 10 C        1.5610     3.0390    -0.1630 C.3   1 <1>   0.1100 
 11 O       -0.9910     3.9150     1.1980 O.3   1 <1>  -0.6800 
 12 C        0.3200     5.0270    -0.3850 C.3   1 <1>   0.1100 
 13 N        1.5620     4.4710     0.1680 N.3   1 <1>  -0.8100 
 14 C        2.7850     5.1730    -0.3010 C.3   1 <1>   0.2910 
 15 C        2.8290     6.6620     0.0560 C.2   1 <1>   0.3350 
 16 N        3.4620     7.1560     1.0470 N.2   1 <1>  -0.4100 
 17 N        2.2070     7.5800    -0.6800 N.2   1 <1>  -0.5650 
 18 O        3.2750     8.4400     1.0210 O.3   1 <1>  -0.0190 
 19 C        2.5190     8.6270    -0.0310 C.2   1 <1>   0.2980 
 20 C        2.0930    10.0350    -0.3780 C.3   1 <1>  -0.0600 
 21 H       -1.4410     1.2800     0.0140 H     1 <1>   0.0800 
 22 H       -0.2480     1.4730     1.2520 H     1 <1>   0.0800 
 23 H       -0.3940    -2.2380     2.3610 H     1 <1>   0.0800 
 24 H        0.1180    -0.5700     2.3730 H     1 <1>   0.0800 
 25 H        1.2180    -1.8130     1.8150 H     1 <1>   0.0800 
 26 H       -0.7860    -3.3770     0.3260 H     1 <1>   0.0800 
 27 H        0.7470    -2.9170    -0.3980 H     1 <1>   0.0800 
 28 H       -0.7620    -2.5270    -1.1960 H     1 <1>   0.0800 
 29 H        0.0430     2.5250    -1.5640 H     1 <1>   0.0800 
 30 H       -1.6110     4.0330    -0.7160 H     1 <1>   0.0800 
 31 H        2.1940     2.8300    -1.0100 H     1 <1>   0.0800 
 32 H        1.9250     2.4850     0.6870 H     1 <1>   0.0800 
 33 H       -0.1460     4.1200     1.6560 H     1 <1>   0.4000 
 34 H        0.0380     5.9430     0.1070 H     1 <1>   0.0800 
 35 H        0.4300     5.2070    -1.4420 H     1 <1>   0.0800 
 36 H        3.6430     4.7010     0.1450 H     1 <1>   0.0800 
 37 H        2.8710     5.0780    -1.3690 H     1 <1>   0.0800 
 38 H        1.4820    10.0250    -1.2620 H     1 <1>   0.0800 
 39 H        2.9600    10.6420    -0.5570 H     1 <1>   0.0800 
 40 H        1.5280    10.4520     0.4350 H     1 <1>   0.0800 
@<TRIPOS>BOND
  1   1   2  2   
  2   1   3  2   
  3   1   4  am  
  4   1   5  1   
  5   4   6  1   
  6   4   7  1   
  7   5   8  1   
  8   5  21  1   
  9   5  22  1   
 10   6  23  1   
 11   6  24  1   
 12   6  25  1   
 13   7  26  1   
 14   7  27  1   
 15   7  28  1   
 16   8   9  1   
 17   8  10  1   
 18   8  29  1   
 19   9  11  1   
 20   9  12  1   
 21   9  30  1   
 22  10  13  1   
 23  10  31  1   
 24  10  32  1   
 25  11  33  1   
 26  12  13  1   
 27  12  34  1   
 28  12  35  1   
 29  13  14  1   
 30  14  15  1   
 31  14  36  1   
 32  14  37  1   
 33  15  16  2   
 34  15  17  1   
 35  16  18  1   
 36  17  19  2   
 37  18  19  1   
 38  19  20  1   
 39  20  38  1   
 40  20  39  1   
 41  20  40  1   
@<TRIPOS>SUBSTRUCTURE
  1 ****  10 GROUP 4 **** **** 0

# MOE 2024.06 (io_trps.svl 2023.06)
