@<TRIPOS>MOLECULE
NONAME
50 53 1 0 0 
SMALL
USER_CHARGES


@<TRIPOS>ATOM
  1 O        1.2920    -0.4000     1.1490 O.2   1 <1>  -0.5700 
  2 C        1.9500    -0.7640     0.2010 C.2   1 <1>   0.5690 
  3 N        2.8110     0.1150    -0.4200 N.am  1 <1>  -0.6600 
  4 C        1.8260    -2.2220    -0.2750 C.3   1 <1>   0.1250 
  5 C        3.8010    -0.2180    -1.4950 C.3   1 <1>   0.1400 
  6 C        2.8500     1.5430     0.0050 C.3   1 <1>   0.1400 
  7 C        0.5850    -2.9810     0.1640 C.ar  1 <1>  -0.1440 
  8 C        2.9700    -3.1210     0.2450 C.3   1 <1>  -0.1600 
  9 C        5.2370    -0.3350    -0.9550 C.3   1 <1>   0.1400 
 10 C        3.7640     1.7390     1.2220 C.3   1 <1>  -0.1600 
 11 C        0.8970    -4.2630     0.5470 C.ar  1 <1>  -0.1430 
 12 C       -0.7270    -2.5420     0.1950 C.ar  1 <1>  -0.1500 
 13 C        2.3770    -4.5260     0.4400 C.3   1 <1>  -0.0170 
 14 N        5.6570     0.8670    -0.1640 N.am  1 <1>  -0.6600 
 15 C        5.0610     0.9200     1.2040 C.3   1 <1>   0.1400 
 16 C       -0.0870    -5.1400     0.9650 C.ar  1 <1>  -0.1500 
 17 C       -1.7210    -3.4120     0.6130 C.ar  1 <1>  -0.1500 
 18 C        6.5570     1.7710    -0.6700 C.2   1 <1>   0.5690 
 19 C       -1.4030    -4.7060     0.9960 C.ar  1 <1>  -0.1500 
 20 O        7.0270     1.6420    -1.7770 O.2   1 <1>  -0.5700 
 21 C        7.0170     2.9680     0.1310 C.3   1 <1>   0.1570 
 22 N        8.1450     2.5580     0.9650 N.pl3 1 <1>   0.3140 
 23 N        8.1200     2.5520     2.2860 N.2   1 <1>  -0.4180 
 24 C        9.3360     2.1080     0.5760 C.2   1 <1>   0.2700 
 25 N        9.2660     2.1130     2.6590 N.2   1 <1>   0.0000 
 26 N       10.0390     1.8290     1.6100 N.2   1 <1>  -0.3380 
 27 N        9.7740     1.9430    -0.7290 N.pl3 1 <1>  -0.8840 
 28 H        1.8120    -2.2390    -1.3480 H     1 <1>   0.0800 
 29 H        3.7760     0.5490    -2.2490 H     1 <1>   0.0800 
 30 H        3.5410    -1.1380    -1.9830 H     1 <1>   0.0800 
 31 H        1.8540     1.8760     0.2470 H     1 <1>   0.0800 
 32 H        3.2030     2.1480    -0.8120 H     1 <1>   0.0800 
 33 H        3.2890    -2.7510     1.2050 H     1 <1>   0.0800 
 34 H        3.8100    -3.1360    -0.4240 H     1 <1>   0.0800 
 35 H        5.9040    -0.4820    -1.7870 H     1 <1>   0.0800 
 36 H        5.3150    -1.2100    -0.3360 H     1 <1>   0.0800 
 37 H        3.2120     1.4710     2.1060 H     1 <1>   0.0800 
 38 H        3.9960     2.7840     1.3120 H     1 <1>   0.0800 
 39 H       -0.9700    -1.5340    -0.0960 H     1 <1>   0.1500 
 40 H        2.7590    -4.9970     1.3290 H     1 <1>   0.0800 
 41 H        2.5700    -5.1470    -0.4170 H     1 <1>   0.0800 
 42 H        4.8380    -0.0830     1.5290 H     1 <1>   0.0800 
 43 H        5.7620     1.3250     1.9130 H     1 <1>   0.0800 
 44 H        0.1650    -6.1420     1.2640 H     1 <1>   0.1500 
 45 H       -2.7440    -3.0780     0.6430 H     1 <1>   0.1500 
 46 H       -2.1800    -5.3760     1.3200 H     1 <1>   0.1500 
 47 H        6.2300     3.3480     0.7500 H     1 <1>   0.0800 
 48 H        7.3470     3.7430    -0.5340 H     1 <1>   0.0800 
 49 H       10.6290     1.3860    -0.8140 H     1 <1>   0.4000 
 50 H        9.0630     1.6750    -1.4280 H     1 <1>   0.4000 
@<TRIPOS>BOND
  1   1   2  2   
  2   2   3  am  
  3   2   4  1   
  4   3   5  1   
  5   3   6  1   
  6   4   7  1   
  7   4   8  1   
  8   4  28  1   
  9   5   9  1   
 10   5  29  1   
 11   5  30  1   
 12   6  10  1   
 13   6  31  1   
 14   6  32  1   
 15   7  11  ar  
 16   7  12  ar  
 17   8  13  1   
 18   8  33  1   
 19   8  34  1   
 20   9  14  1   
 21   9  35  1   
 22   9  36  1   
 23  10  15  1   
 24  10  37  1   
 25  10  38  1   
 26  11  13  1   
 27  11  16  ar  
 28  12  17  ar  
 29  12  39  1   
 30  13  40  1   
 31  13  41  1   
 32  14  15  1   
 33  14  18  am  
 34  15  42  1   
 35  15  43  1   
 36  16  19  ar  
 37  16  44  1   
 38  17  19  ar  
 39  17  45  1   
 40  18  20  2   
 41  18  21  1   
 42  19  46  1   
 43  21  22  1   
 44  21  47  1   
 45  21  48  1   
 46  22  23  1   
 47  22  24  1   
 48  23  25  2   
 49  24  26  2   
 50  24  27  1   
 51  25  26  1   
 52  27  49  1   
 53  27  50  1   
@<TRIPOS>SUBSTRUCTURE
  1 ****   3 GROUP 4 **** **** 0

# MOE 2024.06 (io_trps.svl 2023.06)
