@<TRIPOS>MOLECULE
NONAME
52 55 1 0 0 
SMALL
USER_CHARGES


@<TRIPOS>ATOM
  1 O        0.7720     0.9320    -0.2530 O.2   1 <1>  -0.5700 
  2 C        0.5130     2.1110    -0.3030 C.2   1 <1>   0.5690 
  3 N       -0.7390     2.6000    -0.0450 N.am  1 <1>  -0.6600 
  4 C        1.6320     3.0720    -0.7040 C.3   1 <1>   0.1810 
  5 C       -1.0430     4.0700    -0.1230 C.3   1 <1>   0.3640 
  6 C       -1.8530     1.7210     0.4190 C.3   1 <1>   0.0600 
  7 O        1.3980     4.3950    -0.2910 O.3   1 <1>  -0.5600 
  8 C       -2.2990     4.2610    -0.9920 C.ar  1 <1>  -0.1430 
  9 C        0.1390     4.9150    -0.6860 C.3   1 <1>   0.2610 
 10 C       -3.4830     4.8180    -0.5050 C.ar  1 <1>  -0.1430 
 11 C       -2.2530     3.8420    -2.3180 C.ar  1 <1>  -0.1500 
 12 C        0.0410     6.4060    -0.3070 C.2   1 <1>   0.5690 
 13 C       -4.5670     4.9740    -1.3570 C.ar  1 <1>  -0.1500 
 14 C       -3.6580     5.2660     0.9420 C.3   1 <1>  -0.0960 
 15 C       -3.3400     3.9970    -3.1580 C.ar  1 <1>  -0.1500 
 16 O       -0.7430     6.7410     0.5530 O.2   1 <1>  -0.5700 
 17 N        0.8310     7.3460    -0.9310 N.am  1 <1>  -0.6600 
 18 C       -4.5000     4.5700    -2.6760 C.ar  1 <1>  -0.1500 
 19 C        0.7700     8.7680    -0.5070 C.3   1 <1>   0.2840 
 20 C        1.9390     7.0450    -1.8870 C.3   1 <1>   0.1400 
 21 C        1.7950     9.0370     0.5830 C.ar  1 <1>  -0.1430 
 22 C        3.3170     7.1560    -1.2210 C.3   1 <1>   0.1200 
 23 C        3.1570     8.9190     0.3270 C.ar  1 <1>   0.0830 
 24 C        1.3800     9.4260     1.8470 C.ar  1 <1>  -0.1500 
 25 O        3.6100     8.4950    -0.8720 O.3   1 <1>  -0.3620 
 26 C        4.0870     9.2290     1.3060 C.ar  1 <1>  -0.1500 
 27 C        2.3090     9.7200     2.8320 C.ar  1 <1>  -0.1500 
 28 C        3.6630     9.6290     2.5600 C.ar  1 <1>  -0.1500 
 29 H        1.7480     3.0600    -1.7710 H     1 <1>   0.0800 
 30 H        2.5510     2.7480    -0.2500 H     1 <1>   0.0800 
 31 H       -1.2290     4.4000     0.8810 H     1 <1>   0.0800 
 32 H       -2.2840     2.1210     1.3200 H     1 <1>   0.0800 
 33 H       -1.4940     0.7270     0.6220 H     1 <1>   0.0800 
 34 H       -2.6130     1.6620    -0.3400 H     1 <1>   0.0800 
 35 H        0.1040     4.8650    -1.7560 H     1 <1>   0.0800 
 36 H       -1.3660     3.3770    -2.7100 H     1 <1>   0.1500 
 37 H       -5.4810     5.4130    -0.9960 H     1 <1>   0.1500 
 38 H       -4.6950     5.4350     1.1670 H     1 <1>   0.0800 
 39 H       -3.1290     6.1840     1.1150 H     1 <1>   0.0800 
 40 H       -3.2980     4.5150     1.6200 H     1 <1>   0.0800 
 41 H       -3.2860     3.6700    -4.1810 H     1 <1>   0.1500 
 42 H       -5.3490     4.6970    -3.3240 H     1 <1>   0.1500 
 43 H        0.9710     9.4060    -1.3490 H     1 <1>   0.0800 
 44 H       -0.2180     9.0050    -0.1510 H     1 <1>   0.0800 
 45 H        1.8340     6.0530    -2.2830 H     1 <1>   0.0800 
 46 H        1.8930     7.7260    -2.7200 H     1 <1>   0.0800 
 47 H        4.0780     6.8350    -1.9070 H     1 <1>   0.0800 
 48 H        3.3650     6.5410    -0.3370 H     1 <1>   0.0800 
 49 H        0.3300     9.5010     2.0710 H     1 <1>   0.1500 
 50 H        5.1350     9.1500     1.0820 H     1 <1>   0.1500 
 51 H        1.9750    10.0220     3.8100 H     1 <1>   0.1500 
 52 H        4.3840     9.8660     3.3230 H     1 <1>   0.1500 
@<TRIPOS>BOND
  1   1   2  2   
  2   2   3  am  
  3   2   4  1   
  4   3   5  1   
  5   3   6  1   
  6   4   7  1   
  7   4  29  1   
  8   4  30  1   
  9   5   8  1   
 10   5   9  1   
 11   5  31  1   
 12   6  32  1   
 13   6  33  1   
 14   6  34  1   
 15   7   9  1   
 16   8  10  ar  
 17   8  11  ar  
 18   9  12  1   
 19   9  35  1   
 20  10  13  ar  
 21  10  14  1   
 22  11  15  ar  
 23  11  36  1   
 24  12  16  2   
 25  12  17  am  
 26  13  18  ar  
 27  13  37  1   
 28  14  38  1   
 29  14  39  1   
 30  14  40  1   
 31  15  18  ar  
 32  15  41  1   
 33  17  19  1   
 34  17  20  1   
 35  18  42  1   
 36  19  21  1   
 37  19  43  1   
 38  19  44  1   
 39  20  22  1   
 40  20  45  1   
 41  20  46  1   
 42  21  23  ar  
 43  21  24  ar  
 44  22  25  1   
 45  22  47  1   
 46  22  48  1   
 47  23  25  1   
 48  23  26  ar  
 49  24  27  ar  
 50  24  49  1   
 51  26  28  ar  
 52  26  50  1   
 53  27  28  ar  
 54  27  51  1   
 55  28  52  1   
@<TRIPOS>SUBSTRUCTURE
  1 ****  12 GROUP 4 **** **** 0

# MOE 2024.06 (io_trps.svl 2023.06)
