@<TRIPOS>MOLECULE
NONAME
50 53 1 0 0 
SMALL
USER_CHARGES


@<TRIPOS>ATOM
  1 O        0.5940    -0.6020     1.2350 O.2   1 <1>  -0.5700 
  2 C        1.4670    -1.0920     0.5540 C.2   1 <1>   0.4230 
  3 C        2.6360    -0.3430     0.1130 C.ar  1 <1>   0.3960 
  4 C        1.3120    -2.5670     0.1660 C.3   1 <1>  -0.0190 
  5 N        3.6270    -0.9700    -0.5440 N.ar  1 <1>  -0.6200 
  6 C        2.7130     1.0260     0.3870 C.ar  1 <1>  -0.1500 
  7 C       -0.1700    -2.9420    -0.0030 C.3   1 <1>   0.1100 
  8 C        1.9820    -3.4820     1.2070 C.3   1 <1>  -0.1600 
  9 C        4.6630    -0.2430    -0.9190 C.ar  1 <1>   0.1600 
 10 C        3.7980     1.7760    -0.0080 C.ar  1 <1>  -0.1500 
 11 N       -0.3190    -4.3640    -0.3630 N.3   1 <1>  -0.8100 
 12 C        1.7360    -4.9540     0.8530 C.3   1 <1>  -0.1600 
 13 C        4.7990     1.1130    -0.6810 C.ar  1 <1>  -0.1500 
 14 C        0.2450    -5.2460     0.6700 C.3   1 <1>   0.1100 
 15 C       -1.7390    -4.6630    -0.7120 C.3   1 <1>   0.1710 
 16 C       -2.0540    -6.1070    -1.1560 C.2   1 <1>   0.5690 
 17 O       -2.1000    -6.3040    -2.3490 O.2   1 <1>  -0.5700 
 18 N       -2.3180    -7.1050    -0.2250 N.am  1 <1>  -0.4770 
 19 C       -2.2930    -8.5040    -0.5110 C.ar  1 <1>   0.1170 
 20 C       -2.9440    -6.7110     1.0780 C.3   1 <1>   0.1400 
 21 C       -3.0260    -9.4050     0.2760 C.ar  1 <1>   0.0830 
 22 C       -1.5460    -9.0400    -1.5590 C.ar  1 <1>  -0.1500 
 23 C       -3.1180    -7.8870     2.0450 C.3   1 <1>   0.1200 
 24 O       -3.6950    -8.9840     1.3770 O.3   1 <1>  -0.3630 
 25 C       -3.0660   -10.7560    -0.0190 C.ar  1 <1>  -0.1500 
 26 C       -1.5720   -10.3940    -1.8480 C.ar  1 <1>  -0.1500 
 27 C       -2.3400   -11.2550    -1.0850 C.ar  1 <1>  -0.1500 
 28 H        1.7790    -2.7270    -0.7890 H     1 <1>   0.0800 
 29 H        1.9070     1.5010     0.9180 H     1 <1>   0.1500 
 30 H       -0.5940    -2.3280    -0.7790 H     1 <1>   0.0800 
 31 H       -0.7030    -2.7450     0.9130 H     1 <1>   0.0800 
 32 H        1.5730    -3.2740     2.1810 H     1 <1>   0.0800 
 33 H        3.0400    -3.2880     1.2370 H     1 <1>   0.0800 
 34 H        5.4520    -0.7530    -1.4460 H     1 <1>   0.1500 
 35 H        3.8610     2.8310     0.2000 H     1 <1>   0.1500 
 36 H        2.1310    -5.5840     1.6300 H     1 <1>   0.0800 
 37 H        2.2490    -5.1990    -0.0610 H     1 <1>   0.0800 
 38 H        5.6750     1.6370    -1.0190 H     1 <1>   0.1500 
 39 H        0.1370    -6.2750     0.3730 H     1 <1>   0.0800 
 40 H       -0.2700    -5.0960     1.6030 H     1 <1>   0.0800 
 41 H       -2.0100    -4.0290    -1.5380 H     1 <1>   0.0800 
 42 H       -2.3760    -4.3820     0.1050 H     1 <1>   0.0800 
 43 H       -3.9130    -6.2880     0.8780 H     1 <1>   0.0800 
 44 H       -2.3450    -5.9670     1.5670 H     1 <1>   0.0800 
 45 H       -0.9350    -8.4000    -2.1680 H     1 <1>   0.1500 
 46 H       -3.7610    -7.6190     2.8630 H     1 <1>   0.0800 
 47 H       -2.1640    -8.2000     2.4340 H     1 <1>   0.0800 
 48 H       -3.6580   -11.4130     0.5930 H     1 <1>   0.1500 
 49 H       -0.9940   -10.7750    -2.6720 H     1 <1>   0.1500 
 50 H       -2.3680   -12.3050    -1.3150 H     1 <1>   0.1500 
@<TRIPOS>BOND
  1   1   2  2   
  2   2   3  1   
  3   2   4  1   
  4   3   5  ar  
  5   3   6  ar  
  6   4   7  1   
  7   4   8  1   
  8   4  28  1   
  9   5   9  ar  
 10   6  10  ar  
 11   6  29  1   
 12   7  11  1   
 13   7  30  1   
 14   7  31  1   
 15   8  12  1   
 16   8  32  1   
 17   8  33  1   
 18   9  13  ar  
 19   9  34  1   
 20  10  13  ar  
 21  10  35  1   
 22  11  14  1   
 23  11  15  1   
 24  12  14  1   
 25  12  36  1   
 26  12  37  1   
 27  13  38  1   
 28  14  39  1   
 29  14  40  1   
 30  15  16  1   
 31  15  41  1   
 32  15  42  1   
 33  16  17  2   
 34  16  18  am  
 35  18  19  1   
 36  18  20  1   
 37  19  21  ar  
 38  19  22  ar  
 39  20  23  1   
 40  20  43  1   
 41  20  44  1   
 42  21  24  1   
 43  21  25  ar  
 44  22  26  ar  
 45  22  45  1   
 46  23  24  1   
 47  23  46  1   
 48  23  47  1   
 49  25  27  ar  
 50  25  48  1   
 51  26  27  ar  
 52  26  49  1   
 53  27  50  1   
@<TRIPOS>SUBSTRUCTURE
  1 ****  11 GROUP 4 **** **** 0

# MOE 2024.06 (io_trps.svl 2023.06)
