@<TRIPOS>MOLECULE
NONAME
54 56 1 0 0 
SMALL
USER_CHARGES


@<TRIPOS>ATOM
  1 O       -0.1910     0.0860    -0.5840 O.2   1 <1>  -0.5700 
  2 C        0.7670    -0.4690    -0.0820 C.2   1 <1>   0.5440 
  3 N        1.8250     0.2630     0.3890 N.am  1 <1>  -0.4930 
  4 C        0.8120    -1.9170     0.0000 C.ar  1 <1>   0.0860 
  5 C        2.0070     1.6680     0.4540 C.2   1 <1>   0.0630 
  6 C        1.4040    -2.5780     1.0780 C.ar  1 <1>  -0.1500 
  7 C        0.2620    -2.7080    -1.0080 C.ar  1 <1>  -0.1500 
  8 C        1.1120     2.6730     0.8350 C.2   1 <1>   0.1080 
  9 C        3.1580     2.3200     0.1770 C.2   1 <1>  -0.3320 
 10 C        1.4580    -3.9590     1.1380 C.ar  1 <1>  -0.1500 
 11 C        0.3120    -4.0890    -0.9530 C.ar  1 <1>  -0.1500 
 12 N        1.6540     3.8510     0.8000 N.2   1 <1>  -0.7070 
 13 C       -0.3260     2.4830     1.2640 C.3   1 <1>  -0.0590 
 14 N        2.9150     3.6400     0.3860 N.pl3 1 <1>   0.3140 
 15 C        4.4940     1.7630    -0.2940 C.3   1 <1>  -0.0600 
 16 C        0.9120    -4.7270     0.1220 C.ar  1 <1>  -0.1430 
 17 C        3.8480     4.7710     0.2030 C.3   1 <1>   0.0960 
 18 C        0.9650    -6.2520     0.1830 C.3   1 <1>   0.2390 
 19 C        3.7840     5.3090    -1.2330 C.3   1 <1>  -0.1600 
 20 N       -0.3600    -6.8710    -0.0520 N.pl3 1 <1>   0.3140 
 21 C        4.7590     6.4730    -1.4390 C.3   1 <1>  -0.2400 
 22 N       -0.5620    -7.6910    -1.1030 N.2   1 <1>  -0.7070 
 23 C       -1.4840    -6.7520     0.6960 C.2   1 <1>  -0.3320 
 24 C       -1.7960    -8.0680    -1.0020 C.2   1 <1>   0.1080 
 25 C       -2.4270    -7.5140     0.1040 C.2   1 <1>  -0.1500 
 26 C       -1.6180    -5.9060     1.9520 C.3   1 <1>  -0.0600 
 27 C       -2.4390    -9.0050    -1.9970 C.3   1 <1>  -0.0590 
 28 H        2.6670    -0.2660     0.5970 H     1 <1>   0.3700 
 29 H        1.8210    -2.0050     1.8870 H     1 <1>   0.1500 
 30 H       -0.2140    -2.2270    -1.8460 H     1 <1>   0.1500 
 31 H        1.9240    -4.4330     1.9860 H     1 <1>   0.1500 
 32 H       -0.1240    -4.6690    -1.7510 H     1 <1>   0.1500 
 33 H       -0.4400     1.5480     1.7790 H     1 <1>   0.0800 
 34 H       -0.9590     2.4890     0.3970 H     1 <1>   0.0800 
 35 H       -0.6200     3.2820     1.9180 H     1 <1>   0.0800 
 36 H        4.4330     0.7000    -0.4420 H     1 <1>   0.0800 
 37 H        5.2580     1.9640     0.4360 H     1 <1>   0.0800 
 38 H        4.7750     2.2150    -1.2280 H     1 <1>   0.0800 
 39 H        4.8420     4.4420     0.4400 H     1 <1>   0.0800 
 40 H        3.5700     5.5440     0.8960 H     1 <1>   0.0800 
 41 H        1.3180    -6.5810     1.1420 H     1 <1>   0.0800 
 42 H        1.6410    -6.6160    -0.5680 H     1 <1>   0.0800 
 43 H        2.7800     5.6470    -1.4350 H     1 <1>   0.0800 
 44 H        4.0200     4.5210    -1.9260 H     1 <1>   0.0800 
 45 H        4.5240     7.2840    -0.7710 H     1 <1>   0.0800 
 46 H        4.6890     6.8360    -2.4500 H     1 <1>   0.0800 
 47 H        5.7720     6.1560    -1.2600 H     1 <1>   0.0800 
 48 H       -3.4480    -7.6750     0.3980 H     1 <1>   0.1500 
 49 H       -0.8920    -6.2070     2.6860 H     1 <1>   0.0800 
 50 H       -2.6000    -6.0250     2.3730 H     1 <1>   0.0800 
 51 H       -1.4730    -4.8670     1.7160 H     1 <1>   0.0800 
 52 H       -1.9020    -9.9350    -2.0090 H     1 <1>   0.0800 
 53 H       -2.4000    -8.5660    -2.9770 H     1 <1>   0.0800 
 54 H       -3.4630    -9.1900    -1.7320 H     1 <1>   0.0800 
@<TRIPOS>BOND
  1   1   2  2   
  2   2   3  am  
  3   2   4  1   
  4   3   5  1   
  5   3  28  1   
  6   4   6  ar  
  7   4   7  ar  
  8   5   8  1   
  9   5   9  2   
 10   6  10  ar  
 11   6  29  1   
 12   7  11  ar  
 13   7  30  1   
 14   8  12  2   
 15   8  13  1   
 16   9  14  1   
 17   9  15  1   
 18  10  16  ar  
 19  10  31  1   
 20  11  16  ar  
 21  11  32  1   
 22  12  14  1   
 23  13  33  1   
 24  13  34  1   
 25  13  35  1   
 26  14  17  1   
 27  15  36  1   
 28  15  37  1   
 29  15  38  1   
 30  16  18  1   
 31  17  19  1   
 32  17  39  1   
 33  17  40  1   
 34  18  20  1   
 35  18  41  1   
 36  18  42  1   
 37  19  21  1   
 38  19  43  1   
 39  19  44  1   
 40  20  22  1   
 41  20  23  1   
 42  21  45  1   
 43  21  46  1   
 44  21  47  1   
 45  22  24  2   
 46  23  25  2   
 47  23  26  1   
 48  24  25  1   
 49  24  27  1   
 50  25  48  1   
 51  26  49  1   
 52  26  50  1   
 53  26  51  1   
 54  27  52  1   
 55  27  53  1   
 56  27  54  1   
@<TRIPOS>SUBSTRUCTURE
  1 ****   4 GROUP 4 **** **** 0

# MOE 2024.06 (io_trps.svl 2023.06)
