@<TRIPOS>MOLECULE
NONAME
48 52 1 0 0 
SMALL
USER_CHARGES


@<TRIPOS>ATOM
  1 S       -0.1850    -0.6330     1.7000 S.3   1 <1>  -0.0800 
  2 C       -1.5960    -1.1370     0.7830 C.2   1 <1>   0.3740 
  3 C        0.7760    -1.9010     0.9570 C.2   1 <1>  -0.1400 
  4 N       -2.8410    -0.5530     0.8540 N.pl3 1 <1>  -0.5840 
  5 C       -1.3200    -2.1920    -0.0210 C.2   1 <1>  -0.0860 
  6 C        0.0530    -2.6130     0.0850 C.2   1 <1>  -0.1810 
  7 C        2.2350    -2.1060     1.3040 C.3   1 <1>   0.3000 
  8 C       -3.3840     0.4700     1.5090 C.cat 1 <1>   0.7360 
  9 C       -3.8750    -1.0580     0.1040 C.2   1 <1>   0.7290 
 10 C       -2.3870    -2.7210    -0.8210 C.2   1 <1>   0.7160 
 11 C        0.7230    -3.7560    -0.6580 C.3   1 <1>   0.0210 
 12 O        2.6780    -3.3200     0.7430 O.3   1 <1>  -0.5600 
 13 S       -2.6870     1.4940     2.5490 S.3   1 <1>  -0.9360 
 14 N       -4.6500     0.5630     1.1700 N.pl3 1 <1>  -0.3930 
 15 N       -4.9820    -0.4090     0.2640 N.2   1 <1>  -0.2600 
 16 N       -3.6440    -2.1550    -0.7330 N.am  1 <1>  -0.4360 
 17 O       -2.2020    -3.6560    -1.5800 O.2   1 <1>  -0.5700 
 18 C        2.2750    -3.6570    -0.5660 C.3   1 <1>   0.2800 
 19 C       -4.8030    -2.7930    -1.4090 C.3   1 <1>   0.2840 
 20 C        2.9500    -5.0060    -0.9050 C.3   1 <1>  -0.1600 
 21 C        2.8190    -2.5900    -1.5340 C.3   1 <1>  -0.2400 
 22 C       -5.5240    -3.6960    -0.4210 C.ar  1 <1>  -0.1430 
 23 C        2.6990    -6.1540     0.0900 C.3   1 <1>  -0.2400 
 24 C       -6.6970    -3.2810     0.1930 C.ar  1 <1>  -0.1500 
 25 C       -5.0060    -4.9480    -0.1220 C.ar  1 <1>  -0.1500 
 26 C       -7.3410    -4.1060     1.0990 C.ar  1 <1>  -0.1500 
 27 C       -5.6500    -5.7730     0.7840 C.ar  1 <1>  -0.1500 
 28 C       -6.8170    -5.3520     1.3960 C.ar  1 <1>  -0.1500 
 29 H        2.3660    -2.1720     2.3700 H     1 <1>   0.0800 
 30 H        2.8400    -1.3030     0.9210 H     1 <1>   0.0800 
 31 H        0.4320    -3.7490    -1.6930 H     1 <1>   0.0800 
 32 H        0.3750    -4.6770    -0.2330 H     1 <1>   0.0800 
 33 H       -5.2450     1.2920     1.5720 H     1 <1>   0.4500 
 34 H       -4.4790    -3.3720    -2.2560 H     1 <1>   0.0800 
 35 H       -5.4730    -2.0360    -1.7790 H     1 <1>   0.0800 
 36 H        4.0130    -4.8450    -0.9610 H     1 <1>   0.0800 
 37 H        2.6300    -5.3220    -1.8830 H     1 <1>   0.0800 
 38 H        2.3230    -1.6470    -1.4010 H     1 <1>   0.0800 
 39 H        2.6560    -2.9000    -2.5500 H     1 <1>   0.0800 
 40 H        3.8760    -2.4590    -1.3880 H     1 <1>   0.0800 
 41 H        2.9960    -5.8640     1.0830 H     1 <1>   0.0800 
 42 H        3.2800    -7.0130    -0.1950 H     1 <1>   0.0800 
 43 H        1.6650    -6.4440     0.1090 H     1 <1>   0.0800 
 44 H       -7.1200    -2.3160    -0.0260 H     1 <1>   0.1500 
 45 H       -4.0990    -5.2910    -0.5920 H     1 <1>   0.1500 
 46 H       -8.2500    -3.7800     1.5740 H     1 <1>   0.1500 
 47 H       -5.2430    -6.7420     1.0130 H     1 <1>   0.1500 
 48 H       -7.3180    -5.9930     2.1000 H     1 <1>   0.1500 
@<TRIPOS>BOND
  1   1   2  1   
  2   1   3  1   
  3   2   4  1   
  4   2   5  2   
  5   3   6  2   
  6   3   7  1   
  7   4   8  ar  
  8   4   9  1   
  9   5   6  1   
 10   5  10  1   
 11   6  11  1   
 12   7  12  1   
 13   7  29  1   
 14   7  30  1   
 15   8  13  1   
 16   8  14  ar  
 17   9  15  2   
 18   9  16  1   
 19  10  16  am  
 20  10  17  2   
 21  11  18  1   
 22  11  31  1   
 23  11  32  1   
 24  12  18  1   
 25  14  15  1   
 26  14  33  1   
 27  16  19  1   
 28  18  20  1   
 29  18  21  1   
 30  19  22  1   
 31  19  34  1   
 32  19  35  1   
 33  20  23  1   
 34  20  36  1   
 35  20  37  1   
 36  21  38  1   
 37  21  39  1   
 38  21  40  1   
 39  22  24  ar  
 40  22  25  ar  
 41  23  41  1   
 42  23  42  1   
 43  23  43  1   
 44  24  26  ar  
 45  24  44  1   
 46  25  27  ar  
 47  25  45  1   
 48  26  28  ar  
 49  26  46  1   
 50  27  28  ar  
 51  27  47  1   
 52  28  48  1   
@<TRIPOS>SUBSTRUCTURE
  1 ****   5 GROUP 4 **** **** 0

# MOE 2024.06 (io_trps.svl 2023.06)
