@<TRIPOS>MOLECULE
NONAME
49 50 1 0 0 
SMALL
USER_CHARGES


@<TRIPOS>ATOM
  1 S       -0.5640     0.5890     0.6060 S.o2  1 <1>   1.5010 
  2 O       -0.9260     1.9850     0.6990 O.2   1 <1>  -0.6500 
  3 O       -0.7060    -0.2570     1.7710 O.2   1 <1>  -0.6500 
  4 N       -1.4920    -0.0830    -0.6470 N.am  1 <1>  -0.8490 
  5 C        1.1090     0.4530    -0.0360 C.2   1 <1>  -0.0630 
  6 C       -2.9180     0.2860    -0.5870 C.3   1 <1>   0.1960 
  7 C       -1.3600    -1.5480    -0.7930 C.3   1 <1>   0.1960 
  8 C        1.4710     0.7800    -1.3360 C.2   1 <1>   0.1390 
  9 C        2.2750     0.0570     0.5320 C.2   1 <1>  -0.3020 
 10 C       -3.7070    -0.5480     0.4520 C.3   1 <1>   0.2000 
 11 C       -2.2470    -2.3690     0.1830 C.3   1 <1>   0.2000 
 12 N        2.7360     0.5950    -1.5660 N.2   1 <1>  -0.7070 
 13 N        3.2350     0.1520    -0.4040 N.pl3 1 <1>   0.3140 
 14 O       -3.5650    -1.9060     0.1440 O.3   1 <1>  -0.5600 
 15 C       -5.2180    -0.2270     0.5160 C.3   1 <1>  -0.0800 
 16 C       -2.2960    -3.8610    -0.1690 C.3   1 <1>  -0.1600 
 17 C        4.6610    -0.1610    -0.2520 C.3   1 <1>   0.0160 
 18 C       -5.9610    -0.4650    -0.8110 C.3   1 <1>  -0.2400 
 19 C       -5.4770     1.2080     1.0020 C.3   1 <1>  -0.2400 
 20 C       -0.9300    -4.5560    -0.0330 C.3   1 <1>  -0.1600 
 21 C       -1.0520    -6.0610    -0.2970 C.3   1 <1>  -0.1600 
 22 C        0.3060    -6.7560    -0.1660 C.3   1 <1>  -0.2400 
 23 H       -3.0180     1.3350    -0.3700 H     1 <1>   0.0800 
 24 H       -3.3520     0.1220    -1.5570 H     1 <1>   0.0800 
 25 H       -1.6440    -1.8130    -1.7970 H     1 <1>   0.0800 
 26 H       -0.3300    -1.8330    -0.6710 H     1 <1>   0.0800 
 27 H        0.7790     1.1440    -2.0780 H     1 <1>   0.1500 
 28 H        2.4570    -0.2780     1.5370 H     1 <1>   0.1500 
 29 H       -3.2920    -0.3880     1.4320 H     1 <1>   0.0800 
 30 H       -1.8930    -2.2690     1.1940 H     1 <1>   0.0800 
 31 H       -5.6400    -0.8910     1.2520 H     1 <1>   0.0800 
 32 H       -2.9930    -4.3370     0.4990 H     1 <1>   0.0800 
 33 H       -2.6620    -3.9780    -1.1740 H     1 <1>   0.0800 
 34 H        4.8410    -0.5650     0.7260 H     1 <1>   0.0800 
 35 H        5.2300     0.7390    -0.3870 H     1 <1>   0.0800 
 36 H        4.9410    -0.8780    -1.0010 H     1 <1>   0.0800 
 37 H       -5.6370     0.2230    -1.5700 H     1 <1>   0.0800 
 38 H       -7.0200    -0.3380    -0.6680 H     1 <1>   0.0800 
 39 H       -5.7900    -1.4690    -1.1580 H     1 <1>   0.0800 
 40 H       -5.1460     1.9320     0.2800 H     1 <1>   0.0800 
 41 H       -4.9640     1.3870     1.9310 H     1 <1>   0.0800 
 42 H       -6.5300     1.3560     1.1680 H     1 <1>   0.0800 
 43 H       -0.2300    -4.1360    -0.7330 H     1 <1>   0.0800 
 44 H       -0.5480    -4.4010     0.9620 H     1 <1>   0.0800 
 45 H       -1.7420    -6.4980     0.4050 H     1 <1>   0.0800 
 46 H       -1.4400    -6.2240    -1.2890 H     1 <1>   0.0800 
 47 H        0.7020    -6.6240     0.8250 H     1 <1>   0.0800 
 48 H        1.0060    -6.3520    -0.8770 H     1 <1>   0.0800 
 49 H        0.1990    -7.8100    -0.3540 H     1 <1>   0.0800 
@<TRIPOS>BOND
  1   1   2  2   
  2   1   3  2   
  3   1   4  am  
  4   1   5  1   
  5   4   6  1   
  6   4   7  1   
  7   5   8  1   
  8   5   9  2   
  9   6  10  1   
 10   6  23  1   
 11   6  24  1   
 12   7  11  1   
 13   7  25  1   
 14   7  26  1   
 15   8  12  2   
 16   8  27  1   
 17   9  13  1   
 18   9  28  1   
 19  10  14  1   
 20  10  15  1   
 21  10  29  1   
 22  11  14  1   
 23  11  16  1   
 24  11  30  1   
 25  12  13  1   
 26  13  17  1   
 27  15  18  1   
 28  15  19  1   
 29  15  31  1   
 30  16  20  1   
 31  16  32  1   
 32  16  33  1   
 33  17  34  1   
 34  17  35  1   
 35  17  36  1   
 36  18  37  1   
 37  18  38  1   
 38  18  39  1   
 39  19  40  1   
 40  19  41  1   
 41  19  42  1   
 42  20  21  1   
 43  20  43  1   
 44  20  44  1   
 45  21  22  1   
 46  21  45  1   
 47  21  46  1   
 48  22  47  1   
 49  22  48  1   
 50  22  49  1   
@<TRIPOS>SUBSTRUCTURE
  1 ****   7 GROUP 4 **** **** 0

# MOE 2024.06 (io_trps.svl 2023.06)
