@<TRIPOS>MOLECULE
NONAME
37 38 1 0 0 
SMALL
USER_CHARGES


@<TRIPOS>ATOM
  1 CL       0.7240     0.5760    -1.0510 Cl    1 <1>  -0.1770 
  2 C        1.5490    -0.7980    -0.3360 C.ar  1 <1>   0.1770 
  3 C        1.0680    -2.0900    -0.5120 C.ar  1 <1>   0.4100 
  4 C        2.6840    -0.6240     0.4050 C.ar  1 <1>   0.1600 
  5 N        1.6960    -3.1260     0.0240 N.ar  1 <1>  -0.6200 
  6 N       -0.0750    -2.3460    -1.2410 N.pl3 1 <1>  -0.8690 
  7 N        3.3180    -1.6500     0.9470 N.ar  1 <1>  -0.6200 
  8 C        2.7850    -2.8380     0.7230 C.ar  1 <1>   0.4770 
  9 C       -0.4460    -3.7000    -1.7290 C.3   1 <1>   0.2090 
 10 C        3.5080    -4.0120     1.3390 C.3   1 <1>  -0.0970 
 11 C       -0.9870    -4.5640    -0.5570 C.3   1 <1>   0.4230 
 12 N       -0.6530    -6.0330    -0.6640 N.4   1 <1>  -0.9590 
 13 C       -2.5070    -4.3730    -0.4280 C.3   1 <1>  -0.1600 
 14 C       -1.1850    -6.8030     0.5000 C.3   1 <1>   0.3430 
 15 C        0.8270    -6.2510    -0.7390 C.3   1 <1>   0.2630 
 16 C       -3.1090    -5.1870     0.7220 C.3   1 <1>  -0.1600 
 17 C       -2.7030    -6.6570     0.5910 C.3   1 <1>  -0.1600 
 18 H        3.0820     0.3640     0.5600 H     1 <1>   0.1500 
 19 H       -0.4540    -1.5520    -1.7750 H     1 <1>   0.4000 
 20 H        0.4290    -4.1380    -2.1700 H     1 <1>   0.0800 
 21 H       -1.1910    -3.6060    -2.5000 H     1 <1>   0.0800 
 22 H        2.8310    -4.5740     1.9540 H     1 <1>   0.0800 
 23 H        4.3250    -3.6710     1.9500 H     1 <1>   0.0800 
 24 H        3.8980    -4.6420     0.5630 H     1 <1>   0.0800 
 25 H       -0.5260    -4.1920     0.3440 H     1 <1>   0.0800 
 26 H       -1.1050    -6.3990    -1.5120 H     1 <1>   0.4500 
 27 H       -2.9870    -4.6480    -1.3510 H     1 <1>   0.0800 
 28 H       -2.7130    -3.3300    -0.2580 H     1 <1>   0.0800 
 29 H       -0.7400    -6.4350     1.4100 H     1 <1>   0.0800 
 30 H       -0.9330    -7.8460     0.3980 H     1 <1>   0.0800 
 31 H        1.3140    -5.7770     0.0990 H     1 <1>   0.0800 
 32 H        1.2320    -5.8340    -1.6460 H     1 <1>   0.0800 
 33 H        1.0530    -7.3050    -0.7220 H     1 <1>   0.0800 
 34 H       -4.1830    -5.1000     0.7110 H     1 <1>   0.0800 
 35 H       -2.7570    -4.7960     1.6630 H     1 <1>   0.0800 
 36 H       -3.0560    -7.2000     1.4510 H     1 <1>   0.0800 
 37 H       -3.1630    -7.0960    -0.2780 H     1 <1>   0.0800 
@<TRIPOS>BOND
  1   1   2  1   
  2   2   3  ar  
  3   2   4  ar  
  4   3   5  ar  
  5   3   6  1   
  6   4   7  ar  
  7   4  18  1   
  8   5   8  ar  
  9   6   9  1   
 10   6  19  1   
 11   7   8  ar  
 12   8  10  1   
 13   9  11  1   
 14   9  20  1   
 15   9  21  1   
 16  10  22  1   
 17  10  23  1   
 18  10  24  1   
 19  11  12  1   
 20  11  13  1   
 21  11  25  1   
 22  12  14  1   
 23  12  15  1   
 24  12  26  1   
 25  13  16  1   
 26  13  27  1   
 27  13  28  1   
 28  14  17  1   
 29  14  29  1   
 30  14  30  1   
 31  15  31  1   
 32  15  32  1   
 33  15  33  1   
 34  16  17  1   
 35  16  34  1   
 36  16  35  1   
 37  17  36  1   
 38  17  37  1   
@<TRIPOS>SUBSTRUCTURE
  1 ****   5 GROUP 4 **** **** 0

# MOE 2024.06 (io_trps.svl 2023.06)
