@<TRIPOS>MOLECULE
NONAME
53 57 1 0 0 
SMALL
USER_CHARGES


@<TRIPOS>ATOM
  1 O        0.0020     1.2610    -2.1520 O.2   1 <1>  -0.5700 
  2 C       -0.6820     2.0480    -1.5390 C.2   1 <1>   0.5690 
  3 N       -1.9940     1.7670    -1.2300 N.am  1 <1>  -0.6600 
  4 C       -0.0200     3.3640    -1.1600 C.3   1 <1>   0.0810 
  5 C       -2.9330     2.6720    -0.4880 C.3   1 <1>   0.1400 
  6 C       -2.5900     0.4370    -1.5490 C.3   1 <1>   0.1400 
  7 C        0.4180     3.3890     0.2930 C.2   1 <1>  -0.0400 
  8 C       -4.2300     2.9020    -1.2900 C.3   1 <1>   0.1440 
  9 C       -3.8780     0.6170    -2.3610 C.3   1 <1>  -0.1600 
 10 O       -0.4610     3.5270     1.2480 O.3   1 <1>  -0.0190 
 11 C        1.6300     3.2970     0.8600 C.2   1 <1>  -0.1500 
 12 C       -5.1570     3.7810    -0.4710 C.ar  1 <1>   0.1660 
 13 C       -4.8750     1.5440    -1.6440 C.3   1 <1>  -0.1600 
 14 C       -3.9760     3.7700    -2.5520 C.3   1 <1>  -0.1600 
 15 N        0.0950     3.5330     2.4240 N.2   1 <1>  -0.4100 
 16 C        1.3560     3.3940     2.2220 C.2   1 <1>   0.1080 
 17 N       -5.8170     3.4030     0.5970 N.ar  1 <1>  -0.6200 
 18 C       -5.2200     5.0460    -0.9690 C.ar  1 <1>  -0.1440 
 19 C       -4.3480     5.2180    -2.1870 C.3   1 <1>  -0.0170 
 20 C        2.3940     3.3410     3.3210 C.3   1 <1>  -0.0590 
 21 C       -6.5810     4.3400     1.1750 C.ar  1 <1>   0.6200 
 22 C       -6.0240     5.9480    -0.3210 C.ar  1 <1>   0.1600 
 23 N       -6.7090     5.6040     0.7460 N.ar  1 <1>  -0.6200 
 24 C       -7.3310     3.9530     2.3620 C.ar  1 <1>   0.0000 
 25 C       -8.5630     4.5350     2.6720 C.ar  1 <1>  -0.1500 
 26 C       -6.8530     2.9800     3.2450 C.ar  1 <1>  -0.1500 
 27 C       -9.2790     4.1690     3.7980 C.ar  1 <1>  -0.1500 
 28 C       -7.5630     2.6080     4.3720 C.ar  1 <1>  -0.1500 
 29 C       -8.7800     3.2030     4.6520 C.ar  1 <1>  -0.1500 
 30 H       -0.6760     4.1870    -1.3660 H     1 <1>   0.0800 
 31 H        0.8490     3.4880    -1.7790 H     1 <1>   0.0800 
 32 H       -2.4820     3.6220    -0.2750 H     1 <1>   0.0800 
 33 H       -3.1780     2.2140     0.4550 H     1 <1>   0.0800 
 34 H       -2.8080    -0.0750    -0.6280 H     1 <1>   0.0800 
 35 H       -1.8980    -0.1710    -2.1070 H     1 <1>   0.0800 
 36 H       -4.3320    -0.3460    -2.5160 H     1 <1>   0.0800 
 37 H       -3.6260     1.0160    -3.3280 H     1 <1>   0.0800 
 38 H        2.5970     3.1740     0.4080 H     1 <1>   0.1500 
 39 H       -5.7490     1.6940    -2.2530 H     1 <1>   0.0800 
 40 H       -5.1960     1.0650    -0.7340 H     1 <1>   0.0800 
 41 H       -4.6320     3.4500    -3.3430 H     1 <1>   0.0800 
 42 H       -2.9640     3.6960    -2.9100 H     1 <1>   0.0800 
 43 H       -4.8750     5.7050    -2.9890 H     1 <1>   0.0800 
 44 H       -3.4700     5.7840    -1.9270 H     1 <1>   0.0800 
 45 H        2.9340     2.4140     3.2680 H     1 <1>   0.0800 
 46 H        1.9160     3.4120     4.2810 H     1 <1>   0.0800 
 47 H        3.0820     4.1600     3.2130 H     1 <1>   0.0800 
 48 H       -6.1070     6.9600    -0.6780 H     1 <1>   0.1500 
 49 H       -8.9660     5.2890     2.0180 H     1 <1>   0.1500 
 50 H       -5.9070     2.5080     3.0440 H     1 <1>   0.1500 
 51 H      -10.2250     4.6370     4.0090 H     1 <1>   0.1500 
 52 H       -7.1680     1.8560     5.0320 H     1 <1>   0.1500 
 53 H       -9.3350     2.9160     5.5280 H     1 <1>   0.1500 
@<TRIPOS>BOND
  1   1   2  2   
  2   2   3  am  
  3   2   4  1   
  4   3   5  1   
  5   3   6  1   
  6   4   7  1   
  7   4  30  1   
  8   4  31  1   
  9   5   8  1   
 10   5  32  1   
 11   5  33  1   
 12   6   9  1   
 13   6  34  1   
 14   6  35  1   
 15   7  10  1   
 16   7  11  2   
 17   8  12  1   
 18   8  13  1   
 19   8  14  1   
 20   9  13  1   
 21   9  36  1   
 22   9  37  1   
 23  10  15  1   
 24  11  16  1   
 25  11  38  1   
 26  12  17  ar  
 27  12  18  ar  
 28  13  39  1   
 29  13  40  1   
 30  14  19  1   
 31  14  41  1   
 32  14  42  1   
 33  15  16  2   
 34  16  20  1   
 35  17  21  ar  
 36  18  19  1   
 37  18  22  ar  
 38  19  43  1   
 39  19  44  1   
 40  20  45  1   
 41  20  46  1   
 42  20  47  1   
 43  21  23  ar  
 44  21  24  1   
 45  22  23  ar  
 46  22  48  1   
 47  24  25  ar  
 48  24  26  ar  
 49  25  27  ar  
 50  25  49  1   
 51  26  28  ar  
 52  26  50  1   
 53  27  29  ar  
 54  27  51  1   
 55  28  29  ar  
 56  28  52  1   
 57  29  53  1   
@<TRIPOS>SUBSTRUCTURE
  1 ****   5 GROUP 4 **** **** 0

# MOE 2024.06 (io_trps.svl 2023.06)
