@<TRIPOS>MOLECULE
NONAME
44 47 1 0 0 
SMALL
USER_CHARGES


@<TRIPOS>ATOM
  1 S        0.0890    -0.0470     1.5160 S.3   1 <1>  -0.0800 
  2 C        0.4730    -1.2560     0.2900 C.ar  1 <1>   0.0400 
  3 C       -1.5220    -0.7080     1.7280 C.2   1 <1>  -0.1100 
  4 C       -0.6100    -2.1010     0.0930 C.ar  1 <1>   0.0000 
  5 C        1.6690    -1.3720    -0.3940 C.ar  1 <1>  -0.1500 
  6 C       -1.7530    -1.7700     0.9190 C.2   1 <1>  -0.0860 
  7 C       -0.4640    -3.1190    -0.8480 C.ar  1 <1>  -0.1500 
  8 C        1.7880    -2.3880    -1.3240 C.ar  1 <1>  -0.1500 
  9 C       -2.9900    -2.5180     0.8490 C.2   1 <1>   0.7160 
 10 C        0.7240    -3.2570    -1.5470 C.ar  1 <1>  -0.1500 
 11 O       -2.9740    -3.7300     0.9510 O.2   1 <1>  -0.5700 
 12 N       -4.1990    -1.8790     0.6690 N.am  1 <1>  -0.6600 
 13 C       -5.4790    -2.6330     0.8260 C.3   1 <1>   0.1400 
 14 C       -4.2930    -0.4690     0.1840 C.3   1 <1>   0.1400 
 15 C       -6.6170    -1.6810     1.1990 C.3   1 <1>  -0.1600 
 16 C       -5.5500    -0.2940    -0.6640 C.3   1 <1>  -0.1600 
 17 C       -6.8180    -0.5540     0.1680 C.3   1 <1>   0.4180 
 18 O       -7.0990     0.5960     0.9290 O.3   1 <1>  -0.5600 
 19 C       -7.9930    -0.8950    -0.7470 C.2   1 <1>  -0.2880 
 20 C       -7.8020     1.6390     0.3120 C.3   1 <1>   0.1200 
 21 C       -9.0830    -0.1380    -0.8870 C.2   1 <1>  -0.2760 
 22 C       -9.1940     1.1720    -0.1320 C.3   1 <1>  -0.0220 
 23 C      -10.2730    -0.4920    -1.7600 C.3   1 <1>  -0.1020 
 24 H       -2.1540    -0.2290     2.4550 H     1 <1>   0.1500 
 25 H        2.4760    -0.6880    -0.2010 H     1 <1>   0.1500 
 26 H       -1.2760    -3.8020    -1.0270 H     1 <1>   0.1500 
 27 H        2.7040    -2.5100    -1.8760 H     1 <1>   0.1500 
 28 H        0.8280    -4.0470    -2.2700 H     1 <1>   0.1500 
 29 H       -5.3690    -3.3780     1.5970 H     1 <1>   0.0800 
 30 H       -5.7060    -3.1370    -0.0970 H     1 <1>   0.0800 
 31 H       -3.4280    -0.2240    -0.4080 H     1 <1>   0.0800 
 32 H       -4.3310     0.1970     1.0300 H     1 <1>   0.0800 
 33 H       -6.3860    -1.2590     2.1610 H     1 <1>   0.0800 
 34 H       -7.5280    -2.2410     1.3060 H     1 <1>   0.0800 
 35 H       -5.5030    -0.9900    -1.4810 H     1 <1>   0.0800 
 36 H       -5.5730     0.6900    -1.0910 H     1 <1>   0.0800 
 37 H       -7.8570    -1.8270    -1.2660 H     1 <1>   0.1500 
 38 H       -7.2370     1.9850    -0.5350 H     1 <1>   0.0800 
 39 H       -7.8870     2.4430     1.0220 H     1 <1>   0.0800 
 40 H       -9.6240     1.9310    -0.7610 H     1 <1>   0.0800 
 41 H       -9.8280     1.0470     0.7280 H     1 <1>   0.0800 
 42 H      -10.4160     0.2570    -2.5180 H     1 <1>   0.0800 
 43 H      -11.1650    -0.5570    -1.1620 H     1 <1>   0.0800 
 44 H      -10.1170    -1.4400    -2.2430 H     1 <1>   0.0800 
@<TRIPOS>BOND
  1   1   2  1   
  2   1   3  1   
  3   2   4  ar  
  4   2   5  ar  
  5   3   6  2   
  6   3  24  1   
  7   4   6  1   
  8   4   7  ar  
  9   5   8  ar  
 10   5  25  1   
 11   6   9  1   
 12   7  10  ar  
 13   7  26  1   
 14   8  10  ar  
 15   8  27  1   
 16   9  11  2   
 17   9  12  am  
 18  10  28  1   
 19  12  13  1   
 20  12  14  1   
 21  13  15  1   
 22  13  29  1   
 23  13  30  1   
 24  14  16  1   
 25  14  31  1   
 26  14  32  1   
 27  15  17  1   
 28  15  33  1   
 29  15  34  1   
 30  16  17  1   
 31  16  35  1   
 32  16  36  1   
 33  17  18  1   
 34  17  19  1   
 35  18  20  1   
 36  19  21  2   
 37  19  37  1   
 38  20  22  1   
 39  20  38  1   
 40  20  39  1   
 41  21  22  1   
 42  21  23  1   
 43  22  40  1   
 44  22  41  1   
 45  23  42  1   
 46  23  43  1   
 47  23  44  1   
@<TRIPOS>SUBSTRUCTURE
  1 ****  14 GROUP 4 **** **** 0

# MOE 2024.06 (io_trps.svl 2023.06)
