@<TRIPOS>MOLECULE
NONAME
46 48 1 0 0 
SMALL
USER_CHARGES


@<TRIPOS>ATOM
  1 F        0.7230     1.4580     1.4170 F     1 <1>  -0.3400 
  2 C        0.5110     1.1890     0.1340 C.3   1 <1>   1.1640 
  3 F       -0.7090     0.6690     0.0580 F     1 <1>  -0.3400 
  4 F        0.4420     2.3670    -0.4770 F     1 <1>  -0.3400 
  5 C        1.5760     0.2400    -0.4570 C.ar  1 <1>  -0.1440 
  6 C        1.9080    -0.9890     0.1330 C.ar  1 <1>  -0.1440 
  7 C        2.2390     0.6190    -1.6240 C.ar  1 <1>  -0.1500 
  8 C        2.9000    -1.7740    -0.4430 C.ar  1 <1>  -0.1500 
  9 C        1.2390    -1.5280     1.4100 C.3   1 <1>   0.0450 
 10 C        3.2130    -0.1810    -2.1910 C.ar  1 <1>  -0.1500 
 11 C        3.5470    -1.3790    -1.5970 C.ar  1 <1>  -0.1500 
 12 C        0.9800    -3.0300     1.4010 C.2   1 <1>   0.5690 
 13 O        1.5190    -3.7020     2.2470 O.2   1 <1>  -0.5700 
 14 N        0.1540    -3.5960     0.4690 N.am  1 <1>  -0.6600 
 15 C       -0.5500    -2.9050    -0.6430 C.3   1 <1>   0.1400 
 16 C       -0.0820    -5.0610     0.3900 C.3   1 <1>   0.1400 
 17 C       -1.6160    -3.9040    -1.0890 C.3   1 <1>   0.2000 
 18 C       -0.9520    -5.2640    -0.8560 C.3   1 <1>  -0.0800 
 19 O       -2.7070    -3.7680    -0.2420 O.3   1 <1>  -0.6800 
 20 C       -1.9110    -6.4640    -0.7570 C.3   1 <1>   0.0210 
 21 C       -1.1450    -7.7500    -0.5210 C.2   1 <1>   0.1080 
 22 N       -0.3510    -8.2700    -1.4050 N.2   1 <1>  -0.7070 
 23 C       -1.1930    -8.5020     0.6490 C.2   1 <1>  -0.1500 
 24 N        0.1320    -9.3810    -0.8170 N.pl3 1 <1>   0.3000 
 25 C       -0.3620    -9.5420     0.4290 C.2   1 <1>  -0.3320 
 26 C       -0.0040   -10.6960     1.3460 C.3   1 <1>  -0.0600 
 27 H        2.0110     1.5510    -2.1150 H     1 <1>   0.1500 
 28 H        3.1850    -2.7130     0.0050 H     1 <1>   0.1500 
 29 H        0.2950    -1.0610     1.6000 H     1 <1>   0.0800 
 30 H        1.8770    -1.3020     2.2450 H     1 <1>   0.0800 
 31 H        3.7140     0.1310    -3.0920 H     1 <1>   0.1500 
 32 H        4.3100    -2.0040    -2.0290 H     1 <1>   0.1500 
 33 H       -0.9870    -1.9720    -0.3330 H     1 <1>   0.0800 
 34 H        0.1480    -2.7320    -1.4440 H     1 <1>   0.0800 
 35 H        0.8500    -5.5960     0.3080 H     1 <1>   0.0800 
 36 H       -0.5960    -5.3830     1.2800 H     1 <1>   0.0800 
 37 H       -1.9450    -3.7530    -2.1030 H     1 <1>   0.0800 
 38 H       -0.2830    -5.4460    -1.6800 H     1 <1>   0.0800 
 39 H       -2.3830    -3.7710     0.6810 H     1 <1>   0.4000 
 40 H       -2.4660    -6.5570    -1.6730 H     1 <1>   0.0800 
 41 H       -2.6140    -6.3240     0.0440 H     1 <1>   0.0800 
 42 H       -1.7760    -8.2770     1.5240 H     1 <1>   0.1500 
 43 H        0.7950   -10.0050    -1.2910 H     1 <1>   0.2700 
 44 H       -0.5260   -10.6000     2.2820 H     1 <1>   0.0800 
 45 H        1.0530   -10.7010     1.5430 H     1 <1>   0.0800 
 46 H       -0.2820   -11.6310     0.8930 H     1 <1>   0.0800 
@<TRIPOS>BOND
  1   1   2  1   
  2   2   3  1   
  3   2   4  1   
  4   2   5  1   
  5   5   6  ar  
  6   5   7  ar  
  7   6   8  ar  
  8   6   9  1   
  9   7  10  ar  
 10   7  27  1   
 11   8  11  ar  
 12   8  28  1   
 13   9  12  1   
 14   9  29  1   
 15   9  30  1   
 16  10  11  ar  
 17  10  31  1   
 18  11  32  1   
 19  12  13  2   
 20  12  14  am  
 21  14  15  1   
 22  14  16  1   
 23  15  17  1   
 24  15  33  1   
 25  15  34  1   
 26  16  18  1   
 27  16  35  1   
 28  16  36  1   
 29  17  18  1   
 30  17  19  1   
 31  17  37  1   
 32  18  20  1   
 33  18  38  1   
 34  19  39  1   
 35  20  21  1   
 36  20  40  1   
 37  20  41  1   
 38  21  22  2   
 39  21  23  1   
 40  22  24  1   
 41  23  25  2   
 42  23  42  1   
 43  24  25  1   
 44  24  43  1   
 45  25  26  1   
 46  26  44  1   
 47  26  45  1   
 48  26  46  1   
@<TRIPOS>SUBSTRUCTURE
  1 ****  14 GROUP 4 **** **** 0

# MOE 2024.06 (io_trps.svl 2023.06)
