@<TRIPOS>MOLECULE
NONAME
59 62 1 0 0 
SMALL
USER_CHARGES


@<TRIPOS>ATOM
  1 CL      -2.9780     1.1750     3.2780 Cl    1 <1>  -0.1770 
  2 C       -3.2280    -0.0230     2.0370 C.ar  1 <1>   0.1770 
  3 C       -4.0990     0.2400     1.0020 C.ar  1 <1>  -0.1500 
  4 C       -2.5490    -1.2240     2.1070 C.ar  1 <1>  -0.1500 
  5 C       -4.3130    -0.7140     0.0190 C.ar  1 <1>   0.0820 
  6 C       -2.7500    -2.1680     1.1180 C.ar  1 <1>  -0.1500 
  7 O       -5.1840    -0.3660    -0.9550 O.3   1 <1>  -0.3630 
  8 C       -3.6270    -1.9420     0.0520 C.ar  1 <1>   0.0860 
  9 C       -6.3460    -1.1220    -1.2330 C.3   1 <1>   0.1200 
 10 C       -3.7790    -2.9730    -0.9530 C.2   1 <1>   0.5440 
 11 C       -7.3740    -0.8830    -0.1190 C.3   1 <1>  -0.1600 
 12 O       -3.6140    -2.6960    -2.1270 O.2   1 <1>  -0.5700 
 13 N       -4.1500    -4.2580    -0.5930 N.am  1 <1>  -0.6600 
 14 C       -8.7810    -1.3760    -0.4970 C.3   1 <1>   0.0960 
 15 C       -4.0320    -5.3770    -1.5980 C.3   1 <1>   0.2200 
 16 C       -5.2290    -4.3510     0.4440 C.3   1 <1>   0.1400 
 17 N       -8.8960    -2.8510    -0.5180 N.pl3 1 <1>   0.3140 
 18 C       -4.4430    -6.7520    -1.0410 C.3   1 <1>  -0.1600 
 19 C       -2.5830    -5.5080    -2.0940 C.3   1 <1>  -0.2400 
 20 C       -5.4330    -5.7590     0.9790 C.3   1 <1>  -0.1600 
 21 N       -8.3430    -3.6260    -1.4560 N.2   1 <1>  -0.4180 
 22 C       -9.6290    -3.6090     0.3000 C.2   1 <1>  -0.3020 
 23 C       -5.7010    -6.6840    -0.1940 C.3   1 <1>   0.2200 
 24 N       -8.7090    -4.8430    -1.2490 N.2   1 <1>  -0.2270 
 25 C       -9.5080    -4.8560    -0.1760 C.2   1 <1>   0.0460 
 26 N       -6.0270    -8.0310     0.3090 N.am  1 <1>  -0.7300 
 27 C      -10.1640    -6.1230     0.3540 C.3   1 <1>   0.0210 
 28 C       -7.2220    -8.6680     0.3370 C.2   1 <1>   0.5690 
 29 C       -9.1440    -7.1260     0.9170 C.3   1 <1>  -0.1600 
 30 O       -7.2900    -9.7820     0.7880 O.2   1 <1>  -0.5700 
 31 C       -8.4920    -8.0040    -0.1680 C.3   1 <1>  -0.0990 
 32 H       -4.6120     1.1830     0.9570 H     1 <1>   0.1500 
 33 H       -1.8710    -1.4070     2.9220 H     1 <1>   0.1500 
 34 H       -2.2170    -3.1040     1.1580 H     1 <1>   0.1500 
 35 H       -6.7250    -0.7700    -2.1760 H     1 <1>   0.0800 
 36 H       -6.1000    -2.1600    -1.3400 H     1 <1>   0.0800 
 37 H       -7.0540    -1.3560     0.7920 H     1 <1>   0.0800 
 38 H       -7.4350     0.1770     0.0540 H     1 <1>   0.0800 
 39 H       -9.0540    -1.0050    -1.4680 H     1 <1>   0.0800 
 40 H       -9.4920    -0.9990     0.2140 H     1 <1>   0.0800 
 41 H       -4.6720    -5.1390    -2.4330 H     1 <1>   0.0800 
 42 H       -5.0070    -3.7050     1.2740 H     1 <1>   0.0800 
 43 H       -6.1510    -4.0140     0.0040 H     1 <1>   0.0800 
 44 H       -4.6080    -7.4200    -1.8670 H     1 <1>   0.0800 
 45 H       -3.6390    -7.1490    -0.4470 H     1 <1>   0.0800 
 46 H       -1.9110    -5.6180    -1.2630 H     1 <1>   0.0800 
 47 H       -2.2860    -4.6560    -2.6750 H     1 <1>   0.0800 
 48 H       -2.4880    -6.3700    -2.7300 H     1 <1>   0.0800 
 49 H       -6.2730    -5.7550     1.6460 H     1 <1>   0.0800 
 50 H       -4.5610    -6.0690     1.5260 H     1 <1>   0.0800 
 51 H      -10.1850    -3.2280     1.1360 H     1 <1>   0.1500 
 52 H       -6.5080    -6.2930    -0.7880 H     1 <1>   0.0800 
 53 H       -5.2450    -8.5600     0.6950 H     1 <1>   0.3700 
 54 H      -10.8380    -5.8420     1.1430 H     1 <1>   0.0800 
 55 H      -10.7480    -6.5800    -0.4250 H     1 <1>   0.0800 
 56 H       -9.6350    -7.7750     1.6210 H     1 <1>   0.0800 
 57 H       -8.3920    -6.5830     1.4590 H     1 <1>   0.0800 
 58 H       -8.2690    -7.4410    -1.0520 H     1 <1>   0.0800 
 59 H       -9.1830    -8.7740    -0.4600 H     1 <1>   0.0800 
@<TRIPOS>BOND
  1   1   2  1   
  2   2   3  ar  
  3   2   4  ar  
  4   3   5  ar  
  5   3  32  1   
  6   4   6  ar  
  7   4  33  1   
  8   5   7  1   
  9   5   8  ar  
 10   6   8  ar  
 11   6  34  1   
 12   7   9  1   
 13   8  10  1   
 14   9  11  1   
 15   9  35  1   
 16   9  36  1   
 17  10  12  2   
 18  10  13  am  
 19  11  14  1   
 20  11  37  1   
 21  11  38  1   
 22  13  15  1   
 23  13  16  1   
 24  14  17  1   
 25  14  39  1   
 26  14  40  1   
 27  15  18  1   
 28  15  19  1   
 29  15  41  1   
 30  16  20  1   
 31  16  42  1   
 32  16  43  1   
 33  17  21  1   
 34  17  22  1   
 35  18  23  1   
 36  18  44  1   
 37  18  45  1   
 38  19  46  1   
 39  19  47  1   
 40  19  48  1   
 41  20  23  1   
 42  20  49  1   
 43  20  50  1   
 44  21  24  2   
 45  22  25  2   
 46  22  51  1   
 47  23  26  1   
 48  23  52  1   
 49  24  25  1   
 50  25  27  1   
 51  26  28  am  
 52  26  53  1   
 53  27  29  1   
 54  27  54  1   
 55  27  55  1   
 56  28  30  2   
 57  28  31  1   
 58  29  31  1   
 59  29  56  1   
 60  29  57  1   
 61  31  58  1   
 62  31  59  1   
@<TRIPOS>SUBSTRUCTURE
  1 ****  16 GROUP 4 **** **** 0

# MOE 2024.06 (io_trps.svl 2023.06)
