@<TRIPOS>MOLECULE
NONAME
46 48 1 0 0 
SMALL
USER_CHARGES


@<TRIPOS>ATOM
  1 F        0.6180     0.4990     2.6000 F     1 <1>  -0.1900 
  2 C        1.4340     0.9900     1.7060 C.ar  1 <1>   0.1900 
  3 C        2.0920     0.1240     0.8510 C.ar  1 <1>  -0.1440 
  4 C        1.5960     2.3600     1.6530 C.ar  1 <1>  -0.1500 
  5 C        2.9560     0.6630    -0.0980 C.ar  1 <1>   0.0830 
  6 C        1.8700    -1.3680     0.9630 C.3   1 <1>   0.4860 
  7 C        2.4550     2.8880     0.7050 C.ar  1 <1>  -0.1500 
  8 O        3.5890    -0.2030    -0.9340 O.3   1 <1>  -0.3630 
  9 C        3.1310     2.0460    -0.1640 C.ar  1 <1>  -0.1500 
 10 N        1.4150    -1.9370    -0.3450 N.4   1 <1>  -0.9590 
 11 C        4.6380     0.2320    -1.7770 C.3   1 <1>   0.0400 
 12 C        0.0010    -1.7040    -0.7730 C.3   1 <1>   0.4230 
 13 C        1.7430    -3.3910    -0.4040 C.3   1 <1>   0.2630 
 14 C       -1.0490    -1.8140     0.3300 C.3   1 <1>  -0.1600 
 15 C       -0.2430    -0.3360    -1.3980 C.3   1 <1>  -0.1600 
 16 C       -2.2930    -1.1440    -0.2690 C.3   1 <1>  -0.0800 
 17 C       -1.7670    -0.1530    -1.3390 C.3   1 <1>  -0.0800 
 18 C       -3.2290    -0.5400     0.8010 C.3   1 <1>   0.1400 
 19 C       -2.1880     1.3130    -1.1080 C.3   1 <1>  -0.0990 
 20 N       -4.0930     0.4830     0.1830 N.am  1 <1>  -0.7300 
 21 C       -3.6460     1.3880    -0.7120 C.2   1 <1>   0.5690 
 22 O       -4.3700     2.2280    -1.1780 O.2   1 <1>  -0.5700 
 23 H        1.0640     2.9990     2.3370 H     1 <1>   0.1500 
 24 H        1.1630    -1.5940     1.7430 H     1 <1>   0.0800 
 25 H        2.8110    -1.8150     1.2360 H     1 <1>   0.0800 
 26 H        2.5980     3.9550     0.6450 H     1 <1>   0.1500 
 27 H        3.7880     2.4940    -0.8870 H     1 <1>   0.1500 
 28 H        2.0190    -1.4460    -1.0290 H     1 <1>   0.4500 
 29 H        5.0530    -0.6260    -2.2760 H     1 <1>   0.0800 
 30 H        5.3990     0.7050    -1.1790 H     1 <1>   0.0800 
 31 H        4.2440     0.9190    -2.5060 H     1 <1>   0.0800 
 32 H       -0.2510    -2.4300    -1.5290 H     1 <1>   0.0800 
 33 H        1.1590    -3.9360     0.3200 H     1 <1>   0.0800 
 34 H        2.7890    -3.5480    -0.1950 H     1 <1>   0.0800 
 35 H        1.5290    -3.7830    -1.3850 H     1 <1>   0.0800 
 36 H       -1.2480    -2.8380     0.5950 H     1 <1>   0.0800 
 37 H       -0.7550    -1.2620     1.2010 H     1 <1>   0.0800 
 38 H        0.2220     0.4440    -0.8300 H     1 <1>   0.0800 
 39 H        0.1110    -0.2960    -2.4130 H     1 <1>   0.0800 
 40 H       -2.8590    -1.9010    -0.7890 H     1 <1>   0.0800 
 41 H       -2.1850    -0.4580    -2.2860 H     1 <1>   0.0800 
 42 H       -2.6570    -0.0680     1.5830 H     1 <1>   0.0800 
 43 H       -3.8360    -1.3130     1.2430 H     1 <1>   0.0800 
 44 H       -2.0300     1.8930    -1.9990 H     1 <1>   0.0800 
 45 H       -1.6170     1.7540    -0.3120 H     1 <1>   0.0800 
 46 H       -5.0670     0.5620     0.4860 H     1 <1>   0.3700 
@<TRIPOS>BOND
  1   1   2  1   
  2   2   3  ar  
  3   2   4  ar  
  4   3   5  ar  
  5   3   6  1   
  6   4   7  ar  
  7   4  23  1   
  8   5   8  1   
  9   5   9  ar  
 10   6  10  1   
 11   6  24  1   
 12   6  25  1   
 13   7   9  ar  
 14   7  26  1   
 15   8  11  1   
 16   9  27  1   
 17  10  12  1   
 18  10  13  1   
 19  10  28  1   
 20  11  29  1   
 21  11  30  1   
 22  11  31  1   
 23  12  14  1   
 24  12  15  1   
 25  12  32  1   
 26  13  33  1   
 27  13  34  1   
 28  13  35  1   
 29  14  16  1   
 30  14  36  1   
 31  14  37  1   
 32  15  17  1   
 33  15  38  1   
 34  15  39  1   
 35  16  17  1   
 36  16  18  1   
 37  16  40  1   
 38  17  19  1   
 39  17  41  1   
 40  18  20  1   
 41  18  42  1   
 42  18  43  1   
 43  19  21  1   
 44  19  44  1   
 45  19  45  1   
 46  20  21  am  
 47  20  46  1   
 48  21  22  2   
@<TRIPOS>SUBSTRUCTURE
  1 ****  15 GROUP 4 **** **** 0

# MOE 2024.06 (io_trps.svl 2023.06)
