@<TRIPOS>MOLECULE
NONAME
46 47 1 0 0 
SMALL
USER_CHARGES


@<TRIPOS>ATOM
  1 S        1.1660     1.8800    -0.1730 S.o2  1 <1>   1.3330 
  2 O        0.3440     2.5190    -1.1720 O.2   1 <1>  -0.6500 
  3 O        2.2130     2.6760     0.4340 O.2   1 <1>  -0.6500 
  4 N        1.8230     0.4500    -0.7890 N.am  1 <1>  -0.8490 
  5 C        0.0910     1.3510     1.1700 C.3   1 <1>  -0.0550 
  6 C        0.9430    -0.2350    -1.7450 C.3   1 <1>   0.1160 
  7 C        3.1440     0.6510    -1.3960 C.3   1 <1>   0.1160 
  8 C       -0.6250     2.4740     1.9720 C.3   1 <1>  -0.0800 
  9 C       -1.5040     3.3800     1.0990 C.3   1 <1>   0.2000 
 10 C        0.3350     3.4600     2.6480 C.3   1 <1>   0.3430 
 11 O       -2.6140     3.7630     1.8420 O.3   1 <1>  -0.6800 
 12 C       -0.6540     4.6220     0.7770 C.3   1 <1>   0.3430 
 13 N        0.5720     4.5180     1.6350 N.4   1 <1>  -0.9590 
 14 C        1.1050     5.8100     2.1240 C.3   1 <1>   0.4860 
 15 C        1.6140     6.5670     0.9110 C.ar  1 <1>  -0.1440 
 16 C        0.9940     7.7380     0.5030 C.ar  1 <1>  -0.1500 
 17 C        2.6980     6.0820     0.1850 C.ar  1 <1>  -0.1500 
 18 C        1.4700     8.3810    -0.6230 C.ar  1 <1>   0.1900 
 19 C        3.1690     6.7320    -0.9550 C.ar  1 <1>  -0.1440 
 20 F        0.8820     9.4810    -1.0060 F     1 <1>  -0.1900 
 21 C        2.5360     7.9050    -1.3580 C.ar  1 <1>  -0.1500 
 22 C        4.3590     6.1440    -1.7340 C.3   1 <1>   1.1630 
 23 F        4.6730     6.8320    -2.8240 F     1 <1>  -0.3400 
 24 F        4.1190     4.9000    -2.1310 F     1 <1>  -0.3400 
 25 F        5.4560     6.0920    -0.9900 F     1 <1>  -0.3400 
 26 H       -0.6600     0.7000     0.7650 H     1 <1>   0.0800 
 27 H        0.6730     0.7610     1.8530 H     1 <1>   0.0800 
 28 H        1.3790    -1.1760    -2.0400 H     1 <1>   0.0800 
 29 H        0.7960     0.3710    -2.6250 H     1 <1>   0.0800 
 30 H       -0.0150    -0.4340    -1.2980 H     1 <1>   0.0800 
 31 H        3.5400    -0.2860    -1.7500 H     1 <1>   0.0800 
 32 H        3.8320     1.0480    -0.6670 H     1 <1>   0.0800 
 33 H        3.0800     1.3410    -2.2220 H     1 <1>   0.0800 
 34 H       -1.2220     1.9850     2.7240 H     1 <1>   0.0800 
 35 H       -1.8660     2.8990     0.2050 H     1 <1>   0.0800 
 36 H        1.2570     2.9830     2.9450 H     1 <1>   0.0800 
 37 H       -0.1410     3.8880     3.5160 H     1 <1>   0.0800 
 38 H       -2.3970     4.1300     2.7200 H     1 <1>   0.4000 
 39 H       -1.2140     5.5170     0.9910 H     1 <1>   0.0800 
 40 H       -0.3720     4.6210    -0.2640 H     1 <1>   0.0800 
 41 H        1.3250     4.1480     1.0180 H     1 <1>   0.4500 
 42 H        0.3350     6.3720     2.6280 H     1 <1>   0.0800 
 43 H        1.9210     5.6420     2.8090 H     1 <1>   0.0800 
 44 H        0.1570     8.1610     1.0300 H     1 <1>   0.1500 
 45 H        3.1960     5.1770     0.5000 H     1 <1>   0.1500 
 46 H        2.8550     8.4540    -2.2290 H     1 <1>   0.1500 
@<TRIPOS>BOND
  1   1   2  2   
  2   1   3  2   
  3   1   4  am  
  4   1   5  1   
  5   4   6  1   
  6   4   7  1   
  7   5   8  1   
  8   5  26  1   
  9   5  27  1   
 10   6  28  1   
 11   6  29  1   
 12   6  30  1   
 13   7  31  1   
 14   7  32  1   
 15   7  33  1   
 16   8   9  1   
 17   8  10  1   
 18   8  34  1   
 19   9  11  1   
 20   9  12  1   
 21   9  35  1   
 22  10  13  1   
 23  10  36  1   
 24  10  37  1   
 25  11  38  1   
 26  12  13  1   
 27  12  39  1   
 28  12  40  1   
 29  13  14  1   
 30  13  41  1   
 31  14  15  1   
 32  14  42  1   
 33  14  43  1   
 34  15  16  ar  
 35  15  17  ar  
 36  16  18  ar  
 37  16  44  1   
 38  17  19  ar  
 39  17  45  1   
 40  18  20  1   
 41  18  21  ar  
 42  19  21  ar  
 43  19  22  1   
 44  21  46  1   
 45  22  23  1   
 46  22  24  1   
 47  22  25  1   
@<TRIPOS>SUBSTRUCTURE
  1 ****  17 GROUP 4 **** **** 0

# MOE 2024.06 (io_trps.svl 2023.06)
