@<TRIPOS>MOLECULE
NONAME
41 41 1 0 0 
SMALL
USER_CHARGES


@<TRIPOS>ATOM
  1 O        0.0030    -0.0450    -0.8320 O.2   1 <1>  -0.5700 
  2 C       -0.1890    -1.2300    -0.6290 C.2   1 <1>   0.6340 
  3 O        0.7790    -1.9620    -0.0590 O.3   1 <1>  -0.4300 
  4 C       -1.4080    -1.9290    -0.9850 C.ar  1 <1>   0.0860 
  5 C        2.0530    -1.5420     0.3830 C.3   1 <1>   0.2800 
  6 C       -2.6610    -1.2830    -1.0510 C.ar  1 <1>   0.1000 
  7 C       -1.3600    -3.2940    -1.2770 C.ar  1 <1>  -0.1500 
  8 C        2.8820    -1.0290    -0.8000 C.3   1 <1>  -0.2400 
  9 C        2.7110    -2.7990     0.9530 C.3   1 <1>  -0.2400 
 10 C        1.9090    -0.4980     1.4960 C.3   1 <1>  -0.2400 
 11 N       -2.7800     0.0620    -0.7490 N.pl3 1 <1>  -0.9000 
 12 C       -3.8180    -1.9970    -1.4210 C.ar  1 <1>   0.0860 
 13 C       -2.4890    -4.0020    -1.6350 C.ar  1 <1>  -0.1500 
 14 C       -5.1130    -1.3520    -1.5050 C.2   1 <1>   0.4690 
 15 C       -3.7040    -3.3530    -1.7090 C.ar  1 <1>  -0.1500 
 16 O       -5.1830    -0.3700    -2.2630 O.2   1 <1>  -0.5700 
 17 C       -6.1720    -1.8690    -0.7450 C.2   1 <1>  -0.1360 
 18 C       -7.5290    -1.5580    -0.6190 C.2   1 <1>  -0.1360 
 19 O       -8.0110    -0.6300    -1.2980 O.3   1 <1>  -0.8500 
 20 C       -8.3800    -2.3220     0.2980 C.2   1 <1>   0.7060 
 21 O       -7.9830    -3.3020     0.9090 O.2   1 <1>  -0.5700 
 22 O       -9.6510    -1.9420     0.4890 O.3   1 <1>  -0.4300 
 23 C      -10.5210    -2.6320     1.3550 C.3   1 <1>   0.0400 
 24 H       -0.4190    -3.8130    -1.2290 H     1 <1>   0.1500 
 25 H        2.9010    -1.7590    -1.5880 H     1 <1>   0.0800 
 26 H        3.8910    -0.8400    -0.4850 H     1 <1>   0.0800 
 27 H        2.4840    -0.1070    -1.1810 H     1 <1>   0.0800 
 28 H        2.8000    -3.5530     0.1910 H     1 <1>   0.0800 
 29 H        2.1270    -3.1900     1.7670 H     1 <1>   0.0800 
 30 H        3.6950    -2.5720     1.3200 H     1 <1>   0.0800 
 31 H        1.5120     0.4240     1.1140 H     1 <1>   0.0800 
 32 H        2.8710    -0.2840     1.9240 H     1 <1>   0.0800 
 33 H        1.2640    -0.8650     2.2730 H     1 <1>   0.0800 
 34 H       -3.6270     0.5400    -1.1110 H     1 <1>   0.4000 
 35 H       -1.9320     0.6480    -0.7810 H     1 <1>   0.4000 
 36 H       -2.4250    -5.0530    -1.8590 H     1 <1>   0.1500 
 37 H       -4.5850    -3.9020    -1.9980 H     1 <1>   0.1500 
 38 H       -5.8670    -2.6840    -0.1220 H     1 <1>   0.1500 
 39 H      -11.4750    -2.1380     1.3360 H     1 <1>   0.0800 
 40 H      -10.1070    -2.6100     2.3480 H     1 <1>   0.0800 
 41 H      -10.6170    -3.6460     1.0100 H     1 <1>   0.0800 
@<TRIPOS>BOND
  1   1   2  2   
  2   2   3  1   
  3   2   4  1   
  4   3   5  1   
  5   4   6  ar  
  6   4   7  ar  
  7   5   8  1   
  8   5   9  1   
  9   5  10  1   
 10   6  11  1   
 11   6  12  ar  
 12   7  13  ar  
 13   7  24  1   
 14   8  25  1   
 15   8  26  1   
 16   8  27  1   
 17   9  28  1   
 18   9  29  1   
 19   9  30  1   
 20  10  31  1   
 21  10  32  1   
 22  10  33  1   
 23  11  34  1   
 24  11  35  1   
 25  12  14  1   
 26  12  15  ar  
 27  13  15  ar  
 28  13  36  1   
 29  14  16  2   
 30  14  17  1   
 31  15  37  1   
 32  17  18  2   
 33  17  38  1   
 34  18  19  1   
 35  18  20  1   
 36  20  21  2   
 37  20  22  1   
 38  22  23  1   
 39  23  39  1   
 40  23  40  1   
 41  23  41  1   
@<TRIPOS>SUBSTRUCTURE
  1 ****   6 GROUP 4 **** **** 0

# MOE 2024.06 (io_trps.svl 2023.06)
