@<TRIPOS>MOLECULE
NONAME
50 53 1 0 0 
SMALL
USER_CHARGES


@<TRIPOS>ATOM
  1 O        0.8060    -0.2150     1.2120 O.3   1 <1>  -0.5600 
  2 C        1.8610    -0.7520     0.4460 C.3   1 <1>   0.4240 
  3 C       -0.4910    -0.6050     0.8860 C.3   1 <1>   0.1200 
  4 C        1.6120    -2.2350     0.0930 C.ar  1 <1>  -0.1440 
  5 C        3.1110    -0.6150     1.3250 C.3   1 <1>  -0.1600 
  6 C        2.0120     0.0980    -0.8250 C.3   1 <1>  -0.1600 
  7 C       -0.6450    -2.0950     1.1750 C.3   1 <1>  -0.0160 
  8 C        0.4280    -2.8730     0.4390 C.ar  1 <1>  -0.1440 
  9 C        2.5760    -2.9660    -0.5900 C.ar  1 <1>  -0.1500 
 10 C        3.4490     0.8490     1.6150 C.3   1 <1>   0.2090 
 11 C        2.3290     1.5560    -0.4940 C.3   1 <1>   0.2090 
 12 C        0.2200    -4.2030     0.1120 C.ar  1 <1>  -0.1500 
 13 C        2.3880    -4.2980    -0.9190 C.ar  1 <1>   0.0820 
 14 N        3.5560     1.6110     0.3390 N.pl3 1 <1>  -0.8380 
 15 C        1.1860    -4.9340    -0.5750 C.ar  1 <1>   0.0820 
 16 O        3.4300    -4.8810    -1.5770 O.3   1 <1>  -0.3630 
 17 C        4.7820     1.8050    -0.2650 C.ar  1 <1>   0.4100 
 18 O        0.9760    -6.2360    -0.9320 O.3   1 <1>  -0.3630 
 19 C        3.7700    -6.2280    -1.3350 C.3   1 <1>   0.0400 
 20 N        5.7040     0.8620    -0.1020 N.ar  1 <1>  -0.6200 
 21 C        5.0100     2.9520    -1.0230 C.ar  1 <1>  -0.1500 
 22 C       -0.2750    -6.8670    -0.7670 C.3   1 <1>   0.0400 
 23 C        6.8590     1.0590    -0.7130 C.ar  1 <1>   0.1600 
 24 C        6.2170     3.1420    -1.6530 C.ar  1 <1>  -0.1500 
 25 C        7.1810     2.1570    -1.4980 C.ar  1 <1>   0.0730 
 26 C        8.4650     2.2530    -2.1170 C.1   1 <1>   0.4840 
 27 N        9.4910     2.3210    -2.6100 N.1   1 <1>  -0.5570 
 28 H       -0.6760    -0.3910    -0.1520 H     1 <1>   0.0800 
 29 H       -1.1700    -0.0320     1.4920 H     1 <1>   0.0800 
 30 H        3.9570    -1.0590     0.8370 H     1 <1>   0.0800 
 31 H        2.9560    -1.1440     2.2460 H     1 <1>   0.0800 
 32 H        1.1220     0.0380    -1.4200 H     1 <1>   0.0800 
 33 H        2.8180    -0.2890    -1.4200 H     1 <1>   0.0800 
 34 H       -1.6210    -2.4170     0.8620 H     1 <1>   0.0800 
 35 H       -0.5540    -2.2650     2.2330 H     1 <1>   0.0800 
 36 H        3.5040    -2.5080    -0.8800 H     1 <1>   0.1500 
 37 H        4.3770     0.9090     2.1580 H     1 <1>   0.0800 
 38 H        2.6790     1.2890     2.2240 H     1 <1>   0.0800 
 39 H        1.5120     2.0010     0.0490 H     1 <1>   0.0800 
 40 H        2.4700     2.1090    -1.4060 H     1 <1>   0.0800 
 41 H       -0.7080    -4.6550     0.4030 H     1 <1>   0.1500 
 42 H        4.7960    -6.3710    -1.6180 H     1 <1>   0.0800 
 43 H        3.1370    -6.8570    -1.9340 H     1 <1>   0.0800 
 44 H        3.6410    -6.4420    -0.2890 H     1 <1>   0.0800 
 45 H        4.2280     3.6830    -1.0970 H     1 <1>   0.1500 
 46 H       -0.2080    -7.8540    -1.1870 H     1 <1>   0.0800 
 47 H       -1.0240    -6.2990    -1.2900 H     1 <1>   0.0800 
 48 H       -0.4990    -6.9320     0.2830 H     1 <1>   0.0800 
 49 H        7.6020     0.2900    -0.5820 H     1 <1>   0.1500 
 50 H        6.4090     4.0220    -2.2430 H     1 <1>   0.1500 
@<TRIPOS>BOND
  1   1   2  1   
  2   1   3  1   
  3   2   4  1   
  4   2   5  1   
  5   2   6  1   
  6   3   7  1   
  7   3  28  1   
  8   3  29  1   
  9   4   8  ar  
 10   4   9  ar  
 11   5  10  1   
 12   5  30  1   
 13   5  31  1   
 14   6  11  1   
 15   6  32  1   
 16   6  33  1   
 17   7   8  1   
 18   7  34  1   
 19   7  35  1   
 20   8  12  ar  
 21   9  13  ar  
 22   9  36  1   
 23  10  14  1   
 24  10  37  1   
 25  10  38  1   
 26  11  14  1   
 27  11  39  1   
 28  11  40  1   
 29  12  15  ar  
 30  12  41  1   
 31  13  15  ar  
 32  13  16  1   
 33  14  17  1   
 34  15  18  1   
 35  16  19  1   
 36  17  20  ar  
 37  17  21  ar  
 38  18  22  1   
 39  19  42  1   
 40  19  43  1   
 41  19  44  1   
 42  20  23  ar  
 43  21  24  ar  
 44  21  45  1   
 45  22  46  1   
 46  22  47  1   
 47  22  48  1   
 48  23  25  ar  
 49  23  49  1   
 50  24  25  ar  
 51  24  50  1   
 52  25  26  1   
 53  26  27  3   
@<TRIPOS>SUBSTRUCTURE
  1 ****   2 GROUP 4 **** **** 0

# MOE 2024.06 (io_trps.svl 2023.06)
