@<TRIPOS>MOLECULE
NONAME
53 55 1 0 0 
SMALL
USER_CHARGES


@<TRIPOS>ATOM
  1 S       -2.2900    -1.1330    -1.4000 S.3   1 <1>  -0.4600 
  2 C       -1.8070    -1.1200     0.3540 C.3   1 <1>   0.2500 
  3 C       -1.0860    -0.0240    -2.1780 C.3   1 <1>  -0.0100 
  4 C       -2.7540    -2.0180     1.1290 C.2   1 <1>  -0.0400 
  5 O       -2.8130    -3.2950     0.8300 O.3   1 <1>  -0.2800 
  6 C       -3.6060    -1.7390     2.1390 C.2   1 <1>  -0.1500 
  7 C       -3.7160    -3.8890     1.6060 C.2   1 <1>   0.0550 
  8 C       -4.2240    -2.9500     2.4520 C.2   1 <1>  -0.1500 
  9 C       -4.0280    -5.3010     1.4920 C.2   1 <1>   0.7150 
 10 O       -4.5330    -5.8660     2.4470 O.2   1 <1>  -0.5700 
 11 N       -3.8010    -6.0260     0.3390 N.am  1 <1>  -0.6600 
 12 C       -3.9700    -7.5200     0.3090 C.3   1 <1>   0.3640 
 13 C       -3.6360    -5.3600    -0.9950 C.3   1 <1>   0.1400 
 14 C       -2.6180    -8.2490     0.2040 C.ar  1 <1>  -0.1430 
 15 C       -4.9430    -7.9610    -0.8340 C.3   1 <1>   0.2000 
 16 C       -3.8780    -6.3190    -2.1690 C.3   1 <1>   0.1200 
 17 C       -2.6150    -9.6350     0.2960 C.ar  1 <1>  -0.1500 
 18 C       -1.3970    -7.6070     0.0440 C.ar  1 <1>  -0.1500 
 19 O       -5.0260    -7.0680    -1.9240 O.3   1 <1>  -0.5600 
 20 C       -6.3710    -8.1430    -0.3070 C.3   1 <1>   0.1200 
 21 C       -1.4490   -10.3750     0.2020 C.ar  1 <1>   0.0830 
 22 C       -0.2190    -8.3280    -0.0580 C.ar  1 <1>  -0.1500 
 23 O       -6.4510    -9.2950     0.4720 O.3   1 <1>  -0.6800 
 24 O       -1.6110   -11.7230     0.3090 O.3   1 <1>  -0.3630 
 25 C       -0.2250    -9.7180     0.0040 C.ar  1 <1>   0.0830 
 26 C       -0.6550   -12.5070     0.9880 C.3   1 <1>   0.0400 
 27 O        0.9220   -10.4450    -0.1370 O.3   1 <1>  -0.3630 
 28 C        2.1550    -9.8430    -0.4660 C.3   1 <1>   0.0400 
 29 H       -0.7970    -1.4820     0.4150 H     1 <1>   0.0800 
 30 H       -1.8640    -0.1030     0.6980 H     1 <1>   0.0800 
 31 H       -1.3140     0.0170    -3.2290 H     1 <1>   0.0800 
 32 H       -0.1040    -0.4310    -2.0170 H     1 <1>   0.0800 
 33 H       -1.1850     0.9470    -1.7280 H     1 <1>   0.0800 
 34 H       -3.7990    -0.7960     2.6200 H     1 <1>   0.1500 
 35 H       -4.9660    -3.1020     3.2170 H     1 <1>   0.1500 
 36 H       -4.3990    -7.8530     1.2390 H     1 <1>   0.0800 
 37 H       -4.3340    -4.5430    -1.0700 H     1 <1>   0.0800 
 38 H       -2.6450    -4.9500    -1.0780 H     1 <1>   0.0800 
 39 H       -4.6180    -8.8990    -1.2450 H     1 <1>   0.0800 
 40 H       -3.0460    -6.9870    -2.3080 H     1 <1>   0.0800 
 41 H       -4.0290    -5.7630    -3.0770 H     1 <1>   0.0800 
 42 H       -3.5360   -10.1690     0.4520 H     1 <1>   0.1500 
 43 H       -1.3380    -6.5340     0.0030 H     1 <1>   0.1500 
 44 H       -7.0670    -8.2420    -1.1210 H     1 <1>   0.0800 
 45 H       -6.6500    -7.3040     0.3080 H     1 <1>   0.0800 
 46 H        0.6930    -7.7780    -0.1860 H     1 <1>   0.1500 
 47 H       -6.4670   -10.0940    -0.0910 H     1 <1>   0.4000 
 48 H       -1.1320   -13.4150     1.3090 H     1 <1>   0.0800 
 49 H       -0.2910   -11.9600     1.8390 H     1 <1>   0.0800 
 50 H        0.1480   -12.7380     0.3120 H     1 <1>   0.0800 
 51 H        2.8870   -10.6220    -0.5770 H     1 <1>   0.0800 
 52 H        2.4450    -9.1810     0.3300 H     1 <1>   0.0800 
 53 H        2.0460    -9.3100    -1.3940 H     1 <1>   0.0800 
@<TRIPOS>BOND
  1   1   2  1   
  2   1   3  1   
  3   2   4  1   
  4   2  29  1   
  5   2  30  1   
  6   3  31  1   
  7   3  32  1   
  8   3  33  1   
  9   4   5  1   
 10   4   6  2   
 11   5   7  1   
 12   6   8  1   
 13   6  34  1   
 14   7   8  2   
 15   7   9  1   
 16   8  35  1   
 17   9  10  2   
 18   9  11  am  
 19  11  12  1   
 20  11  13  1   
 21  12  14  1   
 22  12  15  1   
 23  12  36  1   
 24  13  16  1   
 25  13  37  1   
 26  13  38  1   
 27  14  17  ar  
 28  14  18  ar  
 29  15  19  1   
 30  15  20  1   
 31  15  39  1   
 32  16  19  1   
 33  16  40  1   
 34  16  41  1   
 35  17  21  ar  
 36  17  42  1   
 37  18  22  ar  
 38  18  43  1   
 39  20  23  1   
 40  20  44  1   
 41  20  45  1   
 42  21  24  1   
 43  21  25  ar  
 44  22  25  ar  
 45  22  46  1   
 46  23  47  1   
 47  24  26  1   
 48  25  27  1   
 49  26  48  1   
 50  26  49  1   
 51  26  50  1   
 52  27  28  1   
 53  28  51  1   
 54  28  52  1   
 55  28  53  1   
@<TRIPOS>SUBSTRUCTURE
  1 ****  11 GROUP 4 **** **** 0

# MOE 2024.06 (io_trps.svl 2023.06)
