@<TRIPOS>MOLECULE
NONAME
41 43 1 0 0 
SMALL
USER_CHARGES


@<TRIPOS>ATOM
  1 S       -0.3810    -0.1720     0.5540 S.3   1 <1>  -0.0800 
  2 C       -1.1280    -1.0940    -0.7080 C.2   1 <1>   0.4420 
  3 C       -0.2630     1.1450    -0.5670 C.2   1 <1>   0.1980 
  4 N       -1.2220    -0.4290    -1.8020 N.2   1 <1>  -0.3380 
  5 N       -1.4960    -2.3830    -0.3850 N.am  1 <1>  -0.4940 
  6 N       -0.7290     0.8430    -1.7140 N.2   1 <1>  -0.3380 
  7 C        0.3800     2.4460    -0.0830 C.3   1 <1>   0.3800 
  8 C       -2.1510    -3.3290    -1.1360 C.2   1 <1>   0.5440 
  9 O       -0.1170     2.7620     1.1880 O.3   1 <1>  -0.5600 
 10 C        0.0860     3.6250    -1.0180 C.3   1 <1>  -0.2400 
 11 O       -2.6270    -3.0350    -2.2100 O.2   1 <1>  -0.5700 
 12 C       -2.2960    -4.6760    -0.6200 C.ar  1 <1>   0.0860 
 13 C        0.7300     3.5100     2.0050 C.3   1 <1>   0.0400 
 14 C       -3.4270    -5.4260    -0.8750 C.ar  1 <1>  -0.1500 
 15 C       -1.2850    -5.2770     0.1600 C.ar  1 <1>  -0.1500 
 16 C       -3.6080    -6.7220    -0.3770 C.ar  1 <1>   0.3100 
 17 C       -1.4320    -6.5440     0.6610 C.ar  1 <1>  -0.1500 
 18 N       -4.7550    -7.3890    -0.6590 N.ar  1 <1>  -0.6200 
 19 C       -2.5880    -7.2980     0.4150 C.ar  1 <1>   0.3100 
 20 C       -4.8280    -8.5780    -0.1500 C.ar  1 <1>   0.1670 
 21 N       -2.6940    -8.5430     0.9370 N.ar  1 <1>  -0.6200 
 22 C       -3.8000    -9.1550     0.6470 C.ar  1 <1>   0.1670 
 23 C       -6.1000    -9.3550    -0.4490 C.3   1 <1>  -0.0970 
 24 C       -3.9550   -10.5560     1.2130 C.3   1 <1>  -0.0970 
 25 H       -1.2890    -2.6510     0.5720 H     1 <1>   0.3700 
 26 H        1.4410     2.2850    -0.0090 H     1 <1>   0.0800 
 27 H       -0.9740     3.8000    -1.0620 H     1 <1>   0.0800 
 28 H        0.4320     3.3950    -2.0100 H     1 <1>   0.0800 
 29 H        0.5860     4.5160    -0.6880 H     1 <1>   0.0800 
 30 H        0.2340     3.6620     2.9470 H     1 <1>   0.0800 
 31 H        0.9270     4.4640     1.5480 H     1 <1>   0.0800 
 32 H        1.6450     2.9670     2.1640 H     1 <1>   0.0800 
 33 H       -4.2170    -5.0150    -1.4810 H     1 <1>   0.1500 
 34 H       -0.3770    -4.7340     0.3540 H     1 <1>   0.1500 
 35 H       -0.6620    -7.0030     1.2550 H     1 <1>   0.1500 
 36 H       -6.7600    -8.7680    -1.0630 H     1 <1>   0.0800 
 37 H       -6.6120    -9.5930     0.4640 H     1 <1>   0.0800 
 38 H       -5.8650   -10.2600    -0.9770 H     1 <1>   0.0800 
 39 H       -4.8130   -10.6030     1.8570 H     1 <1>   0.0800 
 40 H       -3.0870   -10.8260     1.7880 H     1 <1>   0.0800 
 41 H       -4.0650   -11.2670     0.4150 H     1 <1>   0.0800 
@<TRIPOS>BOND
  1   1   2  1   
  2   1   3  1   
  3   2   4  2   
  4   2   5  1   
  5   3   6  2   
  6   3   7  1   
  7   4   6  1   
  8   5   8  am  
  9   5  25  1   
 10   7   9  1   
 11   7  10  1   
 12   7  26  1   
 13   8  11  2   
 14   8  12  1   
 15   9  13  1   
 16  10  27  1   
 17  10  28  1   
 18  10  29  1   
 19  12  14  ar  
 20  12  15  ar  
 21  13  30  1   
 22  13  31  1   
 23  13  32  1   
 24  14  16  ar  
 25  14  33  1   
 26  15  17  ar  
 27  15  34  1   
 28  16  18  ar  
 29  16  19  ar  
 30  17  19  ar  
 31  17  35  1   
 32  18  20  ar  
 33  19  21  ar  
 34  20  22  ar  
 35  20  23  1   
 36  21  22  ar  
 37  22  24  1   
 38  23  36  1   
 39  23  37  1   
 40  23  38  1   
 41  24  39  1   
 42  24  40  1   
 43  24  41  1   
@<TRIPOS>SUBSTRUCTURE
  1 ****   8 GROUP 4 **** **** 0

# MOE 2024.06 (io_trps.svl 2023.06)
