@<TRIPOS>MOLECULE
NONAME
49 51 1 0 0 
SMALL
USER_CHARGES


@<TRIPOS>ATOM
  1 O       -0.9920    -2.1750     1.5860 O.2   1 <1>  -0.5700 
  2 C       -0.0500    -2.7160     1.0690 C.2   1 <1>   0.5690 
  3 N       -0.1470    -3.2970    -0.1450 N.am  1 <1>  -0.7300 
  4 C        1.2900    -2.7770     1.7690 C.3   1 <1>  -0.0990 
  5 C        0.9770    -3.9990    -0.7970 C.3   1 <1>   0.1400 
  6 C        2.4300    -2.4840     0.7750 C.3   1 <1>  -0.0800 
  7 C        2.2860    -3.2080    -0.5880 C.3   1 <1>  -0.0800 
  8 C        3.8150    -2.8520     1.3260 C.3   1 <1>  -0.1600 
  9 C        3.5400    -4.0790    -0.7320 C.3   1 <1>  -0.1600 
 10 C        4.5900    -3.3620     0.1160 C.3   1 <1>   0.2200 
 11 N        5.7620    -4.2060     0.5080 N.am  1 <1>  -0.6600 
 12 C        7.0630    -3.7590     0.4570 C.2   1 <1>   0.5690 
 13 C        5.4900    -5.6020     0.9770 C.3   1 <1>   0.0600 
 14 O        7.9920    -4.4970     0.6890 O.2   1 <1>  -0.5700 
 15 C        7.3740    -2.3090     0.1040 C.3   1 <1>  -0.0990 
 16 C        8.8390    -1.9080     0.3300 C.3   1 <1>  -0.0170 
 17 C        9.0380    -0.4400    -0.0130 C.ar  1 <1>  -0.1440 
 18 C        9.3480    -0.0600    -1.3080 C.ar  1 <1>  -0.1500 
 19 C        8.9050     0.5330     0.9640 C.ar  1 <1>  -0.1500 
 20 C        9.5220     1.2770    -1.6240 C.ar  1 <1>  -0.1500 
 21 C        9.0790     1.8700     0.6490 C.ar  1 <1>  -0.1500 
 22 C        9.3870     2.2500    -0.6470 C.ar  1 <1>  -0.1440 
 23 C        9.5810     3.7150    -0.9920 C.3   1 <1>  -0.0970 
 24 H       -1.0620    -3.2890    -0.6010 H     1 <1>   0.3700 
 25 H        1.3070    -2.0660     2.5750 H     1 <1>   0.0800 
 26 H        1.3940    -3.7620     2.1840 H     1 <1>   0.0800 
 27 H        1.0590    -4.9800    -0.3580 H     1 <1>   0.0800 
 28 H        0.7790    -4.1120    -1.8490 H     1 <1>   0.0800 
 29 H        2.4160    -1.4240     0.5730 H     1 <1>   0.0800 
 30 H        2.3250    -2.4510    -1.3550 H     1 <1>   0.0800 
 31 H        3.7270    -3.6320     2.0600 H     1 <1>   0.0800 
 32 H        4.3000    -2.0010     1.7700 H     1 <1>   0.0800 
 33 H        3.8530    -4.1600    -1.7580 H     1 <1>   0.0800 
 34 H        3.3330    -5.0570    -0.3410 H     1 <1>   0.0800 
 35 H        4.9170    -2.5090    -0.4520 H     1 <1>   0.0800 
 36 H        4.5990    -5.6350     1.5760 H     1 <1>   0.0800 
 37 H        6.3060    -5.9680     1.5750 H     1 <1>   0.0800 
 38 H        5.3730    -6.2510     0.1270 H     1 <1>   0.0800 
 39 H        7.1310    -2.1510    -0.9300 H     1 <1>   0.0800 
 40 H        6.7540    -1.6690     0.7030 H     1 <1>   0.0800 
 41 H        9.4830    -2.5150    -0.2820 H     1 <1>   0.0800 
 42 H        9.1090    -2.0830     1.3570 H     1 <1>   0.0800 
 43 H        9.4570    -0.8040    -2.0780 H     1 <1>   0.1500 
 44 H        8.6670     0.2550     1.9760 H     1 <1>   0.1500 
 45 H        9.7650     1.5550    -2.6340 H     1 <1>   0.1500 
 46 H        8.9750     2.6140     1.4190 H     1 <1>   0.1500 
 47 H        9.3130     3.9000    -2.0160 H     1 <1>   0.0800 
 48 H       10.6110     3.9890    -0.8470 H     1 <1>   0.0800 
 49 H        8.9660     4.3340    -0.3630 H     1 <1>   0.0800 
@<TRIPOS>BOND
  1   1   2  2   
  2   2   3  am  
  3   2   4  1   
  4   3   5  1   
  5   3  24  1   
  6   4   6  1   
  7   4  25  1   
  8   4  26  1   
  9   5   7  1   
 10   5  27  1   
 11   5  28  1   
 12   6   7  1   
 13   6   8  1   
 14   6  29  1   
 15   7   9  1   
 16   7  30  1   
 17   8  10  1   
 18   8  31  1   
 19   8  32  1   
 20   9  10  1   
 21   9  33  1   
 22   9  34  1   
 23  10  11  1   
 24  10  35  1   
 25  11  12  am  
 26  11  13  1   
 27  12  14  2   
 28  12  15  1   
 29  13  36  1   
 30  13  37  1   
 31  13  38  1   
 32  15  16  1   
 33  15  39  1   
 34  15  40  1   
 35  16  17  1   
 36  16  41  1   
 37  16  42  1   
 38  17  18  ar  
 39  17  19  ar  
 40  18  20  ar  
 41  18  43  1   
 42  19  21  ar  
 43  19  44  1   
 44  20  22  ar  
 45  20  45  1   
 46  21  22  ar  
 47  21  46  1   
 48  22  23  1   
 49  23  47  1   
 50  23  48  1   
 51  23  49  1   
@<TRIPOS>SUBSTRUCTURE
  1 ****  10 GROUP 4 **** **** 0

# MOE 2024.06 (io_trps.svl 2023.06)
