@<TRIPOS>MOLECULE
NONAME
47 50 1 0 0 
SMALL
USER_CHARGES


@<TRIPOS>ATOM
  1 S        0.0740     0.0950     0.4650 S.3   1 <1>  -0.0800 
  2 C       -0.3400    -1.5710     0.7980 C.ar  1 <1>   0.0400 
  3 C        1.4690    -0.4560    -0.4570 C.2   1 <1>   0.1980 
  4 C        0.6030    -2.3780     0.1910 C.ar  1 <1>   0.2270 
  5 C       -1.4010    -2.0680     1.5300 C.ar  1 <1>  -0.1500 
  6 N        1.6090    -1.7170    -0.5110 N.2   1 <1>  -0.5650 
  7 C        2.3420     0.6080    -1.0780 C.3   1 <1>  -0.0600 
  8 C        0.4780    -3.7510     0.3210 C.ar  1 <1>  -0.1500 
  9 C       -1.5080    -3.4420     1.6440 C.ar  1 <1>  -0.1500 
 10 C       -0.5820    -4.3070     1.0380 C.ar  1 <1>   0.0860 
 11 C       -0.7160    -5.7460     1.1560 C.2   1 <1>   0.5440 
 12 O        0.2380    -6.4140     1.5070 O.2   1 <1>  -0.5700 
 13 N       -1.9010    -6.3810     0.8600 N.am  1 <1>  -0.6600 
 14 C       -2.9440    -5.8300    -0.0450 C.3   1 <1>   0.1400 
 15 C       -2.0940    -7.8420     1.0060 C.3   1 <1>   0.1400 
 16 C       -3.8150    -7.0250    -0.4630 C.3   1 <1>   0.2000 
 17 C       -2.9200    -8.2430    -0.2160 C.3   1 <1>  -0.0800 
 18 O       -4.9340    -7.1100     0.3730 O.3   1 <1>  -0.5600 
 19 C       -3.6740    -9.5740    -0.0400 C.3   1 <1>   0.0200 
 20 C       -6.0360    -6.3580    -0.0290 C.3   1 <1>   0.0400 
 21 C       -2.7490   -10.7780     0.0280 C.2   1 <1>  -0.0400 
 22 O       -3.2660   -11.9560     0.2570 O.3   1 <1>  -0.0190 
 23 C       -1.4210   -10.9360    -0.1070 C.2   1 <1>  -0.1500 
 24 N       -2.3600   -12.8900     0.2860 N.2   1 <1>  -0.4100 
 25 C       -1.2380   -12.3040     0.0720 C.2   1 <1>   0.1080 
 26 C        0.0970   -13.0120     0.0220 C.3   1 <1>  -0.0590 
 27 H       -2.1080    -1.4010     1.9930 H     1 <1>   0.1500 
 28 H        3.1540     0.1460    -1.6100 H     1 <1>   0.0800 
 29 H        2.7430     1.2440    -0.3120 H     1 <1>   0.0800 
 30 H        1.7640     1.1980    -1.7650 H     1 <1>   0.0800 
 31 H        1.2120    -4.3870    -0.1380 H     1 <1>   0.1500 
 32 H       -2.3140    -3.8690     2.2160 H     1 <1>   0.1500 
 33 H       -3.5270    -5.0780     0.4530 H     1 <1>   0.0800 
 34 H       -2.4650    -5.4060    -0.9110 H     1 <1>   0.0800 
 35 H       -1.1540    -8.3660     1.0460 H     1 <1>   0.0800 
 36 H       -2.6440    -8.0290     1.9130 H     1 <1>   0.0800 
 37 H       -4.1390    -6.9670    -1.4890 H     1 <1>   0.0800 
 38 H       -2.2490    -8.3310    -1.0520 H     1 <1>   0.0800 
 39 H       -4.3490    -9.7120    -0.8660 H     1 <1>   0.0800 
 40 H       -4.2630    -9.5440     0.8600 H     1 <1>   0.0800 
 41 H       -6.8150    -6.4930     0.7000 H     1 <1>   0.0800 
 42 H       -6.3760    -6.7110    -0.9880 H     1 <1>   0.0800 
 43 H       -5.7660    -5.3180    -0.0810 H     1 <1>   0.0800 
 44 H       -0.6480   -10.2170    -0.3040 H     1 <1>   0.1500 
 45 H        0.7700   -12.5740     0.7350 H     1 <1>   0.0800 
 46 H        0.5170   -12.9280    -0.9630 H     1 <1>   0.0800 
 47 H       -0.0310   -14.0530     0.2580 H     1 <1>   0.0800 
@<TRIPOS>BOND
  1   1   2  1   
  2   1   3  1   
  3   2   4  ar  
  4   2   5  ar  
  5   3   6  2   
  6   3   7  1   
  7   4   6  1   
  8   4   8  ar  
  9   5   9  ar  
 10   5  27  1   
 11   7  28  1   
 12   7  29  1   
 13   7  30  1   
 14   8  10  ar  
 15   8  31  1   
 16   9  10  ar  
 17   9  32  1   
 18  10  11  1   
 19  11  12  2   
 20  11  13  am  
 21  13  14  1   
 22  13  15  1   
 23  14  16  1   
 24  14  33  1   
 25  14  34  1   
 26  15  17  1   
 27  15  35  1   
 28  15  36  1   
 29  16  17  1   
 30  16  18  1   
 31  16  37  1   
 32  17  19  1   
 33  17  38  1   
 34  18  20  1   
 35  19  21  1   
 36  19  39  1   
 37  19  40  1   
 38  20  41  1   
 39  20  42  1   
 40  20  43  1   
 41  21  22  1   
 42  21  23  2   
 43  22  24  1   
 44  23  25  1   
 45  23  44  1   
 46  24  25  2   
 47  25  26  1   
 48  26  45  1   
 49  26  46  1   
 50  26  47  1   
@<TRIPOS>SUBSTRUCTURE
  1 ****  13 GROUP 4 **** **** 0

# MOE 2024.06 (io_trps.svl 2023.06)
