@<TRIPOS>MOLECULE
NONAME
54 56 1 0 0 
SMALL
USER_CHARGES


@<TRIPOS>ATOM
  1 O       -0.2790    -1.7960    -0.1770 O.2   1 <1>  -0.5700 
  2 C       -0.9050    -0.7820    -0.3950 C.2   1 <1>   0.5690 
  3 N       -2.1850    -0.6260     0.0660 N.am  1 <1>  -0.6600 
  4 C       -0.2270     0.3140    -1.2360 C.3   1 <1>   0.1710 
  5 C       -3.0240     0.5890    -0.0870 C.3   1 <1>   0.1400 
  6 C       -2.9050    -1.6620     0.8360 C.3   1 <1>   0.1400 
  7 N       -0.0750     1.6430    -0.5780 N.3   1 <1>  -0.8100 
  8 C       -4.2480     0.3260     0.7940 C.3   1 <1>  -0.0800 
  9 C       -4.3660    -1.2070     0.8100 C.3   1 <1>  -0.0800 
 10 C        0.4400     2.6520    -1.5170 C.3   1 <1>   0.2530 
 11 C        0.7540     1.5480     0.6340 C.3   1 <1>   0.0300 
 12 C       -5.5420     1.0740     0.3870 C.3   1 <1>   0.2800 
 13 C       -5.0710    -1.7640    -0.4450 C.3   1 <1>  -0.1600 
 14 C        0.3230     4.0560    -0.9380 C.ar  1 <1>  -0.1440 
 15 O       -5.2040     2.3700     0.0580 O.3   1 <1>  -0.6800 
 16 C       -6.1770     0.4580    -0.8730 C.3   1 <1>  -0.1600 
 17 C       -6.5750     1.1430     1.5400 C.3   1 <1>  -0.1600 
 18 C       -6.3970    -1.0560    -0.7360 C.3   1 <1>  -0.1600 
 19 C        1.4290     4.8930    -0.8840 C.ar  1 <1>  -0.1500 
 20 C       -0.8960     4.5150    -0.4620 C.ar  1 <1>  -0.1500 
 21 C       -6.1810     1.9960     2.7610 C.3   1 <1>  -0.2400 
 22 C        1.3150     6.1710    -0.3640 C.ar  1 <1>  -0.1500 
 23 C       -1.0120     5.7930     0.0580 C.ar  1 <1>  -0.1500 
 24 C        0.0940     6.6220     0.1060 C.ar  1 <1>  -0.1500 
 25 H       -0.8160     0.4330    -2.1270 H     1 <1>   0.0800 
 26 H        0.7420    -0.0460    -1.5320 H     1 <1>   0.0800 
 27 H       -2.5030     1.4710     0.2440 H     1 <1>   0.0800 
 28 H       -3.3030     0.7030    -1.1190 H     1 <1>   0.0800 
 29 H       -2.7680    -2.6350     0.3960 H     1 <1>   0.0800 
 30 H       -2.5280    -1.6680     1.8440 H     1 <1>   0.0800 
 31 H       -3.9680     0.6410     1.7820 H     1 <1>   0.0800 
 32 H       -4.8840    -1.5440     1.6920 H     1 <1>   0.0800 
 33 H        1.4650     2.4310    -1.7620 H     1 <1>   0.0800 
 34 H       -0.1360     2.6200    -2.4250 H     1 <1>   0.0800 
 35 H        0.8110     2.5060     1.1210 H     1 <1>   0.0800 
 36 H        1.7490     1.2190     0.3870 H     1 <1>   0.0800 
 37 H        0.3170     0.8510     1.3280 H     1 <1>   0.0800 
 38 H       -4.4290    -1.6470    -1.3020 H     1 <1>   0.0800 
 39 H       -5.2460    -2.8190    -0.3190 H     1 <1>   0.0800 
 40 H       -6.0170     2.8880    -0.0770 H     1 <1>   0.4000 
 41 H       -7.1200     0.9320    -1.0820 H     1 <1>   0.0800 
 42 H       -5.5310     0.6300    -1.7160 H     1 <1>   0.0800 
 43 H       -7.5030     1.5250     1.1530 H     1 <1>   0.0800 
 44 H       -6.7770     0.1450     1.8850 H     1 <1>   0.0800 
 45 H       -7.1010    -1.2640     0.0500 H     1 <1>   0.0800 
 46 H       -6.8100    -1.4400    -1.6530 H     1 <1>   0.0800 
 47 H        2.3830     4.5540    -1.2460 H     1 <1>   0.1500 
 48 H       -1.7570     3.8690    -0.4930 H     1 <1>   0.1500 
 49 H       -5.9660     3.0100     2.4710 H     1 <1>   0.0800 
 50 H       -5.3170     1.5930     3.2580 H     1 <1>   0.0800 
 51 H       -6.9910     2.0140     3.4680 H     1 <1>   0.0800 
 52 H        2.1760     6.8150    -0.3250 H     1 <1>   0.1500 
 53 H       -1.9630     6.1360     0.4250 H     1 <1>   0.1500 
 54 H        0.0050     7.6150     0.5110 H     1 <1>   0.1500 
@<TRIPOS>BOND
  1   1   2  2   
  2   2   3  am  
  3   2   4  1   
  4   3   5  1   
  5   3   6  1   
  6   4   7  1   
  7   4  25  1   
  8   4  26  1   
  9   5   8  1   
 10   5  27  1   
 11   5  28  1   
 12   6   9  1   
 13   6  29  1   
 14   6  30  1   
 15   7  10  1   
 16   7  11  1   
 17   8   9  1   
 18   8  12  1   
 19   8  31  1   
 20   9  13  1   
 21   9  32  1   
 22  10  14  1   
 23  10  33  1   
 24  10  34  1   
 25  11  35  1   
 26  11  36  1   
 27  11  37  1   
 28  12  15  1   
 29  12  16  1   
 30  12  17  1   
 31  13  18  1   
 32  13  38  1   
 33  13  39  1   
 34  14  19  ar  
 35  14  20  ar  
 36  15  40  1   
 37  16  18  1   
 38  16  41  1   
 39  16  42  1   
 40  17  21  1   
 41  17  43  1   
 42  17  44  1   
 43  18  45  1   
 44  18  46  1   
 45  19  22  ar  
 46  19  47  1   
 47  20  23  ar  
 48  20  48  1   
 49  21  49  1   
 50  21  50  1   
 51  21  51  1   
 52  22  24  ar  
 53  22  52  1   
 54  23  24  ar  
 55  23  53  1   
 56  24  54  1   
@<TRIPOS>SUBSTRUCTURE
  1 ****   5 GROUP 4 **** **** 0

# MOE 2024.06 (io_trps.svl 2023.06)
