@<TRIPOS>MOLECULE
NONAME
60 63 1 0 0 
SMALL
USER_CHARGES


@<TRIPOS>ATOM
  1 O        3.6350     2.5430     1.7140 O.co2 1 <1>  -0.9000 
  2 C        3.0830     1.4550     1.5390 C.2   1 <1>   0.9060 
  3 O        3.1910     0.5520     2.3730 O.co2 1 <1>  -0.9000 
  4 C        2.6070     1.0860     0.1190 C.3   1 <1>  -0.1060 
  5 C        3.5210    -0.0810    -0.3040 C.3   1 <1>   0.4230 
  6 C        2.8330     2.2530    -0.8990 C.3   1 <1>  -0.1600 
  7 C        1.1090     0.6840     0.0770 C.3   1 <1>  -0.1600 
  8 N        3.1930    -1.3140     0.5040 N.4   1 <1>  -0.9590 
  9 C        5.0210     0.3770    -0.2000 C.3   1 <1>   0.3430 
 10 C        4.2970     2.5160    -1.3080 C.3   1 <1>   0.3430 
 11 C        0.8330    -0.6500     0.7840 C.3   1 <1>  -0.1600 
 12 C        1.7830    -1.7570     0.3280 C.3   1 <1>   0.3430 
 13 C        4.1420    -2.4600     0.4090 C.3   1 <1>   0.2630 
 14 N        5.2210     1.8680    -0.3390 N.4   1 <1>  -0.9590 
 15 C        6.6380     2.3070    -0.4210 C.3   1 <1>   0.4860 
 16 C        6.7040     3.8230    -0.4220 C.ar  1 <1>  -0.1430 
 17 C        7.2760     4.4940    -1.4940 C.ar  1 <1>  -0.1500 
 18 C        6.1850     4.5540     0.6390 C.ar  1 <1>  -0.1500 
 19 C        7.3200     5.8760    -1.5040 C.ar  1 <1>  -0.1500 
 20 C        6.2280     5.9360     0.6260 C.ar  1 <1>  -0.1500 
 21 C        6.7970     6.6080    -0.4510 C.ar  1 <1>   0.0830 
 22 O        6.8790     7.9570    -0.5510 O.3   1 <1>  -0.3630 
 23 C        6.4110     8.8290     0.4610 C.3   1 <1>   0.2000 
 24 C        6.3860    10.2390    -0.1180 C.3   1 <1>  -0.1600 
 25 C        7.4540     8.9220     1.5740 C.3   1 <1>  -0.1600 
 26 C        7.8240    10.7560    -0.0130 C.3   1 <1>  -0.1600 
 27 C        8.5140     9.9000     1.0580 C.3   1 <1>  -0.1600 
 28 H        3.3190    -0.3000    -1.3380 H     1 <1>   0.0800 
 29 H        2.4350     3.1620    -0.4780 H     1 <1>   0.0800 
 30 H        2.2790     2.0800    -1.8050 H     1 <1>   0.0800 
 31 H        0.5170     1.4590     0.5380 H     1 <1>   0.0800 
 32 H        0.7810     0.5920    -0.9440 H     1 <1>   0.0800 
 33 H        3.2160    -0.9340     1.4930 H     1 <1>   0.4500 
 34 H        5.5920    -0.1350    -0.9540 H     1 <1>   0.0800 
 35 H        5.3900     0.0850     0.7700 H     1 <1>   0.0800 
 36 H        4.4650     3.5830    -1.3280 H     1 <1>   0.0800 
 37 H        4.4800     2.1300    -2.2970 H     1 <1>   0.0800 
 38 H       -0.1810    -0.9540     0.5890 H     1 <1>   0.0800 
 39 H        0.9210    -0.5270     1.8510 H     1 <1>   0.0800 
 40 H        1.5980    -1.9930    -0.7070 H     1 <1>   0.0800 
 41 H        1.5990    -2.6400     0.9180 H     1 <1>   0.0800 
 42 H        4.1660    -2.8480    -0.5960 H     1 <1>   0.0800 
 43 H        3.8310    -3.2490     1.0750 H     1 <1>   0.0800 
 44 H        5.1340    -2.1540     0.6960 H     1 <1>   0.0800 
 45 H        4.8810     2.2840     0.5730 H     1 <1>   0.4500 
 46 H        7.1860     1.9340     0.4280 H     1 <1>   0.0800 
 47 H        7.0920     1.9250    -1.3200 H     1 <1>   0.0800 
 48 H        7.6940     3.9570    -2.3280 H     1 <1>   0.1500 
 49 H        5.7340     4.0610     1.4880 H     1 <1>   0.1500 
 50 H        7.7630     6.4050    -2.3300 H     1 <1>   0.1500 
 51 H        5.8140     6.4670     1.4630 H     1 <1>   0.1500 
 52 H        5.4370     8.5110     0.7880 H     1 <1>   0.0800 
 53 H        6.0140    10.2510    -1.1280 H     1 <1>   0.0800 
 54 H        5.7480    10.8500     0.4950 H     1 <1>   0.0800 
 55 H        6.9860     9.3430     2.4460 H     1 <1>   0.0800 
 56 H        7.8720     7.9660     1.8320 H     1 <1>   0.0800 
 57 H        8.3270    10.6230    -0.9560 H     1 <1>   0.0800 
 58 H        7.8400    11.8010     0.2460 H     1 <1>   0.0800 
 59 H        8.9090    10.5040     1.8570 H     1 <1>   0.0800 
 60 H        9.3200     9.3480     0.6050 H     1 <1>   0.0800 
@<TRIPOS>BOND
  1   1   2  ar  
  2   2   3  ar  
  3   2   4  1   
  4   4   5  1   
  5   4   6  1   
  6   4   7  1   
  7   5   8  1   
  8   5   9  1   
  9   5  28  1   
 10   6  10  1   
 11   6  29  1   
 12   6  30  1   
 13   7  11  1   
 14   7  31  1   
 15   7  32  1   
 16   8  12  1   
 17   8  13  1   
 18   8  33  1   
 19   9  14  1   
 20   9  34  1   
 21   9  35  1   
 22  10  14  1   
 23  10  36  1   
 24  10  37  1   
 25  11  12  1   
 26  11  38  1   
 27  11  39  1   
 28  12  40  1   
 29  12  41  1   
 30  13  42  1   
 31  13  43  1   
 32  13  44  1   
 33  14  15  1   
 34  14  45  1   
 35  15  16  1   
 36  15  46  1   
 37  15  47  1   
 38  16  17  ar  
 39  16  18  ar  
 40  17  19  ar  
 41  17  48  1   
 42  18  20  ar  
 43  18  49  1   
 44  19  21  ar  
 45  19  50  1   
 46  20  21  ar  
 47  20  51  1   
 48  21  22  1   
 49  22  23  1   
 50  23  24  1   
 51  23  25  1   
 52  23  52  1   
 53  24  26  1   
 54  24  53  1   
 55  24  54  1   
 56  25  27  1   
 57  25  55  1   
 58  25  56  1   
 59  26  27  1   
 60  26  57  1   
 61  26  58  1   
 62  27  59  1   
 63  27  60  1   
@<TRIPOS>SUBSTRUCTURE
  1 ****  18 GROUP 4 **** **** 0

# MOE 2024.06 (io_trps.svl 2023.06)
