@<TRIPOS>MOLECULE
NONAME
51 53 1 0 0 
SMALL
USER_CHARGES


@<TRIPOS>ATOM
  1 O       -1.6970    -2.0910     2.1210 O.co2 1 <1>  -0.9000 
  2 C       -1.5600    -1.5840     1.0050 C.2   1 <1>   0.9060 
  3 O       -0.7920    -0.6460     0.7660 O.co2 1 <1>  -0.9000 
  4 C       -2.4940    -2.0460    -0.1180 C.3   1 <1>   0.2370 
  5 N       -3.7760    -1.2410    -0.2430 N.4   1 <1>  -0.9590 
  6 C       -4.6070    -1.4170     0.9860 C.3   1 <1>   0.3430 
  7 C       -3.4600     0.1990    -0.4680 C.3   1 <1>   0.3430 
  8 C       -6.0750    -1.0110     0.7020 C.3   1 <1>   0.1900 
  9 C       -4.6990     1.0660    -0.7820 C.3   1 <1>  -0.0800 
 10 N       -6.3250    -0.9060    -0.7800 N.3   1 <1>  -0.8100 
 11 C       -6.4550     0.2590     1.4870 C.3   1 <1>   0.1200 
 12 C       -5.1370     1.9200     0.4200 C.3   1 <1>   0.1200 
 13 C       -5.9020     0.3490    -1.4350 C.3   1 <1>   0.1100 
 14 C       -7.6880    -1.3040    -1.1790 C.3   1 <1>   0.2530 
 15 O       -5.3870     1.1560     1.5520 O.3   1 <1>  -0.5600 
 16 C       -7.9220    -2.7760    -0.8690 C.ar  1 <1>  -0.1430 
 17 C       -7.0990    -3.7430    -1.4270 C.ar  1 <1>  -0.1500 
 18 C       -8.9540    -3.1670    -0.0280 C.ar  1 <1>  -0.1500 
 19 C       -7.3020    -5.0810    -1.1440 C.ar  1 <1>  -0.1500 
 20 C       -9.1600    -4.5060     0.2560 C.ar  1 <1>  -0.1500 
 21 C       -8.3290    -5.4740    -0.3030 C.ar  1 <1>   0.0820 
 22 O       -8.4600    -6.8050    -0.0800 O.3   1 <1>  -0.3630 
 23 C       -9.5150    -7.3160     0.7060 C.3   1 <1>   0.1200 
 24 C       -9.4240    -8.8400     0.7030 C.3   1 <1>   0.1200 
 25 O      -10.3980    -9.3610     1.5450 O.3   1 <1>  -0.6800 
 26 H       -2.7280    -3.0770     0.0690 H     1 <1>   0.0800 
 27 H       -1.9370    -1.9840    -1.0340 H     1 <1>   0.0800 
 28 H       -4.3980    -1.5540    -1.0030 H     1 <1>   0.4500 
 29 H       -4.5910    -2.4530     1.2810 H     1 <1>   0.0800 
 30 H       -4.1990    -0.8450     1.8040 H     1 <1>   0.0800 
 31 H       -2.9490     0.5960     0.3960 H     1 <1>   0.0800 
 32 H       -2.7750     0.2680    -1.2970 H     1 <1>   0.0800 
 33 H       -6.6840    -1.8030     1.1000 H     1 <1>   0.0800 
 34 H       -4.3660     1.7880    -1.5060 H     1 <1>   0.0800 
 35 H       -6.6750    -0.0170     2.5040 H     1 <1>   0.0800 
 36 H       -7.3210     0.7460     1.0750 H     1 <1>   0.0800 
 37 H       -6.0170     2.4980     0.1950 H     1 <1>   0.0800 
 38 H       -4.3470     2.6050     0.6820 H     1 <1>   0.0800 
 39 H       -5.6520     0.1190    -2.4580 H     1 <1>   0.0800 
 40 H       -6.7330     1.0350    -1.4620 H     1 <1>   0.0800 
 41 H       -8.4130    -0.6900    -0.6740 H     1 <1>   0.0800 
 42 H       -7.8100    -1.1620    -2.2400 H     1 <1>   0.0800 
 43 H       -6.2980    -3.4520    -2.0840 H     1 <1>   0.1500 
 44 H       -9.6060    -2.4310     0.4100 H     1 <1>   0.1500 
 45 H       -6.6650    -5.8320    -1.5770 H     1 <1>   0.1500 
 46 H       -9.9670    -4.7750     0.9100 H     1 <1>   0.1500 
 47 H       -9.4040    -6.9290     1.7030 H     1 <1>   0.0800 
 48 H      -10.4470    -6.9990     0.2710 H     1 <1>   0.0800 
 49 H       -8.4610    -9.1720     1.0540 H     1 <1>   0.0800 
 50 H       -9.6050    -9.2220    -0.2870 H     1 <1>   0.0800 
 51 H      -10.1740    -9.2000     2.4820 H     1 <1>   0.4000 
@<TRIPOS>BOND
  1   1   2  ar  
  2   2   3  ar  
  3   2   4  1   
  4   4   5  1   
  5   4  26  1   
  6   4  27  1   
  7   5   6  1   
  8   5   7  1   
  9   5  28  1   
 10   6   8  1   
 11   6  29  1   
 12   6  30  1   
 13   7   9  1   
 14   7  31  1   
 15   7  32  1   
 16   8  10  1   
 17   8  11  1   
 18   8  33  1   
 19   9  12  1   
 20   9  13  1   
 21   9  34  1   
 22  10  13  1   
 23  10  14  1   
 24  11  15  1   
 25  11  35  1   
 26  11  36  1   
 27  12  15  1   
 28  12  37  1   
 29  12  38  1   
 30  13  39  1   
 31  13  40  1   
 32  14  16  1   
 33  14  41  1   
 34  14  42  1   
 35  16  17  ar  
 36  16  18  ar  
 37  17  19  ar  
 38  17  43  1   
 39  18  20  ar  
 40  18  44  1   
 41  19  21  ar  
 42  19  45  1   
 43  20  21  ar  
 44  20  46  1   
 45  21  22  1   
 46  22  23  1   
 47  23  24  1   
 48  23  47  1   
 49  23  48  1   
 50  24  25  1   
 51  24  49  1   
 52  24  50  1   
 53  25  51  1   
@<TRIPOS>SUBSTRUCTURE
  1 ****   8 GROUP 4 **** **** 0

# MOE 2024.06 (io_trps.svl 2023.06)
