@<TRIPOS>MOLECULE
NONAME
51 52 1 0 0 
SMALL
USER_CHARGES


@<TRIPOS>ATOM
  1 CL      -1.8180    -0.4220     1.9770 Cl    1 <1>  -0.1770 
  2 C       -2.7020    -1.1860     0.6710 C.ar  1 <1>   0.1770 
  3 C       -2.2540    -1.2240    -0.6560 C.ar  1 <1>   0.0820 
  4 C       -3.8890    -1.7920     1.0360 C.ar  1 <1>  -0.1500 
  5 O       -1.1170    -0.6830    -1.1620 O.3   1 <1>  -0.3630 
  6 C       -3.0420    -1.8870    -1.5850 C.ar  1 <1>  -0.1500 
  7 C       -4.6710    -2.4740     0.1060 C.ar  1 <1>   0.0860 
  8 C       -0.3710     0.3290    -0.5290 C.3   1 <1>   0.1200 
  9 C       -4.2260    -2.4970    -1.2140 C.ar  1 <1>  -0.1500 
 10 C       -5.9000    -3.1380     0.4910 C.2   1 <1>   0.5440 
 11 C        0.5970     0.9090    -1.5550 C.3   1 <1>  -0.2400 
 12 O       -6.9570    -2.7730     0.0090 O.2   1 <1>  -0.5700 
 13 N       -5.9240    -4.2080     1.3580 N.am  1 <1>  -0.6600 
 14 C       -4.6850    -4.9530     1.7560 C.3   1 <1>   0.3210 
 15 C       -7.2040    -4.7180     1.9550 C.3   1 <1>   0.1400 
 16 C       -4.3120    -6.0200     0.7310 C.2   1 <1>   0.0460 
 17 C       -7.9300    -5.7580     1.0760 C.3   1 <1>   0.3430 
 18 N       -5.0880    -7.1120     0.5460 N.2   1 <1>  -0.5650 
 19 C       -3.2170    -6.0700    -0.0670 C.2   1 <1>  -0.3320 
 20 N       -8.1980    -5.2360    -0.3010 N.4   1 <1>  -0.9590 
 21 C       -4.4440    -7.8050    -0.3370 C.2   1 <1>   0.0360 
 22 N       -3.3020    -7.2230    -0.7550 N.pl3 1 <1>   0.0330 
 23 C       -2.0410    -5.1190    -0.2360 C.3   1 <1>  -0.0600 
 24 C       -9.6270    -5.3480    -0.7000 C.3   1 <1>   0.2630 
 25 C       -7.2830    -5.8720    -1.2890 C.3   1 <1>   0.2630 
 26 H       -4.2110    -1.7350     2.0600 H     1 <1>   0.1500 
 27 H       -2.7160    -1.9170    -2.6110 H     1 <1>   0.1500 
 28 H        0.1710    -0.1070     0.2920 H     1 <1>   0.0800 
 29 H       -1.0470     1.0890    -0.1760 H     1 <1>   0.0800 
 30 H       -4.8200    -2.9990    -1.9570 H     1 <1>   0.1500 
 31 H        1.2620     0.1430    -1.9120 H     1 <1>   0.0800 
 32 H        1.1840     1.6880    -1.1020 H     1 <1>   0.0800 
 33 H        0.0520     1.3280    -2.3820 H     1 <1>   0.0800 
 34 H       -4.8340    -5.4320     2.7070 H     1 <1>   0.0800 
 35 H       -3.8640    -4.2720     1.8770 H     1 <1>   0.0800 
 36 H       -7.8670    -3.8870     2.1250 H     1 <1>   0.0800 
 37 H       -7.0020    -5.1580     2.9160 H     1 <1>   0.0800 
 38 H       -8.8610    -6.0120     1.5530 H     1 <1>   0.0800 
 39 H       -7.3390    -6.6560     1.0250 H     1 <1>   0.0800 
 40 H       -7.9280    -4.2250    -0.2680 H     1 <1>   0.4500 
 41 H       -4.7640    -8.7610    -0.7150 H     1 <1>   0.1500 
 42 H       -2.6300    -7.5970    -1.4330 H     1 <1>   0.2700 
 43 H       -2.1310    -4.2690     0.4140 H     1 <1>   0.0800 
 44 H       -1.9910    -4.7650    -1.2500 H     1 <1>   0.0800 
 45 H       -1.1200    -5.6240    -0.0010 H     1 <1>   0.0800 
 46 H       -9.9260    -6.3830    -0.7370 H     1 <1>   0.0800 
 47 H       -9.7750    -4.9090    -1.6740 H     1 <1>   0.0800 
 48 H      -10.2530    -4.8280     0.0070 H     1 <1>   0.0800 
 49 H       -7.4220    -6.9400    -1.2980 H     1 <1>   0.0800 
 50 H       -6.2590    -5.6630    -1.0250 H     1 <1>   0.0800 
 51 H       -7.4680    -5.4820    -2.2760 H     1 <1>   0.0800 
@<TRIPOS>BOND
  1   1   2  1   
  2   2   3  ar  
  3   2   4  ar  
  4   3   5  1   
  5   3   6  ar  
  6   4   7  ar  
  7   4  26  1   
  8   5   8  1   
  9   6   9  ar  
 10   6  27  1   
 11   7   9  ar  
 12   7  10  1   
 13   8  11  1   
 14   8  28  1   
 15   8  29  1   
 16   9  30  1   
 17  10  12  2   
 18  10  13  am  
 19  11  31  1   
 20  11  32  1   
 21  11  33  1   
 22  13  14  1   
 23  13  15  1   
 24  14  16  1   
 25  14  34  1   
 26  14  35  1   
 27  15  17  1   
 28  15  36  1   
 29  15  37  1   
 30  16  18  1   
 31  16  19  2   
 32  17  20  1   
 33  17  38  1   
 34  17  39  1   
 35  18  21  2   
 36  19  22  1   
 37  19  23  1   
 38  20  24  1   
 39  20  25  1   
 40  20  40  1   
 41  21  22  1   
 42  21  41  1   
 43  22  42  1   
 44  23  43  1   
 45  23  44  1   
 46  23  45  1   
 47  24  46  1   
 48  24  47  1   
 49  24  48  1   
 50  25  49  1   
 51  25  50  1   
 52  25  51  1   
@<TRIPOS>SUBSTRUCTURE
  1 ****   7 GROUP 4 **** **** 0

# MOE 2024.06 (io_trps.svl 2023.06)
