@<TRIPOS>MOLECULE
NONAME
55 58 1 0 0 
SMALL
USER_CHARGES


@<TRIPOS>ATOM
  1 O        3.1030     2.3180     1.5500 O.co2 1 <1>  -0.9000 
  2 C        2.6250     1.2070     1.3140 C.2   1 <1>   0.9060 
  3 O        2.7170     0.2940     2.1400 O.co2 1 <1>  -0.9000 
  4 C        2.2820     0.8400    -0.1450 C.3   1 <1>  -0.1060 
  5 C        3.2810    -0.2770    -0.5090 C.3   1 <1>   0.4230 
  6 C        2.5350     2.0340    -1.1250 C.3   1 <1>  -0.1600 
  7 C        0.8130     0.3720    -0.3120 C.3   1 <1>  -0.1600 
  8 N        2.9470    -1.5370     0.2530 N.4   1 <1>  -0.9590 
  9 C        4.7440     0.2470    -0.2770 C.3   1 <1>   0.3430 
 10 C        4.0140     2.3750    -1.4040 C.3   1 <1>   0.3430 
 11 C        0.5440    -0.9840     0.3540 C.3   1 <1>  -0.1600 
 12 C        1.5770    -2.0400    -0.0410 C.3   1 <1>   0.3430 
 13 C        3.9520    -2.6380     0.2170 C.3   1 <1>   0.2630 
 14 N        4.8830     1.7480    -0.3720 N.4   1 <1>  -0.9590 
 15 C        6.2770     2.2600    -0.3200 C.3   1 <1>   0.4860 
 16 C        6.2500     3.7760    -0.2740 C.ar  1 <1>  -0.1440 
 17 C        6.8370     4.5160    -1.2890 C.ar  1 <1>  -0.1500 
 18 C        5.6140     4.4400     0.7650 C.ar  1 <1>  -0.1500 
 19 C        6.7730     5.8960    -1.2680 C.ar  1 <1>  -0.1500 
 20 C        5.5530     5.8200     0.7760 C.ar  1 <1>  -0.1500 
 21 C        6.1290     6.5800    -0.2390 C.ar  1 <1>   0.0000 
 22 C        6.0550     8.0270    -0.2390 C.ar  1 <1>   0.3100 
 23 N        5.6780     8.6280    -1.3690 N.ar  1 <1>  -0.6200 
 24 C        6.3730     8.7440     0.9130 C.ar  1 <1>  -0.1500 
 25 C        5.6120     9.9470    -1.3440 C.ar  1 <1>   0.1600 
 26 C        6.3020    10.1190     0.9270 C.ar  1 <1>  -0.1500 
 27 C        5.9070    10.7300    -0.2420 C.ar  1 <1>  -0.1500 
 28 H        3.1720    -0.4860    -1.5590 H     1 <1>   0.0800 
 29 H        2.0590     2.9150    -0.7270 H     1 <1>   0.0800 
 30 H        2.0690     1.8500    -2.0770 H     1 <1>   0.0800 
 31 H        0.1510     1.1120     0.1090 H     1 <1>   0.0800 
 32 H        0.5720     0.2820    -1.3580 H     1 <1>   0.0800 
 33 H        2.8750    -1.1740     1.2460 H     1 <1>   0.4500 
 34 H        5.3970    -0.2220    -0.9930 H     1 <1>   0.0800 
 35 H        5.0490    -0.0490     0.7140 H     1 <1>   0.0800 
 36 H        4.1290     3.4490    -1.3880 H     1 <1>   0.0800 
 37 H        4.2970     2.0220    -2.3820 H     1 <1>   0.0800 
 38 H       -0.4370    -1.3300     0.0750 H     1 <1>   0.0800 
 39 H        0.5420    -0.8750     1.4250 H     1 <1>   0.0800 
 40 H        1.4850    -2.2670    -1.0910 H     1 <1>   0.0800 
 41 H        1.3870    -2.9400     0.5210 H     1 <1>   0.0800 
 42 H        4.0720    -3.0060    -0.7890 H     1 <1>   0.0800 
 43 H        3.6270    -3.4520     0.8450 H     1 <1>   0.0800 
 44 H        4.9040    -2.2930     0.5850 H     1 <1>   0.0800 
 45 H        4.4470     2.1280     0.5130 H     1 <1>   0.4500 
 46 H        6.7710     1.8910     0.5650 H     1 <1>   0.0800 
 47 H        6.8270     1.9320    -1.1860 H     1 <1>   0.0800 
 48 H        7.3440     4.0340    -2.1070 H     1 <1>   0.1500 
 49 H        5.1450     3.8960     1.5710 H     1 <1>   0.1500 
 50 H        7.2230     6.4680    -2.0620 H     1 <1>   0.1500 
 51 H        5.0370     6.3140     1.5810 H     1 <1>   0.1500 
 52 H        6.6810     8.2150     1.7960 H     1 <1>   0.1500 
 53 H        5.3050    10.4350    -2.2540 H     1 <1>   0.1500 
 54 H        6.5440    10.6900     1.8070 H     1 <1>   0.1500 
 55 H        5.8280    11.8000    -0.3030 H     1 <1>   0.1500 
@<TRIPOS>BOND
  1   1   2  ar  
  2   2   3  ar  
  3   2   4  1   
  4   4   5  1   
  5   4   6  1   
  6   4   7  1   
  7   5   8  1   
  8   5   9  1   
  9   5  28  1   
 10   6  10  1   
 11   6  29  1   
 12   6  30  1   
 13   7  11  1   
 14   7  31  1   
 15   7  32  1   
 16   8  12  1   
 17   8  13  1   
 18   8  33  1   
 19   9  14  1   
 20   9  34  1   
 21   9  35  1   
 22  10  14  1   
 23  10  36  1   
 24  10  37  1   
 25  11  12  1   
 26  11  38  1   
 27  11  39  1   
 28  12  40  1   
 29  12  41  1   
 30  13  42  1   
 31  13  43  1   
 32  13  44  1   
 33  14  15  1   
 34  14  45  1   
 35  15  16  1   
 36  15  46  1   
 37  15  47  1   
 38  16  17  ar  
 39  16  18  ar  
 40  17  19  ar  
 41  17  48  1   
 42  18  20  ar  
 43  18  49  1   
 44  19  21  ar  
 45  19  50  1   
 46  20  21  ar  
 47  20  51  1   
 48  21  22  1   
 49  22  23  ar  
 50  22  24  ar  
 51  23  25  ar  
 52  24  26  ar  
 53  24  52  1   
 54  25  27  ar  
 55  25  53  1   
 56  26  27  ar  
 57  26  54  1   
 58  27  55  1   
@<TRIPOS>SUBSTRUCTURE
  1 ****  18 GROUP 4 **** **** 0

# MOE 2024.06 (io_trps.svl 2023.06)
