@<TRIPOS>MOLECULE
NONAME
23 24 1 0 0 
SMALL
USER_CHARGES


@<TRIPOS>ATOM
  1 O       -0.0010    -0.5450    -1.0940 O.2   1 <1>  -0.5700 
  2 C        0.2170    -1.6070    -0.5470 C.2   1 <1>   0.7150 
  3 N        1.5250    -1.9380    -0.4380 N.am  1 <1>  -0.7300 
  4 C       -0.8410    -2.4480    -0.0470 C.2   1 <1>  -0.2370 
  5 C        2.1320    -3.0780     0.2690 C.3   1 <1>   0.1400 
  6 N       -2.1080    -1.9890     0.2060 N.pl3 1 <1>   0.0480 
  7 C       -0.8020    -3.8050     0.2600 C.2   1 <1>  -0.0860 
  8 C        1.6350    -4.3860    -0.3370 C.3   1 <1>  -0.0990 
  9 C       -2.8520    -3.0210     0.6660 C.2   1 <1>  -0.3020 
 10 C       -2.6370    -0.6190     0.0430 C.3   1 <1>   0.0160 
 11 C        0.2620    -4.7700     0.1720 C.2   1 <1>   0.5950 
 12 C       -2.0890    -4.1370     0.7110 C.2   1 <1>  -0.1500 
 13 O        0.1230    -5.9230     0.5000 O.2   1 <1>  -0.5700 
 14 H        2.1640    -1.2310    -0.8080 H     1 <1>   0.3700 
 15 H        1.8950    -3.0300     1.3200 H     1 <1>   0.0800 
 16 H        3.2010    -3.0190     0.1600 H     1 <1>   0.0800 
 17 H        2.3200    -5.1660    -0.0580 H     1 <1>   0.0800 
 18 H        1.6240    -4.3300    -1.4100 H     1 <1>   0.0800 
 19 H       -3.8870    -2.9140     0.9390 H     1 <1>   0.1500 
 20 H       -2.0080     0.0720     0.5730 H     1 <1>   0.0800 
 21 H       -3.6370    -0.5640     0.4330 H     1 <1>   0.0800 
 22 H       -2.6450    -0.3650    -1.0010 H     1 <1>   0.0800 
 23 H       -2.3860    -5.1230     1.0300 H     1 <1>   0.1500 
@<TRIPOS>BOND
  1   1   2  2   
  2   2   3  am  
  3   2   4  1   
  4   3   5  1   
  5   3  14  1   
  6   4   6  1   
  7   4   7  2   
  8   5   8  1   
  9   5  15  1   
 10   5  16  1   
 11   6   9  1   
 12   6  10  1   
 13   7  11  1   
 14   7  12  1   
 15   8  11  1   
 16   8  17  1   
 17   8  18  1   
 18   9  12  2   
 19   9  19  1   
 20  10  20  1   
 21  10  21  1   
 22  10  22  1   
 23  11  13  2   
 24  12  23  1   
@<TRIPOS>SUBSTRUCTURE
  1 ****   4 GROUP 4 **** **** 0

# MOE 2024.06 (io_trps.svl 2023.06)
