@<TRIPOS>MOLECULE
NONAME
55 58 1 0 0 
SMALL
USER_CHARGES


@<TRIPOS>ATOM
  1 O        1.6350    -2.9200     1.1190 O.2   1 <1>  -0.5700 
  2 C        1.8680    -2.0140     0.3480 C.2   1 <1>   0.4230 
  3 C        3.0110    -1.1200     0.4690 C.ar  1 <1>   0.3960 
  4 C        0.8790    -1.8570    -0.8150 C.3   1 <1>  -0.0190 
  5 N        3.1670    -0.1340    -0.4270 N.ar  1 <1>  -0.6200 
  6 C        3.9230    -1.3020     1.5120 C.ar  1 <1>  -0.1500 
  7 C       -0.5450    -2.1510    -0.3120 C.3   1 <1>   0.3430 
  8 C        1.2840    -2.7750    -1.9980 C.3   1 <1>  -0.1600 
  9 C        4.2180     0.6540    -0.2820 C.ar  1 <1>   0.1600 
 10 C        5.0150    -0.4750     1.6540 C.ar  1 <1>  -0.1500 
 11 N       -0.7250    -3.6250    -0.2400 N.4   1 <1>  -0.9590 
 12 C        0.0710    -3.4880    -2.6210 C.3   1 <1>  -0.1600 
 13 C        5.1570     0.5300     0.7250 C.ar  1 <1>  -0.1500 
 14 C       -0.7460    -4.2830    -1.5870 C.3   1 <1>   0.3430 
 15 C       -1.8630    -4.0470     0.6280 C.3   1 <1>   0.5240 
 16 C       -1.8240    -5.5500     0.8590 C.2   1 <1>   0.0460 
 17 N       -2.2660    -6.4170    -0.0730 N.2   1 <1>  -0.5650 
 18 C       -1.3790    -6.2280     1.9270 C.2   1 <1>  -0.0400 
 19 C       -2.0750    -7.5830     0.4720 C.2   1 <1>   0.4250 
 20 O       -1.5390    -7.4930     1.6760 O.3   1 <1>  -0.2800 
 21 C       -0.7680    -5.8220     3.2530 C.3   1 <1>  -0.0600 
 22 C       -2.3740    -8.8810    -0.0960 C.ar  1 <1>   0.0530 
 23 C       -1.9600   -10.0620     0.5200 C.ar  1 <1>  -0.1500 
 24 C       -3.0890    -9.0010    -1.2900 C.ar  1 <1>  -0.1500 
 25 C       -2.2370   -11.3050    -0.0200 C.ar  1 <1>   0.0820 
 26 C       -3.3740   -10.2370    -1.8410 C.ar  1 <1>  -0.1500 
 27 O       -1.7810   -12.3810     0.6660 O.3   1 <1>  -0.3620 
 28 C       -2.9500   -11.3920    -1.2110 C.ar  1 <1>  -0.1500 
 29 C       -2.0090   -13.6950     0.2070 C.3   1 <1>   0.0400 
 30 H        0.8720    -0.8360    -1.1520 H     1 <1>   0.0800 
 31 H        3.7730    -2.1030     2.2150 H     1 <1>   0.1500 
 32 H       -1.2680    -1.7290    -0.9900 H     1 <1>   0.0800 
 33 H       -0.6780    -1.7050     0.6600 H     1 <1>   0.0800 
 34 H        1.9760    -3.5280    -1.6560 H     1 <1>   0.0800 
 35 H        1.7960    -2.1940    -2.7470 H     1 <1>   0.0800 
 36 H        4.3430     1.4450    -1.0040 H     1 <1>   0.1500 
 37 H        5.7250    -0.6060     2.4540 H     1 <1>   0.1500 
 38 H        0.1310    -3.9620     0.2410 H     1 <1>   0.4500 
 39 H        0.3980    -4.1590    -3.3960 H     1 <1>   0.0800 
 40 H       -0.5710    -2.7620    -3.0890 H     1 <1>   0.0800 
 41 H        5.9880     1.2110     0.7780 H     1 <1>   0.1500 
 42 H       -1.7610    -4.3820    -1.9370 H     1 <1>   0.0800 
 43 H       -0.3390    -5.2780    -1.4940 H     1 <1>   0.0800 
 44 H       -2.8010    -3.7830     0.1700 H     1 <1>   0.0800 
 45 H       -1.7930    -3.5480     1.5800 H     1 <1>   0.0800 
 46 H       -0.6720    -4.7550     3.3260 H     1 <1>   0.0800 
 47 H        0.2080    -6.2650     3.3530 H     1 <1>   0.0800 
 48 H       -1.3860    -6.1740     4.0600 H     1 <1>   0.0800 
 49 H       -1.4080   -10.0220     1.4420 H     1 <1>   0.1500 
 50 H       -3.4280    -8.1120    -1.7910 H     1 <1>   0.1500 
 51 H       -3.9280   -10.3000    -2.7620 H     1 <1>   0.1500 
 52 H       -3.1830   -12.3410    -1.6570 H     1 <1>   0.1500 
 53 H       -1.5610   -14.3760     0.9080 H     1 <1>   0.0800 
 54 H       -1.5520   -13.8110    -0.7590 H     1 <1>   0.0800 
 55 H       -3.0700   -13.8680     0.1570 H     1 <1>   0.0800 
@<TRIPOS>BOND
  1   1   2  2   
  2   2   3  1   
  3   2   4  1   
  4   3   5  ar  
  5   3   6  ar  
  6   4   7  1   
  7   4   8  1   
  8   4  30  1   
  9   5   9  ar  
 10   6  10  ar  
 11   6  31  1   
 12   7  11  1   
 13   7  32  1   
 14   7  33  1   
 15   8  12  1   
 16   8  34  1   
 17   8  35  1   
 18   9  13  ar  
 19   9  36  1   
 20  10  13  ar  
 21  10  37  1   
 22  11  14  1   
 23  11  15  1   
 24  11  38  1   
 25  12  14  1   
 26  12  39  1   
 27  12  40  1   
 28  13  41  1   
 29  14  42  1   
 30  14  43  1   
 31  15  16  1   
 32  15  44  1   
 33  15  45  1   
 34  16  17  1   
 35  16  18  2   
 36  17  19  2   
 37  18  20  1   
 38  18  21  1   
 39  19  20  1   
 40  19  22  1   
 41  21  46  1   
 42  21  47  1   
 43  21  48  1   
 44  22  23  ar  
 45  22  24  ar  
 46  23  25  ar  
 47  23  49  1   
 48  24  26  ar  
 49  24  50  1   
 50  25  27  1   
 51  25  28  ar  
 52  26  28  ar  
 53  26  51  1   
 54  27  29  1   
 55  28  52  1   
 56  29  53  1   
 57  29  54  1   
 58  29  55  1   
@<TRIPOS>SUBSTRUCTURE
  1 ****  11 GROUP 4 **** **** 0

# MOE 2024.06 (io_trps.svl 2023.06)
