@<TRIPOS>MOLECULE
NONAME
40 42 1 0 0 
SMALL
USER_CHARGES


@<TRIPOS>ATOM
  1 O       -0.0390    -0.0190    -0.3360 O.2   1 <1>  -0.5700 
  2 C       -1.2250    -0.2280    -0.1590 C.2   1 <1>   0.7800 
  3 O       -1.7850    -1.4260    -0.3320 O.3   1 <1>  -0.2320 
  4 N       -2.1590     0.6980     0.2110 N.am  1 <1>  -0.4770 
  5 C       -3.1010    -1.2790    -0.0780 C.ar  1 <1>   0.0830 
  6 C       -3.3650     0.0300     0.2610 C.ar  1 <1>   0.1170 
  7 C       -1.9000     2.1200     0.5120 C.3   1 <1>   0.1400 
  8 C       -4.0970    -2.2350    -0.1280 C.ar  1 <1>  -0.1500 
  9 C       -4.6580     0.4270     0.5640 C.ar  1 <1>  -0.1500 
 10 C       -1.9120     2.9310    -0.7820 C.3   1 <1>  -0.0990 
 11 C       -5.3910    -1.8390     0.1760 C.ar  1 <1>  -0.1500 
 12 C       -5.6750    -0.5170     0.5200 C.ar  1 <1>  -0.1440 
 13 C       -1.5920     4.3770    -0.4890 C.2   1 <1>   0.5690 
 14 C       -7.1050    -0.1250     0.8440 C.3   1 <1>  -0.0960 
 15 O       -2.3470     5.0130     0.2040 O.2   1 <1>  -0.5700 
 16 N       -0.4600     4.9230    -0.9990 N.am  1 <1>  -0.7300 
 17 C       -0.1020     6.3600    -0.8840 C.3   1 <1>   0.1400 
 18 C        0.3350     6.6930     0.5430 C.3   1 <1>   0.0960 
 19 N        0.6040     8.1340     0.6520 N.pl3 1 <1>   0.3140 
 20 N        1.6480     8.7180     0.0790 N.2   1 <1>  -0.7070 
 21 C       -0.1110     9.0660     1.2890 C.2   1 <1>   0.0360 
 22 C        1.4910     9.9570     0.4150 C.2   1 <1>   0.3660 
 23 N        0.4150    10.2310     1.1650 N.2   1 <1>  -0.5650 
 24 H       -0.9390     2.2080     0.9900 H     1 <1>   0.0800 
 25 H       -2.6510     2.4880     1.1900 H     1 <1>   0.0800 
 26 H       -3.8650    -3.2500    -0.3950 H     1 <1>   0.1500 
 27 H       -4.8580     1.4500     0.8250 H     1 <1>   0.1500 
 28 H       -2.8870     2.8830    -1.2310 H     1 <1>   0.0800 
 29 H       -1.1900     2.5320    -1.4700 H     1 <1>   0.0800 
 30 H       -6.1860    -2.5650     0.1440 H     1 <1>   0.1500 
 31 H       -7.1620     0.9020     1.1580 H     1 <1>   0.0800 
 32 H       -7.4860    -0.7450     1.6360 H     1 <1>   0.0800 
 33 H       -7.7250    -0.2520    -0.0260 H     1 <1>   0.0800 
 34 H        0.1630     4.3510    -1.5760 H     1 <1>   0.3700 
 35 H       -0.9640     6.9530    -1.1430 H     1 <1>   0.0800 
 36 H        0.6940     6.5880    -1.5730 H     1 <1>   0.0800 
 37 H        1.2350     6.1610     0.7890 H     1 <1>   0.0800 
 38 H       -0.4390     6.4340     1.2420 H     1 <1>   0.0800 
 39 H       -1.0140     8.8460     1.8300 H     1 <1>   0.1500 
 40 H        2.1700    10.7410     0.1210 H     1 <1>   0.1500 
@<TRIPOS>BOND
  1   1   2  2   
  2   2   3  1   
  3   2   4  am  
  4   3   5  1   
  5   4   6  1   
  6   4   7  1   
  7   5   6  ar  
  8   5   8  ar  
  9   6   9  ar  
 10   7  10  1   
 11   7  24  1   
 12   7  25  1   
 13   8  11  ar  
 14   8  26  1   
 15   9  12  ar  
 16   9  27  1   
 17  10  13  1   
 18  10  28  1   
 19  10  29  1   
 20  11  12  ar  
 21  11  30  1   
 22  12  14  1   
 23  13  15  2   
 24  13  16  am  
 25  14  31  1   
 26  14  32  1   
 27  14  33  1   
 28  16  17  1   
 29  16  34  1   
 30  17  18  1   
 31  17  35  1   
 32  17  36  1   
 33  18  19  1   
 34  18  37  1   
 35  18  38  1   
 36  19  20  1   
 37  19  21  1   
 38  20  22  2   
 39  21  23  2   
 40  21  39  1   
 41  22  23  1   
 42  22  40  1   
@<TRIPOS>SUBSTRUCTURE
  1 ****  10 GROUP 4 **** **** 0

# MOE 2024.06 (io_trps.svl 2023.06)
