@<TRIPOS>MOLECULE
NONAME
47 49 1 0 0 
SMALL
USER_CHARGES


@<TRIPOS>ATOM
  1 CL      -2.2110    -0.0400    -2.0470 Cl    1 <1>  -0.1770 
  2 C       -2.3130     0.7690    -0.5010 C.ar  1 <1>   0.1770 
  3 C       -2.4740     0.0240     0.6650 C.ar  1 <1>   0.0860 
  4 C       -2.2210     2.1460    -0.4880 C.ar  1 <1>  -0.1500 
  5 C       -2.5770    -1.4140     0.6580 C.2   1 <1>   0.5440 
  6 C       -2.5190     0.7340     1.8640 C.ar  1 <1>  -0.1500 
  7 C       -2.2830     2.8460     0.7130 C.ar  1 <1>   0.1170 
  8 O       -1.6590    -2.0810     1.0940 O.2   1 <1>  -0.5700 
  9 N       -3.7080    -2.0560     0.2100 N.am  1 <1>  -0.6600 
 10 C       -2.4270     2.1130     1.8870 C.ar  1 <1>  -0.1500 
 11 N       -2.1870     4.2400     0.7930 N.am  1 <1>  -0.5470 
 12 C       -4.9510    -1.4060    -0.2730 C.3   1 <1>   0.1400 
 13 C       -3.8320    -3.5330     0.1710 C.3   1 <1>   0.1400 
 14 C       -2.4260     5.2040    -0.1460 C.2   1 <1>   0.5690 
 15 C       -5.8050    -2.5530    -0.8130 C.3   1 <1>   0.2000 
 16 C       -5.3160    -3.8020    -0.0820 C.3   1 <1>  -0.0800 
 17 O       -2.8210     4.9770    -1.2600 O.2   1 <1>  -0.5700 
 18 C       -2.1910     6.6370     0.2590 C.3   1 <1>  -0.1790 
 19 O       -7.1530    -2.3500    -0.5630 O.3   1 <1>  -0.6800 
 20 C       -5.5820    -5.1000    -0.8570 C.3   1 <1>   0.0210 
 21 C       -4.9980    -6.2950    -0.1290 C.2   1 <1>   0.1080 
 22 N       -5.4070    -6.6720     1.0420 N.2   1 <1>  -0.7070 
 23 C       -3.9700    -7.0980    -0.6120 C.2   1 <1>  -0.1500 
 24 N       -4.6430    -7.7400     1.3410 N.pl3 1 <1>   0.3000 
 25 C       -3.7640    -8.0170     0.3550 C.2   1 <1>  -0.3320 
 26 C       -2.7650    -9.1580     0.3990 C.3   1 <1>  -0.0600 
 27 H       -2.0950     2.6670    -1.4190 H     1 <1>   0.1500 
 28 H       -2.6250     0.1840     2.7840 H     1 <1>   0.1500 
 29 H       -2.4690     2.6270     2.8310 H     1 <1>   0.1500 
 30 H       -1.9290     4.6000     1.7090 H     1 <1>   0.3700 
 31 H       -5.4400    -0.9190     0.5520 H     1 <1>   0.0800 
 32 H       -4.7370    -0.6970    -1.0530 H     1 <1>   0.0800 
 33 H       -3.2250    -3.9110    -0.6340 H     1 <1>   0.0800 
 34 H       -3.5060    -3.9740     1.0980 H     1 <1>   0.0800 
 35 H       -5.6650    -2.6380    -1.8770 H     1 <1>   0.0800 
 36 H       -5.7900    -3.8660     0.8820 H     1 <1>   0.0800 
 37 H       -1.1750     6.7650     0.5820 H     1 <1>   0.0800 
 38 H       -2.8610     6.9080     1.0520 H     1 <1>   0.0800 
 39 H       -2.3700     7.2840    -0.5810 H     1 <1>   0.0800 
 40 H       -7.3330    -2.4280     0.3940 H     1 <1>   0.4000 
 41 H       -5.1560    -5.0390    -1.8420 H     1 <1>   0.0800 
 42 H       -6.6430    -5.2460    -0.9600 H     1 <1>   0.0800 
 43 H       -3.4650    -6.9870    -1.5540 H     1 <1>   0.1500 
 44 H       -4.7460    -8.2550     2.2230 H     1 <1>   0.2700 
 45 H       -2.1770    -9.1700    -0.5020 H     1 <1>   0.0800 
 46 H       -3.2780   -10.0990     0.4850 H     1 <1>   0.0800 
 47 H       -2.1020    -9.0400     1.2380 H     1 <1>   0.0800 
@<TRIPOS>BOND
  1   1   2  1   
  2   2   3  ar  
  3   2   4  ar  
  4   3   5  1   
  5   3   6  ar  
  6   4   7  ar  
  7   4  27  1   
  8   5   8  2   
  9   5   9  am  
 10   6  10  ar  
 11   6  28  1   
 12   7  10  ar  
 13   7  11  1   
 14   9  12  1   
 15   9  13  1   
 16  10  29  1   
 17  11  14  am  
 18  11  30  1   
 19  12  15  1   
 20  12  31  1   
 21  12  32  1   
 22  13  16  1   
 23  13  33  1   
 24  13  34  1   
 25  14  17  2   
 26  14  18  1   
 27  15  16  1   
 28  15  19  1   
 29  15  35  1   
 30  16  20  1   
 31  16  36  1   
 32  18  37  1   
 33  18  38  1   
 34  18  39  1   
 35  19  40  1   
 36  20  21  1   
 37  20  41  1   
 38  20  42  1   
 39  21  22  2   
 40  21  23  1   
 41  22  24  1   
 42  23  25  2   
 43  23  43  1   
 44  24  25  1   
 45  24  44  1   
 46  25  26  1   
 47  26  45  1   
 48  26  46  1   
 49  26  47  1   
@<TRIPOS>SUBSTRUCTURE
  1 ****   9 GROUP 4 **** **** 0

# MOE 2024.06 (io_trps.svl 2023.06)
