@<TRIPOS>MOLECULE
NONAME
54 56 1 0 0 
SMALL
USER_CHARGES


@<TRIPOS>ATOM
  1 O        0.0320     1.3510    -1.1380 O.co2 1 <1>  -0.9000 
  2 C       -0.7560     0.4800    -0.7330 C.2   1 <1>   0.9060 
  3 O       -0.5370    -0.7300    -0.7790 O.co2 1 <1>  -0.9000 
  4 C       -2.0760     1.0120    -0.1430 C.3   1 <1>   0.3170 
  5 N       -2.0740     2.5240    -0.1030 N.4   1 <1>  -0.9590 
  6 C       -3.3120     0.6240    -0.9620 C.3   1 <1>  -0.1600 
  7 C       -3.3080     3.0040    -0.7840 C.3   1 <1>   0.3430 
  8 C       -1.8770     3.0250     1.2710 C.3   1 <1>   0.4860 
  9 C       -4.2560     1.8020    -0.8060 C.3   1 <1>   0.2000 
 10 C       -1.8650     4.5440     1.2680 C.ar  1 <1>  -0.1430 
 11 O       -4.8790     1.6950     0.4330 O.3   1 <1>  -0.6800 
 12 C       -0.7810     5.2420     0.7580 C.ar  1 <1>  -0.1500 
 13 C       -2.9460     5.2470     1.7810 C.ar  1 <1>  -0.1500 
 14 C       -0.7680     6.6280     0.7580 C.ar  1 <1>   0.0830 
 15 C       -2.9420     6.6310     1.7810 C.ar  1 <1>  -0.1500 
 16 O        0.3360     7.2280     0.2480 O.3   1 <1>  -0.3620 
 17 C       -1.8590     7.3240     1.2720 C.ar  1 <1>  -0.1500 
 18 C        0.5070     8.6240     0.3050 C.3   1 <1>   0.1200 
 19 C        1.8940     8.9370    -0.2680 C.3   1 <1>   0.3430 
 20 N        2.2420    10.3950    -0.2000 N.4   1 <1>  -0.9590 
 21 C        1.3840    11.2310    -1.0980 C.3   1 <1>   0.3430 
 22 C        3.6900    10.5860    -0.5110 C.3   1 <1>   0.3430 
 23 C        1.7170    12.7100    -0.8990 C.3   1 <1>  -0.1600 
 24 C        4.0750    12.0520    -0.2990 C.3   1 <1>  -0.1600 
 25 C        3.2050    12.9950    -1.1390 C.3   1 <1>  -0.1600 
 26 H       -2.1780     0.6200     0.8520 H     1 <1>   0.0800 
 27 H       -1.2130     2.7390    -0.6560 H     1 <1>   0.4500 
 28 H       -3.7290    -0.3120    -0.6350 H     1 <1>   0.0800 
 29 H       -3.0250     0.5220    -1.9950 H     1 <1>   0.0800 
 30 H       -3.7550     3.8450    -0.2820 H     1 <1>   0.0800 
 31 H       -3.0640     3.2810    -1.7960 H     1 <1>   0.0800 
 32 H       -2.6750     2.6690     1.9020 H     1 <1>   0.0800 
 33 H       -0.9400     2.6570     1.6590 H     1 <1>   0.0800 
 34 H       -5.0060     1.8710    -1.5760 H     1 <1>   0.0800 
 35 H       -5.4880     0.9280     0.4450 H     1 <1>   0.4000 
 36 H        0.0680     4.7140     0.3560 H     1 <1>   0.1500 
 37 H       -3.7980     4.7240     2.1840 H     1 <1>   0.1500 
 38 H       -3.7860     7.1680     2.1810 H     1 <1>   0.1500 
 39 H       -1.8900     8.3970     1.2890 H     1 <1>   0.1500 
 40 H       -0.2720     9.0760    -0.2810 H     1 <1>   0.0800 
 41 H        0.4420     8.9250     1.3360 H     1 <1>   0.0800 
 42 H        1.9320     8.6040    -1.2920 H     1 <1>   0.0800 
 43 H        2.6200     8.3740     0.2960 H     1 <1>   0.0800 
 44 H        2.1030    10.7310     0.7630 H     1 <1>   0.4500 
 45 H        1.5590    10.9590    -2.1270 H     1 <1>   0.0800 
 46 H        0.3410    11.0700    -0.8770 H     1 <1>   0.0800 
 47 H        4.2930     9.9620     0.1290 H     1 <1>   0.0800 
 48 H        3.8840    10.3090    -1.5350 H     1 <1>   0.0800 
 49 H        1.1300    13.2980    -1.5830 H     1 <1>   0.0800 
 50 H        1.4420    13.0100     0.0970 H     1 <1>   0.0800 
 51 H        3.9850    12.2990     0.7450 H     1 <1>   0.0800 
 52 H        5.1090    12.1860    -0.5710 H     1 <1>   0.0800 
 53 H        3.4280    14.0200    -0.8880 H     1 <1>   0.0800 
 54 H        3.4330    12.8590    -2.1830 H     1 <1>   0.0800 
@<TRIPOS>BOND
  1   1   2  ar  
  2   2   3  ar  
  3   2   4  1   
  4   4   5  1   
  5   4   6  1   
  6   4  26  1   
  7   5   7  1   
  8   5   8  1   
  9   5  27  1   
 10   6   9  1   
 11   6  28  1   
 12   6  29  1   
 13   7   9  1   
 14   7  30  1   
 15   7  31  1   
 16   8  10  1   
 17   8  32  1   
 18   8  33  1   
 19   9  11  1   
 20   9  34  1   
 21  10  12  ar  
 22  10  13  ar  
 23  11  35  1   
 24  12  14  ar  
 25  12  36  1   
 26  13  15  ar  
 27  13  37  1   
 28  14  16  1   
 29  14  17  ar  
 30  15  17  ar  
 31  15  38  1   
 32  16  18  1   
 33  17  39  1   
 34  18  19  1   
 35  18  40  1   
 36  18  41  1   
 37  19  20  1   
 38  19  42  1   
 39  19  43  1   
 40  20  21  1   
 41  20  22  1   
 42  20  44  1   
 43  21  23  1   
 44  21  45  1   
 45  21  46  1   
 46  22  24  1   
 47  22  47  1   
 48  22  48  1   
 49  23  25  1   
 50  23  49  1   
 51  23  50  1   
 52  24  25  1   
 53  24  51  1   
 54  24  52  1   
 55  25  53  1   
 56  25  54  1   
@<TRIPOS>SUBSTRUCTURE
  1 ****  12 GROUP 4 **** **** 0

# MOE 2024.06 (io_trps.svl 2023.06)
