@<TRIPOS>MOLECULE
NONAME
49 53 1 0 0 
SMALL
USER_CHARGES


@<TRIPOS>ATOM
  1 S       -0.8530     0.0620     1.4190 S.3   1 <1>  -0.0800 
  2 C       -2.2110    -0.3370     0.3880 C.ar  1 <1>   0.0400 
  3 C       -0.6970     1.6020     0.5830 C.2   1 <1>   0.2280 
  4 C       -2.4090     0.7190    -0.4820 C.ar  1 <1>   0.2270 
  5 C       -2.9870    -1.4780     0.3910 C.ar  1 <1>  -0.1500 
  6 N       -1.5440     1.7990    -0.3450 N.2   1 <1>  -0.5650 
  7 C       -3.4370     0.6160    -1.4060 C.ar  1 <1>  -0.1500 
  8 C       -4.0360    -1.5780    -0.5210 C.ar  1 <1>   0.0860 
  9 C       -4.2320    -0.5180    -1.4210 C.ar  1 <1>  -0.1500 
 10 C       -4.9020    -2.7400    -0.5330 C.2   1 <1>   0.5440 
 11 O       -4.4220    -3.8560    -0.5750 O.2   1 <1>  -0.5700 
 12 N       -6.2700    -2.6080    -0.4760 N.am  1 <1>  -0.6600 
 13 C       -7.1880    -3.7750    -0.5700 C.3   1 <1>   0.1400 
 14 C       -6.9820    -1.4350     0.0760 C.3   1 <1>   0.1400 
 15 C       -8.5000    -3.3010     0.0540 C.3   1 <1>   0.2800 
 16 C       -8.2040    -2.0120     0.8150 C.3   1 <1>  -0.0800 
 17 O       -9.4200    -2.8340    -0.8680 O.3   1 <1>  -0.5600 
 18 C       -9.3450    -4.2750     0.8730 C.3   1 <1>  -0.1600 
 19 C       -9.5750    -1.2880     0.7410 C.3   1 <1>  -0.0800 
 20 C      -10.3890    -2.3410    -0.0310 C.3   1 <1>   0.2000 
 21 C      -10.7010    -3.5670     0.8390 C.3   1 <1>  -0.1600 
 22 C       -9.5280     0.0490    -0.0160 C.3   1 <1>   0.3430 
 23 N      -10.6630     0.9660     0.3310 N.4   1 <1>  -0.9590 
 24 C      -11.9820     0.5180    -0.2170 C.3   1 <1>   0.2630 
 25 C      -10.3640     2.3490    -0.1570 C.3   1 <1>   0.2630 
 26 H        0.0920     2.2530     0.9170 H     1 <1>   0.1500 
 27 H       -2.7890    -2.2780     1.0840 H     1 <1>   0.1500 
 28 H       -3.5930     1.4230    -2.1000 H     1 <1>   0.1500 
 29 H       -5.0210    -0.6020    -2.1480 H     1 <1>   0.1500 
 30 H       -7.3280    -4.0750    -1.5930 H     1 <1>   0.0800 
 31 H       -6.7800    -4.5950    -0.0040 H     1 <1>   0.0800 
 32 H       -6.3500    -0.8760     0.7450 H     1 <1>   0.0800 
 33 H       -7.2660    -0.8190    -0.7570 H     1 <1>   0.0800 
 34 H       -7.9240    -2.2380     1.8300 H     1 <1>   0.0800 
 35 H       -9.3950    -5.2290     0.3770 H     1 <1>   0.0800 
 36 H       -8.9620    -4.4070     1.8690 H     1 <1>   0.0800 
 37 H       -9.9670    -1.1390     1.7310 H     1 <1>   0.0800 
 38 H      -11.2290    -1.9850    -0.5980 H     1 <1>   0.0800 
 39 H      -11.0520    -3.2950     1.8190 H     1 <1>   0.0800 
 40 H      -11.4390    -4.1850     0.3560 H     1 <1>   0.0800 
 41 H       -9.5060    -0.1410    -1.0790 H     1 <1>   0.0800 
 42 H       -8.6080     0.5450     0.2460 H     1 <1>   0.0800 
 43 H      -10.7380     1.0080     1.3600 H     1 <1>   0.4500 
 44 H      -11.9200     0.3890    -1.2860 H     1 <1>   0.0800 
 45 H      -12.7450     1.2490    -0.0030 H     1 <1>   0.0800 
 46 H      -12.2770    -0.4170     0.2290 H     1 <1>   0.0800 
 47 H      -10.2690     2.3560    -1.2310 H     1 <1>   0.0800 
 48 H       -9.4430     2.7090     0.2730 H     1 <1>   0.0800 
 49 H      -11.1570     3.0250     0.1230 H     1 <1>   0.0800 
@<TRIPOS>BOND
  1   1   2  1   
  2   1   3  1   
  3   2   4  ar  
  4   2   5  ar  
  5   3   6  2   
  6   3  26  1   
  7   4   6  1   
  8   4   7  ar  
  9   5   8  ar  
 10   5  27  1   
 11   7   9  ar  
 12   7  28  1   
 13   8   9  ar  
 14   8  10  1   
 15   9  29  1   
 16  10  11  2   
 17  10  12  am  
 18  12  13  1   
 19  12  14  1   
 20  13  15  1   
 21  13  30  1   
 22  13  31  1   
 23  14  16  1   
 24  14  32  1   
 25  14  33  1   
 26  15  16  1   
 27  15  17  1   
 28  15  18  1   
 29  16  19  1   
 30  16  34  1   
 31  17  20  1   
 32  18  21  1   
 33  18  35  1   
 34  18  36  1   
 35  19  20  1   
 36  19  22  1   
 37  19  37  1   
 38  20  21  1   
 39  20  38  1   
 40  21  39  1   
 41  21  40  1   
 42  22  23  1   
 43  22  41  1   
 44  22  42  1   
 45  23  24  1   
 46  23  25  1   
 47  23  43  1   
 48  24  44  1   
 49  24  45  1   
 50  24  46  1   
 51  25  47  1   
 52  25  48  1   
 53  25  49  1   
@<TRIPOS>SUBSTRUCTURE
  1 ****  14 GROUP 4 **** **** 0

# MOE 2024.06 (io_trps.svl 2023.06)
