@<TRIPOS>MOLECULE
NONAME
49 51 1 0 0 
SMALL
USER_CHARGES


@<TRIPOS>ATOM
  1 F       -0.8410    -0.7010     0.6120 F     1 <1>  -0.1900 
  2 C       -1.8440     0.0100     0.1750 C.ar  1 <1>   0.1900 
  3 C       -3.1170    -0.3090     0.5540 C.ar  1 <1>  -0.1500 
  4 C       -1.5630     1.0800    -0.6740 C.ar  1 <1>  -0.1500 
  5 C       -4.2060     0.4560     0.0820 C.ar  1 <1>   0.0000 
  6 C       -2.6100     1.8310    -1.1390 C.ar  1 <1>  -0.1500 
  7 C       -3.9410     1.5460    -0.7820 C.ar  1 <1>   0.3100 
  8 C       -5.5550     0.1900     0.4190 C.ar  1 <1>   0.0860 
  9 N       -4.9150     2.3340    -1.2930 N.ar  1 <1>  -0.6200 
 10 C       -5.9230    -0.9070     1.2840 C.2   1 <1>   0.5440 
 11 C       -6.5030     1.0210    -0.1210 C.ar  1 <1>  -0.1500 
 12 C       -6.1410     2.0690    -0.9680 C.ar  1 <1>   0.1660 
 13 O       -5.6030    -0.8650     2.4580 O.2   1 <1>  -0.5700 
 14 N       -6.6320    -1.9890     0.8110 N.am  1 <1>  -0.6600 
 15 C       -7.2160     2.9610    -1.5530 C.3   1 <1>  -0.0970 
 16 C       -6.9760    -2.2100    -0.6290 C.3   1 <1>   0.1400 
 17 C       -7.1640    -3.0570     1.7060 C.3   1 <1>   0.1400 
 18 C       -8.5040    -2.2650    -0.7840 C.3   1 <1>   0.2000 
 19 C       -8.6900    -3.1410     1.5470 C.3   1 <1>  -0.1600 
 20 O       -8.8090    -2.4420    -2.1220 O.3   1 <1>  -0.6800 
 21 C       -9.1220    -3.4020     0.0730 C.3   1 <1>  -0.1060 
 22 C       -8.5770    -4.7660    -0.4160 C.2   1 <1>   0.9060 
 23 C      -10.6740    -3.4480    -0.0330 C.3   1 <1>  -0.1600 
 24 O       -8.3990    -4.9440    -1.6320 O.co2 1 <1>  -0.9000 
 25 O       -8.3290    -5.6600     0.4010 O.co2 1 <1>  -0.9000 
 26 C      -11.4290    -2.1510     0.3160 C.3   1 <1>  -0.1600 
 27 C      -12.9400    -2.3490     0.1710 C.3   1 <1>  -0.2400 
 28 H       -3.2840    -1.1420     1.2150 H     1 <1>   0.1500 
 29 H       -0.5430     1.2910    -0.9410 H     1 <1>   0.1500 
 30 H       -2.4420     2.6670    -1.7950 H     1 <1>   0.1500 
 31 H       -7.5400     0.8610     0.1090 H     1 <1>   0.1500 
 32 H       -8.1970     2.5740    -1.3490 H     1 <1>   0.0800 
 33 H       -7.0860     3.0270    -2.6180 H     1 <1>   0.0800 
 34 H       -7.1320     3.9460    -1.1340 H     1 <1>   0.0800 
 35 H       -6.5840    -1.4270    -1.2500 H     1 <1>   0.0800 
 36 H       -6.5420    -3.1410    -0.9510 H     1 <1>   0.0800 
 37 H       -6.7100    -3.9990     1.4450 H     1 <1>   0.0800 
 38 H       -6.9230    -2.8500     2.7340 H     1 <1>   0.0800 
 39 H       -8.9050    -1.3120    -0.4950 H     1 <1>   0.0800 
 40 H       -9.0560    -3.9360     2.1740 H     1 <1>   0.0800 
 41 H       -9.1060    -2.2220     1.9120 H     1 <1>   0.0800 
 42 H       -8.6890    -3.4290    -2.2820 H     1 <1>   0.4000 
 43 H      -10.9300    -3.7260    -1.0420 H     1 <1>   0.0800 
 44 H      -11.0270    -4.2420     0.6030 H     1 <1>   0.0800 
 45 H      -11.2170    -1.8530     1.3270 H     1 <1>   0.0800 
 46 H      -11.1220    -1.3600    -0.3450 H     1 <1>   0.0800 
 47 H      -13.2810    -3.1250     0.8340 H     1 <1>   0.0800 
 48 H      -13.1840    -2.6250    -0.8400 H     1 <1>   0.0800 
 49 H      -13.4570    -1.4380     0.4130 H     1 <1>   0.0800 
@<TRIPOS>BOND
  1   1   2  1   
  2   2   3  ar  
  3   2   4  ar  
  4   3   5  ar  
  5   3  28  1   
  6   4   6  ar  
  7   4  29  1   
  8   5   7  ar  
  9   5   8  ar  
 10   6   7  ar  
 11   6  30  1   
 12   7   9  ar  
 13   8  10  1   
 14   8  11  ar  
 15   9  12  ar  
 16  10  13  2   
 17  10  14  am  
 18  11  12  ar  
 19  11  31  1   
 20  12  15  1   
 21  14  16  1   
 22  14  17  1   
 23  15  32  1   
 24  15  33  1   
 25  15  34  1   
 26  16  18  1   
 27  16  35  1   
 28  16  36  1   
 29  17  19  1   
 30  17  37  1   
 31  17  38  1   
 32  18  20  1   
 33  18  21  1   
 34  18  39  1   
 35  19  21  1   
 36  19  40  1   
 37  19  41  1   
 38  20  42  1   
 39  21  22  1   
 40  21  23  1   
 41  22  24  ar  
 42  22  25  ar  
 43  23  26  1   
 44  23  43  1   
 45  23  44  1   
 46  26  27  1   
 47  26  45  1   
 48  26  46  1   
 49  27  47  1   
 50  27  48  1   
 51  27  49  1   
@<TRIPOS>SUBSTRUCTURE
  1 ****  14 GROUP 4 **** **** 0

# MOE 2024.06 (io_trps.svl 2023.06)
