@<TRIPOS>MOLECULE
NONAME
36 37 1 0 0 
SMALL
USER_CHARGES


@<TRIPOS>ATOM
  1 O        1.2870     0.5150     1.5690 O.co2 1 <1>  -0.9000 
  2 C        2.3480     0.7850     0.9970 C.2   1 <1>   0.9060 
  3 O        3.2400    -0.0540     0.8280 O.co2 1 <1>  -0.9000 
  4 C        2.5550     2.1900     0.4530 C.3   1 <1>  -0.1860 
  5 C        4.0280     2.5720     0.3990 C.3   1 <1>   0.1100 
  6 C        1.9160     3.3250     1.2650 C.3   1 <1>  -0.1600 
  7 N        4.0610     4.0410     0.4400 N.3   1 <1>  -0.8100 
  8 C        2.9970     4.3960     1.3910 C.3   1 <1>   0.1100 
  9 C        3.7890     4.6150    -0.9170 C.3   1 <1>   0.1710 
 10 C        4.1600     6.0940    -1.0270 C.2   1 <1>   0.5690 
 11 O        3.7320     6.7540    -1.9490 O.2   1 <1>  -0.5700 
 12 N        4.9720     6.5750    -0.0500 N.am  1 <1>  -0.4930 
 13 C        5.4930     7.8720     0.1750 C.2   1 <1>   0.0630 
 14 C        6.2990     8.2820     1.2380 C.2   1 <1>   0.1080 
 15 C        5.3300     8.9830    -0.5700 C.2   1 <1>  -0.3020 
 16 N        6.6110     9.5390     1.1650 N.2   1 <1>  -0.7070 
 17 C        6.7720     7.3910     2.3650 C.3   1 <1>  -0.0590 
 18 N        6.0100     9.9730     0.0430 N.pl3 1 <1>   0.3140 
 19 C        6.1200    11.3620    -0.4110 C.3   1 <1>   0.0160 
 20 H        2.1600     2.1950    -0.5440 H     1 <1>   0.0800 
 21 H        4.5150     2.1680    -0.4720 H     1 <1>   0.0800 
 22 H        4.5260     2.1870     1.2740 H     1 <1>   0.0800 
 23 H        1.6220     2.9880     2.2450 H     1 <1>   0.0800 
 24 H        1.0460     3.7050     0.7610 H     1 <1>   0.0800 
 25 H        3.4060     4.3610     2.3870 H     1 <1>   0.0800 
 26 H        2.6050     5.3840     1.2130 H     1 <1>   0.0800 
 27 H        2.7520     4.4940    -1.1770 H     1 <1>   0.0800 
 28 H        4.3760     4.0890    -1.6480 H     1 <1>   0.0800 
 29 H        5.1820     5.8540     0.6490 H     1 <1>   0.3700 
 30 H        4.7780     9.1110    -1.4820 H     1 <1>   0.1500 
 31 H        7.2730     6.5300     1.9630 H     1 <1>   0.0800 
 32 H        5.9310     7.0740     2.9540 H     1 <1>   0.0800 
 33 H        7.4560     7.9320     2.9940 H     1 <1>   0.0800 
 34 H        5.1450    11.7260    -0.6750 H     1 <1>   0.0800 
 35 H        6.7710    11.4010    -1.2630 H     1 <1>   0.0800 
 36 H        6.5270    11.9600     0.3830 H     1 <1>   0.0800 
@<TRIPOS>BOND
  1   1   2  ar  
  2   2   3  ar  
  3   2   4  1   
  4   4   5  1   
  5   4   6  1   
  6   4  20  1   
  7   5   7  1   
  8   5  21  1   
  9   5  22  1   
 10   6   8  1   
 11   6  23  1   
 12   6  24  1   
 13   7   8  1   
 14   7   9  1   
 15   8  25  1   
 16   8  26  1   
 17   9  10  1   
 18   9  27  1   
 19   9  28  1   
 20  10  11  2   
 21  10  12  am  
 22  12  13  1   
 23  12  29  1   
 24  13  14  1   
 25  13  15  2   
 26  14  16  2   
 27  14  17  1   
 28  15  18  1   
 29  15  30  1   
 30  16  18  1   
 31  17  31  1   
 32  17  32  1   
 33  17  33  1   
 34  18  19  1   
 35  19  34  1   
 36  19  35  1   
 37  19  36  1   
@<TRIPOS>SUBSTRUCTURE
  1 ****  12 GROUP 4 **** **** 0

# MOE 2024.06 (io_trps.svl 2023.06)
