@<TRIPOS>MOLECULE
NONAME
52 54 1 0 0 
SMALL
USER_CHARGES


@<TRIPOS>ATOM
  1 O       -0.8980    -0.3150    -0.3900 O.2   1 <1>  -0.5700 
  2 C       -1.5170     0.5100    -1.0400 C.2   1 <1>   0.7160 
  3 N       -2.6900     0.0910    -1.6330 N.am  1 <1>  -0.6600 
  4 C       -1.0650     1.8760    -1.1470 C.2   1 <1>  -0.0860 
  5 C       -2.9470    -1.3640    -1.7890 C.3   1 <1>   0.1400 
  6 C       -3.9280     0.9080    -1.5120 C.3   1 <1>   0.1400 
  7 C       -0.3940     2.6950    -0.2850 C.2   1 <1>  -0.3320 
  8 C       -1.2530     2.6840    -2.2710 C.2   1 <1>   0.1390 
  9 C       -3.6910    -1.8730    -0.5340 C.3   1 <1>   0.4230 
 10 C       -4.7000     0.4260    -0.2750 C.3   1 <1>  -0.1600 
 11 N       -0.2340     3.8860    -0.8980 N.pl3 1 <1>   0.3140 
 12 C        0.1090     2.3840     1.1180 C.3   1 <1>  -0.0600 
 13 N       -0.7740     3.8760    -2.1290 N.2   1 <1>  -0.7070 
 14 N       -3.8300    -3.3880    -0.4680 N.4   1 <1>  -0.9590 
 15 C       -5.0220    -1.0980    -0.2900 C.3   1 <1>   0.0000 
 16 C        0.4330     5.0990    -0.3770 C.3   1 <1>   0.0960 
 17 C       -4.8760    -3.8640     0.4950 C.3   1 <1>   0.3430 
 18 C       -3.9930    -4.0830    -1.7870 C.3   1 <1>   0.2630 
 19 C       -5.6010    -1.4990     1.1000 C.3   1 <1>  -0.1600 
 20 C       -6.0450    -1.4230    -1.4170 C.3   1 <1>   0.1200 
 21 C       -0.5560     5.9940     0.3800 C.3   1 <1>  -0.2400 
 22 C       -5.0850    -2.8540     1.6220 C.3   1 <1>  -0.1600 
 23 O       -7.1570    -0.6010    -1.3530 O.3   1 <1>  -0.6800 
 24 H       -3.5200    -1.5190    -2.6840 H     1 <1>   0.0800 
 25 H       -2.0090    -1.8820    -1.8930 H     1 <1>   0.0800 
 26 H       -3.6890     1.9530    -1.3990 H     1 <1>   0.0800 
 27 H       -4.5260     0.8020    -2.4020 H     1 <1>   0.0800 
 28 H       -1.7460     2.3550    -3.1700 H     1 <1>   0.1500 
 29 H       -3.0530    -1.5980     0.2910 H     1 <1>   0.0800 
 30 H       -4.0990     0.6640     0.5860 H     1 <1>   0.0800 
 31 H       -5.6020     1.0070    -0.1850 H     1 <1>   0.0800 
 32 H       -0.1770     1.3920     1.4170 H     1 <1>   0.0800 
 33 H       -0.3030     3.0800     1.8270 H     1 <1>   0.0800 
 34 H        1.1820     2.4460     1.1480 H     1 <1>   0.0800 
 35 H       -2.9270    -3.7010    -0.0780 H     1 <1>   0.4500 
 36 H        1.2400     4.8020     0.2660 H     1 <1>   0.0800 
 37 H        0.8450     5.6360    -1.2120 H     1 <1>   0.0800 
 38 H       -5.8130    -3.9980    -0.0200 H     1 <1>   0.0800 
 39 H       -4.5860    -4.8180     0.9080 H     1 <1>   0.0800 
 40 H       -4.8990    -3.7630    -2.2740 H     1 <1>   0.0800 
 41 H       -4.0400    -5.1510    -1.6430 H     1 <1>   0.0800 
 42 H       -3.1570    -3.8690    -2.4340 H     1 <1>   0.0800 
 43 H       -5.3550    -0.7570     1.8420 H     1 <1>   0.0800 
 44 H       -6.6760    -1.5290     1.0580 H     1 <1>   0.0800 
 45 H       -6.3930    -2.4380    -1.3540 H     1 <1>   0.0800 
 46 H       -5.6170    -1.2710    -2.3910 H     1 <1>   0.0800 
 47 H       -0.9730     5.4690     1.2210 H     1 <1>   0.0800 
 48 H       -1.3510     6.2990    -0.2780 H     1 <1>   0.0800 
 49 H       -0.0530     6.8730     0.7380 H     1 <1>   0.0800 
 50 H       -5.7940    -3.2520     2.3280 H     1 <1>   0.0800 
 51 H       -4.1570    -2.7190     2.1510 H     1 <1>   0.0800 
 52 H       -7.6500    -0.7060    -0.5150 H     1 <1>   0.4000 
@<TRIPOS>BOND
  1   1   2  2   
  2   2   3  am  
  3   2   4  1   
  4   3   5  1   
  5   3   6  1   
  6   4   7  2   
  7   4   8  1   
  8   5   9  1   
  9   5  24  1   
 10   5  25  1   
 11   6  10  1   
 12   6  26  1   
 13   6  27  1   
 14   7  11  1   
 15   7  12  1   
 16   8  13  2   
 17   8  28  1   
 18   9  14  1   
 19   9  15  1   
 20   9  29  1   
 21  10  15  1   
 22  10  30  1   
 23  10  31  1   
 24  11  13  1   
 25  11  16  1   
 26  12  32  1   
 27  12  33  1   
 28  12  34  1   
 29  14  17  1   
 30  14  18  1   
 31  14  35  1   
 32  15  19  1   
 33  15  20  1   
 34  16  21  1   
 35  16  36  1   
 36  16  37  1   
 37  17  22  1   
 38  17  38  1   
 39  17  39  1   
 40  18  40  1   
 41  18  41  1   
 42  18  42  1   
 43  19  22  1   
 44  19  43  1   
 45  19  44  1   
 46  20  23  1   
 47  20  45  1   
 48  20  46  1   
 49  21  47  1   
 50  21  48  1   
 51  21  49  1   
 52  22  50  1   
 53  22  51  1   
 54  23  52  1   
@<TRIPOS>SUBSTRUCTURE
  1 ****   3 GROUP 4 **** **** 0

# MOE 2024.06 (io_trps.svl 2023.06)
