@<TRIPOS>MOLECULE
NONAME
46 49 1 0 0 
SMALL
USER_CHARGES


@<TRIPOS>ATOM
  1 O       -3.8380     2.2040    -1.5470 O.2   1 <1>  -0.5700 
  2 C       -2.7360     1.8750    -1.1730 C.2   1 <1>   0.6300 
  3 N       -2.3170     0.5890    -1.2700 N.am  1 <1>  -0.7300 
  4 C       -1.7770     2.9080    -0.5640 C.3   1 <1>   0.0320 
  5 C       -3.1240    -0.5470    -1.7580 C.3   1 <1>   0.2200 
  6 C       -0.7900     2.2840     0.4160 C.ar  1 <1>  -0.0320 
  7 C       -2.2410     4.3100    -0.2750 C.3   1 <1>  -0.2000 
  8 C       -1.3120     4.0560    -1.4180 C.3   1 <1>  -0.2000 
  9 C       -3.5370    -1.4010    -0.5730 C.3   1 <1>  -0.0800 
 10 C       -2.2360    -1.5070    -2.5460 C.3   1 <1>   0.1200 
 11 C       -1.1520     2.0960     1.7410 C.ar  1 <1>  -0.1500 
 12 C        0.4640     1.8720    -0.0100 C.ar  1 <1>  -0.1500 
 13 C       -2.2940    -2.2700    -0.3680 C.3   1 <1>   0.1200 
 14 C       -4.7910    -2.2390    -0.8880 C.3   1 <1>  -0.0170 
 15 O       -1.6720    -2.3860    -1.6150 O.3   1 <1>  -0.5600 
 16 C       -0.2730     1.5030     2.6300 C.ar  1 <1>  -0.1500 
 17 C        1.3450     1.2780     0.8770 C.ar  1 <1>  -0.1500 
 18 C       -5.2160    -3.0760     0.3090 C.ar  1 <1>  -0.1440 
 19 C        0.9760     1.0930     2.1980 C.ar  1 <1>  -0.1500 
 20 C       -4.9880    -4.4350     0.3730 C.ar  1 <1>  -0.1500 
 21 C       -5.8560    -2.5140     1.3960 C.ar  1 <1>  -0.1500 
 22 C       -5.3940    -5.1470     1.4900 C.ar  1 <1>   0.1600 
 23 C       -6.2210    -3.3150     2.4650 C.ar  1 <1>   0.1600 
 24 N       -6.0040    -4.6190     2.5390 N.ar  1 <1>  -0.6200 
 25 H       -1.4040     0.3400    -0.8790 H     1 <1>   0.3700 
 26 H       -3.9580    -0.1910    -2.3400 H     1 <1>   0.0800 
 27 H       -3.2640     4.5710    -0.4890 H     1 <1>   0.1000 
 28 H       -1.8600     4.8140     0.5950 H     1 <1>   0.1000 
 29 H       -0.2960     4.3990    -1.3340 H     1 <1>   0.1000 
 30 H       -1.6990     4.1440    -2.4180 H     1 <1>   0.1000 
 31 H       -3.7330    -0.7960     0.2950 H     1 <1>   0.0800 
 32 H       -1.4540    -1.0000    -3.0830 H     1 <1>   0.0800 
 33 H       -2.8240    -2.0930    -3.2290 H     1 <1>   0.0800 
 34 H       -2.1240     2.4110     2.0800 H     1 <1>   0.1500 
 35 H        0.7570     2.0130    -1.0360 H     1 <1>   0.1500 
 36 H       -2.5160    -3.2530     0.0090 H     1 <1>   0.0800 
 37 H       -1.5990    -1.7840     0.2950 H     1 <1>   0.0800 
 38 H       -4.6080    -2.8830    -1.7300 H     1 <1>   0.0800 
 39 H       -5.6010    -1.5810    -1.1520 H     1 <1>   0.0800 
 40 H       -0.5600     1.3610     3.6580 H     1 <1>   0.1500 
 41 H        2.3170     0.9610     0.5400 H     1 <1>   0.1500 
 42 H        1.6610     0.6320     2.8880 H     1 <1>   0.1500 
 43 H       -4.4970    -4.9490    -0.4340 H     1 <1>   0.1500 
 44 H       -6.0730    -1.4620     1.4210 H     1 <1>   0.1500 
 45 H       -5.2070    -6.2060     1.5220 H     1 <1>   0.1500 
 46 H       -6.7180    -2.8600     3.3040 H     1 <1>   0.1500 
@<TRIPOS>BOND
  1   1   2  2   
  2   2   3  am  
  3   2   4  1   
  4   3   5  1   
  5   3  25  1   
  6   4   6  1   
  7   4   7  1   
  8   4   8  1   
  9   5   9  1   
 10   5  10  1   
 11   5  26  1   
 12   6  11  ar  
 13   6  12  ar  
 14   7   8  1   
 15   7  27  1   
 16   7  28  1   
 17   8  29  1   
 18   8  30  1   
 19   9  13  1   
 20   9  14  1   
 21   9  31  1   
 22  10  15  1   
 23  10  32  1   
 24  10  33  1   
 25  11  16  ar  
 26  11  34  1   
 27  12  17  ar  
 28  12  35  1   
 29  13  15  1   
 30  13  36  1   
 31  13  37  1   
 32  14  18  1   
 33  14  38  1   
 34  14  39  1   
 35  16  19  ar  
 36  16  40  1   
 37  17  19  ar  
 38  17  41  1   
 39  18  20  ar  
 40  18  21  ar  
 41  19  42  1   
 42  20  22  ar  
 43  20  43  1   
 44  21  23  ar  
 45  21  44  1   
 46  22  24  ar  
 47  22  45  1   
 48  23  24  ar  
 49  23  46  1   
@<TRIPOS>SUBSTRUCTURE
  1 ****   9 GROUP 4 **** **** 0

# MOE 2024.06 (io_trps.svl 2023.06)
