@<TRIPOS>MOLECULE
Untitled Document
55 59 1 0 0 
SMALL
USER_CHARGES


@<TRIPOS>ATOM
  1 O        0.6030     0.4430     0.4670 O.2   1 <1>  -0.5700 
  2 C        1.5960    -0.2600     0.4630 C.2   1 <1>   0.6160 
  3 N        2.8640     0.2140     0.1270 N.am  1 <1>  -0.4770 
  4 C        1.4420    -1.6240     0.8440 C.2   1 <1>  -0.1360 
  5 C        3.9770    -0.6230     0.3200 C.ar  1 <1>   0.4270 
  6 C        3.1260     1.5960    -0.4420 C.3   1 <1>   0.2200 
  7 C        2.4960    -2.4560     0.9720 C.2   1 <1>  -0.1780 
  8 N        5.1950    -0.1370     0.1160 N.ar  1 <1>  -0.6200 
  9 C        3.8040    -1.9520     0.7280 C.ar  1 <1>   0.0280 
 10 C        3.5070     2.6550     0.6180 C.3   1 <1>  -0.0800 
 11 C        2.0540     2.3230    -1.2880 C.3   1 <1>  -0.1600 
 12 C        6.2100    -0.9500     0.3060 C.ar  1 <1>   0.7200 
 13 C        4.9540    -2.7070     0.8800 C.ar  1 <1>   0.1600 
 14 C        3.4420     3.9260    -0.2170 C.3   1 <1>  -0.1600 
 15 C        2.3470     2.9050     1.5980 C.3   1 <1>  -0.1600 
 16 C        1.9980     3.7220    -0.6440 C.3   1 <1>  -0.0800 
 17 N        6.1460    -2.2290     0.6750 N.ar  1 <1>  -0.6200 
 18 N        7.4270    -0.3880     0.0690 N.pl3 1 <1>  -0.6000 
 19 C        1.2980     3.6100     0.7200 C.3   1 <1>  -0.1600 
 20 C        8.7320    -0.8790     0.2050 C.ar  1 <1>   0.1000 
 21 C        9.6940    -0.5110    -0.7280 C.ar  1 <1>  -0.1500 
 22 C        9.1100    -1.7060     1.2560 C.ar  1 <1>  -0.1500 
 23 C       10.9980    -0.9650    -0.6270 C.ar  1 <1>  -0.1500 
 24 C       10.4100    -2.1650     1.3630 C.ar  1 <1>  -0.1500 
 25 C       11.3610    -1.8030     0.4240 C.ar  1 <1>   0.0830 
 26 O       12.6130    -2.3050     0.5990 O.3   1 <1>  -0.3630 
 27 C       13.6090    -2.1190    -0.3720 C.3   1 <1>   0.1200 
 28 C       14.8410    -2.8970     0.1010 C.3   1 <1>   0.3430 
 29 N       15.9790    -2.7860    -0.8590 N.4   1 <1>  -0.8530 
 30 H        0.4330    -1.9430     1.0270 H     1 <1>   0.1500 
 31 H        3.9670     1.5120    -1.1080 H     1 <1>   0.0800 
 32 H        2.3810    -3.4880     1.2600 H     1 <1>   0.1500 
 33 H        4.4590     2.4790     1.0860 H     1 <1>   0.0800 
 34 H        1.0890     1.8620    -1.3240 H     1 <1>   0.0800 
 35 H        2.4110     2.4160    -2.2980 H     1 <1>   0.0800 
 36 H        4.8700    -3.7360     1.1830 H     1 <1>   0.1500 
 37 H        4.1290     3.9210    -1.0480 H     1 <1>   0.0800 
 38 H        3.5810     4.8200     0.3690 H     1 <1>   0.0800 
 39 H        2.6670     3.5620     2.3880 H     1 <1>   0.0800 
 40 H        1.9720     1.9990     2.0380 H     1 <1>   0.0800 
 41 H        1.5900     4.4860    -1.2840 H     1 <1>   0.0800 
 42 H        7.3270     0.5410    -0.3280 H     1 <1>   0.4000 
 43 H        1.0810     4.5880     1.1130 H     1 <1>   0.0800 
 44 H        0.3820     3.0480     0.6550 H     1 <1>   0.0800 
 45 H        9.4150     0.1310    -1.5430 H     1 <1>   0.1500 
 46 H        8.3830    -1.9920     1.9940 H     1 <1>   0.1500 
 47 H       11.7020    -0.6530    -1.3730 H     1 <1>   0.1500 
 48 H       10.6850    -2.8070     2.1800 H     1 <1>   0.1500 
 49 H       13.8130    -1.0650    -0.4400 H     1 <1>   0.0800 
 50 H       13.2380    -2.5050    -1.3060 H     1 <1>   0.0800 
 51 H       14.5670    -3.9340     0.2190 H     1 <1>   0.0800 
 52 H       15.1400    -2.5140     1.0640 H     1 <1>   0.0800 
 53 H       15.7290    -3.1620    -1.7820 H     1 <1>   0.4500 
 54 H       16.7890    -3.3190    -0.5180 H     1 <1>   0.4500 
 55 H       16.2780    -1.8100    -0.9750 H     1 <1>   0.4500 
@<TRIPOS>BOND
  1   1   2  2   
  2   2   3  am  
  3   2   4  1   
  4   3   5  1   
  5   3   6  1   
  6   4   7  2   
  7   4  30  1   
  8   5   8  ar  
  9   5   9  ar  
 10   6  10  1   
 11   6  11  1   
 12   6  31  1   
 13   7   9  1   
 14   7  32  1   
 15   8  12  ar  
 16   9  13  ar  
 17  10  14  1   
 18  10  15  1   
 19  10  33  1   
 20  11  16  1   
 21  11  34  1   
 22  11  35  1   
 23  12  17  ar  
 24  12  18  1   
 25  13  17  ar  
 26  13  36  1   
 27  14  16  1   
 28  14  37  1   
 29  14  38  1   
 30  15  19  1   
 31  15  39  1   
 32  15  40  1   
 33  16  19  1   
 34  16  41  1   
 35  18  20  1   
 36  18  42  1   
 37  19  43  1   
 38  19  44  1   
 39  20  21  ar  
 40  20  22  ar  
 41  21  23  ar  
 42  21  45  1   
 43  22  24  ar  
 44  22  46  1   
 45  23  25  ar  
 46  23  47  1   
 47  24  25  ar  
 48  24  48  1   
 49  25  26  1   
 50  26  27  1   
 51  27  28  1   
 52  27  49  1   
 53  27  50  1   
 54  28  29  1   
 55  28  51  1   
 56  28  52  1   
 57  29  53  1   
 58  29  54  1   
 59  29  55  1   
@<TRIPOS>SUBSTRUCTURE
  1 ****  12 GROUP 4 **** **** 0

# MOE 2024.06 (io_trps.svl 2023.06)
