@<TRIPOS>MOLECULE
NONAME
47 50 1 0 0 
SMALL
USER_CHARGES


@<TRIPOS>ATOM
  1 S        0.2400     3.3460     1.2110 S.3   1 <1>  -0.0800 
  2 C        1.7550     2.4570     1.0140 C.2   1 <1>  -0.0450 
  3 C       -0.6880     2.0880     0.4240 C.2   1 <1>  -0.1100 
  4 C        2.9750     3.0480     1.5070 C.2   1 <1>   0.7150 
  5 C        1.4850     1.2820     0.3860 C.2   1 <1>  -0.1500 
  6 C        0.1150     1.0750     0.0520 C.2   1 <1>  -0.1500 
  7 O        2.9570     3.7840     2.4770 O.2   1 <1>  -0.5700 
  8 N        4.1870     2.8010     0.8960 N.am  1 <1>  -0.6600 
  9 C        4.3260     2.6420    -0.5850 C.3   1 <1>   0.1400 
 10 C        5.4800     3.1440     1.5710 C.3   1 <1>   0.1400 
 11 C        4.9810     3.8840    -1.2190 C.3   1 <1>   0.2090 
 12 C        6.1170     4.3920     0.9400 C.3   1 <1>   0.2090 
 13 N        6.2680     4.2300    -0.5430 N.pl3 1 <1>  -0.8380 
 14 C        7.1410     5.0680    -1.2190 C.ar  1 <1>   0.4100 
 15 N        7.3120     6.2770    -0.7160 N.ar  1 <1>  -0.6200 
 16 C        7.7920     4.6390    -2.3860 C.ar  1 <1>   0.1600 
 17 C        8.1490     7.0570    -1.4220 C.ar  1 <1>   0.3960 
 18 N        8.6140     5.3720    -3.1070 N.ar  1 <1>  -0.6200 
 19 C        8.4470     8.4300    -1.0030 C.2   1 <1>   0.5440 
 20 C        8.7700     6.5810    -2.5830 C.ar  1 <1>   0.1600 
 21 O        9.5040     8.9360    -1.3460 O.2   1 <1>  -0.5700 
 22 N        7.5930     9.2210    -0.2520 N.am  1 <1>  -0.6600 
 23 C        6.2160     8.8760     0.1690 C.3   1 <1>   0.1400 
 24 C        7.9490    10.5900     0.1830 C.3   1 <1>   0.1400 
 25 C        5.6150    10.1910     0.6500 C.3   1 <1>  -0.1600 
 26 C        6.8140    11.0180     1.1050 C.3   1 <1>  -0.1600 
 27 H       -1.7480     2.2410     0.3240 H     1 <1>   0.1500 
 28 H        2.2240     0.5360     0.1500 H     1 <1>   0.1500 
 29 H       -0.2090     0.1790    -0.4480 H     1 <1>   0.1500 
 30 H        3.3660     2.4910    -1.0450 H     1 <1>   0.0800 
 31 H        4.9340     1.7790    -0.7900 H     1 <1>   0.0800 
 32 H        6.1590     2.3170     1.4720 H     1 <1>   0.0800 
 33 H        5.3240     3.3160     2.6220 H     1 <1>   0.0800 
 34 H        4.3060     4.7190    -1.1370 H     1 <1>   0.0800 
 35 H        5.1530     3.7000    -2.2650 H     1 <1>   0.0800 
 36 H        7.0820     4.5630     1.3840 H     1 <1>   0.0800 
 37 H        5.4990     5.2490     1.1480 H     1 <1>   0.0800 
 38 H        7.6050     3.6340    -2.7130 H     1 <1>   0.1500 
 39 H        9.4350     7.2450    -3.1080 H     1 <1>   0.1500 
 40 H        6.2640     8.1680     0.9790 H     1 <1>   0.0800 
 41 H        5.6520     8.4580    -0.6470 H     1 <1>   0.0800 
 42 H        7.9990    11.2290    -0.6830 H     1 <1>   0.0800 
 43 H        8.9000    10.5950     0.6890 H     1 <1>   0.0800 
 44 H        4.8970    10.0390     1.4360 H     1 <1>   0.0800 
 45 H        5.1290    10.6770    -0.1790 H     1 <1>   0.0800 
 46 H        6.6310    12.0760     1.0480 H     1 <1>   0.0800 
 47 H        7.0730    10.7600     2.1170 H     1 <1>   0.0800 
@<TRIPOS>BOND
  1   1   2  1   
  2   1   3  1   
  3   2   4  1   
  4   2   5  2   
  5   3   6  2   
  6   3  27  1   
  7   4   7  2   
  8   4   8  am  
  9   5   6  1   
 10   5  28  1   
 11   6  29  1   
 12   8   9  1   
 13   8  10  1   
 14   9  11  1   
 15   9  30  1   
 16   9  31  1   
 17  10  12  1   
 18  10  32  1   
 19  10  33  1   
 20  11  13  1   
 21  11  34  1   
 22  11  35  1   
 23  12  13  1   
 24  12  36  1   
 25  12  37  1   
 26  13  14  1   
 27  14  15  ar  
 28  14  16  ar  
 29  15  17  ar  
 30  16  18  ar  
 31  16  38  1   
 32  17  19  1   
 33  17  20  ar  
 34  18  20  ar  
 35  19  21  2   
 36  19  22  am  
 37  20  39  1   
 38  22  23  1   
 39  22  24  1   
 40  23  25  1   
 41  23  40  1   
 42  23  41  1   
 43  24  26  1   
 44  24  42  1   
 45  24  43  1   
 46  25  26  1   
 47  25  44  1   
 48  25  45  1   
 49  26  46  1   
 50  26  47  1   
@<TRIPOS>SUBSTRUCTURE
  1 ****  13 GROUP 4 **** **** 0

# MOE 2024.06 (io_trps.svl 2023.06)
