@<TRIPOS>MOLECULE
NONAME
55 59 1 0 0 
SMALL
USER_CHARGES


@<TRIPOS>ATOM
  1 O       -0.4160    -2.3340    -2.1780 O.2   1 <1>  -0.5700 
  2 C        0.2630    -1.9810    -1.2440 C.2   1 <1>   0.5690 
  3 N        1.1470    -2.8280    -0.6290 N.am  1 <1>  -0.6600 
  4 C        0.0830    -0.5560    -0.7480 C.3   1 <1>  -0.0990 
  5 C        2.0670    -2.4170     0.4700 C.3   1 <1>   0.1400 
  6 C        1.3470    -4.2380    -1.1200 C.3   1 <1>   0.2010 
  7 C        1.2430    -0.0560     0.1220 C.3   1 <1>  -0.1600 
  8 C        1.6050    -1.1270     1.1530 C.3   1 <1>  -0.1600 
  9 C        1.0980    -5.3110    -0.0520 C.2   1 <1>   0.5690 
 10 O        2.0760    -5.8600     0.4040 O.2   1 <1>  -0.5700 
 11 N       -0.1700    -5.6370     0.3730 N.am  1 <1>  -0.6600 
 12 C       -1.4260    -5.0150    -0.1350 C.3   1 <1>   0.1400 
 13 C       -0.3980    -6.6240     1.4650 C.3   1 <1>   0.1400 
 14 C       -2.3510    -6.1120    -0.6620 C.3   1 <1>  -0.1600 
 15 C       -1.3170    -7.7370     0.9590 C.3   1 <1>  -0.1600 
 16 C       -2.6310    -7.1750     0.4080 C.3   1 <1>   0.4600 
 17 O       -3.2920    -6.5720     1.4990 O.3   1 <1>  -0.5600 
 18 C       -3.4980    -8.3000    -0.1450 C.2   1 <1>  -0.3320 
 19 C       -4.6810    -6.3640     1.4010 C.3   1 <1>   0.1200 
 20 N       -3.1390    -9.2080    -1.1030 N.pl3 1 <1>   0.0330 
 21 C       -4.7610    -8.5490     0.2510 C.2   1 <1>  -0.1810 
 22 C       -5.4370    -7.7000     1.2990 C.3   1 <1>   0.0210 
 23 C       -4.2030   -10.0530    -1.3070 C.ar  1 <1>  -0.1520 
 24 C       -5.2430    -9.6640    -0.4650 C.ar  1 <1>   0.0000 
 25 C       -4.3500   -11.1420    -2.1690 C.ar  1 <1>  -0.1500 
 26 C       -6.4480   -10.3730    -0.4810 C.ar  1 <1>  -0.1500 
 27 C       -5.5420   -11.8300    -2.1750 C.ar  1 <1>  -0.1500 
 28 C       -6.5910   -11.4460    -1.3300 C.ar  1 <1>  -0.1500 
 29 H       -0.8280    -0.5270    -0.1790 H     1 <1>   0.0800 
 30 H       -0.0390     0.0930    -1.5960 H     1 <1>   0.0800 
 31 H        3.0500    -2.2710     0.0550 H     1 <1>   0.0800 
 32 H        2.1310    -3.1990     1.2080 H     1 <1>   0.0800 
 33 H        2.3600    -4.3370    -1.4630 H     1 <1>   0.0800 
 34 H        0.7110    -4.4410    -1.9620 H     1 <1>   0.0800 
 35 H        0.9620     0.8590     0.6150 H     1 <1>   0.0800 
 36 H        2.0980     0.1460    -0.5010 H     1 <1>   0.0800 
 37 H        2.3910    -0.7670     1.7930 H     1 <1>   0.0800 
 38 H        0.7520    -1.3420     1.7740 H     1 <1>   0.0800 
 39 H       -1.2300    -4.3140    -0.9220 H     1 <1>   0.0800 
 40 H       -1.9060    -4.4850     0.6710 H     1 <1>   0.0800 
 41 H       -0.8540    -6.1240     2.3020 H     1 <1>   0.0800 
 42 H        0.5330    -7.0490     1.7990 H     1 <1>   0.0800 
 43 H       -1.8800    -6.5750    -1.5090 H     1 <1>   0.0800 
 44 H       -3.2720    -5.6830    -1.0090 H     1 <1>   0.0800 
 45 H       -1.5350    -8.4230     1.7560 H     1 <1>   0.0800 
 46 H       -0.8000    -8.2810     0.1910 H     1 <1>   0.0800 
 47 H       -4.8770    -5.7580     0.5350 H     1 <1>   0.0800 
 48 H       -4.9960    -5.8260     2.2770 H     1 <1>   0.0800 
 49 H       -2.2370    -9.2700    -1.5830 H     1 <1>   0.2700 
 50 H       -6.4600    -7.5190     1.0270 H     1 <1>   0.0800 
 51 H       -5.4150    -8.2080     2.2470 H     1 <1>   0.0800 
 52 H       -3.5400   -11.4320    -2.8140 H     1 <1>   0.1500 
 53 H       -7.2430   -10.0670     0.1730 H     1 <1>   0.1500 
 54 H       -5.6800   -12.6730    -2.8300 H     1 <1>   0.1500 
 55 H       -7.5120   -12.0010    -1.3540 H     1 <1>   0.1500 
@<TRIPOS>BOND
  1   1   2  2   
  2   2   3  am  
  3   2   4  1   
  4   3   5  1   
  5   3   6  1   
  6   4   7  1   
  7   4  29  1   
  8   4  30  1   
  9   5   8  1   
 10   5  31  1   
 11   5  32  1   
 12   6   9  1   
 13   6  33  1   
 14   6  34  1   
 15   7   8  1   
 16   7  35  1   
 17   7  36  1   
 18   8  37  1   
 19   8  38  1   
 20   9  10  2   
 21   9  11  am  
 22  11  12  1   
 23  11  13  1   
 24  12  14  1   
 25  12  39  1   
 26  12  40  1   
 27  13  15  1   
 28  13  41  1   
 29  13  42  1   
 30  14  16  1   
 31  14  43  1   
 32  14  44  1   
 33  15  16  1   
 34  15  45  1   
 35  15  46  1   
 36  16  17  1   
 37  16  18  1   
 38  17  19  1   
 39  18  20  1   
 40  18  21  2   
 41  19  22  1   
 42  19  47  1   
 43  19  48  1   
 44  20  23  1   
 45  20  49  1   
 46  21  22  1   
 47  21  24  1   
 48  22  50  1   
 49  22  51  1   
 50  23  24  ar  
 51  23  25  ar  
 52  24  26  ar  
 53  25  27  ar  
 54  25  52  1   
 55  26  28  ar  
 56  26  53  1   
 57  27  28  ar  
 58  27  54  1   
 59  28  55  1   
@<TRIPOS>SUBSTRUCTURE
  1 ****  14 GROUP 4 **** **** 0

# MOE 2024.06 (io_trps.svl 2023.06)
