@<TRIPOS>MOLECULE
NONAME
48 52 1 0 0 
SMALL
USER_CHARGES


@<TRIPOS>ATOM
  1 F        0.2870    -0.8010    -0.6480 F     1 <1>  -0.3400 
  2 C        0.4290    -1.9590    -1.2770 C.3   1 <1>   0.7800 
  3 F        0.0030    -1.7240    -2.5090 F     1 <1>  -0.3400 
  4 C       -0.4750    -2.9860    -0.6320 C.2   1 <1>  -0.3320 
  5 N       -1.7940    -2.7760    -0.5000 N.pl3 1 <1>   0.3000 
  6 C       -0.2240    -4.1980    -0.0970 C.2   1 <1>  -0.1500 
  7 N       -2.4060    -3.8080     0.0980 N.2   1 <1>  -0.7070 
  8 C       -1.4560    -4.6950     0.3550 C.2   1 <1>   0.2030 
  9 C       -1.5790    -5.9950     1.0210 C.2   1 <1>   0.7160 
 10 O       -0.5630    -6.5440     1.4210 O.2   1 <1>  -0.5700 
 11 N       -2.7790    -6.6610     1.2260 N.am  1 <1>  -0.6600 
 12 C       -2.9350    -7.6840     2.2980 C.3   1 <1>   0.1400 
 13 C       -4.0140    -6.4370     0.4240 C.3   1 <1>   0.1400 
 14 C       -3.3510    -9.0150     1.6740 C.3   1 <1>  -0.1600 
 15 C       -4.4520    -7.7600    -0.2080 C.3   1 <1>  -0.1600 
 16 C       -4.6260    -8.8680     0.8390 C.3   1 <1>   0.4600 
 17 O       -5.6510    -8.5030     1.7380 O.3   1 <1>  -0.5600 
 18 C       -4.9840   -10.1950     0.1810 C.2   1 <1>  -0.3320 
 19 C       -6.9860    -8.7220     1.3470 C.3   1 <1>   0.1200 
 20 N       -4.1770   -10.9430    -0.6320 N.pl3 1 <1>   0.0330 
 21 C       -6.1710   -10.8170     0.3230 C.2   1 <1>  -0.1810 
 22 C       -7.2730   -10.2210     1.1630 C.3   1 <1>   0.0210 
 23 C       -4.8760   -12.0650    -1.0060 C.ar  1 <1>  -0.1520 
 24 C       -6.1370   -12.0170    -0.4180 C.ar  1 <1>   0.0000 
 25 C       -4.5070   -13.1390    -1.8210 C.ar  1 <1>  -0.1500 
 26 C       -7.0470   -13.0550    -0.6430 C.ar  1 <1>  -0.1500 
 27 C       -5.4130   -14.1530    -2.0350 C.ar  1 <1>  -0.1500 
 28 C       -6.6820   -14.1110    -1.4460 C.ar  1 <1>  -0.1500 
 29 H        1.4730    -2.2160    -1.3090 H     1 <1>   0.0800 
 30 H       -2.2960    -1.9310    -0.8070 H     1 <1>   0.2700 
 31 H        0.7120    -4.7240    -0.0050 H     1 <1>   0.1500 
 32 H       -3.6900    -7.3530     2.9900 H     1 <1>   0.0800 
 33 H       -2.0170    -7.8100     2.8460 H     1 <1>   0.0800 
 34 H       -3.8450    -5.7250    -0.3620 H     1 <1>   0.0800 
 35 H       -4.7890    -6.0550     1.0680 H     1 <1>   0.0800 
 36 H       -3.5180    -9.7450     2.4450 H     1 <1>   0.0800 
 37 H       -2.5460    -9.3680     1.0580 H     1 <1>   0.0800 
 38 H       -3.7020    -8.0590    -0.9150 H     1 <1>   0.0800 
 39 H       -5.3640    -7.6230    -0.7560 H     1 <1>   0.0800 
 40 H       -7.1650    -8.1920     0.4280 H     1 <1>   0.0800 
 41 H       -7.6220    -8.3130     2.1110 H     1 <1>   0.0800 
 42 H       -3.2160   -10.7240    -0.9110 H     1 <1>   0.2700 
 43 H       -8.2220   -10.3520     0.6780 H     1 <1>   0.0800 
 44 H       -7.3030   -10.7090     2.1200 H     1 <1>   0.0800 
 45 H       -3.5300   -13.1650    -2.2690 H     1 <1>   0.1500 
 46 H       -8.0160   -13.0090    -0.1830 H     1 <1>   0.1500 
 47 H       -5.1530   -14.9900    -2.6580 H     1 <1>   0.1500 
 48 H       -7.3710   -14.9170    -1.6280 H     1 <1>   0.1500 
@<TRIPOS>BOND
  1   1   2  1   
  2   2   3  1   
  3   2   4  1   
  4   2  29  1   
  5   4   5  1   
  6   4   6  2   
  7   5   7  1   
  8   5  30  1   
  9   6   8  1   
 10   6  31  1   
 11   7   8  2   
 12   8   9  1   
 13   9  10  2   
 14   9  11  am  
 15  11  12  1   
 16  11  13  1   
 17  12  14  1   
 18  12  32  1   
 19  12  33  1   
 20  13  15  1   
 21  13  34  1   
 22  13  35  1   
 23  14  16  1   
 24  14  36  1   
 25  14  37  1   
 26  15  16  1   
 27  15  38  1   
 28  15  39  1   
 29  16  17  1   
 30  16  18  1   
 31  17  19  1   
 32  18  20  1   
 33  18  21  2   
 34  19  22  1   
 35  19  40  1   
 36  19  41  1   
 37  20  23  1   
 38  20  42  1   
 39  21  22  1   
 40  21  24  1   
 41  22  43  1   
 42  22  44  1   
 43  23  24  ar  
 44  23  25  ar  
 45  24  26  ar  
 46  25  27  ar  
 47  25  45  1   
 48  26  28  ar  
 49  26  46  1   
 50  27  28  ar  
 51  27  47  1   
 52  28  48  1   
@<TRIPOS>SUBSTRUCTURE
  1 ****  15 GROUP 4 **** **** 0

# MOE 2024.06 (io_trps.svl 2023.06)
