@<TRIPOS>MOLECULE
NONAME
54 57 1 0 0 
SMALL
USER_CHARGES


@<TRIPOS>ATOM
  1 O       -2.4250     0.5510    -1.8740 O.2   1 <1>  -0.5700 
  2 C       -2.1480     0.4600    -0.7050 C.2   1 <1>   0.5690 
  3 N       -2.0100    -0.7410    -0.0950 N.am  1 <1>  -0.7300 
  4 C       -1.9380     1.7390     0.1020 C.3   1 <1>  -0.0190 
  5 C       -2.0330    -2.0550    -0.7850 C.3   1 <1>   0.2200 
  6 C       -3.1760     2.6540     0.0270 C.3   1 <1>  -0.1600 
  7 C       -0.6870     2.4870    -0.4000 C.3   1 <1>  -0.1600 
  8 C       -3.3060    -2.8320    -0.4690 C.3   1 <1>  -0.0800 
  9 C       -1.0000    -2.9520    -0.1200 C.3   1 <1>   0.1200 
 10 C       -2.9370     4.0080     0.6940 C.3   1 <1>   0.3430 
 11 C       -0.5100     3.8440     0.2770 C.3   1 <1>   0.3430 
 12 C       -2.9870    -3.4520     0.8990 C.3   1 <1>   0.1200 
 13 C       -4.6100    -2.0090    -0.5220 C.3   1 <1>  -0.0170 
 14 O       -1.6020    -3.3510     1.0730 O.3   1 <1>  -0.5600 
 15 N       -1.7430     4.6590     0.0840 N.4   1 <1>  -0.9590 
 16 C       -5.9200    -2.7860    -0.3330 C.ar  1 <1>  -0.1440 
 17 C       -1.5580     6.0460     0.6070 C.3   1 <1>   0.2630 
 18 C       -7.1430    -2.0780    -0.2200 C.ar  1 <1>   0.0000 
 19 C       -5.9900    -4.1500    -0.2710 C.ar  1 <1>  -0.1500 
 20 C       -8.3290    -2.8260    -0.0140 C.ar  1 <1>   0.3100 
 21 C       -7.2600    -0.6700    -0.3080 C.ar  1 <1>  -0.1500 
 22 C       -7.2180    -4.7920    -0.0750 C.ar  1 <1>   0.1600 
 23 N       -8.3490    -4.1790     0.0570 N.ar  1 <1>  -0.6200 
 24 C       -9.5500    -2.1450     0.1180 C.ar  1 <1>  -0.1500 
 25 C       -8.4670    -0.0380    -0.1790 C.ar  1 <1>  -0.1500 
 26 C       -9.6280    -0.7820     0.0400 C.ar  1 <1>  -0.1500 
 27 H       -1.8090    -0.8260     0.9050 H     1 <1>   0.3700 
 28 H       -1.7810     1.4670     1.1320 H     1 <1>   0.0800 
 29 H       -1.8630    -1.9400    -1.8430 H     1 <1>   0.0800 
 30 H       -4.0080     2.1670     0.5050 H     1 <1>   0.0800 
 31 H       -3.4520     2.8170    -1.0020 H     1 <1>   0.0800 
 32 H       -0.7500     2.6320    -1.4650 H     1 <1>   0.0800 
 33 H        0.1860     1.8840    -0.2140 H     1 <1>   0.0800 
 34 H       -3.3750    -3.6260    -1.1910 H     1 <1>   0.0800 
 35 H       -0.0740    -2.4470     0.0870 H     1 <1>   0.0800 
 36 H       -0.8160    -3.8330    -0.7120 H     1 <1>   0.0800 
 37 H       -2.7780     3.8690     1.7520 H     1 <1>   0.0800 
 38 H       -3.8070     4.6310     0.5610 H     1 <1>   0.0800 
 39 H        0.3400     4.3500    -0.1530 H     1 <1>   0.0800 
 40 H       -0.3240     3.7040     1.3300 H     1 <1>   0.0800 
 41 H       -3.2640    -4.4910     0.9490 H     1 <1>   0.0800 
 42 H       -3.4590    -2.9130     1.7030 H     1 <1>   0.0800 
 43 H       -4.6530    -1.5080    -1.4740 H     1 <1>   0.0800 
 44 H       -4.5630    -1.2530     0.2410 H     1 <1>   0.0800 
 45 H       -1.9130     4.7110    -0.9320 H     1 <1>   0.4500 
 46 H       -1.3760     6.0270     1.6700 H     1 <1>   0.0800 
 47 H       -2.4390     6.6380     0.4190 H     1 <1>   0.0800 
 48 H       -0.7190     6.5210     0.1220 H     1 <1>   0.0800 
 49 H       -5.1310    -4.7840    -0.3670 H     1 <1>   0.1500 
 50 H       -6.3840    -0.0770    -0.4870 H     1 <1>   0.1500 
 51 H       -7.2210    -5.8680    -0.0300 H     1 <1>   0.1500 
 52 H      -10.4300    -2.7390     0.2830 H     1 <1>   0.1500 
 53 H       -8.5420     1.0340    -0.2480 H     1 <1>   0.1500 
 54 H      -10.5720    -0.2740     0.1430 H     1 <1>   0.1500 
@<TRIPOS>BOND
  1   1   2  2   
  2   2   3  am  
  3   2   4  1   
  4   3   5  1   
  5   3  27  1   
  6   4   6  1   
  7   4   7  1   
  8   4  28  1   
  9   5   8  1   
 10   5   9  1   
 11   5  29  1   
 12   6  10  1   
 13   6  30  1   
 14   6  31  1   
 15   7  11  1   
 16   7  32  1   
 17   7  33  1   
 18   8  12  1   
 19   8  13  1   
 20   8  34  1   
 21   9  14  1   
 22   9  35  1   
 23   9  36  1   
 24  10  15  1   
 25  10  37  1   
 26  10  38  1   
 27  11  15  1   
 28  11  39  1   
 29  11  40  1   
 30  12  14  1   
 31  12  41  1   
 32  12  42  1   
 33  13  16  1   
 34  13  43  1   
 35  13  44  1   
 36  15  17  1   
 37  15  45  1   
 38  16  18  ar  
 39  16  19  ar  
 40  17  46  1   
 41  17  47  1   
 42  17  48  1   
 43  18  20  ar  
 44  18  21  ar  
 45  19  22  ar  
 46  19  49  1   
 47  20  23  ar  
 48  20  24  ar  
 49  21  25  ar  
 50  21  50  1   
 51  22  23  ar  
 52  22  51  1   
 53  24  26  ar  
 54  24  52  1   
 55  25  26  ar  
 56  25  53  1   
 57  26  54  1   
@<TRIPOS>SUBSTRUCTURE
  1 ****  13 GROUP 4 **** **** 0

# MOE 2024.06 (io_trps.svl 2023.06)
