@<TRIPOS>MOLECULE
NONAME
48 49 1 0 0 
SMALL
USER_CHARGES


@<TRIPOS>ATOM
  1 O       -0.8240    -0.2590    -0.6910 O.2   1 <1>  -0.5700 
  2 C       -1.8260     0.4300    -0.7420 C.2   1 <1>   0.5440 
  3 N       -3.0280    -0.1680    -1.0690 N.am  1 <1>  -0.6600 
  4 C       -1.7040     1.8500    -0.4670 C.ar  1 <1>   0.0860 
  5 C       -3.1080    -1.6390    -1.2990 C.3   1 <1>   0.3200 
  6 C       -4.2350     0.6310    -1.4810 C.3   1 <1>   0.1400 
  7 C       -0.8210     2.6420    -1.1930 C.ar  1 <1>  -0.1500 
  8 C       -2.4490     2.4810     0.5260 C.ar  1 <1>  -0.1500 
  9 C       -3.8050    -2.3110    -0.1300 C.2   1 <1>  -0.3320 
 10 C       -5.4700     0.4400    -0.5800 C.3   1 <1>   0.1200 
 11 C       -0.6990     3.9990    -0.9570 C.ar  1 <1>  -0.1500 
 12 C       -2.3310     3.8370     0.7640 C.ar  1 <1>  -0.1500 
 13 N       -3.3120    -2.4010     1.1240 N.pl3 1 <1>   0.0480 
 14 C       -5.0020    -2.9380    -0.1160 C.2   1 <1>   0.0770 
 15 O       -5.1090     0.3350     0.7530 O.3   1 <1>  -0.6800 
 16 C       -1.4560     4.6280     0.0270 C.ar  1 <1>  -0.1430 
 17 C       -4.2620    -3.0690     1.8160 C.2   1 <1>   0.0360 
 18 C       -2.0250    -1.9120     1.6520 C.3   1 <1>   0.0160 
 19 N       -5.2910    -3.4060     1.1090 N.2   1 <1>  -0.5650 
 20 C       -1.3610     6.1400     0.3290 C.3   1 <1>   0.1440 
 21 C       -0.9180     6.3460     1.7860 C.3   1 <1>  -0.2400 
 22 C       -0.3530     6.8750    -0.5710 C.3   1 <1>  -0.2400 
 23 C       -2.7350     6.7940     0.1170 C.3   1 <1>  -0.2400 
 24 H       -2.1290    -2.0680    -1.4250 H     1 <1>   0.0800 
 25 H       -3.6570    -1.8270    -2.2050 H     1 <1>   0.0800 
 26 H       -4.5020     0.3680    -2.4890 H     1 <1>   0.0800 
 27 H       -3.9990     1.6790    -1.4980 H     1 <1>   0.0800 
 28 H       -0.2180     2.1770    -1.9550 H     1 <1>   0.1500 
 29 H       -3.1310     1.8990     1.1200 H     1 <1>   0.1500 
 30 H       -6.0030    -0.4540    -0.8500 H     1 <1>   0.0800 
 31 H       -6.1370     1.2780    -0.6800 H     1 <1>   0.0800 
 32 H        0.0020     4.5460    -1.5590 H     1 <1>   0.1500 
 33 H       -2.9350     4.2720     1.5400 H     1 <1>   0.1500 
 34 H       -5.6870    -3.0810    -0.9350 H     1 <1>   0.1500 
 35 H       -4.6310    -0.5180     0.8700 H     1 <1>   0.4000 
 36 H       -4.1530    -3.2930     2.8620 H     1 <1>   0.1500 
 37 H       -1.2330    -2.1940     0.9820 H     1 <1>   0.0800 
 38 H       -1.8410    -2.3420     2.6190 H     1 <1>   0.0800 
 39 H       -2.0580    -0.8420     1.7370 H     1 <1>   0.0800 
 40 H        0.0280     5.8610     1.9530 H     1 <1>   0.0800 
 41 H       -1.6340     5.9330     2.4720 H     1 <1>   0.0800 
 42 H       -0.8110     7.3920     2.0060 H     1 <1>   0.0800 
 43 H        0.6350     6.4730    -0.4370 H     1 <1>   0.0800 
 44 H       -0.3210     7.9220    -0.3270 H     1 <1>   0.0800 
 45 H       -0.6330     6.7830    -1.6050 H     1 <1>   0.0800 
 46 H       -3.4680     6.3850     0.7870 H     1 <1>   0.0800 
 47 H       -3.0690     6.6260    -0.8920 H     1 <1>   0.0800 
 48 H       -2.6810     7.8540     0.2880 H     1 <1>   0.0800 
@<TRIPOS>BOND
  1   1   2  2   
  2   2   3  am  
  3   2   4  1   
  4   3   5  1   
  5   3   6  1   
  6   4   7  ar  
  7   4   8  ar  
  8   5   9  1   
  9   5  24  1   
 10   5  25  1   
 11   6  10  1   
 12   6  26  1   
 13   6  27  1   
 14   7  11  ar  
 15   7  28  1   
 16   8  12  ar  
 17   8  29  1   
 18   9  13  1   
 19   9  14  2   
 20  10  15  1   
 21  10  30  1   
 22  10  31  1   
 23  11  16  ar  
 24  11  32  1   
 25  12  16  ar  
 26  12  33  1   
 27  13  17  1   
 28  13  18  1   
 29  14  19  1   
 30  14  34  1   
 31  15  35  1   
 32  16  20  1   
 33  17  19  2   
 34  17  36  1   
 35  18  37  1   
 36  18  38  1   
 37  18  39  1   
 38  20  21  1   
 39  20  22  1   
 40  20  23  1   
 41  21  40  1   
 42  21  41  1   
 43  21  42  1   
 44  22  43  1   
 45  22  44  1   
 46  22  45  1   
 47  23  46  1   
 48  23  47  1   
 49  23  48  1   
@<TRIPOS>SUBSTRUCTURE
  1 ****   4 GROUP 4 **** **** 0

# MOE 2024.06 (io_trps.svl 2023.06)
