@<TRIPOS>MOLECULE
NONAME
63 66 1 0 0 
SMALL
USER_CHARGES


@<TRIPOS>ATOM
  1 O        1.1890     0.8480    -0.7920 O.3   1 <1>  -0.6800 
  2 C        0.3000    -0.1740    -0.4620 C.3   1 <1>   0.1200 
  3 C        1.1840    -1.3740     0.0950 C.3   1 <1>   0.0000 
  4 C        2.0450    -2.5750     0.7330 C.3   1 <1>   0.4230 
  5 C        1.2330    -0.6700     1.5480 C.3   1 <1>  -0.1600 
  6 C        1.2200    -2.0500    -1.3610 C.3   1 <1>  -0.1600 
  7 N        1.6300    -4.0330     0.5100 N.4   1 <1>  -0.9590 
  8 C        3.5370    -2.1520     0.6030 C.3   1 <1>   0.3430 
  9 C        2.6740    -0.2080     1.9130 C.3   1 <1>   0.3430 
 10 C        0.4730    -3.3760    -1.4910 C.3   1 <1>  -0.1600 
 11 C        1.3410    -4.4510    -0.8810 C.3   1 <1>   0.3430 
 12 C        2.5250    -5.0390     1.1710 C.3   1 <1>   0.2630 
 13 N        3.6660    -0.6630     0.8740 N.4   1 <1>  -0.9590 
 14 C        5.0680    -0.1750     1.1090 C.3   1 <1>   0.4230 
 15 C        5.0720     1.3630     1.1670 C.3   1 <1>  -0.1600 
 16 C        5.9980    -0.7040     0.0030 C.3   1 <1>  -0.1600 
 17 C        6.4910     1.9180     1.2370 C.3   1 <1>   0.2090 
 18 C        7.3940    -0.0990     0.1140 C.3   1 <1>   0.2090 
 19 N        7.2410     1.3630     0.0980 N.pl3 1 <1>  -0.8380 
 20 C        8.3510     2.0880    -0.3210 C.ar  1 <1>   0.1000 
 21 C        8.3500     2.6870    -1.5740 C.ar  1 <1>  -0.1500 
 22 C        9.4740     2.2280     0.4860 C.ar  1 <1>  -0.1500 
 23 C        9.4410     3.4120    -2.0210 C.ar  1 <1>  -0.1430 
 24 C       10.5680     2.9500     0.0490 C.ar  1 <1>  -0.1500 
 25 C       10.5520     3.5420    -1.2030 C.ar  1 <1>  -0.1500 
 26 C        9.4340     4.0640    -3.3920 C.3   1 <1>  -0.0960 
 27 H        0.7150     1.5920    -1.2280 H     1 <1>   0.4000 
 28 H       -0.4470     0.2160     0.2090 H     1 <1>   0.0800 
 29 H       -0.3220    -0.3680    -1.3220 H     1 <1>   0.0800 
 30 H        1.9510    -2.5530     1.8020 H     1 <1>   0.0800 
 31 H        0.8110    -1.2870     2.3280 H     1 <1>   0.0800 
 32 H        0.6830     0.2390     1.7280 H     1 <1>   0.0800 
 33 H        0.9270    -1.4640    -2.2190 H     1 <1>   0.0800 
 34 H        2.2440    -2.2260    -1.6450 H     1 <1>   0.0800 
 35 H        0.7120    -4.1170     0.9770 H     1 <1>   0.4500 
 36 H        3.8990    -2.3670    -0.3880 H     1 <1>   0.0800 
 37 H        4.1260    -2.7000     1.3190 H     1 <1>   0.0800 
 38 H        2.9490    -0.5850     2.8860 H     1 <1>   0.0800 
 39 H        2.6770     0.8700     1.9630 H     1 <1>   0.0800 
 40 H        0.3240    -3.6110    -2.5330 H     1 <1>   0.0800 
 41 H       -0.4960    -3.3340    -1.0230 H     1 <1>   0.0800 
 42 H        2.2570    -4.5430    -1.4440 H     1 <1>   0.0800 
 43 H        0.8280    -5.4000    -0.8980 H     1 <1>   0.0800 
 44 H        3.4960    -5.0520     0.7020 H     1 <1>   0.0800 
 45 H        2.0980    -6.0270     1.0910 H     1 <1>   0.0800 
 46 H        2.6460    -4.8110     2.2190 H     1 <1>   0.0800 
 47 H        3.3580    -0.1650     0.0150 H     1 <1>   0.4500 
 48 H        5.4270    -0.5480     2.0560 H     1 <1>   0.0800 
 49 H        4.6040     1.7700     0.2880 H     1 <1>   0.0800 
 50 H        4.5500     1.7190     2.0350 H     1 <1>   0.0800 
 51 H        6.1100    -1.7700     0.0660 H     1 <1>   0.0800 
 52 H        5.6090    -0.4470    -0.9670 H     1 <1>   0.0800 
 53 H        6.9720     1.6420     2.1610 H     1 <1>   0.0800 
 54 H        6.4740     2.9940     1.1670 H     1 <1>   0.0800 
 55 H        8.0040    -0.4050    -0.7210 H     1 <1>   0.0800 
 56 H        7.8830    -0.4050     1.0240 H     1 <1>   0.0800 
 57 H        7.4790     2.5740    -2.1910 H     1 <1>   0.1500 
 58 H        9.4880     1.7700     1.4560 H     1 <1>   0.1500 
 59 H       11.4330     3.0540     0.6800 H     1 <1>   0.1500 
 60 H       11.4070     4.1030    -1.5390 H     1 <1>   0.1500 
 61 H       10.1810     3.6090    -4.0160 H     1 <1>   0.0800 
 62 H        9.6480     5.1140    -3.2990 H     1 <1>   0.0800 
 63 H        8.4750     3.9510    -3.8640 H     1 <1>   0.0800 
@<TRIPOS>BOND
  1   1   2  1   
  2   1  27  1   
  3   2   3  1   
  4   2  28  1   
  5   2  29  1   
  6   3   4  1   
  7   3   5  1   
  8   3   6  1   
  9   4   7  1   
 10   4   8  1   
 11   4  30  1   
 12   5   9  1   
 13   5  31  1   
 14   5  32  1   
 15   6  10  1   
 16   6  33  1   
 17   6  34  1   
 18   7  11  1   
 19   7  12  1   
 20   7  35  1   
 21   8  13  1   
 22   8  36  1   
 23   8  37  1   
 24   9  13  1   
 25   9  38  1   
 26   9  39  1   
 27  10  11  1   
 28  10  40  1   
 29  10  41  1   
 30  11  42  1   
 31  11  43  1   
 32  12  44  1   
 33  12  45  1   
 34  12  46  1   
 35  13  14  1   
 36  13  47  1   
 37  14  15  1   
 38  14  16  1   
 39  14  48  1   
 40  15  17  1   
 41  15  49  1   
 42  15  50  1   
 43  16  18  1   
 44  16  51  1   
 45  16  52  1   
 46  17  19  1   
 47  17  53  1   
 48  17  54  1   
 49  18  19  1   
 50  18  55  1   
 51  18  56  1   
 52  19  20  1   
 53  20  21  ar  
 54  20  22  ar  
 55  21  23  ar  
 56  21  57  1   
 57  22  24  ar  
 58  22  58  1   
 59  23  25  ar  
 60  23  26  1   
 61  24  25  ar  
 62  24  59  1   
 63  25  60  1   
 64  26  61  1   
 65  26  62  1   
 66  26  63  1   
@<TRIPOS>SUBSTRUCTURE
  1 ****  14 GROUP 4 **** **** 0

# MOE 2024.06 (io_trps.svl 2023.06)
