@<TRIPOS>MOLECULE
NONAME
41 42 1 0 0 
SMALL
USER_CHARGES


@<TRIPOS>ATOM
  1 CL       1.6980     0.1060    -1.7020 Cl    1 <1>  -0.1770 
  2 C        0.6670     1.3020    -0.9490 C.ar  1 <1>   0.1770 
  3 C        1.1110     2.0870     0.1130 C.ar  1 <1>  -0.1440 
  4 C       -0.6110     1.4350    -1.4620 C.ar  1 <1>  -0.1500 
  5 C        0.2310     3.0240     0.6400 C.ar  1 <1>  -0.1500 
  6 C        2.5080     1.9670     0.7250 C.3   1 <1>   0.3640 
  7 C       -1.4740     2.3690    -0.9200 C.ar  1 <1>  -0.1500 
  8 C       -1.0490     3.1640     0.1300 C.ar  1 <1>  -0.1500 
  9 N        2.6620     0.5970     1.2720 N.am  1 <1>  -0.7300 
 10 C        3.6440     2.3710    -0.2630 C.3   1 <1>   0.2610 
 11 C        3.7080    -0.2090     0.9920 C.2   1 <1>   0.5690 
 12 O        4.8720     1.7090     0.0290 O.3   1 <1>  -0.5600 
 13 C        3.8580     3.8910    -0.2470 C.2   1 <1>   0.5690 
 14 O        3.7820    -1.3140     1.4670 O.2   1 <1>  -0.5700 
 15 C        4.7940     0.3000     0.0440 C.3   1 <1>   0.1810 
 16 O        2.9160     4.6300    -0.0850 O.2   1 <1>  -0.5700 
 17 N        5.1230     4.3670    -0.4090 N.am  1 <1>  -0.7300 
 18 C        5.5870     5.7670    -0.4870 C.3   1 <1>   0.3000 
 19 C        5.1860     6.5640     0.7810 C.3   1 <1>   0.1200 
 20 C        4.9940     6.4100    -1.7430 C.3   1 <1>  -0.2400 
 21 C        7.1100     5.7090    -0.6290 C.3   1 <1>  -0.2400 
 22 O        5.6020     5.9120     1.9400 O.3   1 <1>  -0.6800 
 23 H       -0.9240     0.8110    -2.2800 H     1 <1>   0.1500 
 24 H        0.5360     3.6630     1.4520 H     1 <1>   0.1500 
 25 H        2.5660     2.6390     1.5630 H     1 <1>   0.0800 
 26 H       -2.4700     2.4800    -1.3140 H     1 <1>   0.1500 
 27 H       -1.7160     3.8970     0.5500 H     1 <1>   0.1500 
 28 H        1.9130     0.2340     1.8620 H     1 <1>   0.3700 
 29 H        3.3690     2.1020    -1.2650 H     1 <1>   0.0800 
 30 H        4.5940    -0.0450    -0.9540 H     1 <1>   0.0800 
 31 H        5.7490    -0.0800     0.3600 H     1 <1>   0.0800 
 32 H        5.8710     3.6700    -0.4630 H     1 <1>   0.3700 
 33 H        4.1180     6.6820     0.8300 H     1 <1>   0.0800 
 34 H        5.6360     7.5410     0.7710 H     1 <1>   0.0800 
 35 H        5.3760     7.4080    -1.8650 H     1 <1>   0.0800 
 36 H        3.9230     6.4730    -1.6670 H     1 <1>   0.0800 
 37 H        5.2480     5.8390    -2.6170 H     1 <1>   0.0800 
 38 H        7.5110     6.7050    -0.6960 H     1 <1>   0.0800 
 39 H        7.3910     5.1730    -1.5180 H     1 <1>   0.0800 
 40 H        7.5540     5.2330     0.2270 H     1 <1>   0.0800 
 41 H        5.2850     4.9880     1.9040 H     1 <1>   0.4000 
@<TRIPOS>BOND
  1   1   2  1   
  2   2   3  ar  
  3   2   4  ar  
  4   3   5  ar  
  5   3   6  1   
  6   4   7  ar  
  7   4  23  1   
  8   5   8  ar  
  9   5  24  1   
 10   6   9  1   
 11   6  10  1   
 12   6  25  1   
 13   7   8  ar  
 14   7  26  1   
 15   8  27  1   
 16   9  11  am  
 17   9  28  1   
 18  10  12  1   
 19  10  13  1   
 20  10  29  1   
 21  11  14  2   
 22  11  15  1   
 23  12  15  1   
 24  13  16  2   
 25  13  17  am  
 26  15  30  1   
 27  15  31  1   
 28  17  18  1   
 29  17  32  1   
 30  18  19  1   
 31  18  20  1   
 32  18  21  1   
 33  19  22  1   
 34  19  33  1   
 35  19  34  1   
 36  20  35  1   
 37  20  36  1   
 38  20  37  1   
 39  21  38  1   
 40  21  39  1   
 41  21  40  1   
 42  22  41  1   
@<TRIPOS>SUBSTRUCTURE
  1 ****  10 GROUP 4 **** **** 0

# MOE 2024.06 (io_trps.svl 2023.06)
