@<TRIPOS>MOLECULE
NONAME
54 56 1 0 0 
SMALL
USER_CHARGES


@<TRIPOS>ATOM
  1 O        3.9050     0.0230     2.5350 O.co2 1 <1>  -0.9000 
  2 C        3.5770     1.1200     2.0520 C.2   1 <1>   0.9060 
  3 O        3.5340     2.1380     2.7400 O.co2 1 <1>  -0.9000 
  4 C        3.2250     1.1980     0.5530 C.3   1 <1>  -0.1060 
  5 C        4.0690     0.1540    -0.2120 C.3   1 <1>   0.4230 
  6 C        3.5600     2.6050    -0.0170 C.3   1 <1>  -0.1600 
  7 C        1.7210     0.9120     0.3280 C.3   1 <1>  -0.1600 
  8 N        3.7040    -1.2350     0.2310 N.4   1 <1>  -0.9590 
  9 C        5.5730     0.4880    -0.0850 C.3   1 <1>   0.1400 
 10 C        5.0580     2.9250     0.0800 C.3   1 <1>   0.1400 
 11 C        1.3670    -0.5420     0.6740 C.3   1 <1>  -0.1600 
 12 C        2.2770    -1.5500    -0.0330 C.3   1 <1>   0.3430 
 13 C        4.6210    -2.3150    -0.2240 C.3   1 <1>   0.2630 
 14 N        5.8270     1.8570    -0.6240 N.am  1 <1>  -0.6600 
 15 C        6.6930     2.0680    -1.6710 C.2   1 <1>   0.5690 
 16 O        7.1290     1.1360    -2.3110 O.2   1 <1>  -0.5700 
 17 C        7.1040     3.4730    -2.1030 C.3   1 <1>   0.1810 
 18 O        7.6970     4.1840    -1.0260 O.3   1 <1>  -0.3630 
 19 C        7.5270     5.5250    -0.9430 C.ar  1 <1>   0.0830 
 20 C        7.2980     6.1050     0.3060 C.ar  1 <1>  -0.1430 
 21 C        7.5710     6.3140    -2.0870 C.ar  1 <1>  -0.1500 
 22 C        7.0810     7.4780     0.3870 C.ar  1 <1>  -0.1430 
 23 C        7.2750     5.2490     1.5740 C.3   1 <1>  -0.0970 
 24 C        7.3610     7.6750    -1.9960 C.ar  1 <1>  -0.1500 
 25 C        7.1120     8.2510    -0.7640 C.ar  1 <1>  -0.1500 
 26 C        6.8040     8.1670     1.7170 C.3   1 <1>  -0.0970 
 27 H        3.8270     0.2380    -1.2570 H     1 <1>   0.0800 
 28 H        3.0170     3.3540     0.5350 H     1 <1>   0.0800 
 29 H        3.2570     2.6810    -1.0460 H     1 <1>   0.0800 
 30 H        1.1370     1.5790     0.9420 H     1 <1>   0.0800 
 31 H        1.4630     1.1010    -0.7000 H     1 <1>   0.0800 
 32 H        3.7910    -1.1320     1.2790 H     1 <1>   0.4500 
 33 H        6.1570    -0.2270    -0.6330 H     1 <1>   0.0800 
 34 H        5.8830     0.4560     0.9460 H     1 <1>   0.0800 
 35 H        5.3640     2.9630     1.1130 H     1 <1>   0.0800 
 36 H        5.2400     3.8930    -0.3500 H     1 <1>   0.0800 
 37 H        0.3450    -0.7360     0.4000 H     1 <1>   0.0800 
 38 H        1.4420    -0.6910     1.7380 H     1 <1>   0.0800 
 39 H        2.0920    -1.5210    -1.0940 H     1 <1>   0.0800 
 40 H        2.0500    -2.5400     0.3270 H     1 <1>   0.0800 
 41 H        4.6350    -2.3650    -1.3000 H     1 <1>   0.0800 
 42 H        4.2960    -3.2650     0.1680 H     1 <1>   0.0800 
 43 H        5.6210    -2.1290     0.1320 H     1 <1>   0.0800 
 44 H        6.2340     4.0050    -2.4390 H     1 <1>   0.0800 
 45 H        7.8240     3.4160    -2.8990 H     1 <1>   0.0800 
 46 H        7.7760     5.8770    -3.0460 H     1 <1>   0.1500 
 47 H        7.9110     5.6800     2.3250 H     1 <1>   0.0800 
 48 H        7.6240     4.2490     1.3970 H     1 <1>   0.0800 
 49 H        6.2730     5.1910     1.9590 H     1 <1>   0.0800 
 50 H        7.3920     8.2880    -2.8800 H     1 <1>   0.1500 
 51 H        6.9470     9.3120    -0.7080 H     1 <1>   0.1500 
 52 H        6.5600     9.2040     1.5730 H     1 <1>   0.0800 
 53 H        7.6720     8.1080     2.3480 H     1 <1>   0.0800 
 54 H        5.9760     7.6940     2.2140 H     1 <1>   0.0800 
@<TRIPOS>BOND
  1   1   2  ar  
  2   2   3  ar  
  3   2   4  1   
  4   4   5  1   
  5   4   6  1   
  6   4   7  1   
  7   5   8  1   
  8   5   9  1   
  9   5  27  1   
 10   6  10  1   
 11   6  28  1   
 12   6  29  1   
 13   7  11  1   
 14   7  30  1   
 15   7  31  1   
 16   8  12  1   
 17   8  13  1   
 18   8  32  1   
 19   9  14  1   
 20   9  33  1   
 21   9  34  1   
 22  10  14  1   
 23  10  35  1   
 24  10  36  1   
 25  11  12  1   
 26  11  37  1   
 27  11  38  1   
 28  12  39  1   
 29  12  40  1   
 30  13  41  1   
 31  13  42  1   
 32  13  43  1   
 33  14  15  am  
 34  15  16  2   
 35  15  17  1   
 36  17  18  1   
 37  17  44  1   
 38  17  45  1   
 39  18  19  1   
 40  19  20  ar  
 41  19  21  ar  
 42  20  22  ar  
 43  20  23  1   
 44  21  24  ar  
 45  21  46  1   
 46  22  25  ar  
 47  22  26  1   
 48  23  47  1   
 49  23  48  1   
 50  23  49  1   
 51  24  25  ar  
 52  24  50  1   
 53  25  51  1   
 54  26  52  1   
 55  26  53  1   
 56  26  54  1   
@<TRIPOS>SUBSTRUCTURE
  1 ****  10 GROUP 4 **** **** 0

# MOE 2024.06 (io_trps.svl 2023.06)
