@<TRIPOS>MOLECULE
NONAME
53 56 1 0 0 
SMALL
USER_CHARGES


@<TRIPOS>ATOM
  1 CL      -0.6380    -0.0340     0.5800 Cl    1 <1>  -0.1770 
  2 C       -2.1060    -0.9700     0.4290 C.ar  1 <1>   0.1770 
  3 C       -2.3360    -1.6880    -0.7300 C.ar  1 <1>  -0.1500 
  4 C       -3.0150    -0.9780     1.4710 C.ar  1 <1>  -0.1500 
  5 C       -3.4990    -2.4290    -0.8450 C.ar  1 <1>  -0.1500 
  6 C       -4.1750    -1.7210     1.3460 C.ar  1 <1>  -0.1500 
  7 C       -4.4300    -2.4510     0.1910 C.ar  1 <1>   0.1000 
  8 N       -5.6020    -3.1900     0.0950 N.pl3 1 <1>  -0.8380 
  9 C       -5.4820    -4.6390     0.3450 C.3   1 <1>   0.2090 
 10 C       -6.5450    -2.8150    -0.9760 C.3   1 <1>   0.2090 
 11 C       -6.8490    -5.1490     0.7890 C.3   1 <1>  -0.1600 
 12 C       -7.9340    -3.2870    -0.5580 C.3   1 <1>  -0.1600 
 13 C       -7.9330    -4.7890    -0.2390 C.3   1 <1>   0.4230 
 14 N       -9.2690    -5.1900     0.2850 N.4   1 <1>  -0.9590 
 15 C      -10.4430    -4.8830    -0.5800 C.3   1 <1>   0.3430 
 16 C       -9.4220    -6.6300     0.6600 C.3   1 <1>   0.3430 
 17 C      -11.5780    -5.6870     0.0530 C.3   1 <1>   0.2000 
 18 C      -10.8990    -7.0000     0.4420 C.3   1 <1>  -0.0800 
 19 O      -11.9510    -5.0360     1.2230 O.3   1 <1>  -0.6800 
 20 C      -11.0550    -8.0690    -0.6570 C.3   1 <1>  -0.0170 
 21 C      -10.1770    -9.2770    -0.3720 C.ar  1 <1>  -0.1430 
 22 C      -10.3920   -10.0930     0.7220 C.ar  1 <1>  -0.1500 
 23 C       -9.1180    -9.6210    -1.1890 C.ar  1 <1>  -0.1500 
 24 C       -9.5490   -11.1680     0.9520 C.ar  1 <1>   0.1600 
 25 C       -8.3350   -10.7190    -0.8700 C.ar  1 <1>   0.1600 
 26 N       -8.5200   -11.4900     0.1870 N.ar  1 <1>  -0.6200 
 27 H       -1.6130    -1.6650    -1.5240 H     1 <1>   0.1500 
 28 H       -2.8140    -0.4110     2.3620 H     1 <1>   0.1500 
 29 H       -3.6880    -2.9930    -1.7390 H     1 <1>   0.1500 
 30 H       -4.8970    -1.7410     2.1420 H     1 <1>   0.1500 
 31 H       -5.1550    -5.1370    -0.5530 H     1 <1>   0.0800 
 32 H       -4.7510    -4.8130     1.1180 H     1 <1>   0.0800 
 33 H       -6.5380    -1.7440    -1.1040 H     1 <1>   0.0800 
 34 H       -6.2450    -3.2730    -1.9030 H     1 <1>   0.0800 
 35 H       -7.0760    -4.7030     1.7410 H     1 <1>   0.0800 
 36 H       -6.7770    -6.2140     0.9130 H     1 <1>   0.0800 
 37 H       -8.6100    -3.0660    -1.3630 H     1 <1>   0.0800 
 38 H       -8.2290    -2.7220     0.3090 H     1 <1>   0.0800 
 39 H       -7.7290    -5.3290    -1.1500 H     1 <1>   0.0800 
 40 H       -9.4450    -4.6540     1.1490 H     1 <1>   0.4500 
 41 H      -10.6750    -3.8300    -0.5910 H     1 <1>   0.0800 
 42 H      -10.2650    -5.2290    -1.5840 H     1 <1>   0.0800 
 43 H       -8.7910    -7.2460     0.0410 H     1 <1>   0.0800 
 44 H       -9.1440    -6.7790     1.6910 H     1 <1>   0.0800 
 45 H      -12.4390    -5.7900    -0.5860 H     1 <1>   0.0800 
 46 H      -11.3140    -7.3930     1.3540 H     1 <1>   0.0800 
 47 H      -12.7860    -5.4020     1.5880 H     1 <1>   0.4000 
 48 H      -10.7970    -7.6620    -1.6190 H     1 <1>   0.0800 
 49 H      -12.0820    -8.3900    -0.7090 H     1 <1>   0.0800 
 50 H      -11.2070    -9.9140     1.4000 H     1 <1>   0.1500 
 51 H       -8.8890    -9.0590    -2.0760 H     1 <1>   0.1500 
 52 H       -9.7300   -11.7960     1.8090 H     1 <1>   0.1500 
 53 H       -7.5140   -10.9790    -1.5180 H     1 <1>   0.1500 
@<TRIPOS>BOND
  1   1   2  1   
  2   2   3  ar  
  3   2   4  ar  
  4   3   5  ar  
  5   3  27  1   
  6   4   6  ar  
  7   4  28  1   
  8   5   7  ar  
  9   5  29  1   
 10   6   7  ar  
 11   6  30  1   
 12   7   8  1   
 13   8   9  1   
 14   8  10  1   
 15   9  11  1   
 16   9  31  1   
 17   9  32  1   
 18  10  12  1   
 19  10  33  1   
 20  10  34  1   
 21  11  13  1   
 22  11  35  1   
 23  11  36  1   
 24  12  13  1   
 25  12  37  1   
 26  12  38  1   
 27  13  14  1   
 28  13  39  1   
 29  14  15  1   
 30  14  16  1   
 31  14  40  1   
 32  15  17  1   
 33  15  41  1   
 34  15  42  1   
 35  16  18  1   
 36  16  43  1   
 37  16  44  1   
 38  17  18  1   
 39  17  19  1   
 40  17  45  1   
 41  18  20  1   
 42  18  46  1   
 43  19  47  1   
 44  20  21  1   
 45  20  48  1   
 46  20  49  1   
 47  21  22  ar  
 48  21  23  ar  
 49  22  24  ar  
 50  22  50  1   
 51  23  25  ar  
 52  23  51  1   
 53  24  26  ar  
 54  24  52  1   
 55  25  26  ar  
 56  25  53  1   
@<TRIPOS>SUBSTRUCTURE
  1 ****  11 GROUP 4 **** **** 0

# MOE 2024.06 (io_trps.svl 2023.06)
