@<TRIPOS>MOLECULE
NONAME
47 50 1 0 0 
SMALL
USER_CHARGES


@<TRIPOS>ATOM
  1 O       -0.5520    -0.2820    -0.5320 O.3   1 <1>  -0.0190 
  2 N       -1.4060    -1.2600    -0.3840 N.2   1 <1>  -0.4100 
  3 C       -1.2210     0.7780    -0.1490 C.2   1 <1>   0.2980 
  4 C       -2.4870    -0.7440     0.0590 C.2   1 <1>   0.5990 
  5 N       -2.4170     0.5710     0.2210 N.2   1 <1>  -0.5650 
  6 C       -0.5290     2.1280    -0.1820 C.3   1 <1>   0.0200 
  7 N       -3.6540    -1.4410     0.3690 N.pl3 1 <1>  -0.8210 
  8 C        0.6030     2.2100     0.8530 C.3   1 <1>  -0.1600 
  9 C       -4.9510    -0.7280     0.2050 C.3   1 <1>   0.2090 
 10 C       -3.7810    -2.8210    -0.1600 C.3   1 <1>   0.2090 
 11 C        1.2900     3.5800     0.8310 C.3   1 <1>  -0.2400 
 12 C       -5.9270    -1.7540    -0.3800 C.3   1 <1>   0.2000 
 13 C       -5.2780    -3.1170    -0.1630 C.3   1 <1>  -0.0800 
 14 O       -7.1590    -1.7180     0.2570 O.3   1 <1>  -0.6800 
 15 C       -5.6990    -4.1540    -1.2180 C.3   1 <1>  -0.0170 
 16 C       -5.0320    -5.5020    -0.9650 C.ar  1 <1>  -0.1440 
 17 C       -5.4850    -6.3940     0.0360 C.ar  1 <1>   0.0000 
 18 C       -3.9550    -5.8840    -1.7110 C.ar  1 <1>  -0.1500 
 19 C       -4.7760    -7.6100     0.2010 C.ar  1 <1>   0.3100 
 20 C       -6.5950    -6.1550     0.8790 C.ar  1 <1>  -0.1500 
 21 C       -3.3310    -7.1140    -1.4700 C.ar  1 <1>   0.1600 
 22 N       -3.7060    -7.9540    -0.5590 N.ar  1 <1>  -0.6200 
 23 C       -5.1940    -8.5100     1.1940 C.ar  1 <1>  -0.1500 
 24 C       -6.9780    -7.0550     1.8360 C.ar  1 <1>  -0.1500 
 25 C       -6.2690    -8.2470     1.9990 C.ar  1 <1>  -0.1500 
 26 H       -0.1370     2.2910    -1.1700 H     1 <1>   0.0800 
 27 H       -1.2580     2.8930     0.0200 H     1 <1>   0.0800 
 28 H        0.1970     2.0300     1.8350 H     1 <1>   0.0800 
 29 H        1.3320     1.4440     0.6510 H     1 <1>   0.0800 
 30 H       -5.2820    -0.3790     1.1670 H     1 <1>   0.0800 
 31 H       -4.8510     0.1070    -0.4670 H     1 <1>   0.0800 
 32 H       -3.3850    -2.8630    -1.1610 H     1 <1>   0.0800 
 33 H       -3.2450    -3.5170     0.4640 H     1 <1>   0.0800 
 34 H        0.5850     4.3610     1.0580 H     1 <1>   0.0800 
 35 H        1.7220     3.7710    -0.1360 H     1 <1>   0.0800 
 36 H        2.0750     3.6080     1.5660 H     1 <1>   0.0800 
 37 H       -6.0800    -1.5510    -1.4260 H     1 <1>   0.0800 
 38 H       -5.5230    -3.4760     0.8210 H     1 <1>   0.0800 
 39 H       -7.0420    -1.8550     1.2180 H     1 <1>   0.4000 
 40 H       -5.4280    -3.7950    -2.1960 H     1 <1>   0.0800 
 41 H       -6.7690    -4.2670    -1.2170 H     1 <1>   0.0800 
 42 H       -3.5580    -5.2620    -2.4910 H     1 <1>   0.1500 
 43 H       -7.1570    -5.2470     0.7680 H     1 <1>   0.1500 
 44 H       -2.4840    -7.3760    -2.0810 H     1 <1>   0.1500 
 45 H       -4.6350    -9.4210     1.3000 H     1 <1>   0.1500 
 46 H       -7.8250    -6.8610     2.4710 H     1 <1>   0.1500 
 47 H       -6.5780    -8.9470     2.7570 H     1 <1>   0.1500 
@<TRIPOS>BOND
  1   1   2  1   
  2   1   3  1   
  3   2   4  2   
  4   3   5  2   
  5   3   6  1   
  6   4   5  1   
  7   4   7  1   
  8   6   8  1   
  9   6  26  1   
 10   6  27  1   
 11   7   9  1   
 12   7  10  1   
 13   8  11  1   
 14   8  28  1   
 15   8  29  1   
 16   9  12  1   
 17   9  30  1   
 18   9  31  1   
 19  10  13  1   
 20  10  32  1   
 21  10  33  1   
 22  11  34  1   
 23  11  35  1   
 24  11  36  1   
 25  12  13  1   
 26  12  14  1   
 27  12  37  1   
 28  13  15  1   
 29  13  38  1   
 30  14  39  1   
 31  15  16  1   
 32  15  40  1   
 33  15  41  1   
 34  16  17  ar  
 35  16  18  ar  
 36  17  19  ar  
 37  17  20  ar  
 38  18  21  ar  
 39  18  42  1   
 40  19  22  ar  
 41  19  23  ar  
 42  20  24  ar  
 43  20  43  1   
 44  21  22  ar  
 45  21  44  1   
 46  23  25  ar  
 47  23  45  1   
 48  24  25  ar  
 49  24  46  1   
 50  25  47  1   
@<TRIPOS>SUBSTRUCTURE
  1 ****  10 GROUP 4 **** **** 0

# MOE 2024.06 (io_trps.svl 2023.06)
