@<TRIPOS>MOLECULE
NONAME
49 51 1 0 0 
SMALL
USER_CHARGES


@<TRIPOS>ATOM
  1 S       -2.2100     0.1410     0.1760 S.3   1 <1>  -0.0800 
  2 C       -1.3100    -1.1170    -0.6090 C.2   1 <1>   0.4420 
  3 C       -0.9840     1.2420    -0.3470 C.2   1 <1>   0.1980 
  4 N       -0.2410    -0.6670    -1.1640 N.2   1 <1>  -0.3380 
  5 N       -1.8390    -2.3840    -0.5370 N.am  1 <1>  -0.4940 
  6 N       -0.0620     0.6780    -1.0100 N.2   1 <1>  -0.3380 
  7 C       -1.1150     2.7040     0.0140 C.3   1 <1>   0.0200 
  8 C       -1.4250    -3.5860    -1.0430 C.2   1 <1>   0.5440 
  9 C        0.0700     3.4670    -0.5920 C.3   1 <1>   0.3430 
 10 O       -0.4080    -3.6190    -1.7080 O.2   1 <1>  -0.5700 
 11 C       -2.1920    -4.7970    -0.7860 C.ar  1 <1>   0.0860 
 12 N        0.0070     4.9470    -0.3480 N.4   1 <1>  -0.9590 
 13 C       -3.4220    -4.8280    -0.0810 C.ar  1 <1>   0.1000 
 14 C       -1.6940    -6.0170    -1.2580 C.ar  1 <1>  -0.1500 
 15 C        1.0330     5.6350    -1.1930 C.3   1 <1>   0.2630 
 16 C        0.2140     5.3020     1.0940 C.3   1 <1>   0.2630 
 17 N       -4.0440    -3.6920     0.4450 N.pl3 1 <1>  -0.8380 
 18 C       -4.0690    -6.0490     0.1050 C.ar  1 <1>  -0.1500 
 19 C       -2.3500    -7.2140    -1.0610 C.ar  1 <1>  -0.1500 
 20 C       -5.2360    -3.1350    -0.2770 C.3   1 <1>   0.2090 
 21 C       -4.0970    -3.5220     1.9370 C.3   1 <1>   0.2090 
 22 C       -3.5480    -7.2310    -0.3740 C.ar  1 <1>  -0.1500 
 23 C       -6.5570    -3.4380     0.4530 C.3   1 <1>   0.1200 
 24 C       -5.5010    -3.7860     2.5120 C.3   1 <1>   0.1200 
 25 O       -6.4780    -3.0790     1.8030 O.3   1 <1>  -0.5600 
 26 H       -2.7210    -2.4860    -0.0240 H     1 <1>   0.3700 
 27 H       -1.1180     2.7920     1.0840 H     1 <1>   0.0800 
 28 H       -2.0400     3.0770    -0.3850 H     1 <1>   0.0800 
 29 H        0.0780     3.2800    -1.6550 H     1 <1>   0.0800 
 30 H        0.9880     3.0670    -0.1900 H     1 <1>   0.0800 
 31 H       -0.9210     5.2910    -0.6440 H     1 <1>   0.4500 
 32 H       -0.7610    -6.0280    -1.7980 H     1 <1>   0.1500 
 33 H        2.0240     5.3050    -0.9240 H     1 <1>   0.0800 
 34 H        0.9770     6.7040    -1.0570 H     1 <1>   0.0800 
 35 H        0.8690     5.4150    -2.2360 H     1 <1>   0.0800 
 36 H        1.1720     4.9430     1.4340 H     1 <1>   0.0800 
 37 H       -0.5570     4.8630     1.7070 H     1 <1>   0.0800 
 38 H        0.1830     6.3720     1.2240 H     1 <1>   0.0800 
 39 H       -5.0010    -6.0710     0.6350 H     1 <1>   0.1500 
 40 H       -1.9320    -8.1310    -1.4410 H     1 <1>   0.1500 
 41 H       -5.2800    -3.5430    -1.2730 H     1 <1>   0.0800 
 42 H       -5.1280    -2.0680    -0.3650 H     1 <1>   0.0800 
 43 H       -3.8070    -2.5160     2.1850 H     1 <1>   0.0800 
 44 H       -3.3920    -4.1900     2.4030 H     1 <1>   0.0800 
 45 H       -4.0660    -8.1610    -0.2170 H     1 <1>   0.1500 
 46 H       -6.7960    -4.4850     0.3870 H     1 <1>   0.0800 
 47 H       -7.3600    -2.8760     0.0110 H     1 <1>   0.0800 
 48 H       -5.5440    -3.4660     3.5370 H     1 <1>   0.0800 
 49 H       -5.7380    -4.8350     2.4730 H     1 <1>   0.0800 
@<TRIPOS>BOND
  1   1   2  1   
  2   1   3  1   
  3   2   4  2   
  4   2   5  1   
  5   3   6  2   
  6   3   7  1   
  7   4   6  1   
  8   5   8  am  
  9   5  26  1   
 10   7   9  1   
 11   7  27  1   
 12   7  28  1   
 13   8  10  2   
 14   8  11  1   
 15   9  12  1   
 16   9  29  1   
 17   9  30  1   
 18  11  13  ar  
 19  11  14  ar  
 20  12  15  1   
 21  12  16  1   
 22  12  31  1   
 23  13  17  1   
 24  13  18  ar  
 25  14  19  ar  
 26  14  32  1   
 27  15  33  1   
 28  15  34  1   
 29  15  35  1   
 30  16  36  1   
 31  16  37  1   
 32  16  38  1   
 33  17  20  1   
 34  17  21  1   
 35  18  22  ar  
 36  18  39  1   
 37  19  22  ar  
 38  19  40  1   
 39  20  23  1   
 40  20  41  1   
 41  20  42  1   
 42  21  24  1   
 43  21  43  1   
 44  21  44  1   
 45  22  45  1   
 46  23  25  1   
 47  23  46  1   
 48  23  47  1   
 49  24  25  1   
 50  24  48  1   
 51  24  49  1   
@<TRIPOS>SUBSTRUCTURE
  1 ****   5 GROUP 4 **** **** 0

# MOE 2024.06 (io_trps.svl 2023.06)
