@<TRIPOS>MOLECULE
NONAME
37 38 1 0 0 
SMALL
USER_CHARGES


@<TRIPOS>ATOM
  1 S        0.1760    -0.3410     0.4290 S.3   1 <1>  -0.0800 
  2 C       -1.3810    -0.9350    -0.0530 C.2   1 <1>   0.4420 
  3 C       -0.4180     1.2530     0.1180 C.2   1 <1>   0.1980 
  4 N       -2.1760     0.0180    -0.3870 N.2   1 <1>  -0.3380 
  5 N       -1.5610    -2.2990    -0.0170 N.am  1 <1>  -0.4940 
  6 N       -1.6210     1.2620    -0.2870 N.2   1 <1>  -0.3380 
  7 C        0.5010     2.4310     0.3450 C.3   1 <1>   0.0200 
  8 C       -2.6560    -3.0710    -0.3300 C.2   1 <1>   0.5440 
  9 C       -0.2660     3.7210     0.0330 C.3   1 <1>   0.3430 
 10 O       -3.6830    -2.5480    -0.7100 O.2   1 <1>  -0.5700 
 11 C       -2.5490    -4.5170    -0.1930 C.ar  1 <1>   0.3960 
 12 N        0.5390     4.9630     0.2900 N.4   1 <1>  -0.9590 
 13 N       -1.3880    -5.0460     0.2330 N.ar  1 <1>  -0.6200 
 14 C       -3.6470    -5.3280    -0.5050 C.ar  1 <1>   0.1600 
 15 C       -0.3580     6.1600     0.2280 C.3   1 <1>   0.2630 
 16 C        1.6720     5.1240    -0.6790 C.3   1 <1>   0.2630 
 17 C       -1.4210    -6.3640     0.3150 C.ar  1 <1>   0.1600 
 18 N       -3.6730    -6.6480    -0.4210 N.ar  1 <1>  -0.6200 
 19 C       -2.5270    -7.1480    -0.0020 C.ar  1 <1>   0.1670 
 20 C       -2.4700    -8.6580     0.1230 C.3   1 <1>  -0.0970 
 21 H       -0.7610    -2.8540     0.2900 H     1 <1>   0.3700 
 22 H        1.3530     2.3270    -0.3010 H     1 <1>   0.0800 
 23 H        0.8200     2.4260     1.3710 H     1 <1>   0.0800 
 24 H       -1.1540     3.7380     0.6470 H     1 <1>   0.0800 
 25 H       -0.5880     3.6990    -0.9960 H     1 <1>   0.0800 
 26 H        0.9250     4.9130     1.2460 H     1 <1>   0.4500 
 27 H       -4.5500    -4.8470    -0.8410 H     1 <1>   0.1500 
 28 H       -0.7920     6.2540    -0.7550 H     1 <1>   0.0800 
 29 H        0.1980     7.0580     0.4460 H     1 <1>   0.0800 
 30 H       -1.1550     6.0690     0.9480 H     1 <1>   0.0800 
 31 H        1.2970     5.1660    -1.6900 H     1 <1>   0.0800 
 32 H        2.3590     4.2980    -0.6000 H     1 <1>   0.0800 
 33 H        2.2110     6.0360    -0.4750 H     1 <1>   0.0800 
 34 H       -0.5230    -6.8550     0.6500 H     1 <1>   0.1500 
 35 H       -1.5070    -8.9870     0.4690 H     1 <1>   0.0800 
 36 H       -2.6670    -9.1050    -0.8350 H     1 <1>   0.0800 
 37 H       -3.2210    -8.9900     0.8170 H     1 <1>   0.0800 
@<TRIPOS>BOND
  1   1   2  1   
  2   1   3  1   
  3   2   4  2   
  4   2   5  1   
  5   3   6  2   
  6   3   7  1   
  7   4   6  1   
  8   5   8  am  
  9   5  21  1   
 10   7   9  1   
 11   7  22  1   
 12   7  23  1   
 13   8  10  2   
 14   8  11  1   
 15   9  12  1   
 16   9  24  1   
 17   9  25  1   
 18  11  13  ar  
 19  11  14  ar  
 20  12  15  1   
 21  12  16  1   
 22  12  26  1   
 23  13  17  ar  
 24  14  18  ar  
 25  14  27  1   
 26  15  28  1   
 27  15  29  1   
 28  15  30  1   
 29  16  31  1   
 30  16  32  1   
 31  16  33  1   
 32  17  19  ar  
 33  17  34  1   
 34  18  19  ar  
 35  19  20  1   
 36  20  35  1   
 37  20  36  1   
 38  20  37  1   
@<TRIPOS>SUBSTRUCTURE
  1 ****   2 GROUP 4 **** **** 0

# MOE 2024.06 (io_trps.svl 2023.06)
