@<TRIPOS>MOLECULE
NONAME
50 51 1 0 0 
SMALL
USER_CHARGES


@<TRIPOS>ATOM
  1 O       -0.2670     0.6180     0.3560 O.2   1 <1>  -0.5700 
  2 C        0.6730    -0.0550     0.0090 C.2   1 <1>   0.5690 
  3 N        1.9750     0.3550     0.0630 N.am  1 <1>  -0.4940 
  4 C        0.4170    -1.4570    -0.4900 C.3   1 <1>  -0.0990 
  5 C        2.5250     1.5610     0.5600 C.2   1 <1>  -0.0880 
  6 C        0.4110    -2.4490     0.6760 C.3   1 <1>   0.0210 
  7 N        3.8560     1.8100     0.7310 N.pl3 1 <1>   0.3140 
  8 C        1.8760     2.6780     0.9610 C.2   1 <1>  -0.1500 
  9 C        0.4890    -3.8670     0.1440 C.2   1 <1>  -0.1810 
 10 N        4.0590     3.0530     1.2310 N.2   1 <1>  -0.7070 
 11 C        5.0190     0.9060     0.4830 C.3   1 <1>   0.1760 
 12 C        2.8720     3.5580     1.3610 C.2   1 <1>   0.1390 
 13 C        1.6440    -4.6270    -0.0250 C.2   1 <1>   0.1080 
 14 C       -0.5140    -4.6680    -0.2780 C.2   1 <1>  -0.3320 
 15 C        5.1260     0.4750    -1.0000 C.3   1 <1>  -0.1600 
 16 C        4.9730    -0.2910     1.4590 C.3   1 <1>  -0.1600 
 17 N        1.3910    -5.7980    -0.5120 N.2   1 <1>  -0.7070 
 18 C        3.0530    -4.1910     0.3060 C.3   1 <1>  -0.0590 
 19 N        0.0590    -5.8300    -0.6670 N.pl3 1 <1>   0.3140 
 20 C       -2.0090    -4.3940    -0.3400 C.3   1 <1>  -0.0600 
 21 C        5.0850     1.6550    -1.9820 C.3   1 <1>  -0.2400 
 22 C        6.2330    -1.1680     1.4220 C.3   1 <1>  -0.2400 
 23 C       -0.6130    -7.0210    -1.2000 C.3   1 <1>   0.0160 
 24 H        2.6480    -0.3170    -0.2970 H     1 <1>   0.3700 
 25 H        1.1750    -1.7300    -1.2010 H     1 <1>   0.0800 
 26 H       -0.5320    -1.4880    -0.9940 H     1 <1>   0.0800 
 27 H       -0.4860    -2.3210     1.2560 H     1 <1>   0.0800 
 28 H        1.2460    -2.2670     1.3290 H     1 <1>   0.0800 
 29 H        0.8180     2.8650     0.9770 H     1 <1>   0.1500 
 30 H        5.8980     1.4810     0.7150 H     1 <1>   0.0800 
 31 H        2.6880     4.5500     1.7380 H     1 <1>   0.1500 
 32 H        4.3480    -0.2230    -1.2470 H     1 <1>   0.0800 
 33 H        6.0630    -0.0330    -1.1420 H     1 <1>   0.0800 
 34 H        4.1160    -0.9070     1.2550 H     1 <1>   0.0800 
 35 H        4.8680     0.0980     2.4590 H     1 <1>   0.0800 
 36 H        3.2930    -3.2890    -0.2220 H     1 <1>   0.0800 
 37 H        3.7470    -4.9590     0.0150 H     1 <1>   0.0800 
 38 H        3.1430    -4.0280     1.3640 H     1 <1>   0.0800 
 39 H       -2.2290    -3.4000     0.0020 H     1 <1>   0.0800 
 40 H       -2.5380    -5.0920     0.2850 H     1 <1>   0.0800 
 41 H       -2.3620    -4.4900    -1.3510 H     1 <1>   0.0800 
 42 H        4.1280     2.1490    -1.9540 H     1 <1>   0.0800 
 43 H        5.2540     1.3070    -2.9860 H     1 <1>   0.0800 
 44 H        5.8470     2.3750    -1.7380 H     1 <1>   0.0800 
 45 H        6.3280    -1.6770     0.4800 H     1 <1>   0.0800 
 46 H        6.1820    -1.9120     2.1980 H     1 <1>   0.0800 
 47 H        7.1130    -0.5700     1.5870 H     1 <1>   0.0800 
 48 H       -1.1230    -6.7610    -2.1070 H     1 <1>   0.0800 
 49 H       -1.3120    -7.3850    -0.4720 H     1 <1>   0.0800 
 50 H        0.1230    -7.7770    -1.4030 H     1 <1>   0.0800 
@<TRIPOS>BOND
  1   1   2  2   
  2   2   3  am  
  3   2   4  1   
  4   3   5  1   
  5   3  24  1   
  6   4   6  1   
  7   4  25  1   
  8   4  26  1   
  9   5   7  1   
 10   5   8  2   
 11   6   9  1   
 12   6  27  1   
 13   6  28  1   
 14   7  10  1   
 15   7  11  1   
 16   8  12  1   
 17   8  29  1   
 18   9  13  1   
 19   9  14  2   
 20  10  12  2   
 21  11  15  1   
 22  11  16  1   
 23  11  30  1   
 24  12  31  1   
 25  13  17  2   
 26  13  18  1   
 27  14  19  1   
 28  14  20  1   
 29  15  21  1   
 30  15  32  1   
 31  15  33  1   
 32  16  22  1   
 33  16  34  1   
 34  16  35  1   
 35  17  19  1   
 36  18  36  1   
 37  18  37  1   
 38  18  38  1   
 39  19  23  1   
 40  20  39  1   
 41  20  40  1   
 42  20  41  1   
 43  21  42  1   
 44  21  43  1   
 45  21  44  1   
 46  22  45  1   
 47  22  46  1   
 48  22  47  1   
 49  23  48  1   
 50  23  49  1   
 51  23  50  1   
@<TRIPOS>SUBSTRUCTURE
  1 ****   3 GROUP 4 **** **** 0

# MOE 2024.06 (io_trps.svl 2023.06)
