@<TRIPOS>MOLECULE
NONAME
45 47 1 0 0 
SMALL
USER_CHARGES


@<TRIPOS>ATOM
  1 S       -2.1220     0.1910    -0.8870 S.o2  1 <1>   1.2040 
  2 O       -3.2670     0.1250    -1.7660 O.2   1 <1>  -0.6500 
  3 O       -1.9040     1.3640    -0.0700 O.2   1 <1>  -0.6500 
  4 C       -2.0850    -1.2880     0.1560 C.ar  1 <1>  -0.0090 
  5 C       -0.6680    -0.0250    -1.8960 C.3   1 <1>  -0.1350 
  6 C       -2.4440    -2.5290    -0.3530 C.ar  1 <1>  -0.1500 
  7 C       -1.6780    -1.2250     1.4820 C.ar  1 <1>  -0.1500 
  8 C       -2.4060    -3.6980     0.4070 C.ar  1 <1>   0.0860 
  9 C       -1.6270    -2.3630     2.2660 C.ar  1 <1>  -0.1500 
 10 C       -2.7850    -4.9740    -0.1760 C.2   1 <1>   0.5440 
 11 C       -1.9840    -3.5860     1.7310 C.ar  1 <1>  -0.1500 
 12 O       -2.6580    -5.1730    -1.3680 O.2   1 <1>  -0.5700 
 13 N       -3.3050    -5.9720     0.5950 N.am  1 <1>  -0.7300 
 14 C       -3.7050    -7.3090     0.1010 C.3   1 <1>   0.2200 
 15 C       -5.2130    -7.3420    -0.0850 C.3   1 <1>  -0.0800 
 16 C       -3.5090    -8.3390     1.2060 C.3   1 <1>   0.1200 
 17 C       -5.7120    -7.6840     1.3250 C.3   1 <1>   0.1200 
 18 C       -5.6270    -8.3980    -1.1270 C.3   1 <1>  -0.0170 
 19 O       -4.6320    -8.2310     2.0270 O.3   1 <1>  -0.5600 
 20 C       -7.1350    -8.4270    -1.3250 C.ar  1 <1>  -0.1430 
 21 C       -7.9240    -9.4400    -0.8180 C.ar  1 <1>  -0.1500 
 22 C       -7.7920    -7.4380    -2.0280 C.ar  1 <1>  -0.1500 
 23 C       -9.2930    -9.4110    -1.0270 C.ar  1 <1>   0.1600 
 24 C       -9.1670    -7.5030    -2.1800 C.ar  1 <1>   0.1600 
 25 N       -9.9340    -8.4660    -1.6940 N.ar  1 <1>  -0.6200 
 26 H       -0.7400    -0.9290    -2.4690 H     1 <1>   0.0800 
 27 H        0.2100    -0.0720    -1.2820 H     1 <1>   0.0800 
 28 H       -0.5680     0.8000    -2.5730 H     1 <1>   0.0800 
 29 H       -2.7710    -2.5980    -1.3780 H     1 <1>   0.1500 
 30 H       -1.3990    -0.2740     1.9080 H     1 <1>   0.1500 
 31 H       -1.3070    -2.2940     3.2930 H     1 <1>   0.1500 
 32 H       -1.9270    -4.4640     2.3510 H     1 <1>   0.1500 
 33 H       -3.5560    -5.7980     1.5700 H     1 <1>   0.3700 
 34 H       -3.1570    -7.5580    -0.7930 H     1 <1>   0.0800 
 35 H       -5.5840    -6.3830    -0.4030 H     1 <1>   0.0800 
 36 H       -2.6180    -8.1660     1.7840 H     1 <1>   0.0800 
 37 H       -3.4930    -9.3350     0.8010 H     1 <1>   0.0800 
 38 H       -6.5210    -8.3930     1.3250 H     1 <1>   0.0800 
 39 H       -6.0210    -6.7940     1.8460 H     1 <1>   0.0800 
 40 H       -5.2840    -9.3730    -0.8280 H     1 <1>   0.0800 
 41 H       -5.1620    -8.1670    -2.0700 H     1 <1>   0.0800 
 42 H       -7.4910   -10.2510    -0.2620 H     1 <1>   0.1500 
 43 H       -7.2480    -6.6170    -2.4590 H     1 <1>   0.1500 
 44 H       -9.8930   -10.2090    -0.6230 H     1 <1>   0.1500 
 45 H       -9.6620    -6.7220    -2.7310 H     1 <1>   0.1500 
@<TRIPOS>BOND
  1   1   2  2   
  2   1   3  2   
  3   1   4  1   
  4   1   5  1   
  5   4   6  ar  
  6   4   7  ar  
  7   5  26  1   
  8   5  27  1   
  9   5  28  1   
 10   6   8  ar  
 11   6  29  1   
 12   7   9  ar  
 13   7  30  1   
 14   8  10  1   
 15   8  11  ar  
 16   9  11  ar  
 17   9  31  1   
 18  10  12  2   
 19  10  13  am  
 20  11  32  1   
 21  13  14  1   
 22  13  33  1   
 23  14  15  1   
 24  14  16  1   
 25  14  34  1   
 26  15  17  1   
 27  15  18  1   
 28  15  35  1   
 29  16  19  1   
 30  16  36  1   
 31  16  37  1   
 32  17  19  1   
 33  17  38  1   
 34  17  39  1   
 35  18  20  1   
 36  18  40  1   
 37  18  41  1   
 38  20  21  ar  
 39  20  22  ar  
 40  21  23  ar  
 41  21  42  1   
 42  22  24  ar  
 43  22  43  1   
 44  23  25  ar  
 45  23  44  1   
 46  24  25  ar  
 47  24  45  1   
@<TRIPOS>SUBSTRUCTURE
  1 ****  10 GROUP 4 **** **** 0

# MOE 2024.06 (io_trps.svl 2023.06)
