@<TRIPOS>MOLECULE
NONAME
41 42 1 0 0 
SMALL
USER_CHARGES


@<TRIPOS>ATOM
  1 S        0.0970     0.3010     0.1430 S.3   1 <1>  -0.0800 
  2 C        1.7920     0.5040    -0.2180 C.2   1 <1>  -0.1400 
  3 C        0.2010     1.6470     1.2520 C.2   1 <1>   0.2280 
  4 C        2.2630     1.5360     0.5010 C.2   1 <1>   0.0460 
  5 C        2.4340    -0.4370    -1.2090 C.3   1 <1>   0.5230 
  6 N        1.3580     2.1690     1.3300 N.2   1 <1>  -0.5650 
  7 C        3.6730     2.0930     0.5160 C.3   1 <1>  -0.0590 
  8 N        2.5680    -1.7640    -0.5550 N.4   1 <1>  -0.9590 
  9 C        3.8890    -2.4070    -0.8100 C.3   1 <1>   0.4860 
 10 C        1.4310    -2.6630    -0.8830 C.3   1 <1>   0.3430 
 11 C        4.9900    -1.4810    -0.3290 C.ar  1 <1>  -0.1430 
 12 C        1.3400    -3.7680     0.1560 C.3   1 <1>  -0.1600 
 13 C        5.1600    -1.2410     1.0280 C.ar  1 <1>  -0.1500 
 14 C        5.8330    -0.8610    -1.2410 C.ar  1 <1>  -0.1500 
 15 C        0.2330    -4.7680    -0.2060 C.3   1 <1>  -0.2660 
 16 C        6.1510    -0.3810     1.4650 C.ar  1 <1>  -0.1500 
 17 C        6.8240    -0.0010    -0.8020 C.ar  1 <1>  -0.1500 
 18 C        0.3290    -5.9820     0.6800 C.2   1 <1>   0.9060 
 19 C        6.9810     0.2410     0.5510 C.ar  1 <1>  -0.1500 
 20 O       -0.5380    -6.1550     1.5350 O.co2 1 <1>  -0.9000 
 21 O        1.3150    -6.7060     0.5340 O.co2 1 <1>  -0.9000 
 22 H       -0.6970     1.9290     1.7760 H     1 <1>   0.1500 
 23 H        3.4020    -0.0460    -1.4720 H     1 <1>   0.0800 
 24 H        1.8380    -0.5060    -2.1040 H     1 <1>   0.0800 
 25 H        4.3120     1.5680    -0.1670 H     1 <1>   0.0800 
 26 H        4.0830     2.0120     1.5070 H     1 <1>   0.0800 
 27 H        3.6520     3.1320     0.2420 H     1 <1>   0.0800 
 28 H        2.5240    -1.5700     0.4530 H     1 <1>   0.4500 
 29 H        4.0100    -2.6100    -1.8620 H     1 <1>   0.0800 
 30 H        3.9620    -3.3410    -0.2770 H     1 <1>   0.0800 
 31 H        1.5630    -3.0940    -1.8620 H     1 <1>   0.0800 
 32 H        0.5040    -2.1130    -0.8780 H     1 <1>   0.0800 
 33 H        1.1280    -3.3600     1.1300 H     1 <1>   0.0800 
 34 H        2.2630    -4.3180     0.2090 H     1 <1>   0.0800 
 35 H        4.5310    -1.7220     1.7610 H     1 <1>   0.1500 
 36 H        5.7360    -1.0410    -2.2990 H     1 <1>   0.1500 
 37 H        0.3380    -5.1110    -1.2170 H     1 <1>   0.0800 
 38 H       -0.7400    -4.3310    -0.0840 H     1 <1>   0.0800 
 39 H        6.2830    -0.1960     2.5190 H     1 <1>   0.1500 
 40 H        7.4790     0.4790    -1.5100 H     1 <1>   0.1500 
 41 H        7.7550     0.9090     0.8920 H     1 <1>   0.1500 
@<TRIPOS>BOND
  1   1   2  1   
  2   1   3  1   
  3   2   4  2   
  4   2   5  1   
  5   3   6  2   
  6   3  22  1   
  7   4   6  1   
  8   4   7  1   
  9   5   8  1   
 10   5  23  1   
 11   5  24  1   
 12   7  25  1   
 13   7  26  1   
 14   7  27  1   
 15   8   9  1   
 16   8  10  1   
 17   8  28  1   
 18   9  11  1   
 19   9  29  1   
 20   9  30  1   
 21  10  12  1   
 22  10  31  1   
 23  10  32  1   
 24  11  13  ar  
 25  11  14  ar  
 26  12  15  1   
 27  12  33  1   
 28  12  34  1   
 29  13  16  ar  
 30  13  35  1   
 31  14  17  ar  
 32  14  36  1   
 33  15  18  1   
 34  15  37  1   
 35  15  38  1   
 36  16  19  ar  
 37  16  39  1   
 38  17  19  ar  
 39  17  40  1   
 40  18  20  ar  
 41  18  21  ar  
 42  19  41  1   
@<TRIPOS>SUBSTRUCTURE
  1 ****   8 GROUP 4 **** **** 0

# MOE 2024.06 (io_trps.svl 2023.06)
