@<TRIPOS>MOLECULE
NONAME
28 29 1 0 0 
SMALL
USER_CHARGES


@<TRIPOS>ATOM
  1 O        2.2310    -3.7670    -0.0320 O.3   1 <1>  -0.5600 
  2 C        1.0310    -3.1370     0.3010 C.3   1 <1>   0.1200 
  3 C        2.1020    -4.6530    -1.0990 C.3   1 <1>   0.1200 
  4 C       -0.0100    -4.1830     0.7350 C.3   1 <1>   0.1100 
  5 C        1.1310    -5.7830    -0.7180 C.3   1 <1>   0.1100 
  6 N       -0.1880    -5.2490    -0.2870 N.3   1 <1>  -0.7500 
  7 C       -1.2890    -6.2190     0.0350 C.3   1 <1>   0.2100 
  8 C       -1.1150    -7.0670     1.3360 C.3   1 <1>   0.4720 
  9 C       -1.2450    -7.5990    -0.6970 C.3   1 <1>   0.4720 
 10 C       -2.6610    -5.5410    -0.0990 C.3   1 <1>  -0.2400 
 11 N       -0.5240    -8.1650     0.4970 N.4   1 <1>  -0.8440 
 12 H        0.6820    -2.5780    -0.5500 H     1 <1>   0.0800 
 13 H        1.2320    -2.4510     1.1050 H     1 <1>   0.0800 
 14 H        3.0780    -5.0500    -1.3150 H     1 <1>   0.0800 
 15 H        1.7490    -4.1130    -1.9610 H     1 <1>   0.0800 
 16 H       -0.9390    -3.6700     0.9040 H     1 <1>   0.0800 
 17 H        0.3120    -4.6110     1.6690 H     1 <1>   0.0800 
 18 H        1.5820    -6.3500     0.0770 H     1 <1>   0.0800 
 19 H        1.0110    -6.4160    -1.5790 H     1 <1>   0.0800 
 20 H       -2.0500    -7.3770     1.7650 H     1 <1>   0.0000 
 21 H       -0.4100    -6.6660     2.0410 H     1 <1>   0.0000 
 22 H       -0.6470    -7.6200    -1.5900 H     1 <1>   0.0000 
 23 H       -2.2140    -8.0510    -0.8020 H     1 <1>   0.0000 
 24 H       -2.8040    -4.7950     0.6620 H     1 <1>   0.0800 
 25 H       -3.4570    -6.2580    -0.0020 H     1 <1>   0.0800 
 26 H       -2.7470    -5.0730    -1.0650 H     1 <1>   0.0800 
 27 H       -0.8300    -9.1050     0.7650 H     1 <1>   0.4500 
 28 H        0.4900    -8.0640     0.4150 H     1 <1>   0.4500 
@<TRIPOS>BOND
  1   1   2  1   
  2   1   3  1   
  3   2   4  1   
  4   2  12  1   
  5   2  13  1   
  6   3   5  1   
  7   3  14  1   
  8   3  15  1   
  9   4   6  1   
 10   4  16  1   
 11   4  17  1   
 12   5   6  1   
 13   5  18  1   
 14   5  19  1   
 15   6   7  1   
 16   7   8  1   
 17   7   9  1   
 18   7  10  1   
 19   8  11  1   
 20   8  20  1   
 21   8  21  1   
 22   9  11  1   
 23   9  22  1   
 24   9  23  1   
 25  10  24  1   
 26  10  25  1   
 27  10  26  1   
 28  11  27  1   
 29  11  28  1   
@<TRIPOS>SUBSTRUCTURE
  1 ****   6 GROUP 4 **** **** 0

# MOE 2024.06 (io_trps.svl 2023.06)
