@<TRIPOS>MOLECULE
NONAME
51 55 1 0 0 
SMALL
USER_CHARGES


@<TRIPOS>ATOM
  1 O        1.5360    -0.5420     0.0780 O.2   1 <1>  -0.5700 
  2 C        2.6960    -0.8520     0.2360 C.2   1 <1>   0.7800 
  3 O        3.0750    -1.6840     1.1960 O.3   1 <1>  -0.4300 
  4 N        3.7470    -0.3840    -0.4730 N.am  1 <1>  -0.6600 
  5 C        4.4790    -1.8490     1.1880 C.3   1 <1>   0.1200 
  6 C        4.9940    -0.8190     0.1710 C.3   1 <1>   0.2200 
  7 C        3.7150     0.8730    -1.2680 C.3   1 <1>   0.1400 
  8 C        5.7100     0.3730     0.8430 C.3   1 <1>   0.1400 
  9 C        5.1080     1.5170    -1.3540 C.3   1 <1>   0.1400 
 10 N        5.7350     1.6200     0.0050 N.am  1 <1>  -0.6600 
 11 C        6.0540     2.8250     0.5960 C.2   1 <1>   0.7160 
 12 O        6.4840     2.8130     1.7360 O.2   1 <1>  -0.5700 
 13 C        5.8800     4.0760    -0.0700 C.2   1 <1>  -0.0860 
 14 C        4.6500     4.6690    -0.3730 C.2   1 <1>   0.3720 
 15 C        6.7900     4.9430    -0.5860 C.2   1 <1>   0.0870 
 16 N        4.8190     5.7710    -1.0170 N.2   1 <1>  -0.4100 
 17 N        3.3940     4.1300    -0.0540 N.pl3 1 <1>  -0.8210 
 18 O        6.1110     5.9210    -1.1300 O.3   1 <1>  -0.0190 
 19 C        8.2290     4.9360    -0.6500 C.ar  1 <1>   0.0530 
 20 C        3.0950     4.0020     1.4100 C.3   1 <1>   0.2090 
 21 C        2.2100     4.6860    -0.7870 C.3   1 <1>   0.2090 
 22 C        9.0170     4.4450     0.3900 C.ar  1 <1>  -0.1500 
 23 C        8.8890     5.4300    -1.7760 C.ar  1 <1>  -0.1500 
 24 C        2.5000     5.3020     1.9810 C.3   1 <1>   0.1200 
 25 C        1.6530     5.9490    -0.1010 C.3   1 <1>   0.1200 
 26 C       10.3970     4.4320     0.3060 C.ar  1 <1>  -0.1500 
 27 C       10.2690     5.4220    -1.8670 C.ar  1 <1>  -0.1500 
 28 O        1.3760     5.7030     1.2490 O.3   1 <1>  -0.5600 
 29 C       11.0270     4.9200    -0.8250 C.ar  1 <1>  -0.1500 
 30 H        4.6970    -2.8530     0.8670 H     1 <1>   0.0800 
 31 H        4.8590    -1.6880     2.1810 H     1 <1>   0.0800 
 32 H        5.6460    -1.2870    -0.5460 H     1 <1>   0.0800 
 33 H        3.0300     1.5650    -0.8080 H     1 <1>   0.0800 
 34 H        3.3510     0.6570    -2.2570 H     1 <1>   0.0800 
 35 H        6.7200     0.0940     1.0880 H     1 <1>   0.0800 
 36 H        5.2040     0.6000     1.7670 H     1 <1>   0.0800 
 37 H        5.0200     2.4790    -1.8230 H     1 <1>   0.0800 
 38 H        5.7380     0.9130    -1.9840 H     1 <1>   0.0800 
 39 H        3.9870     3.7590     1.9580 H     1 <1>   0.0800 
 40 H        2.3940     3.1980     1.5570 H     1 <1>   0.0800 
 41 H        1.4360     3.9390    -0.8230 H     1 <1>   0.0800 
 42 H        2.4820     4.9200    -1.8020 H     1 <1>   0.0800 
 43 H        8.5520     4.0740     1.2850 H     1 <1>   0.1500 
 44 H        8.3110     5.8230    -2.5940 H     1 <1>   0.1500 
 45 H        3.2300     6.0930     1.9530 H     1 <1>   0.0800 
 46 H        2.1910     5.1510     3.0000 H     1 <1>   0.0800 
 47 H        0.7360     6.2530    -0.5740 H     1 <1>   0.0800 
 48 H        2.3600     6.7570    -0.1670 H     1 <1>   0.0800 
 49 H       10.9830     4.0450     1.1220 H     1 <1>   0.1500 
 50 H       10.7540     5.8070    -2.7470 H     1 <1>   0.1500 
 51 H       12.1010     4.9120    -0.8920 H     1 <1>   0.1500 
@<TRIPOS>BOND
  1   1   2  2   
  2   2   3  1   
  3   2   4  am  
  4   3   5  1   
  5   4   6  1   
  6   4   7  1   
  7   5   6  1   
  8   5  30  1   
  9   5  31  1   
 10   6   8  1   
 11   6  32  1   
 12   7   9  1   
 13   7  33  1   
 14   7  34  1   
 15   8  10  1   
 16   8  35  1   
 17   8  36  1   
 18   9  10  1   
 19   9  37  1   
 20   9  38  1   
 21  10  11  am  
 22  11  12  2   
 23  11  13  1   
 24  13  14  1   
 25  13  15  2   
 26  14  16  2   
 27  14  17  1   
 28  15  18  1   
 29  15  19  1   
 30  16  18  1   
 31  17  20  1   
 32  17  21  1   
 33  19  22  ar  
 34  19  23  ar  
 35  20  24  1   
 36  20  39  1   
 37  20  40  1   
 38  21  25  1   
 39  21  41  1   
 40  21  42  1   
 41  22  26  ar  
 42  22  43  1   
 43  23  27  ar  
 44  23  44  1   
 45  24  28  1   
 46  24  45  1   
 47  24  46  1   
 48  25  28  1   
 49  25  47  1   
 50  25  48  1   
 51  26  29  ar  
 52  26  49  1   
 53  27  29  ar  
 54  27  50  1   
 55  29  51  1   
@<TRIPOS>SUBSTRUCTURE
  1 ****  11 GROUP 4 **** **** 0

# MOE 2024.06 (io_trps.svl 2023.06)
