@<TRIPOS>MOLECULE
NONAME
48 52 1 0 0 
SMALL
USER_CHARGES


@<TRIPOS>ATOM
  1 S       -2.4730    -0.0390     1.0620 S.3   1 <1>  -0.2820 
  2 C       -2.0980    -1.4030     0.0460 C.2   1 <1>   0.6510 
  3 C       -1.5060     0.9970     0.0150 C.2   1 <1>   0.5910 
  4 N       -2.5420    -2.5980     0.2740 N.2   1 <1>  -0.6210 
  5 N       -1.2990    -0.9740    -0.9780 N.am  1 <1>  -0.0580 
  6 N       -0.9800     0.3930    -0.9690 N.2   1 <1>  -0.5120 
  7 C       -1.4220     2.4620     0.4110 C.3   1 <1>  -0.1000 
  8 C       -2.1540    -3.5560    -0.6220 C.2   1 <1>   0.0330 
  9 C       -0.9030    -1.9280    -1.9030 C.2   1 <1>   0.6160 
 10 C       -0.2410     3.3090     0.0370 C.3   1 <1>  -0.2000 
 11 C       -0.4610     2.9190     1.4690 C.3   1 <1>  -0.2000 
 12 C       -1.3610    -3.2530    -1.6840 C.2   1 <1>  -0.1360 
 13 C       -2.6500    -4.9810    -0.3670 C.3   1 <1>   0.4810 
 14 O       -0.2020    -1.6590    -2.8650 O.2   1 <1>  -0.5700 
 15 N       -4.1450    -5.0320    -0.3570 N.4   1 <1>  -0.9590 
 16 C       -4.7180    -4.5360     0.9440 C.3   1 <1>   0.3430 
 17 C       -4.6560    -6.4180    -0.5550 C.3   1 <1>   0.3430 
 18 C       -5.4350    -5.7270     1.5930 C.3   1 <1>   0.2000 
 19 C       -4.9480    -6.9600     0.8420 C.3   1 <1>  -0.0800 
 20 O       -5.1370    -5.8440     2.9420 O.3   1 <1>  -0.6800 
 21 C       -5.9630    -8.1180     0.8570 C.3   1 <1>  -0.0170 
 22 C       -5.4310    -9.3500     0.1360 C.ar  1 <1>   0.1670 
 23 N       -5.1650    -9.2110    -1.1560 N.ar  1 <1>  -0.6200 
 24 C       -5.2490   -10.5430     0.8350 C.ar  1 <1>   0.1600 
 25 C       -4.7290   -10.3400    -1.6960 C.ar  1 <1>   0.1600 
 26 N       -4.7960   -11.6610     0.2980 N.ar  1 <1>  -0.6200 
 27 C       -4.5490   -11.5240    -0.9930 C.ar  1 <1>   0.1600 
 28 H       -2.3870     2.9350     0.3840 H     1 <1>   0.1000 
 29 H        0.5730     2.8570    -0.5040 H     1 <1>   0.1000 
 30 H       -0.4110     4.3310    -0.2550 H     1 <1>   0.1000 
 31 H       -0.7800     3.6730     2.1680 H     1 <1>   0.1000 
 32 H        0.2150     2.2070     1.9120 H     1 <1>   0.1000 
 33 H       -1.0350    -3.9790    -2.4070 H     1 <1>   0.1500 
 34 H       -2.2620    -5.3330     0.5760 H     1 <1>   0.0800 
 35 H       -2.2710    -5.6230    -1.1450 H     1 <1>   0.0800 
 36 H       -4.4720    -4.4210    -1.1170 H     1 <1>   0.4500 
 37 H       -3.9360    -4.1750     1.5920 H     1 <1>   0.0800 
 38 H       -5.4210    -3.7380     0.7650 H     1 <1>   0.0800 
 39 H       -5.5740    -6.3910    -1.1210 H     1 <1>   0.0800 
 40 H       -3.9490    -7.0420    -1.0800 H     1 <1>   0.0800 
 41 H       -6.5010    -5.5990     1.4990 H     1 <1>   0.0800 
 42 H       -4.0180    -7.3020     1.2610 H     1 <1>   0.0800 
 43 H       -4.2040    -6.0790     3.1130 H     1 <1>   0.4000 
 44 H       -6.8810    -7.8160     0.3840 H     1 <1>   0.0800 
 45 H       -6.1950    -8.3690     1.8770 H     1 <1>   0.0800 
 46 H       -5.4870   -10.5780     1.8840 H     1 <1>   0.1500 
 47 H       -4.5020   -10.3310    -2.7480 H     1 <1>   0.1500 
 48 H       -4.1880   -12.3910    -1.5190 H     1 <1>   0.1500 
@<TRIPOS>BOND
  1   1   2  1   
  2   1   3  1   
  3   2   4  2   
  4   2   5  1   
  5   3   6  2   
  6   3   7  1   
  7   4   8  1   
  8   5   6  1   
  9   5   9  am  
 10   7  10  1   
 11   7  11  1   
 12   7  28  1   
 13   8  12  2   
 14   8  13  1   
 15   9  12  1   
 16   9  14  2   
 17  10  11  1   
 18  10  29  1   
 19  10  30  1   
 20  11  31  1   
 21  11  32  1   
 22  12  33  1   
 23  13  15  1   
 24  13  34  1   
 25  13  35  1   
 26  15  16  1   
 27  15  17  1   
 28  15  36  1   
 29  16  18  1   
 30  16  37  1   
 31  16  38  1   
 32  17  19  1   
 33  17  39  1   
 34  17  40  1   
 35  18  19  1   
 36  18  20  1   
 37  18  41  1   
 38  19  21  1   
 39  19  42  1   
 40  20  43  1   
 41  21  22  1   
 42  21  44  1   
 43  21  45  1   
 44  22  23  ar  
 45  22  24  ar  
 46  23  25  ar  
 47  24  26  ar  
 48  24  46  1   
 49  25  27  ar  
 50  25  47  1   
 51  26  27  ar  
 52  27  48  1   
@<TRIPOS>SUBSTRUCTURE
  1 ****  13 GROUP 4 **** **** 0

# MOE 2024.06 (io_trps.svl 2023.06)
