@<TRIPOS>MOLECULE
NONAME
51 53 1 0 0 
SMALL
USER_CHARGES


@<TRIPOS>ATOM
  1 CL      -0.6490    -0.7680    -1.4890 Cl    1 <1>  -0.1770 
  2 C       -0.4990    -2.1030    -0.3640 C.ar  1 <1>   0.1770 
  3 C        0.7170    -2.7300    -0.0820 C.ar  1 <1>   0.0820 
  4 C       -1.6720    -2.5400     0.2240 C.ar  1 <1>  -0.1500 
  5 O        1.9280    -2.3880    -0.5910 O.3   1 <1>  -0.3630 
  6 C        0.7120    -3.8080     0.7880 C.ar  1 <1>  -0.1500 
  7 C       -1.6800    -3.6220     1.0970 C.ar  1 <1>  -0.0090 
  8 C        2.2940    -1.0370    -0.7640 C.3   1 <1>   0.0400 
  9 C       -0.4660    -4.2430     1.3700 C.ar  1 <1>  -0.1500 
 10 S       -3.2240    -4.1970     1.8520 S.o2  1 <1>   1.4470 
 11 O       -3.1170    -5.5910     2.2400 O.2   1 <1>  -0.6500 
 12 O       -3.7110    -3.2230     2.8000 O.2   1 <1>  -0.6500 
 13 N       -4.3120    -4.2120     0.5460 N.am  1 <1>  -0.8490 
 14 C       -4.1430    -5.4010    -0.3180 C.3   1 <1>   0.1960 
 15 C       -5.7040    -3.9730     1.0070 C.3   1 <1>   0.1960 
 16 C       -5.1060    -6.5080     0.1570 C.3   1 <1>   0.4230 
 17 C       -6.7480    -4.5880     0.0600 C.3   1 <1>  -0.1600 
 18 N       -4.7430    -7.9440    -0.1520 N.4   1 <1>  -0.9590 
 19 C       -6.5710    -6.1240    -0.1700 C.3   1 <1>   0.0000 
 20 C       -5.8760    -8.8950     0.1230 C.3   1 <1>   0.3430 
 21 C       -4.1470    -8.1820    -1.5060 C.3   1 <1>   0.2630 
 22 C       -7.4580    -6.9540     0.7980 C.3   1 <1>  -0.1600 
 23 C       -6.9330    -6.4360    -1.6490 C.3   1 <1>   0.1200 
 24 C       -6.8510    -8.3310     1.1700 C.3   1 <1>  -0.1600 
 25 O       -8.1780    -5.9270    -1.9790 O.3   1 <1>  -0.6800 
 26 H       -2.5920    -2.0300    -0.0070 H     1 <1>   0.1500 
 27 H        1.6430    -4.3020     1.0100 H     1 <1>   0.1500 
 28 H        3.3650    -0.9710    -0.7010 H     1 <1>   0.0800 
 29 H        1.8450    -0.4410     0.0120 H     1 <1>   0.0800 
 30 H        1.9720    -0.7100    -1.7360 H     1 <1>   0.0800 
 31 H       -0.4380    -5.0790     2.0510 H     1 <1>   0.1500 
 32 H       -4.3700    -5.1250    -1.3330 H     1 <1>   0.0800 
 33 H       -3.1220    -5.7400    -0.2850 H     1 <1>   0.0800 
 34 H       -5.8460    -4.4000     1.9880 H     1 <1>   0.0800 
 35 H       -5.8660    -2.9110     1.0950 H     1 <1>   0.0800 
 36 H       -5.0470    -6.4460     1.2310 H     1 <1>   0.0800 
 37 H       -7.7360    -4.3800     0.4340 H     1 <1>   0.0800 
 38 H       -6.6660    -4.0550    -0.8730 H     1 <1>   0.0800 
 39 H       -4.0130    -8.1680     0.5440 H     1 <1>   0.4500 
 40 H       -6.4240    -9.0800    -0.7860 H     1 <1>   0.0800 
 41 H       -5.4850    -9.8400     0.4650 H     1 <1>   0.0800 
 42 H       -4.8560    -7.9430    -2.2810 H     1 <1>   0.0800 
 43 H       -3.8630    -9.2170    -1.6100 H     1 <1>   0.0800 
 44 H       -3.2660    -7.5760    -1.6440 H     1 <1>   0.0800 
 45 H       -7.6040    -6.4080     1.7160 H     1 <1>   0.0800 
 46 H       -8.4370    -7.0960     0.3730 H     1 <1>   0.0800 
 47 H       -6.9600    -7.4900    -1.8530 H     1 <1>   0.0800 
 48 H       -6.2280    -5.9750    -2.3180 H     1 <1>   0.0800 
 49 H       -7.6500    -9.0370     1.3220 H     1 <1>   0.0800 
 50 H       -6.3300    -8.2510     2.1090 H     1 <1>   0.0800 
 51 H       -8.8990    -6.3390    -1.4650 H     1 <1>   0.4000 
@<TRIPOS>BOND
  1   1   2  1   
  2   2   3  ar  
  3   2   4  ar  
  4   3   5  1   
  5   3   6  ar  
  6   4   7  ar  
  7   4  26  1   
  8   5   8  1   
  9   6   9  ar  
 10   6  27  1   
 11   7   9  ar  
 12   7  10  1   
 13   8  28  1   
 14   8  29  1   
 15   8  30  1   
 16   9  31  1   
 17  10  11  2   
 18  10  12  2   
 19  10  13  am  
 20  13  14  1   
 21  13  15  1   
 22  14  16  1   
 23  14  32  1   
 24  14  33  1   
 25  15  17  1   
 26  15  34  1   
 27  15  35  1   
 28  16  18  1   
 29  16  19  1   
 30  16  36  1   
 31  17  19  1   
 32  17  37  1   
 33  17  38  1   
 34  18  20  1   
 35  18  21  1   
 36  18  39  1   
 37  19  22  1   
 38  19  23  1   
 39  20  24  1   
 40  20  40  1   
 41  20  41  1   
 42  21  42  1   
 43  21  43  1   
 44  21  44  1   
 45  22  24  1   
 46  22  45  1   
 47  22  46  1   
 48  23  25  1   
 49  23  47  1   
 50  23  48  1   
 51  24  49  1   
 52  24  50  1   
 53  25  51  1   
@<TRIPOS>SUBSTRUCTURE
  1 ****  14 GROUP 4 **** **** 0

# MOE 2024.06 (io_trps.svl 2023.06)
