@<TRIPOS>MOLECULE
NONAME
51 54 1 0 0 
SMALL
USER_CHARGES


@<TRIPOS>ATOM
  1 CL      -2.5800    -0.2200     1.8250 Cl    1 <1>  -0.1770 
  2 C       -1.6560     1.1630     1.2980 C.ar  1 <1>   0.1770 
  3 C       -2.2830     2.3900     1.1650 C.ar  1 <1>  -0.1440 
  4 C       -0.3110     0.9980     1.0080 C.ar  1 <1>  -0.1500 
  5 C       -1.5110     3.4480     0.7180 C.ar  1 <1>   0.1900 
  6 C       -3.7470     2.5780     1.4980 C.3   1 <1>   0.4860 
  7 C        0.4370     2.0810     0.5680 C.ar  1 <1>  -0.1500 
  8 F       -2.0800     4.6130     0.5590 F     1 <1>  -0.1900 
  9 C       -0.1660     3.3200     0.4200 C.ar  1 <1>  -0.1500 
 10 N       -4.5240     2.7410     0.2400 N.4   1 <1>  -0.9590 
 11 C       -5.9240     3.1990     0.5360 C.3   1 <1>   0.3430 
 12 C       -4.5250     1.4890    -0.5760 C.3   1 <1>   0.3430 
 13 C       -6.7240     3.4780    -0.7490 C.3   1 <1>   0.1440 
 14 C       -5.2590     1.7290    -1.8980 C.3   1 <1>  -0.1600 
 15 C       -8.1460     3.8000    -0.3590 C.ar  1 <1>   0.1670 
 16 C       -6.6920     2.2470    -1.6790 C.3   1 <1>  -0.1600 
 17 C       -6.2750     4.7740    -1.4790 C.3   1 <1>  -0.1600 
 18 N       -8.8510     3.1040     0.4940 N.ar  1 <1>  -0.6200 
 19 C       -8.6040     4.9170    -0.9850 C.ar  1 <1>  -0.1430 
 20 C       -7.5630     5.5120    -1.8980 C.3   1 <1>  -0.0170 
 21 C      -10.0870     3.5670     0.7090 C.ar  1 <1>   0.7200 
 22 C       -9.8850     5.3190    -0.7010 C.ar  1 <1>   0.1600 
 23 N      -10.6310     4.6510     0.1470 N.ar  1 <1>  -0.6200 
 24 N      -10.8680     2.8630     1.6020 N.pl3 1 <1>  -0.8380 
 25 C      -12.1130     3.4450     2.1760 C.3   1 <1>   0.1290 
 26 C      -10.6620     1.4140     1.8730 C.3   1 <1>   0.1290 
 27 H        0.1480     0.0310     1.1250 H     1 <1>   0.1500 
 28 H       -3.8530     3.4610     2.1090 H     1 <1>   0.0800 
 29 H       -4.1200     1.7370     2.0600 H     1 <1>   0.0800 
 30 H        1.4850     1.9590     0.3440 H     1 <1>   0.1500 
 31 H        0.3990     4.1710     0.0780 H     1 <1>   0.1500 
 32 H       -4.0520     3.4760    -0.3050 H     1 <1>   0.4500 
 33 H       -5.9090     4.0930     1.1370 H     1 <1>   0.0800 
 34 H       -6.4430     2.4360     1.0950 H     1 <1>   0.0800 
 35 H       -5.0190     0.6990    -0.0300 H     1 <1>   0.0800 
 36 H       -3.5140     1.1750    -0.7800 H     1 <1>   0.0800 
 37 H       -5.3020     0.8010    -2.4430 H     1 <1>   0.0800 
 38 H       -4.6950     2.4200    -2.4990 H     1 <1>   0.0800 
 39 H       -7.1500     2.4850    -2.6250 H     1 <1>   0.0800 
 40 H       -7.2790     1.4610    -1.2330 H     1 <1>   0.0800 
 41 H       -5.6460     4.5840    -2.3300 H     1 <1>   0.0800 
 42 H       -5.7400     5.4100    -0.7940 H     1 <1>   0.0800 
 43 H       -7.8150     5.2940    -2.9220 H     1 <1>   0.0800 
 44 H       -7.4760     6.5770    -1.7640 H     1 <1>   0.0800 
 45 H      -10.3020     6.1940    -1.1690 H     1 <1>   0.1500 
 46 H      -12.0140     4.5110     2.2850 H     1 <1>   0.0800 
 47 H      -12.3070     3.0220     3.1450 H     1 <1>   0.0800 
 48 H      -12.9430     3.2370     1.5220 H     1 <1>   0.0800 
 49 H      -10.0280     0.9700     1.1250 H     1 <1>   0.0800 
 50 H      -11.6070     0.9000     1.8600 H     1 <1>   0.0800 
 51 H      -10.2050     1.2900     2.8390 H     1 <1>   0.0800 
@<TRIPOS>BOND
  1   1   2  1   
  2   2   3  ar  
  3   2   4  ar  
  4   3   5  ar  
  5   3   6  1   
  6   4   7  ar  
  7   4  27  1   
  8   5   8  1   
  9   5   9  ar  
 10   6  10  1   
 11   6  28  1   
 12   6  29  1   
 13   7   9  ar  
 14   7  30  1   
 15   9  31  1   
 16  10  11  1   
 17  10  12  1   
 18  10  32  1   
 19  11  13  1   
 20  11  33  1   
 21  11  34  1   
 22  12  14  1   
 23  12  35  1   
 24  12  36  1   
 25  13  15  1   
 26  13  16  1   
 27  13  17  1   
 28  14  16  1   
 29  14  37  1   
 30  14  38  1   
 31  15  18  ar  
 32  15  19  ar  
 33  16  39  1   
 34  16  40  1   
 35  17  20  1   
 36  17  41  1   
 37  17  42  1   
 38  18  21  ar  
 39  19  20  1   
 40  19  22  ar  
 41  20  43  1   
 42  20  44  1   
 43  21  23  ar  
 44  21  24  1   
 45  22  23  ar  
 46  22  45  1   
 47  24  25  1   
 48  24  26  1   
 49  25  46  1   
 50  25  47  1   
 51  25  48  1   
 52  26  49  1   
 53  26  50  1   
 54  26  51  1   
@<TRIPOS>SUBSTRUCTURE
  1 ****  11 GROUP 4 **** **** 0

# MOE 2024.06 (io_trps.svl 2023.06)
