@<TRIPOS>MOLECULE
NONAME
29 30 1 0 0 
SMALL
USER_CHARGES


@<TRIPOS>ATOM
  1 S       -1.5770    -7.9450    -0.0870 S.3   1 <1>  -0.3610 
  2 C       -0.0650    -7.1630     0.3610 C.cat 1 <1>   0.8400 
  3 C       -1.2400    -9.7490    -0.2240 C.3   1 <1>   0.0700 
  4 N        1.0190    -7.9030     0.4720 N.pl3 1 <1>  -0.7940 
  5 N       -0.1090    -5.8460     0.5720 N.pl3 1 <1>  -0.8330 
  6 C        0.1810    -9.9220    -0.7430 C.3   1 <1>  -0.1600 
  7 C        1.2010    -9.3600     0.2430 C.3   1 <1>   0.3290 
  8 C        1.0740    -5.0040     0.9820 C.3   1 <1>   0.3290 
  9 C       -1.4240    -5.0880     0.4960 C.3   1 <1>   0.3290 
 10 C        1.2240    -3.7040     0.1380 C.3   1 <1>   0.3430 
 11 C       -1.2700    -3.5440     0.4720 C.3   1 <1>   0.3430 
 12 N       -0.0780    -3.1020    -0.3370 N.4   1 <1>  -0.9060 
 13 H       -1.9650   -10.1580    -0.9070 H     1 <1>   0.0800 
 14 H       -1.3730   -10.1820     0.7530 H     1 <1>   0.0800 
 15 H        1.8820    -7.4750     0.7930 H     1 <1>   0.4500 
 16 H        0.2900    -9.4500    -1.7040 H     1 <1>   0.0800 
 17 H        0.3720   -10.9720    -0.8750 H     1 <1>   0.0800 
 18 H        1.1260    -9.8820     1.1850 H     1 <1>   0.0800 
 19 H        2.1900    -9.5330    -0.1510 H     1 <1>   0.0800 
 20 H        1.9930    -5.5600     0.9140 H     1 <1>   0.0800 
 21 H        0.9550    -4.7270     2.0170 H     1 <1>   0.0800 
 22 H       -2.0490    -5.3640     1.3310 H     1 <1>   0.0800 
 23 H       -1.9500    -5.3650    -0.4020 H     1 <1>   0.0800 
 24 H        1.8420    -3.9210    -0.7190 H     1 <1>   0.0800 
 25 H        1.7600    -2.9810     0.7320 H     1 <1>   0.0800 
 26 H       -1.1640    -3.1940     1.4860 H     1 <1>   0.0800 
 27 H       -2.1730    -3.1070     0.0750 H     1 <1>   0.0800 
 28 H       -0.2270    -3.3760    -1.3210 H     1 <1>   0.4500 
 29 H       -0.0120    -2.0720    -0.3460 H     1 <1>   0.4500 
@<TRIPOS>BOND
  1   1   2  1   
  2   1   3  1   
  3   2   4  ar  
  4   2   5  ar  
  5   3   6  1   
  6   3  13  1   
  7   3  14  1   
  8   4   7  1   
  9   4  15  1   
 10   5   8  1   
 11   5   9  1   
 12   6   7  1   
 13   6  16  1   
 14   6  17  1   
 15   7  18  1   
 16   7  19  1   
 17   8  10  1   
 18   8  20  1   
 19   8  21  1   
 20   9  11  1   
 21   9  22  1   
 22   9  23  1   
 23  10  12  1   
 24  10  24  1   
 25  10  25  1   
 26  11  12  1   
 27  11  26  1   
 28  11  27  1   
 29  12  28  1   
 30  12  29  1   
@<TRIPOS>SUBSTRUCTURE
  1 ****   2 GROUP 4 **** **** 0

# MOE 2024.06 (io_trps.svl 2023.06)
