@<TRIPOS>MOLECULE
NONAME
48 49 1 0 0 
SMALL
USER_CHARGES


@<TRIPOS>ATOM
  1 O       -3.0040     0.4680     2.1340 O.2   1 <1>  -0.5700 
  2 C       -2.5890     0.8920     1.0750 C.2   1 <1>   0.5440 
  3 N       -2.7100     0.0740    -0.0250 N.am  1 <1>  -0.6600 
  4 C       -2.1090     2.2580     0.9570 C.ar  1 <1>   0.0860 
  5 C       -2.4500    -1.3850     0.1110 C.3   1 <1>   0.3200 
  6 C       -3.2280     0.6060    -1.3270 C.3   1 <1>   0.1400 
  7 C       -0.8980     2.6030     0.3360 C.ar  1 <1>  -0.1440 
  8 C       -2.8930     3.2950     1.4660 C.ar  1 <1>  -0.1500 
  9 C       -3.7640    -2.1270    -0.0110 C.2   1 <1>  -0.3320 
 10 C       -4.5840     1.3250    -1.1450 C.3   1 <1>   0.3430 
 11 C       -0.5450     3.9340     0.1760 C.ar  1 <1>  -0.1500 
 12 C        0.0810     1.5410    -0.1560 C.3   1 <1>  -0.0960 
 13 C       -2.5370     4.6180     1.3080 C.ar  1 <1>  -0.1500 
 14 N       -4.1480    -2.8570    -1.0770 N.pl3 1 <1>   0.0330 
 15 C       -4.7630    -2.2150     0.8940 C.2   1 <1>   0.0770 
 16 N       -5.5120     0.4970    -0.3140 N.4   1 <1>  -0.9590 
 17 C       -1.3680     4.9510     0.6490 C.ar  1 <1>   0.0830 
 18 C       -5.3820    -3.3040    -0.7650 C.2   1 <1>   0.0360 
 19 N       -5.7970    -2.9160     0.3970 N.2   1 <1>  -0.5650 
 20 C       -6.6170    -0.1340    -1.0920 C.3   1 <1>   0.2630 
 21 C       -6.0390     1.2240     0.8770 C.3   1 <1>   0.2630 
 22 O       -1.0960     6.2680     0.5170 O.3   1 <1>  -0.3620 
 23 C        0.1040     6.7300    -0.0630 C.3   1 <1>   0.0400 
 24 H       -2.0130    -1.5900     1.0750 H     1 <1>   0.0800 
 25 H       -1.7530    -1.7060    -0.6440 H     1 <1>   0.0800 
 26 H       -3.3480    -0.1990    -2.0300 H     1 <1>   0.0800 
 27 H       -2.5160     1.2970    -1.7440 H     1 <1>   0.0800 
 28 H       -3.7940     3.0590     2.0020 H     1 <1>   0.1500 
 29 H       -5.0220     1.5330    -2.1070 H     1 <1>   0.0800 
 30 H       -4.4050     2.2690    -0.6570 H     1 <1>   0.0800 
 31 H        0.3790     4.1760    -0.3140 H     1 <1>   0.1500 
 32 H        0.1320     0.7240     0.5410 H     1 <1>   0.0800 
 33 H        1.0720     1.9500    -0.2470 H     1 <1>   0.0800 
 34 H       -0.2180     1.1670    -1.1170 H     1 <1>   0.0800 
 35 H       -3.1550     5.4080     1.6990 H     1 <1>   0.1500 
 36 H       -3.6180    -3.0770    -1.9280 H     1 <1>   0.2700 
 37 H       -4.7920    -1.7920     1.8890 H     1 <1>   0.1500 
 38 H       -4.9210    -0.2750     0.0640 H     1 <1>   0.4500 
 39 H       -5.9510    -3.9310    -1.4320 H     1 <1>   0.1500 
 40 H       -7.2850     0.6170    -1.4800 H     1 <1>   0.0800 
 41 H       -7.1760    -0.8050    -0.4570 H     1 <1>   0.0800 
 42 H       -6.2160    -0.7070    -1.9120 H     1 <1>   0.0800 
 43 H       -6.6080     2.0870     0.5730 H     1 <1>   0.0800 
 44 H       -5.2250     1.5420     1.5070 H     1 <1>   0.0800 
 45 H       -6.6750     0.5730     1.4550 H     1 <1>   0.0800 
 46 H        0.0990     7.8040    -0.0300 H     1 <1>   0.0800 
 47 H        0.1500     6.3960    -1.0840 H     1 <1>   0.0800 
 48 H        0.9350     6.3510     0.5060 H     1 <1>   0.0800 
@<TRIPOS>BOND
  1   1   2  2   
  2   2   3  am  
  3   2   4  1   
  4   3   5  1   
  5   3   6  1   
  6   4   7  ar  
  7   4   8  ar  
  8   5   9  1   
  9   5  24  1   
 10   5  25  1   
 11   6  10  1   
 12   6  26  1   
 13   6  27  1   
 14   7  11  ar  
 15   7  12  1   
 16   8  13  ar  
 17   8  28  1   
 18   9  14  1   
 19   9  15  2   
 20  10  16  1   
 21  10  29  1   
 22  10  30  1   
 23  11  17  ar  
 24  11  31  1   
 25  12  32  1   
 26  12  33  1   
 27  12  34  1   
 28  13  17  ar  
 29  13  35  1   
 30  14  18  1   
 31  14  36  1   
 32  15  19  1   
 33  15  37  1   
 34  16  20  1   
 35  16  21  1   
 36  16  38  1   
 37  17  22  1   
 38  18  19  2   
 39  18  39  1   
 40  20  40  1   
 41  20  41  1   
 42  20  42  1   
 43  21  43  1   
 44  21  44  1   
 45  21  45  1   
 46  22  23  1   
 47  23  46  1   
 48  23  47  1   
 49  23  48  1   
@<TRIPOS>SUBSTRUCTURE
  1 ****   2 GROUP 4 **** **** 0

# MOE 2024.06 (io_trps.svl 2023.06)
