@<TRIPOS>MOLECULE
NONAME
53 56 1 0 0 
SMALL
USER_CHARGES


@<TRIPOS>ATOM
  1 O        0.8340     0.2160     1.3710 O.2   1 <1>  -0.5700 
  2 C        1.9250     0.0050     0.9050 C.2   1 <1>   0.5950 
  3 C        2.4460    -1.3210     0.7020 C.2   1 <1>  -0.0860 
  4 C        2.7700     1.1960     0.5130 C.3   1 <1>  -0.1790 
  5 C        3.6230    -1.7420     0.1320 C.2   1 <1>  -0.3020 
  6 C        1.7900    -2.5040     1.0840 C.2   1 <1>  -0.1500 
  7 N        3.7100    -3.0890     0.1430 N.pl3 1 <1>   0.0480 
  8 C        2.5680    -3.5580     0.7250 C.2   1 <1>  -0.3320 
  9 C        4.8730    -3.8600    -0.3420 C.3   1 <1>   0.0160 
 10 C        2.2600    -5.0200     0.9280 C.3   1 <1>   0.5230 
 11 N        1.6230    -5.4820    -0.3240 N.4   1 <1>  -0.9590 
 12 C        0.2160    -4.9780    -0.4510 C.3   1 <1>   0.3430 
 13 C        1.5610    -6.9650    -0.4130 C.3   1 <1>   0.3430 
 14 C       -0.7070    -6.1950    -0.2930 C.3   1 <1>   0.2000 
 15 C        0.1900    -7.3540     0.1340 C.3   1 <1>  -0.0800 
 16 O       -1.6850    -5.9780     0.6660 O.3   1 <1>  -0.6800 
 17 C       -0.3020    -8.7210    -0.3750 C.3   1 <1>  -0.0170 
 18 C        0.6580    -9.8320     0.0220 C.ar  1 <1>   0.1670 
 19 N        1.8110    -9.8590    -0.5740 N.ar  1 <1>  -0.6200 
 20 C        0.2680   -10.7540     1.0070 C.ar  1 <1>  -0.1500 
 21 C        2.6770   -10.8500    -0.2310 C.ar  1 <1>   0.3100 
 22 C        1.1230   -11.7450     1.3820 C.ar  1 <1>  -0.1500 
 23 C        2.3790   -11.8130     0.7580 C.ar  1 <1>   0.0000 
 24 C        3.9230   -10.9180    -0.8760 C.ar  1 <1>  -0.1500 
 25 C        3.3420   -12.7920     1.0730 C.ar  1 <1>  -0.1500 
 26 C        4.8440   -11.8800    -0.5570 C.ar  1 <1>  -0.1500 
 27 C        4.5500   -12.8250     0.4310 C.ar  1 <1>  -0.1500 
 28 H        3.7180     1.1510     1.0160 H     1 <1>   0.0800 
 29 H        2.2710     2.1060     0.7920 H     1 <1>   0.0800 
 30 H        2.9260     1.1950    -0.5490 H     1 <1>   0.0800 
 31 H        4.4020    -1.1210    -0.2760 H     1 <1>   0.1500 
 32 H        0.8310    -2.5000     1.5780 H     1 <1>   0.1500 
 33 H        5.6280    -3.1830    -0.7010 H     1 <1>   0.0800 
 34 H        4.5730    -4.5070    -1.1450 H     1 <1>   0.0800 
 35 H        5.2820    -4.4400     0.4650 H     1 <1>   0.0800 
 36 H        1.5890    -5.1510     1.7610 H     1 <1>   0.0800 
 37 H        3.1700    -5.5650     1.1220 H     1 <1>   0.0800 
 38 H        2.1840    -5.0860    -1.0880 H     1 <1>   0.4500 
 39 H       -0.0020    -4.2380     0.3020 H     1 <1>   0.0800 
 40 H        0.0670    -4.5400    -1.4240 H     1 <1>   0.0800 
 41 H        1.6270    -7.2720    -1.4450 H     1 <1>   0.0800 
 42 H        2.3560    -7.4440     0.1380 H     1 <1>   0.0800 
 43 H       -1.2020    -6.3930    -1.2290 H     1 <1>   0.0800 
 44 H        0.2680    -7.3890     1.2060 H     1 <1>   0.0800 
 45 H       -1.3350    -5.9710     1.5790 H     1 <1>   0.4000 
 46 H       -0.3880    -8.7130    -1.4480 H     1 <1>   0.0800 
 47 H       -1.2820    -8.9210     0.0240 H     1 <1>   0.0800 
 48 H       -0.7050   -10.6750     1.4580 H     1 <1>   0.1500 
 49 H        0.8620   -12.4700     2.1330 H     1 <1>   0.1500 
 50 H        4.1330   -10.1910    -1.6370 H     1 <1>   0.1500 
 51 H        3.1100   -13.5190     1.8300 H     1 <1>   0.1500 
 52 H        5.7960   -11.9250    -1.0580 H     1 <1>   0.1500 
 53 H        5.2840   -13.5750     0.6730 H     1 <1>   0.1500 
@<TRIPOS>BOND
  1   1   2  2   
  2   2   3  1   
  3   2   4  1   
  4   3   5  2   
  5   3   6  1   
  6   4  28  1   
  7   4  29  1   
  8   4  30  1   
  9   5   7  1   
 10   5  31  1   
 11   6   8  2   
 12   6  32  1   
 13   7   8  1   
 14   7   9  1   
 15   8  10  1   
 16   9  33  1   
 17   9  34  1   
 18   9  35  1   
 19  10  11  1   
 20  10  36  1   
 21  10  37  1   
 22  11  12  1   
 23  11  13  1   
 24  11  38  1   
 25  12  14  1   
 26  12  39  1   
 27  12  40  1   
 28  13  15  1   
 29  13  41  1   
 30  13  42  1   
 31  14  15  1   
 32  14  16  1   
 33  14  43  1   
 34  15  17  1   
 35  15  44  1   
 36  16  45  1   
 37  17  18  1   
 38  17  46  1   
 39  17  47  1   
 40  18  19  ar  
 41  18  20  ar  
 42  19  21  ar  
 43  20  22  ar  
 44  20  48  1   
 45  21  23  ar  
 46  21  24  ar  
 47  22  23  ar  
 48  22  49  1   
 49  23  25  ar  
 50  24  26  ar  
 51  24  50  1   
 52  25  27  ar  
 53  25  51  1   
 54  26  27  ar  
 55  26  52  1   
 56  27  53  1   
@<TRIPOS>SUBSTRUCTURE
  1 ****  13 GROUP 4 **** **** 0

# MOE 2024.06 (io_trps.svl 2023.06)
