@<TRIPOS>MOLECULE
NONAME
42 43 1 0 0 
SMALL
USER_CHARGES


@<TRIPOS>ATOM
  1 S       -0.3680     0.2600     1.2430 S.o2  1 <1>   1.5010 
  2 O       -0.9140     1.4990     1.7400 O.2   1 <1>  -0.6500 
  3 O       -0.3000    -0.8910     2.1120 O.2   1 <1>  -0.6500 
  4 N       -1.3790    -0.1230    -0.0440 N.am  1 <1>  -0.9140 
  5 C        1.2130     0.5570     0.4440 C.2   1 <1>  -0.0630 
  6 C       -1.4850    -1.5070    -0.5210 C.3   1 <1>   0.2760 
  7 C        1.3700     1.3140    -0.7080 C.2   1 <1>   0.1390 
  8 C        2.4750     0.1560     0.7410 C.2   1 <1>  -0.3020 
  9 C       -2.2860    -2.4210     0.4110 C.3   1 <1>  -0.0800 
 10 C       -0.1730    -2.2630    -0.7630 C.3   1 <1>   0.1200 
 11 N        2.6050     1.3720    -1.1060 N.2   1 <1>  -0.7070 
 12 N        3.2910     0.6580    -0.2030 N.pl3 1 <1>   0.3140 
 13 C       -1.3150    -3.5790     0.6660 C.3   1 <1>   0.1200 
 14 C       -3.5780    -2.9060    -0.2730 C.3   1 <1>  -0.0550 
 15 O       -0.4650    -3.5810    -0.4320 O.3   1 <1>  -0.5600 
 16 C        4.7460     0.4920    -0.3000 C.3   1 <1>   0.0160 
 17 S       -4.7400    -3.6770     0.8520 S.o2  1 <1>   1.3330 
 18 O       -4.1850    -4.9060     1.3720 O.2   1 <1>  -0.6500 
 19 O       -5.1940    -2.6500     1.7610 O.2   1 <1>  -0.6500 
 20 N       -6.0290    -4.0820    -0.1760 N.am  1 <1>  -0.8490 
 21 C       -5.8360    -5.3590    -0.8740 C.3   1 <1>   0.1160 
 22 C       -7.3160    -4.0900     0.5250 C.3   1 <1>   0.1160 
 23 H       -2.2950     0.1870     0.2750 H     1 <1>   0.4200 
 24 H       -1.9850    -1.4650    -1.4740 H     1 <1>   0.0800 
 25 H        0.5580     1.8000    -1.2250 H     1 <1>   0.1500 
 26 H        2.8180    -0.4490     1.5600 H     1 <1>   0.1500 
 27 H       -2.5320    -1.9400     1.3420 H     1 <1>   0.0800 
 28 H        0.6280    -1.9470    -0.1220 H     1 <1>   0.0800 
 29 H        0.1360    -2.2240    -1.7930 H     1 <1>   0.0800 
 30 H       -1.7890    -4.5410     0.7450 H     1 <1>   0.0800 
 31 H       -0.7210    -3.3990     1.5480 H     1 <1>   0.0800 
 32 H       -3.3270    -3.5910    -1.0600 H     1 <1>   0.0800 
 33 H       -4.0710    -2.0640    -0.7190 H     1 <1>   0.0800 
 34 H        5.0820    -0.2050     0.4430 H     1 <1>   0.0800 
 35 H        5.2150     1.4460    -0.1470 H     1 <1>   0.0800 
 36 H        4.9890     0.1270    -1.2810 H     1 <1>   0.0800 
 37 H       -6.6340    -5.5190    -1.5790 H     1 <1>   0.0800 
 38 H       -5.8220    -6.1750    -0.1700 H     1 <1>   0.0800 
 39 H       -4.9040    -5.3530    -1.4120 H     1 <1>   0.0800 
 40 H       -8.1120    -4.3340    -0.1570 H     1 <1>   0.0800 
 41 H       -7.5170    -3.1170     0.9400 H     1 <1>   0.0800 
 42 H       -7.3020    -4.8110     1.3270 H     1 <1>   0.0800 
@<TRIPOS>BOND
  1   1   2  2   
  2   1   3  2   
  3   1   4  am  
  4   1   5  1   
  5   4   6  1   
  6   4  23  1   
  7   5   7  1   
  8   5   8  2   
  9   6   9  1   
 10   6  10  1   
 11   6  24  1   
 12   7  11  2   
 13   7  25  1   
 14   8  12  1   
 15   8  26  1   
 16   9  13  1   
 17   9  14  1   
 18   9  27  1   
 19  10  15  1   
 20  10  28  1   
 21  10  29  1   
 22  11  12  1   
 23  12  16  1   
 24  13  15  1   
 25  13  30  1   
 26  13  31  1   
 27  14  17  1   
 28  14  32  1   
 29  14  33  1   
 30  16  34  1   
 31  16  35  1   
 32  16  36  1   
 33  17  18  2   
 34  17  19  2   
 35  17  20  am  
 36  20  21  1   
 37  20  22  1   
 38  21  37  1   
 39  21  38  1   
 40  21  39  1   
 41  22  40  1   
 42  22  41  1   
 43  22  42  1   
@<TRIPOS>SUBSTRUCTURE
  1 ****   6 GROUP 4 **** **** 0

# MOE 2024.06 (io_trps.svl 2023.06)
