@<TRIPOS>MOLECULE
NONAME
51 53 1 0 0 
SMALL
USER_CHARGES


@<TRIPOS>ATOM
  1 F        1.7650     4.4320     2.1430 F     1 <1>  -0.3400 
  2 C        2.5370     3.3560     2.2360 C.3   1 <1>   1.1640 
  3 F        1.7350     2.3450     2.5470 F     1 <1>  -0.3400 
  4 F        3.3250     3.5520     3.2840 F     1 <1>  -0.3400 
  5 C        3.3540     3.1100     0.9540 C.ar  1 <1>  -0.1440 
  6 C        3.7610     4.1700     0.1480 C.ar  1 <1>  -0.1500 
  7 C        3.7100     1.8180     0.5790 C.ar  1 <1>  -0.1500 
  8 C        4.4980     3.9510    -1.0080 C.ar  1 <1>  -0.1440 
  9 C        4.4400     1.5930    -0.5730 C.ar  1 <1>  -0.1500 
 10 C        4.8320     2.6540    -1.3670 C.ar  1 <1>  -0.1500 
 11 C        4.9400     5.1150    -1.8780 C.3   1 <1>   0.4870 
 12 N        6.0680     5.8260    -1.2230 N.4   1 <1>  -0.9590 
 13 C        6.5360     7.0340    -1.9730 C.3   1 <1>   0.3430 
 14 C        7.2270     4.9420    -0.8590 C.3   1 <1>   0.3430 
 15 C        7.5530     7.8430    -1.1340 C.3   1 <1>   0.1100 
 16 C        8.3670     5.7450    -0.1850 C.3   1 <1>   0.1100 
 17 N        7.9750     7.1430     0.1090 N.3   1 <1>  -0.8100 
 18 C        9.0730     7.8690     0.8010 C.3   1 <1>   0.2910 
 19 C        8.7180     9.3140     1.1300 C.2   1 <1>   0.0460 
 20 N        8.8790    10.3150     0.2320 N.2   1 <1>  -0.5650 
 21 C        8.2380     9.8230     2.2740 C.2   1 <1>  -0.0100 
 22 C        8.4930    11.3550     0.8830 C.2   1 <1>   0.2980 
 23 O        8.0960    11.1080     2.1110 O.3   1 <1>  -0.2800 
 24 C        8.4610    12.7880     0.3590 C.3   1 <1>   0.1000 
 25 C        9.3610    13.7050     1.1980 C.3   1 <1>  -0.2400 
 26 C        7.0260    13.3310     0.3260 C.3   1 <1>  -0.2400 
 27 H        3.4920     5.1770     0.4280 H     1 <1>   0.1500 
 28 H        3.4160     0.9730     1.1820 H     1 <1>   0.1500 
 29 H        4.7000     0.5840    -0.8520 H     1 <1>   0.1500 
 30 H        5.3930     2.4510    -2.2640 H     1 <1>   0.1500 
 31 H        4.1100     5.7890    -2.0200 H     1 <1>   0.0800 
 32 H        5.2470     4.7470    -2.8430 H     1 <1>   0.0800 
 33 H        5.7550     6.1940    -0.3120 H     1 <1>   0.4500 
 34 H        5.7020     7.6720    -2.2160 H     1 <1>   0.0800 
 35 H        7.0020     6.7340    -2.8970 H     1 <1>   0.0800 
 36 H        7.6120     4.4510    -1.7380 H     1 <1>   0.0800 
 37 H        6.8960     4.1750    -0.1770 H     1 <1>   0.0800 
 38 H        7.0900     8.7790    -0.8720 H     1 <1>   0.0800 
 39 H        8.4120     8.0740    -1.7420 H     1 <1>   0.0800 
 40 H        9.2300     5.7380    -0.8310 H     1 <1>   0.0800 
 41 H        8.6440     5.2470     0.7290 H     1 <1>   0.0800 
 42 H        9.9620     7.8650     0.1940 H     1 <1>   0.0800 
 43 H        9.2980     7.3600     1.7230 H     1 <1>   0.0800 
 44 H        7.9800     9.3730     3.2160 H     1 <1>   0.1500 
 45 H        8.8410    12.7740    -0.6480 H     1 <1>   0.0800 
 46 H        9.0080    13.7530     2.2130 H     1 <1>   0.0800 
 47 H        9.3730    14.6990     0.7870 H     1 <1>   0.0800 
 48 H       10.3670    13.3240     1.2040 H     1 <1>   0.0800 
 49 H        6.6170    13.3690     1.3200 H     1 <1>   0.0800 
 50 H        6.4060    12.6910    -0.2760 H     1 <1>   0.0800 
 51 H        7.0090    14.3200    -0.0950 H     1 <1>   0.0800 
@<TRIPOS>BOND
  1   1   2  1   
  2   2   3  1   
  3   2   4  1   
  4   2   5  1   
  5   5   6  ar  
  6   5   7  ar  
  7   6   8  ar  
  8   6  27  1   
  9   7   9  ar  
 10   7  28  1   
 11   8  10  ar  
 12   8  11  1   
 13   9  10  ar  
 14   9  29  1   
 15  10  30  1   
 16  11  12  1   
 17  11  31  1   
 18  11  32  1   
 19  12  13  1   
 20  12  14  1   
 21  12  33  1   
 22  13  15  1   
 23  13  34  1   
 24  13  35  1   
 25  14  16  1   
 26  14  36  1   
 27  14  37  1   
 28  15  17  1   
 29  15  38  1   
 30  15  39  1   
 31  16  17  1   
 32  16  40  1   
 33  16  41  1   
 34  17  18  1   
 35  18  19  1   
 36  18  42  1   
 37  18  43  1   
 38  19  20  1   
 39  19  21  2   
 40  20  22  2   
 41  21  23  1   
 42  21  44  1   
 43  22  23  1   
 44  22  24  1   
 45  24  25  1   
 46  24  26  1   
 47  24  45  1   
 48  25  46  1   
 49  25  47  1   
 50  25  48  1   
 51  26  49  1   
 52  26  50  1   
 53  26  51  1   
@<TRIPOS>SUBSTRUCTURE
  1 ****  12 GROUP 4 **** **** 0

# MOE 2024.06 (io_trps.svl 2023.06)
