@<TRIPOS>MOLECULE
NONAME
35 37 1 0 0 
SMALL
USER_CHARGES


@<TRIPOS>ATOM
  1 O       -0.5450     0.0790    -0.3170 O.2   1 <1>  -0.5700 
  2 C       -1.5450     0.7160    -0.0380 C.2   1 <1>   0.5440 
  3 N       -2.6490     0.0480     0.4260 N.am  1 <1>  -0.6600 
  4 C       -1.5230     2.1560    -0.1970 C.ar  1 <1>   0.0860 
  5 C       -3.8920     0.6470     0.9940 C.3   1 <1>   0.2350 
  6 C       -2.8440    -1.4200     0.2650 C.3   1 <1>   0.2350 
  7 C       -2.4560     2.8270    -0.9890 C.ar  1 <1>  -0.1500 
  8 C       -0.5380     2.9240     0.4230 C.ar  1 <1>  -0.1500 
  9 C       -5.0020    -0.3150     0.6110 C.3   1 <1>  -0.2420 
 10 C       -4.3510    -1.6050     0.1730 C.3   1 <1>  -0.2420 
 11 C       -2.4120     4.2000    -1.1460 C.ar  1 <1>  -0.1500 
 12 C       -0.4840     4.2980     0.2710 C.ar  1 <1>  -0.1500 
 13 C       -6.2640    -0.0280     1.4300 C.2   1 <1>   0.9470 
 14 C       -5.1580    -0.7950    -0.8100 C.3   1 <1>  -0.2000 
 15 C       -4.7360    -3.0650     0.4270 C.2   1 <1>   0.9470 
 16 C       -1.4270     4.9480    -0.5210 C.ar  1 <1>   0.0830 
 17 O       -7.3300     0.2130     0.8470 O.co2 1 <1>  -0.9000 
 18 O       -6.1580     0.1320     2.6540 O.co2 1 <1>  -0.9000 
 19 O       -4.3160    -3.6280     1.4470 O.co2 1 <1>  -0.9000 
 20 O       -5.3240    -3.7020    -0.4580 O.co2 1 <1>  -0.9000 
 21 O       -1.4440     6.2850    -0.7270 O.3   1 <1>  -0.3630 
 22 C       -0.4700     7.1360    -0.1650 C.3   1 <1>   0.0400 
 23 H       -3.8010     0.6910     2.0670 H     1 <1>   0.0800 
 24 H       -4.0960     1.6290     0.6120 H     1 <1>   0.0800 
 25 H       -2.3550    -1.7860    -0.6200 H     1 <1>   0.0800 
 26 H       -2.4580    -1.9280     1.1320 H     1 <1>   0.0800 
 27 H       -3.2210     2.2530    -1.4850 H     1 <1>   0.1500 
 28 H        0.1950     2.4190     1.0290 H     1 <1>   0.1500 
 29 H       -3.1410     4.7010    -1.7560 H     1 <1>   0.1500 
 30 H        0.2950     4.8430     0.7700 H     1 <1>   0.1500 
 31 H       -4.6560    -0.2810    -1.6080 H     1 <1>   0.1000 
 32 H       -6.1180    -1.1840    -1.1080 H     1 <1>   0.1000 
 33 H       -0.6850     8.1420    -0.4780 H     1 <1>   0.0800 
 34 H        0.5000     6.8400    -0.5250 H     1 <1>   0.0800 
 35 H       -0.5230     7.0670     0.9070 H     1 <1>   0.0800 
@<TRIPOS>BOND
  1   1   2  2   
  2   2   3  am  
  3   2   4  1   
  4   3   5  1   
  5   3   6  1   
  6   4   7  ar  
  7   4   8  ar  
  8   5   9  1   
  9   5  23  1   
 10   5  24  1   
 11   6  10  1   
 12   6  25  1   
 13   6  26  1   
 14   7  11  ar  
 15   7  27  1   
 16   8  12  ar  
 17   8  28  1   
 18   9  10  1   
 19   9  13  1   
 20   9  14  1   
 21  10  14  1   
 22  10  15  1   
 23  11  16  ar  
 24  11  29  1   
 25  12  16  ar  
 26  12  30  1   
 27  13  17  ar  
 28  13  18  ar  
 29  14  31  1   
 30  14  32  1   
 31  15  19  ar  
 32  15  20  ar  
 33  16  21  1   
 34  21  22  1   
 35  22  33  1   
 36  22  34  1   
 37  22  35  1   
@<TRIPOS>SUBSTRUCTURE
  1 ****   5 GROUP 4 **** **** 0

# MOE 2024.06 (io_trps.svl 2023.06)
