@<TRIPOS>MOLECULE
NONAME
57 60 1 0 0 
SMALL
USER_CHARGES


@<TRIPOS>ATOM
  1 O        0.9980    -1.1940     0.5790 O.3   1 <1>  -0.5600 
  2 C        0.4240    -2.0730    -0.3620 C.3   1 <1>   0.4180 
  3 C        1.0070     0.1740     0.2620 C.3   1 <1>   0.1200 
  4 C       -0.8390    -1.4710    -0.9640 C.2   1 <1>  -0.2880 
  5 C        0.0820    -3.3520     0.4130 C.3   1 <1>  -0.1600 
  6 C        1.4680    -2.4030    -1.4340 C.3   1 <1>  -0.1600 
  7 C       -0.4250     0.7080     0.1310 C.3   1 <1>  -0.0220 
  8 C       -1.2480    -0.2210    -0.7420 C.2   1 <1>  -0.2760 
  9 C        1.3020    -4.2130     0.7610 C.3   1 <1>   0.3430 
 10 C        2.7580    -2.9830    -0.8400 C.3   1 <1>   0.3430 
 11 C       -2.5250     0.3790    -1.3020 C.3   1 <1>  -0.1020 
 12 N        2.5500    -3.4320     0.5700 N.4   1 <1>  -0.9590 
 13 C        3.7820    -4.0440     1.1840 C.3   1 <1>   0.4860 
 14 C        4.9690    -3.0720     1.1990 C.ar  1 <1>   0.4770 
 15 N        6.0820    -3.4770     0.6510 N.ar  1 <1>  -0.6200 
 16 N        4.7560    -1.8980     1.7270 N.ar  1 <1>  -0.6200 
 17 C        7.0480    -2.5820     0.6650 C.ar  1 <1>   0.7200 
 18 C        5.7930    -1.1030     1.6690 C.ar  1 <1>   0.7200 
 19 N        6.9530    -1.3770     1.1620 N.ar  1 <1>  -0.6200 
 20 N        8.2190    -3.0080     0.1140 N.pl3 1 <1>  -0.6000 
 21 N        5.6390     0.1120     2.1890 N.pl3 1 <1>  -0.9000 
 22 C        9.4380    -2.3620    -0.1320 C.ar  1 <1>   0.1000 
 23 C       10.6140    -3.0980    -0.0500 C.ar  1 <1>  -0.1500 
 24 C        9.5220    -1.0180    -0.4810 C.ar  1 <1>  -0.1500 
 25 C       11.8460    -2.5170    -0.3000 C.ar  1 <1>  -0.1440 
 26 C       10.7460    -0.4280    -0.7330 C.ar  1 <1>  -0.1500 
 27 C       11.9070    -1.1760    -0.6420 C.ar  1 <1>  -0.1500 
 28 C       13.1230    -3.3310    -0.2040 C.3   1 <1>  -0.0960 
 29 H        1.5440     0.3120    -0.6600 H     1 <1>   0.0800 
 30 H        1.5280     0.6950     1.0460 H     1 <1>   0.0800 
 31 H       -1.3840    -2.1570    -1.5880 H     1 <1>   0.1500 
 32 H       -0.5900    -3.9560    -0.1700 H     1 <1>   0.0800 
 33 H       -0.4470    -3.0840     1.3110 H     1 <1>   0.0800 
 34 H        1.6950    -1.5290    -2.0170 H     1 <1>   0.0800 
 35 H        1.0500    -3.1210    -2.1150 H     1 <1>   0.0800 
 36 H       -0.3840     1.6910    -0.3060 H     1 <1>   0.0800 
 37 H       -0.8760     0.7930     1.1030 H     1 <1>   0.0800 
 38 H        1.3220    -5.0830     0.1260 H     1 <1>   0.0800 
 39 H        1.2210    -4.5420     1.7850 H     1 <1>   0.0800 
 40 H        3.5190    -2.2180    -0.8550 H     1 <1>   0.0800 
 41 H        3.0980    -3.8040    -1.4510 H     1 <1>   0.0800 
 42 H       -3.1670     0.6990    -0.5000 H     1 <1>   0.0800 
 43 H       -3.0560    -0.3450    -1.8940 H     1 <1>   0.0800 
 44 H       -2.2980     1.2260    -1.9250 H     1 <1>   0.0800 
 45 H        2.3860    -2.5360     1.0790 H     1 <1>   0.4500 
 46 H        4.0650    -4.9260     0.6380 H     1 <1>   0.0800 
 47 H        3.5750    -4.3270     2.2020 H     1 <1>   0.0800 
 48 H        8.2120    -4.0060    -0.0710 H     1 <1>   0.4000 
 49 H        6.4860     0.6630     2.3260 H     1 <1>   0.4000 
 50 H        4.8860     0.2680     2.8540 H     1 <1>   0.4000 
 51 H       10.5630    -4.1370     0.2170 H     1 <1>   0.1500 
 52 H        8.6280    -0.4290    -0.5640 H     1 <1>   0.1500 
 53 H       10.7980     0.6120    -1.0000 H     1 <1>   0.1500 
 54 H       12.8570    -0.7110    -0.8400 H     1 <1>   0.1500 
 55 H       12.9530    -4.2490     0.3290 H     1 <1>   0.0800 
 56 H       13.8800    -2.7720     0.3160 H     1 <1>   0.0800 
 57 H       13.4810    -3.5650    -1.1910 H     1 <1>   0.0800 
@<TRIPOS>BOND
  1   1   2  1   
  2   1   3  1   
  3   2   4  1   
  4   2   5  1   
  5   2   6  1   
  6   3   7  1   
  7   3  29  1   
  8   3  30  1   
  9   4   8  2   
 10   4  31  1   
 11   5   9  1   
 12   5  32  1   
 13   5  33  1   
 14   6  10  1   
 15   6  34  1   
 16   6  35  1   
 17   7   8  1   
 18   7  36  1   
 19   7  37  1   
 20   8  11  1   
 21   9  12  1   
 22   9  38  1   
 23   9  39  1   
 24  10  12  1   
 25  10  40  1   
 26  10  41  1   
 27  11  42  1   
 28  11  43  1   
 29  11  44  1   
 30  12  13  1   
 31  12  45  1   
 32  13  14  1   
 33  13  46  1   
 34  13  47  1   
 35  14  15  ar  
 36  14  16  ar  
 37  15  17  ar  
 38  16  18  ar  
 39  17  19  ar  
 40  17  20  1   
 41  18  19  ar  
 42  18  21  1   
 43  20  22  1   
 44  20  48  1   
 45  21  49  1   
 46  21  50  1   
 47  22  23  ar  
 48  22  24  ar  
 49  23  25  ar  
 50  23  51  1   
 51  24  26  ar  
 52  24  52  1   
 53  25  27  ar  
 54  25  28  1   
 55  26  27  ar  
 56  26  53  1   
 57  27  54  1   
 58  28  55  1   
 59  28  56  1   
 60  28  57  1   
@<TRIPOS>SUBSTRUCTURE
  1 ****  14 GROUP 4 **** **** 0

# MOE 2024.06 (io_trps.svl 2023.06)
