@<TRIPOS>MOLECULE
NONAME
51 53 1 0 0 
SMALL
USER_CHARGES


@<TRIPOS>ATOM
  1 F       -0.3210    -0.9880    -2.3830 F     1 <1>  -0.1900 
  2 C       -1.1830    -1.1410    -1.4070 C.ar  1 <1>   0.1900 
  3 C       -1.4740    -0.0680    -0.5710 C.ar  1 <1>   0.0820 
  4 C       -1.7680    -2.3830    -1.2550 C.ar  1 <1>  -0.1500 
  5 O       -0.8460     1.1210    -0.7970 O.3   1 <1>  -0.3630 
  6 C       -2.3980    -0.2740     0.4520 C.ar  1 <1>  -0.1500 
  7 C       -2.6820    -2.5690    -0.2310 C.ar  1 <1>  -0.1500 
  8 C       -0.9070     2.2160     0.0910 C.3   1 <1>   0.2000 
  9 C       -2.9930    -1.5170     0.6160 C.ar  1 <1>  -0.1500 
 10 C       -0.4240     3.4480    -0.6730 C.3   1 <1>  -0.1600 
 11 C       -0.0080     1.9450     1.3020 C.3   1 <1>  -0.1600 
 12 C       -0.3390     4.6670     0.2470 C.3   1 <1>   0.1400 
 13 C        0.0650     3.1760     2.2070 C.3   1 <1>   0.1400 
 14 N        0.5300     4.3580     1.4210 N.am  1 <1>  -0.6600 
 15 C        1.6540     5.0550     1.8170 C.2   1 <1>   0.5690 
 16 O        2.2700     4.7260     2.8050 O.2   1 <1>  -0.5700 
 17 C        2.2000     6.2870     1.0790 C.3   1 <1>  -0.0190 
 18 C        1.2720     7.5180     1.1850 C.3   1 <1>  -0.1600 
 19 C        2.6850     5.9890    -0.3620 C.3   1 <1>  -0.1600 
 20 C        1.9100     8.7900     0.5900 C.3   1 <1>   0.2000 
 21 C        2.5690     7.1990    -1.3060 C.3   1 <1>  -0.1600 
 22 O        0.8690     9.6090     0.1140 O.3   1 <1>  -0.5600 
 23 C        2.9030     8.4960    -0.5670 C.3   1 <1>   0.2000 
 24 C        0.2450    10.3960     1.0820 C.3   1 <1>   0.0400 
 25 O        2.8580     9.5280    -1.4810 O.3   1 <1>  -0.6800 
 26 H       -1.5110    -3.1840    -1.9250 H     1 <1>   0.1500 
 27 H       -2.6710     0.5120     1.1280 H     1 <1>   0.1500 
 28 H       -3.1490    -3.5300    -0.0950 H     1 <1>   0.1500 
 29 H       -1.9300     2.3680     0.3880 H     1 <1>   0.0800 
 30 H       -3.7060    -1.6680     1.4090 H     1 <1>   0.1500 
 31 H        0.5480     3.2560    -1.0910 H     1 <1>   0.0800 
 32 H       -1.1050     3.6580    -1.4780 H     1 <1>   0.0800 
 33 H       -0.3860     1.1160     1.8720 H     1 <1>   0.0800 
 34 H        0.9860     1.7020     0.9710 H     1 <1>   0.0800 
 35 H       -1.3220     4.9280     0.6010 H     1 <1>   0.0800 
 36 H        0.0370     5.4970    -0.3180 H     1 <1>   0.0800 
 37 H        0.7300     2.9690     3.0280 H     1 <1>   0.0800 
 38 H       -0.9070     3.3900     2.6180 H     1 <1>   0.0800 
 39 H        3.0870     6.5670     1.6230 H     1 <1>   0.0800 
 40 H        1.0450     7.6920     2.2220 H     1 <1>   0.0800 
 41 H        0.3490     7.3250     0.6740 H     1 <1>   0.0800 
 42 H        3.7180     5.6880    -0.3070 H     1 <1>   0.0800 
 43 H        2.1550     5.1600    -0.7930 H     1 <1>   0.0800 
 44 H        2.4510     9.3230     1.3540 H     1 <1>   0.0800 
 45 H        1.5630     7.2630    -1.6840 H     1 <1>   0.0800 
 46 H        3.2380     7.0690    -2.1400 H     1 <1>   0.0800 
 47 H        3.9090     8.4360    -0.1870 H     1 <1>   0.0800 
 48 H       -0.5200    10.9760     0.5980 H     1 <1>   0.0800 
 49 H        0.9710    11.0550     1.5260 H     1 <1>   0.0800 
 50 H       -0.2010     9.7630     1.8290 H     1 <1>   0.0800 
 51 H        1.9620     9.9260    -1.3850 H     1 <1>   0.4000 
@<TRIPOS>BOND
  1   1   2  1   
  2   2   3  ar  
  3   2   4  ar  
  4   3   5  1   
  5   3   6  ar  
  6   4   7  ar  
  7   4  26  1   
  8   5   8  1   
  9   6   9  ar  
 10   6  27  1   
 11   7   9  ar  
 12   7  28  1   
 13   8  10  1   
 14   8  11  1   
 15   8  29  1   
 16   9  30  1   
 17  10  12  1   
 18  10  31  1   
 19  10  32  1   
 20  11  13  1   
 21  11  33  1   
 22  11  34  1   
 23  12  14  1   
 24  12  35  1   
 25  12  36  1   
 26  13  14  1   
 27  13  37  1   
 28  13  38  1   
 29  14  15  am  
 30  15  16  2   
 31  15  17  1   
 32  17  18  1   
 33  17  19  1   
 34  17  39  1   
 35  18  20  1   
 36  18  40  1   
 37  18  41  1   
 38  19  21  1   
 39  19  42  1   
 40  19  43  1   
 41  20  22  1   
 42  20  23  1   
 43  20  44  1   
 44  21  23  1   
 45  21  45  1   
 46  21  46  1   
 47  22  24  1   
 48  23  25  1   
 49  23  47  1   
 50  24  48  1   
 51  24  49  1   
 52  24  50  1   
 53  25  51  1   
@<TRIPOS>SUBSTRUCTURE
  1 ****  12 GROUP 4 **** **** 0

# MOE 2024.06 (io_trps.svl 2023.06)
