@<TRIPOS>MOLECULE
NONAME
40 41 1 0 0 
SMALL
USER_CHARGES


@<TRIPOS>ATOM
  1 CL      -1.5480    -0.6820     1.6520 Cl    1 <1>  -0.1770 
  2 C       -1.3480    -2.2210     0.8590 C.ar  1 <1>   0.1770 
  3 C       -1.4470    -3.3960     1.5830 C.ar  1 <1>   0.1600 
  4 C       -1.0900    -2.2670    -0.4910 C.ar  1 <1>  -0.1500 
  5 N       -1.3100    -4.6070     1.0630 N.ar  1 <1>  -0.6200 
  6 C       -0.9440    -3.5230    -1.0420 C.ar  1 <1>  -0.1500 
  7 C       -1.0550    -4.6790    -0.2600 C.ar  1 <1>   0.3960 
  8 C       -0.8930    -5.9980    -0.8780 C.2   1 <1>   0.5440 
  9 O       -0.7740    -6.1310    -2.0830 O.2   1 <1>  -0.5700 
 10 N       -0.8880    -7.1320    -0.1130 N.am  1 <1>  -0.7300 
 11 C       -0.6870    -8.5200    -0.5910 C.3   1 <1>   0.2200 
 12 C       -2.0060    -9.2760    -0.6270 C.3   1 <1>  -0.0800 
 13 C        0.0600    -9.3090     0.4760 C.3   1 <1>   0.1200 
 14 C       -2.1660    -9.7440     0.8240 C.3   1 <1>   0.1200 
 15 C       -3.1950    -8.4710    -1.1940 C.3   1 <1>  -0.0550 
 16 O       -0.9060    -9.6500     1.4230 O.3   1 <1>  -0.5600 
 17 S       -4.6990    -9.4250    -1.4140 S.o2  1 <1>   1.3330 
 18 O       -5.7160    -8.5810    -1.9990 O.2   1 <1>  -0.6500 
 19 O       -4.3480   -10.6730    -2.0550 O.2   1 <1>  -0.6500 
 20 N       -5.1940    -9.7790     0.1730 N.am  1 <1>  -0.8490 
 21 C       -6.0160   -10.9900     0.2360 C.3   1 <1>   0.1160 
 22 C       -5.9000    -8.6680     0.8220 C.3   1 <1>   0.1160 
 23 H       -1.6490    -3.3260     2.6380 H     1 <1>   0.1500 
 24 H       -1.0080    -1.3670    -1.0750 H     1 <1>   0.1500 
 25 H       -0.7410    -3.6220    -2.0950 H     1 <1>   0.1500 
 26 H       -1.0070    -7.0320     0.9010 H     1 <1>   0.3700 
 27 H       -0.1750    -8.5270    -1.5390 H     1 <1>   0.0800 
 28 H       -1.8670   -10.1520    -1.2370 H     1 <1>   0.0800 
 29 H        0.8450    -8.7410     0.9430 H     1 <1>   0.0800 
 30 H        0.4580   -10.2210     0.0670 H     1 <1>   0.0800 
 31 H       -2.5090   -10.7630     0.8820 H     1 <1>   0.0800 
 32 H       -2.8330    -9.1050     1.3770 H     1 <1>   0.0800 
 33 H       -2.9030    -8.0810    -2.1500 H     1 <1>   0.0800 
 34 H       -3.4010    -7.6310    -0.5600 H     1 <1>   0.0800 
 35 H       -6.3030   -11.1950     1.2530 H     1 <1>   0.0800 
 36 H       -5.4570   -11.8350    -0.1310 H     1 <1>   0.0800 
 37 H       -6.9010   -10.8740    -0.3670 H     1 <1>   0.0800 
 38 H       -6.1130    -8.9150     1.8480 H     1 <1>   0.0800 
 39 H       -6.8270    -8.4600     0.3120 H     1 <1>   0.0800 
 40 H       -5.2920    -7.7800     0.8070 H     1 <1>   0.0800 
@<TRIPOS>BOND
  1   1   2  1   
  2   2   3  ar  
  3   2   4  ar  
  4   3   5  ar  
  5   3  23  1   
  6   4   6  ar  
  7   4  24  1   
  8   5   7  ar  
  9   6   7  ar  
 10   6  25  1   
 11   7   8  1   
 12   8   9  2   
 13   8  10  am  
 14  10  11  1   
 15  10  26  1   
 16  11  12  1   
 17  11  13  1   
 18  11  27  1   
 19  12  14  1   
 20  12  15  1   
 21  12  28  1   
 22  13  16  1   
 23  13  29  1   
 24  13  30  1   
 25  14  16  1   
 26  14  31  1   
 27  14  32  1   
 28  15  17  1   
 29  15  33  1   
 30  15  34  1   
 31  17  18  2   
 32  17  19  2   
 33  17  20  am  
 34  20  21  1   
 35  20  22  1   
 36  21  35  1   
 37  21  36  1   
 38  21  37  1   
 39  22  38  1   
 40  22  39  1   
 41  22  40  1   
@<TRIPOS>SUBSTRUCTURE
  1 ****  10 GROUP 4 **** **** 0

# MOE 2024.06 (io_trps.svl 2023.06)
