@<TRIPOS>MOLECULE
NONAME
45 48 1 0 0 
SMALL
USER_CHARGES


@<TRIPOS>ATOM
  1 O       -0.9560     0.6080     1.3070 O.2   1 <1>  -0.5700 
  2 C       -1.8880     1.0960     0.6930 C.2   1 <1>   0.7160 
  3 N       -3.1460     0.5460     0.8330 N.am  1 <1>  -0.6600 
  4 C       -1.6440     2.2320    -0.1620 C.2   1 <1>  -0.0860 
  5 C       -3.4770    -0.3760     1.9560 C.3   1 <1>   0.1400 
  6 C       -4.2110     0.6400    -0.2060 C.3   1 <1>   0.1400 
  7 C       -2.4720     3.3470    -0.3200 C.2   1 <1>   0.1390 
  8 C       -0.5880     2.5170    -0.9750 C.2   1 <1>  -0.3020 
  9 C       -3.7610    -1.7780     1.4100 C.3   1 <1>  -0.1600 
 10 C       -4.4970    -0.7530    -0.7730 C.3   1 <1>  -0.1600 
 11 N       -2.0010     4.2200    -1.1540 N.2   1 <1>  -0.7070 
 12 N       -0.8250     3.7020    -1.5550 N.pl3 1 <1>   0.3000 
 13 C       -4.8560    -1.7670     0.3300 C.3   1 <1>   0.4240 
 14 O       -5.9870    -1.2530     1.0000 O.3   1 <1>  -0.5600 
 15 C       -5.1220    -3.1940    -0.2320 C.ar  1 <1>  -0.1430 
 16 C       -7.2400    -1.5150     0.4590 C.3   1 <1>   0.1200 
 17 C       -4.1300    -3.9360    -0.8870 C.ar  1 <1>   0.0830 
 18 C       -6.3840    -3.7720    -0.0900 C.ar  1 <1>  -0.1430 
 19 C       -7.5040    -3.0070     0.5840 C.3   1 <1>  -0.0170 
 20 O       -2.8990    -3.3850    -1.0570 O.3   1 <1>  -0.3630 
 21 C       -4.4070    -5.2170    -1.3610 C.ar  1 <1>  -0.1500 
 22 C       -6.6470    -5.0470    -0.5620 C.ar  1 <1>  -0.1500 
 23 C       -1.7860    -4.1240    -1.5080 C.3   1 <1>   0.0400 
 24 C       -5.6600    -5.7710    -1.1960 C.ar  1 <1>  -0.1500 
 25 H       -4.3440    -0.0010     2.4730 H     1 <1>   0.0800 
 26 H       -2.6660    -0.4210     2.6630 H     1 <1>   0.0800 
 27 H       -3.9090     1.2830    -1.0130 H     1 <1>   0.0800 
 28 H       -5.1020     1.0480     0.2380 H     1 <1>   0.0800 
 29 H       -3.4080     3.4730     0.2000 H     1 <1>   0.1500 
 30 H        0.2960     1.9310    -1.1470 H     1 <1>   0.1500 
 31 H       -4.0650    -2.4260     2.2100 H     1 <1>   0.0800 
 32 H       -2.8400    -2.1630     1.0220 H     1 <1>   0.0800 
 33 H       -3.6200    -1.0740    -1.2990 H     1 <1>   0.0800 
 34 H       -5.2880    -0.7020    -1.4960 H     1 <1>   0.0800 
 35 H       -0.2120     4.1900    -2.2200 H     1 <1>   0.2700 
 36 H       -7.2610    -1.1980    -0.5690 H     1 <1>   0.0800 
 37 H       -7.9670    -0.9530     1.0200 H     1 <1>   0.0800 
 38 H       -8.4470    -3.2380     0.1220 H     1 <1>   0.0800 
 39 H       -7.5580    -3.2780     1.6230 H     1 <1>   0.0800 
 40 H       -3.6630    -5.8010    -1.8660 H     1 <1>   0.1500 
 41 H       -7.6240    -5.4820    -0.4380 H     1 <1>   0.1500 
 42 H       -0.9220    -3.4870    -1.4580 H     1 <1>   0.0800 
 43 H       -1.9570    -4.4280    -2.5250 H     1 <1>   0.0800 
 44 H       -1.6500    -4.9760    -0.8660 H     1 <1>   0.0800 
 45 H       -5.8680    -6.7610    -1.5620 H     1 <1>   0.1500 
@<TRIPOS>BOND
  1   1   2  2   
  2   2   3  am  
  3   2   4  1   
  4   3   5  1   
  5   3   6  1   
  6   4   7  1   
  7   4   8  2   
  8   5   9  1   
  9   5  25  1   
 10   5  26  1   
 11   6  10  1   
 12   6  27  1   
 13   6  28  1   
 14   7  11  2   
 15   7  29  1   
 16   8  12  1   
 17   8  30  1   
 18   9  13  1   
 19   9  31  1   
 20   9  32  1   
 21  10  13  1   
 22  10  33  1   
 23  10  34  1   
 24  11  12  1   
 25  12  35  1   
 26  13  14  1   
 27  13  15  1   
 28  14  16  1   
 29  15  17  ar  
 30  15  18  ar  
 31  16  19  1   
 32  16  36  1   
 33  16  37  1   
 34  17  20  1   
 35  17  21  ar  
 36  18  19  1   
 37  18  22  ar  
 38  19  38  1   
 39  19  39  1   
 40  20  23  1   
 41  21  24  ar  
 42  21  40  1   
 43  22  24  ar  
 44  22  41  1   
 45  23  42  1   
 46  23  43  1   
 47  23  44  1   
 48  24  45  1   
@<TRIPOS>SUBSTRUCTURE
  1 ****  10 GROUP 4 **** **** 0

# MOE 2024.06 (io_trps.svl 2023.06)
