@<TRIPOS>MOLECULE
NONAME
49 52 1 0 0 
SMALL
USER_CHARGES


@<TRIPOS>ATOM
  1 O        0.4860    -0.1780    -0.8430 O.2   1 <1>  -0.5700 
  2 C        1.4560    -0.6860    -0.3120 C.2   1 <1>   0.5440 
  3 N        2.6330     0.0320    -0.2490 N.am  1 <1>  -0.6600 
  4 C        1.3380    -2.0260     0.2300 C.ar  1 <1>   0.0860 
  5 C        3.9630    -0.6480    -0.1360 C.3   1 <1>   0.1400 
  6 C        2.5910     1.5090    -0.4490 C.3   1 <1>   0.1400 
  7 C        0.7200    -3.0510    -0.4650 C.ar  1 <1>  -0.1500 
  8 C        1.8180    -2.3780     1.4850 C.ar  1 <1>  -0.1500 
  9 C        5.0480    -0.0670    -1.0550 C.3   1 <1>   0.1100 
 10 C        3.6940     2.2580     0.3040 C.3   1 <1>  -0.1600 
 11 C        0.6310    -4.3200     0.0790 C.ar  1 <1>   0.3920 
 12 C        1.6820    -3.6720     1.9470 C.ar  1 <1>   0.1600 
 13 N        5.7640     1.0550    -0.4160 N.3   1 <1>  -0.8100 
 14 C        5.0170     2.3220    -0.4640 C.3   1 <1>   0.1100 
 15 O        0.0180    -5.2640    -0.6650 O.3   1 <1>  -0.3630 
 16 N        1.1080    -4.6540     1.2740 N.ar  1 <1>  -0.6200 
 17 C        7.1160     1.2220    -1.0120 C.3   1 <1>   0.2900 
 18 C       -0.1440    -6.5830    -0.1800 C.3   1 <1>   0.0400 
 19 C        8.0000     2.2150    -0.2630 C.2   1 <1>   0.2980 
 20 O        8.3280     1.9540     0.9780 O.3   1 <1>  -0.0190 
 21 N        8.4690     3.3010    -0.7380 N.2   1 <1>  -0.5650 
 22 N        9.0690     2.9610     1.3240 N.2   1 <1>  -0.4100 
 23 C        9.1430     3.7370     0.3170 C.2   1 <1>   0.4300 
 24 C        9.9090     5.0500     0.2660 C.3   1 <1>  -0.0140 
 25 C       11.2480     5.1180    -0.4050 C.3   1 <1>  -0.2000 
 26 C       11.1470     5.2730     1.0820 C.3   1 <1>  -0.2000 
 27 H        3.8430    -1.6840    -0.4000 H     1 <1>   0.0800 
 28 H        4.3060    -0.6060     0.8830 H     1 <1>   0.0800 
 29 H        1.6410     1.8710    -0.0940 H     1 <1>   0.0800 
 30 H        2.6420     1.7250    -1.5020 H     1 <1>   0.0800 
 31 H        0.3010    -2.8640    -1.4360 H     1 <1>   0.1500 
 32 H        2.2920    -1.6340     2.0990 H     1 <1>   0.1500 
 33 H        4.6290     0.2240    -2.0040 H     1 <1>   0.0800 
 34 H        5.7510    -0.8620    -1.2380 H     1 <1>   0.0800 
 35 H        3.8380     1.8560     1.2900 H     1 <1>   0.0800 
 36 H        3.3570     3.2720     0.4230 H     1 <1>   0.0800 
 37 H        2.0650    -3.9160     2.9240 H     1 <1>   0.1500 
 38 H        5.6100     3.0960    -0.0070 H     1 <1>   0.0800 
 39 H        4.8380     2.6090    -1.4870 H     1 <1>   0.0800 
 40 H        7.0210     1.5440    -2.0340 H     1 <1>   0.0800 
 41 H        7.6260     0.2750    -1.0070 H     1 <1>   0.0800 
 42 H       -0.6580    -7.1580    -0.9280 H     1 <1>   0.0800 
 43 H       -0.7220    -6.5510     0.7260 H     1 <1>   0.0800 
 44 H        0.8270    -7.0050     0.0090 H     1 <1>   0.0800 
 45 H        9.2470     5.8860     0.1310 H     1 <1>   0.1000 
 46 H       11.4750     5.9800    -1.0080 H     1 <1>   0.1000 
 47 H       11.6660     4.2110    -0.8050 H     1 <1>   0.1000 
 48 H       11.4980     4.4730     1.7120 H     1 <1>   0.1000 
 49 H       11.3040     6.2430     1.5200 H     1 <1>   0.1000 
@<TRIPOS>BOND
  1   1   2  2   
  2   2   3  am  
  3   2   4  1   
  4   3   5  1   
  5   3   6  1   
  6   4   7  ar  
  7   4   8  ar  
  8   5   9  1   
  9   5  27  1   
 10   5  28  1   
 11   6  10  1   
 12   6  29  1   
 13   6  30  1   
 14   7  11  ar  
 15   7  31  1   
 16   8  12  ar  
 17   8  32  1   
 18   9  13  1   
 19   9  33  1   
 20   9  34  1   
 21  10  14  1   
 22  10  35  1   
 23  10  36  1   
 24  11  15  1   
 25  11  16  ar  
 26  12  16  ar  
 27  12  37  1   
 28  13  14  1   
 29  13  17  1   
 30  14  38  1   
 31  14  39  1   
 32  15  18  1   
 33  17  19  1   
 34  17  40  1   
 35  17  41  1   
 36  18  42  1   
 37  18  43  1   
 38  18  44  1   
 39  19  20  1   
 40  19  21  2   
 41  20  22  1   
 42  21  23  1   
 43  22  23  2   
 44  23  24  1   
 45  24  25  1   
 46  24  26  1   
 47  24  45  1   
 48  25  26  1   
 49  25  46  1   
 50  25  47  1   
 51  26  48  1   
 52  26  49  1   
@<TRIPOS>SUBSTRUCTURE
  1 ****   5 GROUP 4 **** **** 0

# MOE 2024.06 (io_trps.svl 2023.06)
