@<TRIPOS>MOLECULE
NONAME
52 54 1 0 0 
SMALL
USER_CHARGES


@<TRIPOS>ATOM
  1 O       -0.1680     0.3410    -3.0880 O.2   1 <1>  -0.5700 
  2 C       -0.9280     0.9860    -2.4080 C.2   1 <1>   0.5690 
  3 N       -2.0880     0.4160    -1.9120 N.am  1 <1>  -0.6600 
  4 C       -0.5220     2.4380    -2.1440 C.3   1 <1>   0.0810 
  5 C       -2.9900     1.1360    -0.9600 C.3   1 <1>   0.1400 
  6 C       -2.2840    -1.0610    -2.0800 C.3   1 <1>   0.1400 
  7 C       -0.5150     2.8140    -0.6690 C.2   1 <1>  -0.0400 
  8 C       -4.4430     0.6240    -0.8830 C.3   1 <1>   0.4230 
  9 C       -3.7650    -1.4580    -2.0520 C.3   1 <1>  -0.1600 
 10 O       -1.4830     3.5440    -0.1800 O.3   1 <1>  -0.0190 
 11 C        0.3210     2.5160     0.3360 C.2   1 <1>  -0.1500 
 12 N       -5.2250     1.2500     0.2490 N.4   1 <1>  -0.9590 
 13 C       -4.5080    -0.9200    -0.8090 C.3   1 <1>   0.0000 
 14 N       -1.3700     3.7080     1.1030 N.2   1 <1>  -0.4100 
 15 C       -0.2780     3.1180     1.4400 C.2   1 <1>   0.1080 
 16 C       -6.6730     0.8880     0.1520 C.3   1 <1>   0.3430 
 17 C       -5.0660     2.7300     0.3550 C.3   1 <1>   0.4810 
 18 C       -5.9940    -1.3410    -0.8860 C.3   1 <1>  -0.1600 
 19 C       -3.8460    -1.4420     0.5000 C.3   1 <1>   0.1200 
 20 C        0.2740     3.0800     2.8490 C.3   1 <1>  -0.0590 
 21 C       -6.8510    -0.6320     0.1780 C.3   1 <1>  -0.1600 
 22 C       -5.7260     3.1760     1.6400 C.2   1 <1>  -0.2880 
 23 O       -3.7930    -2.8250     0.5120 O.3   1 <1>  -0.6800 
 24 C       -6.8410     3.9100     1.7270 C.2   1 <1>  -0.3000 
 25 H        0.4700     2.5850    -2.5310 H     1 <1>   0.0800 
 26 H       -1.1760     3.0910    -2.6890 H     1 <1>   0.0800 
 27 H       -2.5430     1.0980     0.0180 H     1 <1>   0.0800 
 28 H       -3.0510     2.1550    -1.2880 H     1 <1>   0.0800 
 29 H       -1.8620    -1.3810    -3.0200 H     1 <1>   0.0800 
 30 H       -1.7470    -1.5770    -1.3020 H     1 <1>   0.0800 
 31 H       -4.9130     0.9140    -1.8080 H     1 <1>   0.0800 
 32 H       -4.2260    -1.0970    -2.9550 H     1 <1>   0.0800 
 33 H       -3.8240    -2.5330    -2.0830 H     1 <1>   0.0800 
 34 H        1.2310     1.9430     0.3310 H     1 <1>   0.1500 
 35 H       -4.8750     0.8680     1.1340 H     1 <1>   0.4500 
 36 H       -7.2230     1.3220     0.9740 H     1 <1>   0.0800 
 37 H       -7.0830     1.2800    -0.7650 H     1 <1>   0.0800 
 38 H       -4.0250     3.0100     0.3840 H     1 <1>   0.0800 
 39 H       -5.5320     3.2160    -0.4870 H     1 <1>   0.0800 
 40 H       -6.3850    -1.0890    -1.8580 H     1 <1>   0.0800 
 41 H       -6.0920    -2.4090    -0.7800 H     1 <1>   0.0800 
 42 H       -4.3820    -1.1320     1.3790 H     1 <1>   0.0800 
 43 H       -2.8310    -1.0960     0.5920 H     1 <1>   0.0800 
 44 H        1.2660     3.4930     2.8620 H     1 <1>   0.0800 
 45 H        0.3110     2.0660     3.2020 H     1 <1>   0.0800 
 46 H       -0.3490     3.6580     3.5070 H     1 <1>   0.0800 
 47 H       -6.6200    -1.0040     1.1600 H     1 <1>   0.0800 
 48 H       -7.8890    -0.8590    -0.0010 H     1 <1>   0.0800 
 49 H       -5.1900     2.8490     2.5170 H     1 <1>   0.1500 
 50 H       -4.6820    -3.2290     0.5480 H     1 <1>   0.4000 
 51 H       -7.2810     4.2200     2.6630 H     1 <1>   0.1500 
 52 H       -7.4120     4.2770     0.8900 H     1 <1>   0.1500 
@<TRIPOS>BOND
  1   1   2  2   
  2   2   3  am  
  3   2   4  1   
  4   3   5  1   
  5   3   6  1   
  6   4   7  1   
  7   4  25  1   
  8   4  26  1   
  9   5   8  1   
 10   5  27  1   
 11   5  28  1   
 12   6   9  1   
 13   6  29  1   
 14   6  30  1   
 15   7  10  1   
 16   7  11  2   
 17   8  12  1   
 18   8  13  1   
 19   8  31  1   
 20   9  13  1   
 21   9  32  1   
 22   9  33  1   
 23  10  14  1   
 24  11  15  1   
 25  11  34  1   
 26  12  16  1   
 27  12  17  1   
 28  12  35  1   
 29  13  18  1   
 30  13  19  1   
 31  14  15  2   
 32  15  20  1   
 33  16  21  1   
 34  16  36  1   
 35  16  37  1   
 36  17  22  1   
 37  17  38  1   
 38  17  39  1   
 39  18  21  1   
 40  18  40  1   
 41  18  41  1   
 42  19  23  1   
 43  19  42  1   
 44  19  43  1   
 45  20  44  1   
 46  20  45  1   
 47  20  46  1   
 48  21  47  1   
 49  21  48  1   
 50  22  24  2   
 51  22  49  1   
 52  23  50  1   
 53  24  51  1   
 54  24  52  1   
@<TRIPOS>SUBSTRUCTURE
  1 ****   5 GROUP 4 **** **** 0

# MOE 2024.06 (io_trps.svl 2023.06)
