@<TRIPOS>MOLECULE
NONAME
55 57 1 0 0 
SMALL
USER_CHARGES


@<TRIPOS>ATOM
  1 CL      -0.7410    -1.9660     0.5770 Cl    1 <1>  -0.1770 
  2 C       -2.0130    -0.7620     0.6150 C.ar  1 <1>   0.1770 
  3 C       -3.3490    -1.1510     0.5930 C.ar  1 <1>   0.0830 
  4 C       -1.6490     0.5700     0.6680 C.ar  1 <1>  -0.1500 
  5 O       -3.6320    -2.4810     0.5390 O.3   1 <1>  -0.3630 
  6 C       -4.3300    -0.1610     0.6260 C.ar  1 <1>  -0.1500 
  7 C       -2.6330     1.5440     0.6990 C.ar  1 <1>  -0.1500 
  8 C       -4.9560    -2.9580     0.5130 C.3   1 <1>   0.1200 
  9 C       -3.9690     1.1760     0.6790 C.ar  1 <1>  -0.1500 
 10 C       -4.9020    -4.4830     0.4400 C.3   1 <1>  -0.1600 
 11 C       -6.3110    -5.0780     0.4120 C.3   1 <1>   0.2090 
 12 N       -6.2560    -6.5460     0.1830 N.pl3 1 <1>  -0.8380 
 13 C       -6.6160    -7.1050    -1.0360 C.ar  1 <1>   0.4100 
 14 C       -5.7310    -7.3920     1.2930 C.3   1 <1>   0.1290 
 15 N       -7.3690    -8.1910    -0.9700 N.ar  1 <1>  -0.6200 
 16 C       -6.2140    -6.5400    -2.2600 C.ar  1 <1>   0.1600 
 17 C       -7.7090    -8.6850    -2.1740 C.ar  1 <1>   0.3960 
 18 N       -6.5310    -7.0050    -3.4510 N.ar  1 <1>  -0.6200 
 19 C       -8.5490    -9.8760    -2.2600 C.2   1 <1>   0.5440 
 20 C       -7.2780    -8.0950    -3.3640 C.ar  1 <1>   0.1600 
 21 O       -8.2870   -10.7320    -3.0840 O.2   1 <1>  -0.5700 
 22 N       -9.6350   -10.1100    -1.4270 N.am  1 <1>  -0.6600 
 23 C      -10.0730   -11.5030    -1.1160 C.3   1 <1>   0.1400 
 24 C      -10.1930    -9.1010    -0.4800 C.3   1 <1>   0.1400 
 25 C       -9.6450   -11.8640     0.3210 C.3   1 <1>   0.3430 
 26 C       -9.7360    -9.4410     0.9510 C.3   1 <1>   0.3430 
 27 N      -10.1180   -10.8520     1.3410 N.4   1 <1>  -0.9590 
 28 C       -9.5950   -11.1850     2.7000 C.3   1 <1>   0.2630 
 29 H       -0.6080     0.8380     0.6840 H     1 <1>   0.1500 
 30 H       -5.3740    -0.4070     0.6110 H     1 <1>   0.1500 
 31 H       -2.3600     2.5850     0.7410 H     1 <1>   0.1500 
 32 H       -5.4450    -2.5490    -0.3550 H     1 <1>   0.0800 
 33 H       -5.4500    -2.6330     1.4130 H     1 <1>   0.0800 
 34 H       -4.7310     1.9360     0.7040 H     1 <1>   0.1500 
 35 H       -4.3720    -4.8480     1.3010 H     1 <1>   0.0800 
 36 H       -4.3700    -4.7690    -0.4490 H     1 <1>   0.0800 
 37 H       -6.8870    -4.6150    -0.3720 H     1 <1>   0.0800 
 38 H       -6.8110    -4.8830     1.3460 H     1 <1>   0.0800 
 39 H       -6.3320    -7.2530     2.1740 H     1 <1>   0.0800 
 40 H       -4.7130    -7.1200     1.5140 H     1 <1>   0.0800 
 41 H       -5.7460    -8.4320     1.0170 H     1 <1>   0.0800 
 42 H       -5.5950    -5.6640    -2.2270 H     1 <1>   0.1500 
 43 H       -7.5730    -8.5550    -4.2920 H     1 <1>   0.1500 
 44 H       -9.6340   -12.2060    -1.8030 H     1 <1>   0.0800 
 45 H      -11.1420   -11.5760    -1.2180 H     1 <1>   0.0800 
 46 H      -11.2670    -9.1150    -0.5350 H     1 <1>   0.0800 
 47 H       -9.8760    -8.1070    -0.7430 H     1 <1>   0.0800 
 48 H       -8.5680   -11.9190     0.3410 H     1 <1>   0.0800 
 49 H      -10.0280   -12.8410     0.5670 H     1 <1>   0.0800 
 50 H      -10.1740    -8.7370     1.6390 H     1 <1>   0.0800 
 51 H       -8.6650    -9.3250     0.9960 H     1 <1>   0.0800 
 52 H      -11.1470   -10.8960     1.3630 H     1 <1>   0.4500 
 53 H       -8.5180   -11.1470     2.7050 H     1 <1>   0.0800 
 54 H       -9.9070   -12.1760     2.9900 H     1 <1>   0.0800 
 55 H       -9.9680   -10.4820     3.4280 H     1 <1>   0.0800 
@<TRIPOS>BOND
  1   1   2  1   
  2   2   3  ar  
  3   2   4  ar  
  4   3   5  1   
  5   3   6  ar  
  6   4   7  ar  
  7   4  29  1   
  8   5   8  1   
  9   6   9  ar  
 10   6  30  1   
 11   7   9  ar  
 12   7  31  1   
 13   8  10  1   
 14   8  32  1   
 15   8  33  1   
 16   9  34  1   
 17  10  11  1   
 18  10  35  1   
 19  10  36  1   
 20  11  12  1   
 21  11  37  1   
 22  11  38  1   
 23  12  13  1   
 24  12  14  1   
 25  13  15  ar  
 26  13  16  ar  
 27  14  39  1   
 28  14  40  1   
 29  14  41  1   
 30  15  17  ar  
 31  16  18  ar  
 32  16  42  1   
 33  17  19  1   
 34  17  20  ar  
 35  18  20  ar  
 36  19  21  2   
 37  19  22  am  
 38  20  43  1   
 39  22  23  1   
 40  22  24  1   
 41  23  25  1   
 42  23  44  1   
 43  23  45  1   
 44  24  26  1   
 45  24  46  1   
 46  24  47  1   
 47  25  27  1   
 48  25  48  1   
 49  25  49  1   
 50  26  27  1   
 51  26  50  1   
 52  26  51  1   
 53  27  28  1   
 54  27  52  1   
 55  28  53  1   
 56  28  54  1   
 57  28  55  1   
@<TRIPOS>SUBSTRUCTURE
  1 ****  12 GROUP 4 **** **** 0

# MOE 2024.06 (io_trps.svl 2023.06)
