@<TRIPOS>MOLECULE
NONAME
27 28 1 0 0 
SMALL
USER_CHARGES


@<TRIPOS>ATOM
  1 BR      -0.4720    -0.0650    -0.0810 Br    1 <1>  -0.1110 
  2 C        1.2120    -0.9570     0.2330 C.ar  1 <1>   0.1110 
  3 C        2.3770    -0.4820    -0.3580 C.ar  1 <1>   0.0820 
  4 C        1.2120    -2.0710     1.0520 C.ar  1 <1>  -0.1500 
  5 O        2.3810     0.6010    -1.1650 O.3   1 <1>  -0.3630 
  6 C        3.5640    -1.1580    -0.1340 C.ar  1 <1>  -0.1500 
  7 C        2.4060    -2.7390     1.2760 C.ar  1 <1>  -0.1500 
  8 C        2.4680     1.8530    -0.5230 C.3   1 <1>   0.0400 
  9 C        3.5780    -2.2880     0.6710 C.ar  1 <1>   0.0830 
 10 O        4.7640    -2.9230     0.8270 O.3   1 <1>  -0.3400 
 11 C        4.7880    -4.3360     0.8280 C.3   1 <1>   0.2580 
 12 C        6.2200    -4.8610     0.5770 C.3   1 <1>   0.4720 
 13 C        4.4300    -4.9240    -0.5600 C.3   1 <1>   0.4720 
 14 N        5.6780    -5.7600    -0.5000 N.4   1 <1>  -0.8440 
 15 H        0.2930    -2.4020     1.5050 H     1 <1>   0.1500 
 16 H        4.4680    -0.8010    -0.5910 H     1 <1>   0.1500 
 17 H        2.4040    -3.5910     1.9310 H     1 <1>   0.1500 
 18 H        2.4560     2.6190    -1.2780 H     1 <1>   0.0800 
 19 H        3.3870     1.8980     0.0330 H     1 <1>   0.0800 
 20 H        1.6250     1.9730     0.1340 H     1 <1>   0.0800 
 21 H        4.2880    -4.7670     1.6770 H     1 <1>   0.0000 
 22 H        6.6330    -5.4280     1.3910 H     1 <1>   0.0000 
 23 H        6.8790    -4.1190     0.1620 H     1 <1>   0.0000 
 24 H        4.4870    -4.2030    -1.3550 H     1 <1>   0.0000 
 25 H        3.5460    -5.5360    -0.5660 H     1 <1>   0.0000 
 26 H        5.5060    -6.7170    -0.1750 H     1 <1>   0.4500 
 27 H        6.2270    -5.7240    -1.3670 H     1 <1>   0.4500 
@<TRIPOS>BOND
  1   1   2  1   
  2   2   3  ar  
  3   2   4  ar  
  4   3   5  1   
  5   3   6  ar  
  6   4   7  ar  
  7   4  15  1   
  8   5   8  1   
  9   6   9  ar  
 10   6  16  1   
 11   7   9  ar  
 12   7  17  1   
 13   8  18  1   
 14   8  19  1   
 15   8  20  1   
 16   9  10  1   
 17  10  11  1   
 18  11  12  1   
 19  11  13  1   
 20  11  21  1   
 21  12  14  1   
 22  12  22  1   
 23  12  23  1   
 24  13  14  1   
 25  13  24  1   
 26  13  25  1   
 27  14  26  1   
 28  14  27  1   
@<TRIPOS>SUBSTRUCTURE
  1 ****   9 GROUP 4 **** **** 0

# MOE 2024.06 (io_trps.svl 2023.06)
