@<TRIPOS>MOLECULE
NONAME
36 37 1 0 0 
SMALL
USER_CHARGES


@<TRIPOS>ATOM
  1 O       -0.4290     0.1460     0.3210 O.3   1 <1>  -0.5600 
  2 C       -1.1780     1.0290    -0.4680 C.3   1 <1>   0.1200 
  3 C        0.9420     0.4110     0.3750 C.3   1 <1>   0.1200 
  4 C       -1.0710     2.4500     0.1030 C.3   1 <1>   0.2000 
  5 C        1.1800     1.7990     0.9790 C.3   1 <1>  -0.1600 
  6 O       -1.7680     3.3570    -0.7110 O.3   1 <1>  -0.5600 
  7 C        0.4120     2.8540     0.1810 C.3   1 <1>   0.2890 
  8 C       -3.1310     3.4630    -0.4450 C.3   1 <1>   0.0400 
  9 N        0.5680     4.1800     0.8150 N.pl3 1 <1>  -0.8690 
 10 C        1.5540     5.0370     0.4710 C.ar  1 <1>   0.7200 
 11 N        2.7120     4.5380     0.0510 N.ar  1 <1>  -0.6200 
 12 N        1.2240     6.3130     0.5910 N.ar  1 <1>  -0.6200 
 13 C        3.6260     5.4190    -0.2700 C.ar  1 <1>   0.1670 
 14 C        2.1520     7.1750     0.2640 C.ar  1 <1>   0.1670 
 15 C        3.3910     6.7710    -0.1790 C.ar  1 <1>  -0.1500 
 16 C        4.9580     4.8820    -0.7480 C.3   1 <1>  -0.0970 
 17 C        1.8030     8.6420     0.3940 C.3   1 <1>  -0.0970 
 18 H       -0.8030     0.9910    -1.4760 H     1 <1>   0.0800 
 19 H       -2.1970     0.6900    -0.4480 H     1 <1>   0.0800 
 20 H        1.3990    -0.3480     0.9860 H     1 <1>   0.0800 
 21 H        1.3440     0.3460    -0.6220 H     1 <1>   0.0800 
 22 H       -1.4920     2.4710     1.0930 H     1 <1>   0.0800 
 23 H        0.8540     1.8020     2.0040 H     1 <1>   0.0800 
 24 H        2.2310     2.0190     0.9560 H     1 <1>   0.0800 
 25 H        0.8070     2.8890    -0.8210 H     1 <1>   0.0800 
 26 H       -3.5480     4.1850    -1.1260 H     1 <1>   0.0800 
 27 H       -3.2710     3.8000     0.5670 H     1 <1>   0.0800 
 28 H       -3.6040     2.5090    -0.5970 H     1 <1>   0.0800 
 29 H       -0.3160     4.6880     0.8430 H     1 <1>   0.4000 
 30 H        4.1450     7.4850    -0.4450 H     1 <1>   0.1500 
 31 H        5.6350     5.6810    -0.9840 H     1 <1>   0.0800 
 32 H        4.8070     4.2800    -1.6260 H     1 <1>   0.0800 
 33 H        5.3930     4.2690     0.0210 H     1 <1>   0.0800 
 34 H        2.6280     9.2640     0.1010 H     1 <1>   0.0800 
 35 H        1.5470     8.8590     1.4150 H     1 <1>   0.0800 
 36 H        0.9570     8.8650    -0.2300 H     1 <1>   0.0800 
@<TRIPOS>BOND
  1   1   2  1   
  2   1   3  1   
  3   2   4  1   
  4   2  18  1   
  5   2  19  1   
  6   3   5  1   
  7   3  20  1   
  8   3  21  1   
  9   4   6  1   
 10   4   7  1   
 11   4  22  1   
 12   5   7  1   
 13   5  23  1   
 14   5  24  1   
 15   6   8  1   
 16   7   9  1   
 17   7  25  1   
 18   8  26  1   
 19   8  27  1   
 20   8  28  1   
 21   9  10  1   
 22   9  29  1   
 23  10  11  ar  
 24  10  12  ar  
 25  11  13  ar  
 26  12  14  ar  
 27  13  15  ar  
 28  13  16  1   
 29  14  15  ar  
 30  14  17  1   
 31  15  30  1   
 32  16  31  1   
 33  16  32  1   
 34  16  33  1   
 35  17  34  1   
 36  17  35  1   
 37  17  36  1   
@<TRIPOS>SUBSTRUCTURE
  1 ****   9 GROUP 4 **** **** 0

# MOE 2024.06 (io_trps.svl 2023.06)
