@<TRIPOS>MOLECULE
NONAME
22 23 1 0 0 
SMALL
USER_CHARGES


@<TRIPOS>ATOM
  1 S       -0.0960    -0.2180    -0.1570 S.3   1 <1>  -0.0800 
  2 C       -0.7980     1.3660    -0.0030 C.2   1 <1>   0.4620 
  3 C        1.5170     0.4830    -0.1520 C.2   1 <1>  -0.0450 
  4 N        0.0620     2.3120     0.0450 N.2   1 <1>  -0.5650 
  5 N       -2.1370     1.4930     0.0530 N.pl3 1 <1>  -0.8840 
  6 C        2.6120    -0.4370    -0.2490 C.2   1 <1>   0.5940 
  7 C        1.3400     1.8300    -0.0410 C.2   1 <1>   0.0460 
  8 O        2.4500    -1.6310    -0.3340 O.2   1 <1>  -0.5700 
  9 C        4.0670     0.0060    -0.2720 C.3   1 <1>  -0.0990 
 10 C        2.3970     2.9220     0.0190 C.3   1 <1>   0.0210 
 11 C        4.4020     1.3700     0.3460 C.3   1 <1>  -0.1600 
 12 C        3.8020     2.5330    -0.4510 C.3   1 <1>  -0.1600 
 13 H       -2.5600     2.4170     0.1430 H     1 <1>   0.4000 
 14 H       -2.7710     0.6950     0.0100 H     1 <1>   0.4000 
 15 H        4.4010    -0.0180    -1.2930 H     1 <1>   0.0800 
 16 H        4.6340    -0.7410     0.2560 H     1 <1>   0.0800 
 17 H        2.4450     3.2830     1.0310 H     1 <1>   0.0800 
 18 H        2.0620     3.7430    -0.5920 H     1 <1>   0.0800 
 19 H        5.4740     1.4760     0.3390 H     1 <1>   0.0800 
 20 H        4.0840     1.4060     1.3750 H     1 <1>   0.0800 
 21 H        4.4340     3.3950    -0.3230 H     1 <1>   0.0800 
 22 H        3.7850     2.3050    -1.5030 H     1 <1>   0.0800 
@<TRIPOS>BOND
  1   1   2  1   
  2   1   3  1   
  3   2   4  2   
  4   2   5  1   
  5   3   6  1   
  6   3   7  2   
  7   4   7  1   
  8   5  13  1   
  9   5  14  1   
 10   6   8  2   
 11   6   9  1   
 12   7  10  1   
 13   9  11  1   
 14   9  15  1   
 15   9  16  1   
 16  10  12  1   
 17  10  17  1   
 18  10  18  1   
 19  11  12  1   
 20  11  19  1   
 21  11  20  1   
 22  12  21  1   
 23  12  22  1   
@<TRIPOS>SUBSTRUCTURE
  1 ****   3 GROUP 4 **** **** 0

# MOE 2024.06 (io_trps.svl 2023.06)
