@<TRIPOS>MOLECULE
NONAME
44 46 1 0 0 
SMALL
USER_CHARGES


@<TRIPOS>ATOM
  1 CL      -1.0520    -0.4140     1.4130 Cl    1 <1>  -0.1770 
  2 C       -1.1080    -2.1250     1.0700 C.ar  1 <1>   0.1770 
  3 C       -1.4840    -3.0050     2.0670 C.ar  1 <1>  -0.1500 
  4 C       -0.7750    -2.5730    -0.1960 C.ar  1 <1>  -0.1500 
  5 C       -1.5280    -4.3600     1.7890 C.ar  1 <1>  -0.1500 
  6 C       -0.8200    -3.9300    -0.4720 C.ar  1 <1>  -0.1500 
  7 C       -1.2000    -4.8290     0.5240 C.ar  1 <1>   0.0830 
  8 O       -1.2760    -6.1690     0.3390 O.3   1 <1>  -0.3630 
  9 C       -1.0390    -6.7550    -0.9340 C.3   1 <1>   0.1810 
 10 C       -1.2500    -8.2670    -0.9100 C.2   1 <1>   0.5690 
 11 O       -0.3460    -8.9650    -1.3070 O.2   1 <1>  -0.5700 
 12 N       -2.4370    -8.8130    -0.4940 N.am  1 <1>  -0.6600 
 13 C       -3.6120    -8.0710     0.0290 C.3   1 <1>   0.1400 
 14 C       -2.6610   -10.2760    -0.4160 C.3   1 <1>   0.1400 
 15 C       -4.6850    -9.1390     0.2360 C.3   1 <1>   0.2000 
 16 C       -3.9170   -10.4420     0.4410 C.3   1 <1>  -0.0800 
 17 O       -5.4730    -8.8650     1.3410 O.3   1 <1>  -0.6800 
 18 C       -4.7390   -11.6930     0.0950 C.3   1 <1>   0.0210 
 19 C       -3.8930   -12.9460     0.2070 C.2   1 <1>   0.1080 
 20 N       -3.3230   -13.3120     1.3130 N.2   1 <1>  -0.7070 
 21 C       -3.6230   -13.8220    -0.8390 C.2   1 <1>  -0.1500 
 22 N       -2.6670   -14.4440     0.9990 N.pl3 1 <1>   0.3000 
 23 C       -2.8320   -14.7730    -0.3000 C.2   1 <1>  -0.3320 
 24 C       -2.2130   -15.9940    -0.9550 C.3   1 <1>  -0.0600 
 25 H       -1.7360    -2.6320     3.0440 H     1 <1>   0.1500 
 26 H       -0.4850    -1.8640    -0.9500 H     1 <1>   0.1500 
 27 H       -1.8160    -5.0630     2.5510 H     1 <1>   0.1500 
 28 H       -0.5540    -4.2600    -1.4580 H     1 <1>   0.1500 
 29 H       -1.7150    -6.3150    -1.6430 H     1 <1>   0.0800 
 30 H       -0.0240    -6.5440    -1.2150 H     1 <1>   0.0800 
 31 H       -3.3500    -7.6110     0.9670 H     1 <1>   0.0800 
 32 H       -3.9390    -7.3270    -0.6750 H     1 <1>   0.0800 
 33 H       -2.8150   -10.6600    -1.4100 H     1 <1>   0.0800 
 34 H       -1.8150   -10.7740     0.0290 H     1 <1>   0.0800 
 35 H       -5.3200    -9.1870    -0.6320 H     1 <1>   0.0800 
 36 H       -3.5900   -10.5110     1.4640 H     1 <1>   0.0800 
 37 H       -4.9510    -8.9700     2.1610 H     1 <1>   0.4000 
 38 H       -5.1300   -11.6150    -0.9030 H     1 <1>   0.0800 
 39 H       -5.5690   -11.7760     0.7740 H     1 <1>   0.0800 
 40 H       -3.9790   -13.7350    -1.8490 H     1 <1>   0.1500 
 41 H       -2.1150   -14.9650     1.6910 H     1 <1>   0.2700 
 42 H       -2.4910   -16.0370    -1.9930 H     1 <1>   0.0800 
 43 H       -2.5570   -16.8910    -0.4710 H     1 <1>   0.0800 
 44 H       -1.1400   -15.9470    -0.8910 H     1 <1>   0.0800 
@<TRIPOS>BOND
  1   1   2  1   
  2   2   3  ar  
  3   2   4  ar  
  4   3   5  ar  
  5   3  25  1   
  6   4   6  ar  
  7   4  26  1   
  8   5   7  ar  
  9   5  27  1   
 10   6   7  ar  
 11   6  28  1   
 12   7   8  1   
 13   8   9  1   
 14   9  10  1   
 15   9  29  1   
 16   9  30  1   
 17  10  11  2   
 18  10  12  am  
 19  12  13  1   
 20  12  14  1   
 21  13  15  1   
 22  13  31  1   
 23  13  32  1   
 24  14  16  1   
 25  14  33  1   
 26  14  34  1   
 27  15  16  1   
 28  15  17  1   
 29  15  35  1   
 30  16  18  1   
 31  16  36  1   
 32  17  37  1   
 33  18  19  1   
 34  18  38  1   
 35  18  39  1   
 36  19  20  2   
 37  19  21  1   
 38  20  22  1   
 39  21  23  2   
 40  21  40  1   
 41  22  23  1   
 42  22  41  1   
 43  23  24  1   
 44  24  42  1   
 45  24  43  1   
 46  24  44  1   
@<TRIPOS>SUBSTRUCTURE
  1 ****  12 GROUP 4 **** **** 0

# MOE 2024.06 (io_trps.svl 2023.06)
