@<TRIPOS>MOLECULE
NONAME
54 56 1 0 0 
SMALL
USER_CHARGES


@<TRIPOS>ATOM
  1 O       -3.4710     1.5780    -2.2540 O.2   1 <1>  -0.5700 
  2 C       -2.8340     1.4820    -1.2350 C.2   1 <1>   0.5690 
  3 N       -2.3070     0.3040    -0.8280 N.am  1 <1>  -0.7300 
  4 C       -2.6210     2.7090    -0.3710 C.3   1 <1>  -0.0990 
  5 C       -2.3570    -0.9580    -1.6010 C.3   1 <1>   0.2200 
  6 C       -1.1650     3.2020    -0.4180 C.3   1 <1>  -0.1600 
  7 C       -3.3500    -1.9420    -0.9960 C.3   1 <1>  -0.0800 
  8 C       -1.0530    -1.7130    -1.3890 C.3   1 <1>   0.1200 
  9 C       -0.9660     4.4680     0.4220 C.3   1 <1>  -0.0160 
 10 C       -2.5300    -2.6300     0.1020 C.3   1 <1>   0.1200 
 11 C       -4.6830    -1.3420    -0.5120 C.3   1 <1>  -0.0160 
 12 O       -1.1870    -2.3200    -0.1400 O.3   1 <1>  -0.5600 
 13 C        0.4870     4.9110     0.3710 C.ar  1 <1>  -0.1440 
 14 C       -5.6250    -2.4330    -0.0300 C.ar  1 <1>  -0.1440 
 15 C        0.9330     5.7280    -0.6550 C.ar  1 <1>  -0.1500 
 16 C        1.3810     4.5020     1.3480 C.ar  1 <1>  -0.1500 
 17 C       -5.7650    -2.7470     1.3070 C.ar  1 <1>  -0.1500 
 18 C       -6.3900    -3.1700    -0.9110 C.ar  1 <1>  -0.1500 
 19 C        2.2570     6.1310    -0.7030 C.ar  1 <1>  -0.1500 
 20 C        2.7040     4.9050     1.2980 C.ar  1 <1>  -0.1500 
 21 C       -6.6330    -3.7570     1.6870 C.ar  1 <1>   0.1600 
 22 C       -7.2300    -4.1600    -0.4270 C.ar  1 <1>   0.1600 
 23 C        3.1510     5.7210     0.2720 C.ar  1 <1>  -0.1440 
 24 N       -7.3680    -4.4730     0.8510 N.ar  1 <1>  -0.6200 
 25 C        4.6040     6.1650     0.2190 C.3   1 <1>  -0.0170 
 26 C        4.7930     7.4790     0.9810 C.3   1 <1>  -0.2400 
 27 H       -1.7750     0.2360     0.0420 H     1 <1>   0.3700 
 28 H       -3.2760     3.4870    -0.7230 H     1 <1>   0.0800 
 29 H       -2.9000     2.4730     0.6390 H     1 <1>   0.0800 
 30 H       -2.5510    -0.7590    -2.6420 H     1 <1>   0.0800 
 31 H       -0.5070     2.4310    -0.0550 H     1 <1>   0.0800 
 32 H       -0.8940     3.4090    -1.4400 H     1 <1>   0.0800 
 33 H       -3.5700    -2.6840    -1.7430 H     1 <1>   0.0800 
 34 H       -0.1910    -1.0700    -1.3930 H     1 <1>   0.0800 
 35 H       -0.9360    -2.4900    -2.1240 H     1 <1>   0.0800 
 36 H       -1.2500     4.2810     1.4430 H     1 <1>   0.0800 
 37 H       -1.5930     5.2590     0.0470 H     1 <1>   0.0800 
 38 H       -2.6520    -3.7000     0.0790 H     1 <1>   0.0800 
 39 H       -2.7780    -2.2570     1.0800 H     1 <1>   0.0800 
 40 H       -5.1450    -0.8030    -1.3220 H     1 <1>   0.0800 
 41 H       -4.5130    -0.6400     0.2850 H     1 <1>   0.0800 
 42 H        0.2530     6.0530    -1.4210 H     1 <1>   0.1500 
 43 H        1.0530     3.8670     2.1510 H     1 <1>   0.1500 
 44 H       -5.2090    -2.2170     2.0580 H     1 <1>   0.1500 
 45 H       -6.3420    -2.9830    -1.9680 H     1 <1>   0.1500 
 46 H        2.5870     6.7670    -1.5050 H     1 <1>   0.1500 
 47 H        3.3860     4.5800     2.0640 H     1 <1>   0.1500 
 48 H       -6.7290    -3.9880     2.7340 H     1 <1>   0.1500 
 49 H       -7.8190    -4.7240    -1.1290 H     1 <1>   0.1500 
 50 H        5.2320     5.4040     0.6490 H     1 <1>   0.0800 
 51 H        4.9060     6.2960    -0.8050 H     1 <1>   0.0800 
 52 H        4.5080     7.3530     2.0110 H     1 <1>   0.0800 
 53 H        4.1800     8.2490     0.5470 H     1 <1>   0.0800 
 54 H        5.8220     7.7880     0.9400 H     1 <1>   0.0800 
@<TRIPOS>BOND
  1   1   2  2   
  2   2   3  am  
  3   2   4  1   
  4   3   5  1   
  5   3  27  1   
  6   4   6  1   
  7   4  28  1   
  8   4  29  1   
  9   5   7  1   
 10   5   8  1   
 11   5  30  1   
 12   6   9  1   
 13   6  31  1   
 14   6  32  1   
 15   7  10  1   
 16   7  11  1   
 17   7  33  1   
 18   8  12  1   
 19   8  34  1   
 20   8  35  1   
 21   9  13  1   
 22   9  36  1   
 23   9  37  1   
 24  10  12  1   
 25  10  38  1   
 26  10  39  1   
 27  11  14  1   
 28  11  40  1   
 29  11  41  1   
 30  13  15  ar  
 31  13  16  ar  
 32  14  17  ar  
 33  14  18  ar  
 34  15  19  ar  
 35  15  42  1   
 36  16  20  ar  
 37  16  43  1   
 38  17  21  ar  
 39  17  44  1   
 40  18  22  ar  
 41  18  45  1   
 42  19  23  ar  
 43  19  46  1   
 44  20  23  ar  
 45  20  47  1   
 46  21  24  ar  
 47  21  48  1   
 48  22  24  ar  
 49  22  49  1   
 50  23  25  1   
 51  25  26  1   
 52  25  50  1   
 53  25  51  1   
 54  26  52  1   
 55  26  53  1   
 56  26  54  1   
@<TRIPOS>SUBSTRUCTURE
  1 ****   3 GROUP 4 **** **** 0

# MOE 2024.06 (io_trps.svl 2023.06)
