@<TRIPOS>MOLECULE
NONAME
42 43 1 0 0 
SMALL
USER_CHARGES


@<TRIPOS>ATOM
  1 CL      -5.5030     0.3950    -3.1790 Cl    1 <1>  -0.1770 
  2 C       -5.0840    -0.8030    -1.9830 C.ar  1 <1>   0.1770 
  3 C       -5.9150    -1.0010    -0.8990 C.ar  1 <1>  -0.1500 
  4 C       -3.9250    -1.5390    -2.1350 C.ar  1 <1>  -0.1500 
  5 C       -5.5770    -1.9560     0.0460 C.ar  1 <1>  -0.1500 
  6 C       -3.5990    -2.4920    -1.1840 C.ar  1 <1>  -0.1500 
  7 C       -4.4190    -2.7180    -0.0800 C.ar  1 <1>  -0.0090 
  8 S       -4.0080    -3.9840     1.1550 S.o2  1 <1>   1.4470 
  9 O       -2.8180    -4.7080     0.7690 O.2   1 <1>  -0.6500 
 10 O       -4.1300    -3.4440     2.4870 O.2   1 <1>  -0.6500 
 11 N       -5.2960    -5.0480     1.0200 N.am  1 <1>  -0.9140 
 12 C       -5.1150    -6.1120     0.0400 C.3   1 <1>   0.2760 
 13 C       -6.4670    -6.7230    -0.3030 C.3   1 <1>  -0.0800 
 14 C       -4.4350    -7.3130     0.6930 C.3   1 <1>   0.1200 
 15 C       -6.6710    -7.7710     0.8010 C.3   1 <1>   0.1200 
 16 C       -7.6250    -5.7130    -0.4360 C.3   1 <1>  -0.0550 
 17 O       -5.4400    -7.9110     1.4490 O.3   1 <1>  -0.5600 
 18 S       -9.1320    -6.4550    -1.0530 S.o2  1 <1>   1.3330 
 19 O       -9.6590    -7.3580    -0.0550 O.2   1 <1>  -0.6500 
 20 O       -8.8560    -6.9420    -2.3850 O.2   1 <1>  -0.6500 
 21 N      -10.1870    -5.1310    -1.1740 N.am  1 <1>  -0.8490 
 22 C      -11.1970    -5.3210    -2.2200 C.3   1 <1>   0.1160 
 23 C      -10.8420    -4.7910     0.0940 C.3   1 <1>   0.1160 
 24 H       -6.8110    -0.4140    -0.7980 H     1 <1>   0.1500 
 25 H       -3.2900    -1.3660    -2.9860 H     1 <1>   0.1500 
 26 H       -6.2210    -2.1150     0.8960 H     1 <1>   0.1500 
 27 H       -2.6950    -3.0670    -1.3010 H     1 <1>   0.1500 
 28 H       -5.3320    -5.5200     1.9270 H     1 <1>   0.4200 
 29 H       -4.5970    -5.7590    -0.8370 H     1 <1>   0.0800 
 30 H       -6.3660    -7.2500    -1.2370 H     1 <1>   0.0800 
 31 H       -3.6090    -7.0500     1.3310 H     1 <1>   0.0800 
 32 H       -4.1090    -8.0220    -0.0490 H     1 <1>   0.0800 
 33 H       -6.9630    -8.7260     0.3970 H     1 <1>   0.0800 
 34 H       -7.3920    -7.4540     1.5350 H     1 <1>   0.0800 
 35 H       -7.3270    -4.9350    -1.1120 H     1 <1>   0.0800 
 36 H       -7.8190    -5.2600     0.5170 H     1 <1>   0.0800 
 37 H      -11.8390    -4.4580    -2.2820 H     1 <1>   0.0800 
 38 H      -11.7950    -6.1930    -2.0100 H     1 <1>   0.0800 
 39 H      -10.7190    -5.4520    -3.1760 H     1 <1>   0.0800 
 40 H      -11.4280    -3.8960    -0.0200 H     1 <1>   0.0800 
 41 H      -10.1050    -4.6180     0.8590 H     1 <1>   0.0800 
 42 H      -11.4870    -5.5950     0.4120 H     1 <1>   0.0800 
@<TRIPOS>BOND
  1   1   2  1   
  2   2   3  ar  
  3   2   4  ar  
  4   3   5  ar  
  5   3  24  1   
  6   4   6  ar  
  7   4  25  1   
  8   5   7  ar  
  9   5  26  1   
 10   6   7  ar  
 11   6  27  1   
 12   7   8  1   
 13   8   9  2   
 14   8  10  2   
 15   8  11  am  
 16  11  12  1   
 17  11  28  1   
 18  12  13  1   
 19  12  14  1   
 20  12  29  1   
 21  13  15  1   
 22  13  16  1   
 23  13  30  1   
 24  14  17  1   
 25  14  31  1   
 26  14  32  1   
 27  15  17  1   
 28  15  33  1   
 29  15  34  1   
 30  16  18  1   
 31  16  35  1   
 32  16  36  1   
 33  18  19  2   
 34  18  20  2   
 35  18  21  am  
 36  21  22  1   
 37  21  23  1   
 38  22  37  1   
 39  22  38  1   
 40  22  39  1   
 41  23  40  1   
 42  23  41  1   
 43  23  42  1   
@<TRIPOS>SUBSTRUCTURE
  1 ****  16 GROUP 4 **** **** 0

# MOE 2024.06 (io_trps.svl 2023.06)
