@<TRIPOS>MOLECULE
NONAME
40 41 1 0 0 
SMALL
USER_CHARGES


@<TRIPOS>ATOM
  1 O        0.4640    -0.2290    -1.0650 O.2   1 <1>  -0.5700 
  2 C        1.4120    -0.7010    -0.4820 C.2   1 <1>   0.5690 
  3 N        2.4660     0.0560    -0.0290 N.am  1 <1>  -0.4940 
  4 C        1.3820    -2.2390    -0.2710 C.3   1 <1>   0.4840 
  5 C        2.6050     1.4500    -0.0520 C.2   1 <1>   0.2040 
  6 N       -0.0230    -2.7780    -0.4010 N.4   1 <1>  -0.9590 
  7 C        2.0050    -2.6870     1.0610 C.3   1 <1>  -0.2400 
  8 O        1.6230     2.2410    -0.4130 O.3   1 <1>  -0.0190 
  9 C        3.6570     2.2280     0.2740 C.2   1 <1>  -0.1810 
 10 C       -0.9590    -2.4430     0.7000 C.3   1 <1>   0.3430 
 11 C       -0.1640    -4.2280    -0.6750 C.3   1 <1>   0.3430 
 12 N        1.9620     3.5010    -0.3440 N.2   1 <1>  -0.4100 
 13 C        3.1810     3.5220     0.0630 C.2   1 <1>   0.1080 
 14 C        5.0470     1.8480     0.7570 C.3   1 <1>  -0.0590 
 15 C       -2.1610    -3.3320     0.4270 C.3   1 <1>  -0.1600 
 16 C       -1.6160    -4.5470    -0.3310 C.3   1 <1>  -0.1600 
 17 C        3.9600     4.8090     0.2720 C.3   1 <1>   0.0210 
 18 C        4.7720     5.1770    -0.9740 C.3   1 <1>  -0.2400 
 19 H        3.2570    -0.4230     0.3940 H     1 <1>   0.3700 
 20 H        1.9680    -2.6620    -1.0700 H     1 <1>   0.0800 
 21 H       -0.4090    -2.2620    -1.2120 H     1 <1>   0.4500 
 22 H        1.5560    -2.1720     1.8910 H     1 <1>   0.0800 
 23 H        3.0570    -2.4650     1.0640 H     1 <1>   0.0800 
 24 H        1.9020    -3.7480     1.2010 H     1 <1>   0.0800 
 25 H       -1.2230    -1.3960     0.6950 H     1 <1>   0.0800 
 26 H       -0.5270    -2.7050     1.6520 H     1 <1>   0.0800 
 27 H        0.4890    -4.7940    -0.0310 H     1 <1>   0.0800 
 28 H        0.0580    -4.4600    -1.7050 H     1 <1>   0.0800 
 29 H        5.1590     0.7810     0.8070 H     1 <1>   0.0800 
 30 H        5.2200     2.2580     1.7360 H     1 <1>   0.0800 
 31 H        5.7890     2.2370     0.0830 H     1 <1>   0.0800 
 32 H       -2.8650    -2.7960    -0.1860 H     1 <1>   0.0800 
 33 H       -2.6500    -3.6100     1.3440 H     1 <1>   0.0800 
 34 H       -1.6580    -5.4360     0.2750 H     1 <1>   0.0800 
 35 H       -2.1840    -4.7230    -1.2280 H     1 <1>   0.0800 
 36 H        4.6140     4.7030     1.1190 H     1 <1>   0.0800 
 37 H        3.2660     5.6020     0.4910 H     1 <1>   0.0800 
 38 H        5.4810     4.4020    -1.2050 H     1 <1>   0.0800 
 39 H        5.3030     6.0980    -0.8130 H     1 <1>   0.0800 
 40 H        4.1120     5.3010    -1.8150 H     1 <1>   0.0800 
@<TRIPOS>BOND
  1   1   2  2   
  2   2   3  am  
  3   2   4  1   
  4   3   5  1   
  5   3  19  1   
  6   4   6  1   
  7   4   7  1   
  8   4  20  1   
  9   5   8  1   
 10   5   9  2   
 11   6  10  1   
 12   6  11  1   
 13   6  21  1   
 14   7  22  1   
 15   7  23  1   
 16   7  24  1   
 17   8  12  1   
 18   9  13  1   
 19   9  14  1   
 20  10  15  1   
 21  10  25  1   
 22  10  26  1   
 23  11  16  1   
 24  11  27  1   
 25  11  28  1   
 26  12  13  2   
 27  13  17  1   
 28  14  29  1   
 29  14  30  1   
 30  14  31  1   
 31  15  16  1   
 32  15  32  1   
 33  15  33  1   
 34  16  34  1   
 35  16  35  1   
 36  17  18  1   
 37  17  36  1   
 38  17  37  1   
 39  18  38  1   
 40  18  39  1   
 41  18  40  1   
@<TRIPOS>SUBSTRUCTURE
  1 ****   3 GROUP 4 **** **** 0

# MOE 2024.06 (io_trps.svl 2023.06)
