@<TRIPOS>MOLECULE
NONAME
51 53 1 0 0 
SMALL
USER_CHARGES


@<TRIPOS>ATOM
  1 CL       0.3610     0.9620     1.2770 Cl    1 <1>  -0.1770 
  2 C       -1.2290     1.6050     0.9560 C.ar  1 <1>   0.1770 
  3 C       -1.5580     1.9940    -0.3260 C.ar  1 <1>  -0.1500 
  4 C       -2.1400     1.7150     1.9870 C.ar  1 <1>  -0.1500 
  5 C       -2.8190     2.5080    -0.5720 C.ar  1 <1>  -0.1500 
  6 C       -3.4010     2.2260     1.7310 C.ar  1 <1>  -0.1500 
  7 C       -3.7580     2.6410     0.4480 C.ar  1 <1>  -0.1430 
  8 C       -5.1460     3.2270     0.0850 C.3   1 <1>   0.2040 
  9 C       -4.9000     4.5750    -0.6430 C.2   1 <1>   0.5690 
 10 C       -5.8440     2.1660    -0.8220 C.3   1 <1>  -0.1600 
 11 C       -6.0510     3.5340     1.3210 C.3   1 <1>  -0.1600 
 12 O       -5.0940     4.6910    -1.8320 O.2   1 <1>  -0.5700 
 13 N       -4.4320     5.6300     0.0750 N.am  1 <1>  -0.7300 
 14 C       -7.3760     2.2470    -0.7740 C.3   1 <1>  -0.1600 
 15 C       -6.9130     2.3380     1.7540 C.3   1 <1>  -0.1600 
 16 C       -4.0770     6.9340    -0.4750 C.3   1 <1>   0.4000 
 17 C       -7.9040     1.9490     0.6420 C.3   1 <1>  -0.1600 
 18 C       -2.8800     7.4090     0.3310 C.2   1 <1>  -0.3320 
 19 C       -5.3000     7.8560    -0.3760 C.3   1 <1>  -0.1600 
 20 N       -1.6520     6.8470     0.2330 N.pl3 1 <1>   0.3140 
 21 C       -2.7760     8.3960     1.2510 C.2   1 <1>  -0.1500 
 22 C       -5.1010     9.1950    -1.1050 C.3   1 <1>  -0.2400 
 23 N       -0.7740     7.4420     1.0570 N.2   1 <1>  -0.7070 
 24 C       -1.2280     5.7070    -0.5930 C.3   1 <1>   0.0160 
 25 C       -1.4510     8.3680     1.6600 C.2   1 <1>   0.1390 
 26 H       -0.8370     1.8920    -1.1170 H     1 <1>   0.1500 
 27 H       -1.8630     1.3990     2.9770 H     1 <1>   0.1500 
 28 H       -3.0660     2.8040    -1.5800 H     1 <1>   0.1500 
 29 H       -4.0870     2.2830     2.5550 H     1 <1>   0.1500 
 30 H       -5.5610     1.1800    -0.4920 H     1 <1>   0.0800 
 31 H       -5.5080     2.2540    -1.8400 H     1 <1>   0.0800 
 32 H       -6.7320     4.3270     1.0600 H     1 <1>   0.0800 
 33 H       -5.4690     3.9040     2.1450 H     1 <1>   0.0800 
 34 H       -4.1930     5.5260     1.0610 H     1 <1>   0.3700 
 35 H       -7.8050     1.5490    -1.4730 H     1 <1>   0.0800 
 36 H       -7.6810     3.2360    -1.0760 H     1 <1>   0.0800 
 37 H       -7.4560     2.5770     2.6520 H     1 <1>   0.0800 
 38 H       -6.2750     1.4980     1.9710 H     1 <1>   0.0800 
 39 H       -3.8040     6.8290    -1.5120 H     1 <1>   0.0800 
 40 H       -8.1220     0.8990     0.7300 H     1 <1>   0.0800 
 41 H       -8.8300     2.4810     0.7800 H     1 <1>   0.0800 
 42 H       -5.5360     8.0370     0.6570 H     1 <1>   0.0800 
 43 H       -6.1390     7.3560    -0.8280 H     1 <1>   0.0800 
 44 H       -3.5250     9.0760     1.6160 H     1 <1>   0.1500 
 45 H       -4.2740     9.7430    -0.6910 H     1 <1>   0.0800 
 46 H       -5.9880     9.7970    -1.0150 H     1 <1>   0.0800 
 47 H       -4.9100     9.0260    -2.1500 H     1 <1>   0.0800 
 48 H       -1.8770     5.5990    -1.4410 H     1 <1>   0.0800 
 49 H       -1.2600     4.8180     0.0070 H     1 <1>   0.0800 
 50 H       -0.2220     5.8750    -0.9280 H     1 <1>   0.0800 
 51 H       -1.0230     9.0320     2.3930 H     1 <1>   0.1500 
@<TRIPOS>BOND
  1   1   2  1   
  2   2   3  ar  
  3   2   4  ar  
  4   3   5  ar  
  5   3  26  1   
  6   4   6  ar  
  7   4  27  1   
  8   5   7  ar  
  9   5  28  1   
 10   6   7  ar  
 11   6  29  1   
 12   7   8  1   
 13   8   9  1   
 14   8  10  1   
 15   8  11  1   
 16   9  12  2   
 17   9  13  am  
 18  10  14  1   
 19  10  30  1   
 20  10  31  1   
 21  11  15  1   
 22  11  32  1   
 23  11  33  1   
 24  13  16  1   
 25  13  34  1   
 26  14  17  1   
 27  14  35  1   
 28  14  36  1   
 29  15  17  1   
 30  15  37  1   
 31  15  38  1   
 32  16  18  1   
 33  16  19  1   
 34  16  39  1   
 35  17  40  1   
 36  17  41  1   
 37  18  20  1   
 38  18  21  2   
 39  19  22  1   
 40  19  42  1   
 41  19  43  1   
 42  20  23  1   
 43  20  24  1   
 44  21  25  1   
 45  21  44  1   
 46  22  45  1   
 47  22  46  1   
 48  22  47  1   
 49  23  25  2   
 50  24  48  1   
 51  24  49  1   
 52  24  50  1   
 53  25  51  1   
@<TRIPOS>SUBSTRUCTURE
  1 ****  13 GROUP 4 **** **** 0

# MOE 2024.06 (io_trps.svl 2023.06)
