@<TRIPOS>MOLECULE
NONAME
41 42 1 0 0 
SMALL
USER_CHARGES


@<TRIPOS>ATOM
  1 O        0.4060     0.2870    -0.8320 O.2   1 <1>  -0.5700 
  2 C        1.3670     0.8410    -0.3340 C.2   1 <1>   0.7800 
  3 O        2.5150     0.1680    -0.1850 O.3   1 <1>  -0.4300 
  4 N        1.3450     2.1610     0.0780 N.am  1 <1>  -0.4770 
  5 C        2.7930    -1.1680    -0.5390 C.3   1 <1>   0.2800 
  6 C        2.4580     2.8080     0.6650 C.ar  1 <1>   0.1170 
  7 C        0.1810     3.0120    -0.3510 C.3   1 <1>   0.2200 
  8 C        4.2510    -1.3890    -0.1340 C.3   1 <1>  -0.2400 
  9 C        2.6550    -1.3550    -2.0540 C.3   1 <1>  -0.2400 
 10 C        1.8970    -2.1260     0.2560 C.3   1 <1>  -0.2400 
 11 C        2.8660     4.0480     0.1800 C.ar  1 <1>  -0.1440 
 12 C        3.1670     2.2450     1.7220 C.ar  1 <1>  -0.1500 
 13 C        0.5680     4.4990    -0.5330 C.3   1 <1>  -0.1600 
 14 C       -0.9660     2.8530     0.6500 C.3   1 <1>  -0.2660 
 15 C        3.9730     4.6860     0.7120 C.ar  1 <1>  -0.1500 
 16 C        2.0360     4.6830    -0.9190 C.3   1 <1>  -0.0170 
 17 C        4.2710     2.8810     2.2580 C.ar  1 <1>  -0.1500 
 18 C       -2.1330     3.7210     0.2670 C.2   1 <1>   0.9060 
 19 C        4.6790     4.1020     1.7490 C.ar  1 <1>  -0.1500 
 20 O       -2.5740     3.6530    -0.8840 O.co2 1 <1>  -0.9000 
 21 O       -2.5920     4.4960     1.1100 O.co2 1 <1>  -0.9000 
 22 H       -0.1620     2.6550    -1.3090 H     1 <1>   0.0800 
 23 H        4.8900    -0.7030    -0.6610 H     1 <1>   0.0800 
 24 H        4.5590    -2.3910    -0.3690 H     1 <1>   0.0800 
 25 H        4.3710    -1.2340     0.9230 H     1 <1>   0.0800 
 26 H        3.2380    -0.6170    -2.5750 H     1 <1>   0.0800 
 27 H        1.6290    -1.2750    -2.3620 H     1 <1>   0.0800 
 28 H        3.0050    -2.3310    -2.3380 H     1 <1>   0.0800 
 29 H        1.9650    -1.9140     1.3070 H     1 <1>   0.0800 
 30 H        2.2070    -3.1410     0.0900 H     1 <1>   0.0800 
 31 H        0.8720    -2.0440    -0.0550 H     1 <1>   0.0800 
 32 H        2.8470     1.3000     2.1220 H     1 <1>   0.1500 
 33 H        0.3890     5.0270     0.3880 H     1 <1>   0.0800 
 34 H       -0.0730     4.9380    -1.2770 H     1 <1>   0.0800 
 35 H       -0.6430     3.1330     1.6340 H     1 <1>   0.0800 
 36 H       -1.3090     1.8380     0.6620 H     1 <1>   0.0800 
 37 H        4.2840     5.6410     0.3280 H     1 <1>   0.1500 
 38 H        2.2370     4.1960    -1.8570 H     1 <1>   0.0800 
 39 H        2.2600     5.7310    -1.0130 H     1 <1>   0.0800 
 40 H        4.8110     2.4280     3.0700 H     1 <1>   0.1500 
 41 H        5.5390     4.5980     2.1630 H     1 <1>   0.1500 
@<TRIPOS>BOND
  1   1   2  2   
  2   2   3  1   
  3   2   4  am  
  4   3   5  1   
  5   4   6  1   
  6   4   7  1   
  7   5   8  1   
  8   5   9  1   
  9   5  10  1   
 10   6  11  ar  
 11   6  12  ar  
 12   7  13  1   
 13   7  14  1   
 14   7  22  1   
 15   8  23  1   
 16   8  24  1   
 17   8  25  1   
 18   9  26  1   
 19   9  27  1   
 20   9  28  1   
 21  10  29  1   
 22  10  30  1   
 23  10  31  1   
 24  11  15  ar  
 25  11  16  1   
 26  12  17  ar  
 27  12  32  1   
 28  13  16  1   
 29  13  33  1   
 30  13  34  1   
 31  14  18  1   
 32  14  35  1   
 33  14  36  1   
 34  15  19  ar  
 35  15  37  1   
 36  16  38  1   
 37  16  39  1   
 38  17  19  ar  
 39  17  40  1   
 40  18  20  ar  
 41  18  21  ar  
 42  19  41  1   
@<TRIPOS>SUBSTRUCTURE
  1 ****   4 GROUP 4 **** **** 0

# MOE 2024.06 (io_trps.svl 2023.06)
