@<TRIPOS>MOLECULE
NONAME
37 38 1 0 0 
SMALL
USER_CHARGES


@<TRIPOS>ATOM
  1 O        0.1170    -0.4640     0.4560 O.3   1 <1>  -0.5600 
  2 C        0.1120     0.7550     1.1490 C.3   1 <1>   0.1200 
  3 C        0.7500    -1.4920     1.1460 C.3   1 <1>   0.0400 
  4 C       -0.6440     1.8240     0.3520 C.3   1 <1>   0.4330 
  5 N       -0.4700     3.1340     1.0220 N.pl3 1 <1>  -0.8690 
  6 C       -2.1390     1.4810     0.2340 C.ar  1 <1>   0.1670 
  7 C        0.2790     4.1190     0.4950 C.ar  1 <1>   0.7200 
  8 N       -2.9780     1.9640     1.1520 N.ar  1 <1>  -0.6200 
  9 C       -2.5500     0.6860    -0.8280 C.ar  1 <1>  -0.1500 
 10 N       -0.1860     5.3400     0.7040 N.ar  1 <1>  -0.6200 
 11 N        1.3820     3.7750    -0.1610 N.ar  1 <1>  -0.6200 
 12 C       -4.2520     1.6450     0.9970 C.ar  1 <1>   0.1600 
 13 C       -3.8820     0.3640    -0.9760 C.ar  1 <1>  -0.1500 
 14 C        0.5310     6.3150     0.2060 C.ar  1 <1>   0.1670 
 15 C        2.0830     4.7660    -0.6500 C.ar  1 <1>   0.1670 
 16 C       -4.7500     0.8630    -0.0300 C.ar  1 <1>  -0.1500 
 17 C        1.6930     6.0760    -0.4900 C.ar  1 <1>  -0.1500 
 18 C        0.0230     7.7230     0.4320 C.3   1 <1>  -0.0970 
 19 C        3.3470     4.4070    -1.4010 C.3   1 <1>  -0.0970 
 20 H        1.1310     1.0700     1.2880 H     1 <1>   0.0800 
 21 H       -0.3670     0.6130     2.1010 H     1 <1>   0.0800 
 22 H        0.7080    -2.3790     0.5390 H     1 <1>   0.0800 
 23 H        0.2350    -1.6640     2.0760 H     1 <1>   0.0800 
 24 H        1.7760    -1.2210     1.3250 H     1 <1>   0.0800 
 25 H       -0.2180     1.8720    -0.6350 H     1 <1>   0.0800 
 26 H       -1.3720     3.4630     1.3740 H     1 <1>   0.4000 
 27 H       -1.8270     0.3160    -1.5330 H     1 <1>   0.1500 
 28 H       -4.9400     2.0300     1.7310 H     1 <1>   0.1500 
 29 H       -4.2250    -0.2510    -1.7900 H     1 <1>   0.1500 
 30 H       -5.8010     0.6500    -0.0860 H     1 <1>   0.1500 
 31 H        2.2740     6.8820    -0.8940 H     1 <1>   0.1500 
 32 H       -0.9530     7.8260    -0.0070 H     1 <1>   0.0800 
 33 H        0.6820     8.4480    -0.0070 H     1 <1>   0.0800 
 34 H       -0.0520     7.9110     1.4870 H     1 <1>   0.0800 
 35 H        3.1000     3.7800    -2.2380 H     1 <1>   0.0800 
 36 H        4.0100     3.8680    -0.7490 H     1 <1>   0.0800 
 37 H        3.8480     5.2870    -1.7590 H     1 <1>   0.0800 
@<TRIPOS>BOND
  1   1   2  1   
  2   1   3  1   
  3   2   4  1   
  4   2  20  1   
  5   2  21  1   
  6   3  22  1   
  7   3  23  1   
  8   3  24  1   
  9   4   5  1   
 10   4   6  1   
 11   4  25  1   
 12   5   7  1   
 13   5  26  1   
 14   6   8  ar  
 15   6   9  ar  
 16   7  10  ar  
 17   7  11  ar  
 18   8  12  ar  
 19   9  13  ar  
 20   9  27  1   
 21  10  14  ar  
 22  11  15  ar  
 23  12  16  ar  
 24  12  28  1   
 25  13  16  ar  
 26  13  29  1   
 27  14  17  ar  
 28  14  18  1   
 29  15  17  ar  
 30  15  19  1   
 31  16  30  1   
 32  17  31  1   
 33  18  32  1   
 34  18  33  1   
 35  18  34  1   
 36  19  35  1   
 37  19  36  1   
 38  19  37  1   
@<TRIPOS>SUBSTRUCTURE
  1 ****   5 GROUP 4 **** **** 0

# MOE 2024.06 (io_trps.svl 2023.06)
