@<TRIPOS>MOLECULE
NONAME
49 52 1 0 0 
SMALL
USER_CHARGES


@<TRIPOS>ATOM
  1 O        1.2050     1.6230    -1.4740 O.3   1 <1>  -0.0190 
  2 N        2.0250     0.6170    -1.4280 N.2   1 <1>  -0.4100 
  3 C        0.8430     2.0100    -0.2800 C.2   1 <1>  -0.0400 
  4 C        2.1730     0.3310    -0.1840 C.2   1 <1>   0.1080 
  5 C        1.4350     1.2020     0.6130 C.2   1 <1>  -0.1500 
  6 C       -0.0740     3.2080    -0.1210 C.3   1 <1>   0.0200 
  7 C        3.0340    -0.8010     0.3310 C.3   1 <1>  -0.0590 
  8 C        0.3900     4.3600    -1.0340 C.3   1 <1>  -0.0800 
  9 C       -0.2880     5.7110    -0.8140 C.3   1 <1>   0.2000 
 10 C        1.8940     4.6500    -0.9230 C.3   1 <1>   0.3430 
 11 O       -0.3380     5.9900     0.5580 O.3   1 <1>  -0.5600 
 12 C        0.7210     6.6670    -1.4470 C.3   1 <1>   0.3430 
 13 N        2.0730     6.1300    -1.0680 N.4   1 <1>  -0.9590 
 14 C       -1.6250     6.1090     1.0890 C.3   1 <1>   0.0400 
 15 C        2.5610     6.7030     0.2270 C.3   1 <1>   0.4860 
 16 C        2.6080     8.2110     0.1520 C.ar  1 <1>  -0.1440 
 17 C        1.6580     8.9780     0.7810 C.ar  1 <1>   0.1600 
 18 C        3.5860     8.8790    -0.5440 C.ar  1 <1>   0.1600 
 19 N        1.6580    10.2850     0.7070 N.ar  1 <1>  -0.6200 
 20 N        3.6060    10.1830    -0.6310 N.ar  1 <1>  -0.6200 
 21 C        2.6390    10.8620     0.0010 C.ar  1 <1>   0.6730 
 22 C        2.6370    12.3100    -0.0780 C.2   1 <1>   0.0870 
 23 O        3.5320    12.9740    -0.8090 O.3   1 <1>  -0.2800 
 24 C        1.8100    13.2230     0.5080 C.2   1 <1>  -0.1500 
 25 C        3.3000    14.2630    -0.7030 C.2   1 <1>  -0.0100 
 26 C        2.2410    14.4870     0.1020 C.2   1 <1>  -0.1500 
 27 H        1.3830     1.1920     1.6860 H     1 <1>   0.1500 
 28 H       -1.0770     2.9210    -0.3830 H     1 <1>   0.0800 
 29 H       -0.0690     3.5030     0.9130 H     1 <1>   0.0800 
 30 H        3.7570    -0.4250     1.0320 H     1 <1>   0.0800 
 31 H        3.5530    -1.2700    -0.4860 H     1 <1>   0.0800 
 32 H        2.4180    -1.5360     0.8160 H     1 <1>   0.0800 
 33 H        0.2070     4.0620    -2.0530 H     1 <1>   0.0800 
 34 H       -1.2660     5.7840    -1.2610 H     1 <1>   0.0800 
 35 H        2.4300     4.1130    -1.6900 H     1 <1>   0.0800 
 36 H        2.2550     4.3210     0.0390 H     1 <1>   0.0800 
 37 H        0.5620     7.6800    -1.1190 H     1 <1>   0.0800 
 38 H        0.6100     6.6290    -2.5190 H     1 <1>   0.0800 
 39 H        2.7520     6.3440    -1.8100 H     1 <1>   0.4500 
 40 H       -1.5400     6.2920     2.1470 H     1 <1>   0.0800 
 41 H       -2.1700     5.1950     0.9260 H     1 <1>   0.0800 
 42 H       -2.1310     6.9380     0.6220 H     1 <1>   0.0800 
 43 H        1.9020     6.4080     1.0270 H     1 <1>   0.0800 
 44 H        3.5460     6.3230     0.4490 H     1 <1>   0.0800 
 45 H        0.8710     8.5140     1.3560 H     1 <1>   0.1500 
 46 H        4.3750     8.3440    -1.0460 H     1 <1>   0.1500 
 47 H        0.9800    13.0240     1.1620 H     1 <1>   0.1500 
 48 H        3.9340    14.9520    -1.2330 H     1 <1>   0.1500 
 49 H        1.8010    15.4260     0.3900 H     1 <1>   0.1500 
@<TRIPOS>BOND
  1   1   2  1   
  2   1   3  1   
  3   2   4  2   
  4   3   5  2   
  5   3   6  1   
  6   4   5  1   
  7   4   7  1   
  8   5  27  1   
  9   6   8  1   
 10   6  28  1   
 11   6  29  1   
 12   7  30  1   
 13   7  31  1   
 14   7  32  1   
 15   8   9  1   
 16   8  10  1   
 17   8  33  1   
 18   9  11  1   
 19   9  12  1   
 20   9  34  1   
 21  10  13  1   
 22  10  35  1   
 23  10  36  1   
 24  11  14  1   
 25  12  13  1   
 26  12  37  1   
 27  12  38  1   
 28  13  15  1   
 29  13  39  1   
 30  14  40  1   
 31  14  41  1   
 32  14  42  1   
 33  15  16  1   
 34  15  43  1   
 35  15  44  1   
 36  16  17  ar  
 37  16  18  ar  
 38  17  19  ar  
 39  17  45  1   
 40  18  20  ar  
 41  18  46  1   
 42  19  21  ar  
 43  20  21  ar  
 44  21  22  1   
 45  22  23  1   
 46  22  24  2   
 47  23  25  1   
 48  24  26  1   
 49  24  47  1   
 50  25  26  2   
 51  25  48  1   
 52  26  49  1   
@<TRIPOS>SUBSTRUCTURE
  1 ****  15 GROUP 4 **** **** 0

# MOE 2024.06 (io_trps.svl 2023.06)
