@<TRIPOS>MOLECULE
NONAME
53 55 1 0 0 
SMALL
USER_CHARGES


@<TRIPOS>ATOM
  1 F       -1.5030    -0.2110     2.5980 F     1 <1>  -0.1900 
  2 C       -1.9680    -0.5330     1.4190 C.ar  1 <1>   0.1900 
  3 C       -2.2950     0.4700     0.5190 C.ar  1 <1>  -0.1440 
  4 C       -2.1170    -1.8770     1.1280 C.ar  1 <1>  -0.1500 
  5 C       -2.7980     0.0860    -0.7180 C.ar  1 <1>  -0.1500 
  6 C       -2.1150     1.9360     0.8960 C.3   1 <1>   0.2640 
  7 C       -2.6170    -2.2380    -0.1110 C.ar  1 <1>  -0.1500 
  8 C       -2.9570    -1.2560    -1.0290 C.ar  1 <1>  -0.1500 
  9 O       -1.8020     2.6960    -0.2530 O.3   1 <1>  -0.3620 
 10 C       -1.6160     4.0330    -0.1910 C.ar  1 <1>   0.0830 
 11 C       -1.3420     4.6820    -1.3830 C.ar  1 <1>  -0.1500 
 12 C       -1.6870     4.7750     0.9840 C.ar  1 <1>  -0.1500 
 13 C       -1.1350     6.0480    -1.4060 C.ar  1 <1>  -0.1500 
 14 C       -1.4770     6.1410     0.9520 C.ar  1 <1>  -0.1500 
 15 C       -1.1850     6.8110    -0.2380 C.ar  1 <1>   0.0860 
 16 C       -0.9420     8.2420    -0.2490 C.2   1 <1>   0.5440 
 17 O       -1.5060     8.9710     0.5450 O.2   1 <1>  -0.5700 
 18 N       -0.0320     8.8230    -1.1070 N.am  1 <1>  -0.6600 
 19 C       -0.1410    10.2780    -1.4200 C.3   1 <1>   0.1400 
 20 C        1.3270     8.2430    -1.2760 C.3   1 <1>   0.1400 
 21 C        0.7720    11.0310    -0.4510 C.3   1 <1>   0.2000 
 22 C        2.2960     8.9830    -0.3420 C.3   1 <1>  -0.1600 
 23 O        0.7740    12.4030    -0.7140 O.3   1 <1>  -0.6800 
 24 C        2.2140    10.4980    -0.5880 C.3   1 <1>   0.4230 
 25 N        3.1460    11.3030     0.2680 N.4   1 <1>  -0.9590 
 26 C        4.5680    11.2000    -0.1750 C.3   1 <1>   0.2630 
 27 C        3.0020    11.0610     1.7390 C.3   1 <1>   0.2630 
 28 H       -1.8480    -2.6190     1.8570 H     1 <1>   0.1500 
 29 H       -3.0680     0.8330    -1.4460 H     1 <1>   0.1500 
 30 H       -1.3080     2.0530     1.5970 H     1 <1>   0.0800 
 31 H       -3.0270     2.3190     1.3180 H     1 <1>   0.0800 
 32 H       -2.7430    -3.2770    -0.3610 H     1 <1>   0.1500 
 33 H       -3.3460    -1.5370    -1.9930 H     1 <1>   0.1500 
 34 H       -1.2960     4.1070    -2.2900 H     1 <1>   0.1500 
 35 H       -1.9050     4.3120     1.9280 H     1 <1>   0.1500 
 36 H       -0.9360     6.5340    -2.3450 H     1 <1>   0.1500 
 37 H       -1.5410     6.7090     1.8640 H     1 <1>   0.1500 
 38 H        0.1590    10.4490    -2.4390 H     1 <1>   0.0800 
 39 H       -1.1610    10.6020    -1.2970 H     1 <1>   0.0800 
 40 H        1.3250     7.1930    -1.0360 H     1 <1>   0.0800 
 41 H        1.6330     8.3490    -2.3040 H     1 <1>   0.0800 
 42 H        0.4060    10.8870     0.5510 H     1 <1>   0.0800 
 43 H        3.2920     8.6270    -0.5290 H     1 <1>   0.0800 
 44 H        2.0270     8.7440     0.6710 H     1 <1>   0.0800 
 45 H       -0.1350    12.7670    -0.6370 H     1 <1>   0.4000 
 46 H        2.4890    10.6610    -1.6180 H     1 <1>   0.0800 
 47 H        2.8170    12.2720     0.0890 H     1 <1>   0.4500 
 48 H        4.9380    10.1990    -0.0230 H     1 <1>   0.0800 
 49 H        5.1840    11.8840     0.3880 H     1 <1>   0.0800 
 50 H        4.6530    11.4470    -1.2210 H     1 <1>   0.0800 
 51 H        3.3110    10.0590     1.9880 H     1 <1>   0.0800 
 52 H        1.9760    11.1920     2.0430 H     1 <1>   0.0800 
 53 H        3.6130    11.7560     2.2920 H     1 <1>   0.0800 
@<TRIPOS>BOND
  1   1   2  1   
  2   2   3  ar  
  3   2   4  ar  
  4   3   5  ar  
  5   3   6  1   
  6   4   7  ar  
  7   4  28  1   
  8   5   8  ar  
  9   5  29  1   
 10   6   9  1   
 11   6  30  1   
 12   6  31  1   
 13   7   8  ar  
 14   7  32  1   
 15   8  33  1   
 16   9  10  1   
 17  10  11  ar  
 18  10  12  ar  
 19  11  13  ar  
 20  11  34  1   
 21  12  14  ar  
 22  12  35  1   
 23  13  15  ar  
 24  13  36  1   
 25  14  15  ar  
 26  14  37  1   
 27  15  16  1   
 28  16  17  2   
 29  16  18  am  
 30  18  19  1   
 31  18  20  1   
 32  19  21  1   
 33  19  38  1   
 34  19  39  1   
 35  20  22  1   
 36  20  40  1   
 37  20  41  1   
 38  21  23  1   
 39  21  24  1   
 40  21  42  1   
 41  22  24  1   
 42  22  43  1   
 43  22  44  1   
 44  23  45  1   
 45  24  25  1   
 46  24  46  1   
 47  25  26  1   
 48  25  27  1   
 49  25  47  1   
 50  26  48  1   
 51  26  49  1   
 52  26  50  1   
 53  27  51  1   
 54  27  52  1   
 55  27  53  1   
@<TRIPOS>SUBSTRUCTURE
  1 ****  15 GROUP 4 **** **** 0

# MOE 2024.06 (io_trps.svl 2023.06)
