@<TRIPOS>MOLECULE
NONAME
41 43 1 0 0 
SMALL
USER_CHARGES


@<TRIPOS>ATOM
  1 O        1.3970    -0.1050     1.8230 O.2   1 <1>  -0.5700 
  2 C        2.0340    -0.9900     1.2750 C.2   1 <1>   0.7670 
  3 N        3.1030    -0.6430     0.4920 N.2   1 <1>  -0.6610 
  4 C        1.6760    -2.3520     1.4410 C.2   1 <1>  -0.1360 
  5 C        3.7560    -1.5870    -0.0750 C.2   1 <1>   0.4390 
  6 C        2.3840    -3.3240     0.8210 C.2   1 <1>  -0.0380 
  7 N        3.4460    -2.9100     0.0540 N.pl3 1 <1>  -0.5500 
  8 C        4.9430    -1.2540    -0.9440 C.3   1 <1>  -0.1790 
  9 C        2.0900    -4.8190     0.9270 C.3   1 <1>   0.2480 
 10 N        0.6630    -5.0860     1.1800 N.3   1 <1>  -0.8100 
 11 C       -0.2010    -4.6760     0.0540 C.3   1 <1>   0.1100 
 12 C        0.4120    -6.5180     1.4340 C.3   1 <1>   0.1100 
 13 C       -1.3460    -5.6820     0.0330 C.3   1 <1>   0.2000 
 14 C       -0.6610    -6.9820     0.4350 C.3   1 <1>  -0.0800 
 15 O       -2.2340    -5.3390     1.0350 O.3   1 <1>  -0.6800 
 16 C       -0.0560    -7.6890    -0.7960 C.3   1 <1>  -0.0170 
 17 C        0.6550    -8.9840    -0.4340 C.ar  1 <1>   0.1670 
 18 N        1.9750    -8.9310    -0.3390 N.ar  1 <1>  -0.6200 
 19 C       -0.0870   -10.1450    -0.2270 C.ar  1 <1>   0.1600 
 20 C        2.4950   -10.1070    -0.0280 C.ar  1 <1>   0.1600 
 21 N        0.4320   -11.3200     0.0880 N.ar  1 <1>  -0.6200 
 22 C        1.7500   -11.2620     0.1790 C.ar  1 <1>   0.1600 
 23 H        0.8340    -2.5560     2.0710 H     1 <1>   0.1500 
 24 H        4.0330    -3.5870    -0.4370 H     1 <1>   0.4000 
 25 H        5.8280    -1.7160    -0.5480 H     1 <1>   0.0800 
 26 H        5.0930    -0.1900    -0.9690 H     1 <1>   0.0800 
 27 H        4.7720    -1.6000    -1.9460 H     1 <1>   0.0800 
 28 H        2.6750    -5.2230     1.7360 H     1 <1>   0.0800 
 29 H        2.3870    -5.3180     0.0200 H     1 <1>   0.0800 
 30 H       -0.5610    -3.6680     0.1780 H     1 <1>   0.0800 
 31 H        0.3400    -4.7390    -0.8740 H     1 <1>   0.0800 
 32 H        1.3120    -7.1050     1.3640 H     1 <1>   0.0800 
 33 H        0.0300    -6.6190     2.4360 H     1 <1>   0.0800 
 34 H       -1.8780    -5.7250    -0.9020 H     1 <1>   0.0800 
 35 H       -1.3580    -7.6520     0.9090 H     1 <1>   0.0800 
 36 H       -1.7000    -5.0740     1.8140 H     1 <1>   0.4000 
 37 H        0.6400    -7.0400    -1.2960 H     1 <1>   0.0800 
 38 H       -0.8420    -7.9130    -1.4960 H     1 <1>   0.0800 
 39 H       -1.1570   -10.1000    -0.3240 H     1 <1>   0.1500 
 40 H        3.5650   -10.1630     0.0690 H     1 <1>   0.1500 
 41 H        2.2650   -12.1720     0.4300 H     1 <1>   0.1500 
@<TRIPOS>BOND
  1   1   2  2   
  2   2   3  1   
  3   2   4  1   
  4   3   5  2   
  5   4   6  2   
  6   4  23  1   
  7   5   7  1   
  8   5   8  1   
  9   6   7  1   
 10   6   9  1   
 11   7  24  1   
 12   8  25  1   
 13   8  26  1   
 14   8  27  1   
 15   9  10  1   
 16   9  28  1   
 17   9  29  1   
 18  10  11  1   
 19  10  12  1   
 20  11  13  1   
 21  11  30  1   
 22  11  31  1   
 23  12  14  1   
 24  12  32  1   
 25  12  33  1   
 26  13  14  1   
 27  13  15  1   
 28  13  34  1   
 29  14  16  1   
 30  14  35  1   
 31  15  36  1   
 32  16  17  1   
 33  16  37  1   
 34  16  38  1   
 35  17  18  ar  
 36  17  19  ar  
 37  18  20  ar  
 38  19  21  ar  
 39  19  39  1   
 40  20  22  ar  
 41  20  40  1   
 42  21  22  ar  
 43  22  41  1   
@<TRIPOS>SUBSTRUCTURE
  1 ****  10 GROUP 4 **** **** 0

# MOE 2024.06 (io_trps.svl 2023.06)
