@<TRIPOS>MOLECULE
NONAME
44 47 1 0 0 
SMALL
USER_CHARGES


@<TRIPOS>ATOM
  1 CL      -1.7150     3.2450    -2.6720 Cl    1 <1>  -0.1770 
  2 C       -0.8790     3.1710    -1.1380 C.ar  1 <1>   0.1770 
  3 C       -1.4640     2.5420    -0.0470 C.ar  1 <1>  -0.1440 
  4 C        0.3710     3.7630    -1.0560 C.ar  1 <1>  -0.1500 
  5 C       -0.7320     2.5330     1.1320 C.ar  1 <1>   0.1900 
  6 C       -2.8390     1.8760    -0.1480 C.3   1 <1>   0.0450 
  7 C        1.0750     3.7360     0.1380 C.ar  1 <1>  -0.1500 
  8 F       -1.2290     1.9580     2.1950 F     1 <1>  -0.1900 
  9 C        0.5190     3.1150     1.2440 C.ar  1 <1>  -0.1500 
 10 C       -2.8000     0.4610    -0.7210 C.2   1 <1>   0.5690 
 11 O       -1.7230    -0.0340    -0.9630 O.2   1 <1>  -0.5700 
 12 N       -3.9690    -0.2280    -0.9460 N.am  1 <1>  -0.6600 
 13 C       -3.9530    -1.6070    -1.5140 C.3   1 <1>   0.1400 
 14 C       -5.3430     0.2700    -0.6570 C.3   1 <1>   0.1400 
 15 C       -4.6140    -2.5690    -0.5250 C.3   1 <1>  -0.1600 
 16 C       -6.0120    -0.6670     0.3510 C.3   1 <1>  -0.1600 
 17 C       -6.0300    -2.1160    -0.1560 C.3   1 <1>   0.4600 
 18 O       -6.7890    -2.1740    -1.3500 O.3   1 <1>  -0.5600 
 19 C       -6.6560    -3.0590     0.8650 C.2   1 <1>  -0.1400 
 20 C       -8.1910    -2.2650    -1.2440 C.3   1 <1>   0.1200 
 21 S       -5.9180    -3.4020     2.4210 S.3   1 <1>  -0.0800 
 22 C       -7.8080    -3.7290     0.7290 C.2   1 <1>  -0.1810 
 23 C       -8.6210    -3.5650    -0.5360 C.3   1 <1>   0.0210 
 24 C       -7.2330    -4.4930     2.8400 C.2   1 <1>  -0.1100 
 25 C       -8.1420    -4.5550     1.8480 C.2   1 <1>  -0.1500 
 26 H        0.7890     4.2380    -1.9250 H     1 <1>   0.1500 
 27 H       -3.4750     2.4780    -0.7670 H     1 <1>   0.0800 
 28 H       -3.2920     1.8280     0.8240 H     1 <1>   0.0800 
 29 H        2.0480     4.1920     0.2050 H     1 <1>   0.1500 
 30 H        1.0440     3.0770     2.1810 H     1 <1>   0.1500 
 31 H       -2.9450    -1.9310    -1.7120 H     1 <1>   0.0800 
 32 H       -4.4900    -1.6110    -2.4480 H     1 <1>   0.0800 
 33 H       -5.9090     0.2840    -1.5740 H     1 <1>   0.0800 
 34 H       -5.3290     1.2680    -0.2610 H     1 <1>   0.0800 
 35 H       -4.0040    -2.6170     0.3580 H     1 <1>   0.0800 
 36 H       -4.6560    -3.5570    -0.9460 H     1 <1>   0.0800 
 37 H       -7.0120    -0.3360     0.5590 H     1 <1>   0.0800 
 38 H       -5.4650    -0.6240     1.2740 H     1 <1>   0.0800 
 39 H       -8.5970    -2.2350    -2.2400 H     1 <1>   0.0800 
 40 H       -8.5480    -1.4090    -0.7010 H     1 <1>   0.0800 
 41 H       -8.4590    -4.4070    -1.1840 H     1 <1>   0.0800 
 42 H       -9.6680    -3.5120    -0.2990 H     1 <1>   0.0800 
 43 H       -7.1840    -4.9790     3.7980 H     1 <1>   0.1500 
 44 H       -9.0390    -5.1500     1.8560 H     1 <1>   0.1500 
@<TRIPOS>BOND
  1   1   2  1   
  2   2   3  ar  
  3   2   4  ar  
  4   3   5  ar  
  5   3   6  1   
  6   4   7  ar  
  7   4  26  1   
  8   5   8  1   
  9   5   9  ar  
 10   6  10  1   
 11   6  27  1   
 12   6  28  1   
 13   7   9  ar  
 14   7  29  1   
 15   9  30  1   
 16  10  11  2   
 17  10  12  am  
 18  12  13  1   
 19  12  14  1   
 20  13  15  1   
 21  13  31  1   
 22  13  32  1   
 23  14  16  1   
 24  14  33  1   
 25  14  34  1   
 26  15  17  1   
 27  15  35  1   
 28  15  36  1   
 29  16  17  1   
 30  16  37  1   
 31  16  38  1   
 32  17  18  1   
 33  17  19  1   
 34  18  20  1   
 35  19  21  1   
 36  19  22  2   
 37  20  23  1   
 38  20  39  1   
 39  20  40  1   
 40  21  24  1   
 41  22  23  1   
 42  22  25  1   
 43  23  41  1   
 44  23  42  1   
 45  24  25  2   
 46  24  43  1   
 47  25  44  1   
@<TRIPOS>SUBSTRUCTURE
  1 ****  12 GROUP 4 **** **** 0

# MOE 2024.06 (io_trps.svl 2023.06)
