@<TRIPOS>MOLECULE
NONAME
39 41 1 0 0 
SMALL
USER_CHARGES


@<TRIPOS>ATOM
  1 O       -0.5120     0.2450     0.5160 O.2   1 <1>  -0.5700 
  2 C       -1.5140     0.9280     0.4170 C.2   1 <1>   0.7160 
  3 N       -2.7470     0.3180     0.4890 N.am  1 <1>  -0.6600 
  4 C       -1.3860     2.3480     0.1940 C.2   1 <1>  -0.0860 
  5 C       -3.9460     0.7990    -0.2480 C.3   1 <1>   0.1400 
  6 C       -2.9170    -1.1180     0.8160 C.3   1 <1>   0.1400 
  7 C       -0.3950     3.0020    -0.4690 C.2   1 <1>  -0.0100 
  8 C       -2.2430     3.3840     0.6280 C.2   1 <1>  -0.1500 
  9 C       -4.8790    -0.4140    -0.3830 C.3   1 <1>   0.2000 
 10 C       -3.9560    -1.6200    -0.1870 C.3   1 <1>  -0.0800 
 11 O       -0.5970     4.2980    -0.4820 O.3   1 <1>  -0.2800 
 12 C       -1.7070     4.5370     0.1810 C.2   1 <1>  -0.0100 
 13 O       -5.8220    -0.3970     0.6510 O.3   1 <1>  -0.5600 
 14 C       -4.6660    -2.9110     0.2570 C.3   1 <1>   0.0200 
 15 C       -6.9830     0.3270     0.3860 C.3   1 <1>   0.0400 
 16 C       -3.7480    -4.1230     0.2740 C.2   1 <1>  -0.0400 
 17 O       -4.2150    -5.2570     0.7250 O.3   1 <1>  -0.0190 
 18 C       -2.4730    -4.3260    -0.0970 C.2   1 <1>  -0.1500 
 19 N       -3.3240    -6.2040     0.6790 N.2   1 <1>  -0.4100 
 20 C       -2.2630    -5.6720     0.1890 C.2   1 <1>   0.1080 
 21 C       -0.9660    -6.4140    -0.0420 C.3   1 <1>  -0.0590 
 22 H       -4.4290     1.5980     0.2840 H     1 <1>   0.0800 
 23 H       -3.6450     1.1400    -1.2230 H     1 <1>   0.0800 
 24 H       -1.9920    -1.6620     0.7400 H     1 <1>   0.0800 
 25 H       -3.2950    -1.2000     1.8210 H     1 <1>   0.0800 
 26 H        0.4800     2.6000    -0.9500 H     1 <1>   0.1500 
 27 H       -3.1340     3.2460     1.2130 H     1 <1>   0.1500 
 28 H       -5.3880    -0.4470    -1.3310 H     1 <1>   0.0800 
 29 H       -3.4520    -1.8030    -1.1190 H     1 <1>   0.0800 
 30 H       -2.0370     5.5560     0.2900 H     1 <1>   0.1500 
 31 H       -5.4830    -3.1160    -0.4120 H     1 <1>   0.0800 
 32 H       -5.0790    -2.7810     1.2430 H     1 <1>   0.0800 
 33 H       -7.6110     0.2800     1.2580 H     1 <1>   0.0800 
 34 H       -7.4950    -0.1170    -0.4500 H     1 <1>   0.0800 
 35 H       -6.7310     1.3520     0.1770 H     1 <1>   0.0800 
 36 H       -1.7510    -3.6510    -0.5170 H     1 <1>   0.1500 
 37 H       -0.1780    -5.9550     0.5240 H     1 <1>   0.0800 
 38 H       -0.7140    -6.3920    -1.0860 H     1 <1>   0.0800 
 39 H       -1.0690    -7.4380     0.2700 H     1 <1>   0.0800 
@<TRIPOS>BOND
  1   1   2  2   
  2   2   3  am  
  3   2   4  1   
  4   3   5  1   
  5   3   6  1   
  6   4   7  2   
  7   4   8  1   
  8   5   9  1   
  9   5  22  1   
 10   5  23  1   
 11   6  10  1   
 12   6  24  1   
 13   6  25  1   
 14   7  11  1   
 15   7  26  1   
 16   8  12  2   
 17   8  27  1   
 18   9  10  1   
 19   9  13  1   
 20   9  28  1   
 21  10  14  1   
 22  10  29  1   
 23  11  12  1   
 24  12  30  1   
 25  13  15  1   
 26  14  16  1   
 27  14  31  1   
 28  14  32  1   
 29  15  33  1   
 30  15  34  1   
 31  15  35  1   
 32  16  17  1   
 33  16  18  2   
 34  17  19  1   
 35  18  20  1   
 36  18  36  1   
 37  19  20  2   
 38  20  21  1   
 39  21  37  1   
 40  21  38  1   
 41  21  39  1   
@<TRIPOS>SUBSTRUCTURE
  1 ****   6 GROUP 4 **** **** 0

# MOE 2024.06 (io_trps.svl 2023.06)
