@<TRIPOS>MOLECULE
NONAME
49 52 1 0 0 
SMALL
USER_CHARGES


@<TRIPOS>ATOM
  1 O        1.6640     0.2370    -0.7790 O.2   1 <1>  -0.5700 
  2 C        1.9870    -0.4790     0.1520 C.2   1 <1>   0.7150 
  3 N        2.6870     0.1170     1.1860 N.am  1 <1>  -0.6600 
  4 C        1.6970    -1.8900     0.0930 C.2   1 <1>   0.0550 
  5 C        3.9830    -0.4330     1.6800 C.3   1 <1>   0.1400 
  6 C        2.4100     1.5320     1.5530 C.3   1 <1>   0.1400 
  7 O        2.0430    -2.7200     1.0500 O.3   1 <1>  -0.0190 
  8 C        1.0750    -2.6430    -0.8430 C.2   1 <1>  -0.1500 
  9 C        5.0710    -0.3090     0.5950 C.3   1 <1>   0.3430 
 10 C        3.5520     2.4670     1.1320 C.3   1 <1>  -0.1600 
 11 N        1.7140    -3.9500     0.8050 N.2   1 <1>  -0.4100 
 12 C        1.1150    -3.9320    -0.3340 C.2   1 <1>   0.2030 
 13 N        5.4270     1.1060     0.2210 N.4   1 <1>  -0.9590 
 14 C        4.2920     2.0180    -0.1310 C.3   1 <1>   0.3430 
 15 C        0.5420    -5.1620    -1.0150 C.3   1 <1>  -0.0140 
 16 C        6.4770     1.1430    -0.8420 C.3   1 <1>   0.4860 
 17 C       -0.8050    -5.1160    -1.6740 C.3   1 <1>  -0.2000 
 18 C       -0.6220    -5.8760    -0.3980 C.3   1 <1>  -0.2000 
 19 C        7.2910     2.4240    -0.6970 C.ar  1 <1>   0.1670 
 20 N        7.5060     2.8570     0.5410 N.ar  1 <1>  -0.6200 
 21 C        7.7550     3.0760    -1.8350 C.ar  1 <1>   0.1600 
 22 C        8.2230     3.9730     0.5550 C.ar  1 <1>   0.1600 
 23 N        8.4580     4.1910    -1.8120 N.ar  1 <1>  -0.6200 
 24 C        8.6870     4.6240    -0.5860 C.ar  1 <1>   0.1670 
 25 C        9.5010     5.8980    -0.4750 C.3   1 <1>  -0.0970 
 26 H        3.8680    -1.4680     1.9460 H     1 <1>   0.0800 
 27 H        4.2910     0.0850     2.5710 H     1 <1>   0.0800 
 28 H        2.2480     1.6020     2.6160 H     1 <1>   0.0800 
 29 H        1.4980     1.8500     1.0720 H     1 <1>   0.0800 
 30 H        0.6390    -2.3350    -1.7750 H     1 <1>   0.1500 
 31 H        4.7320    -0.8380    -0.2810 H     1 <1>   0.0800 
 32 H        5.9570    -0.8100     0.9510 H     1 <1>   0.0800 
 33 H        4.2430     2.6040     1.9450 H     1 <1>   0.0800 
 34 H        3.1140     3.4300     0.9400 H     1 <1>   0.0800 
 35 H        5.9140     1.5600     1.0170 H     1 <1>   0.4500 
 36 H        4.6860     2.9000    -0.6100 H     1 <1>   0.0800 
 37 H        3.6110     1.5420    -0.8180 H     1 <1>   0.0800 
 38 H        1.3050    -5.7710    -1.4660 H     1 <1>   0.1000 
 39 H        6.0290     1.0840    -1.8200 H     1 <1>   0.0800 
 40 H        7.1480     0.3090    -0.7190 H     1 <1>   0.0800 
 41 H       -0.9520    -5.6670    -2.5870 H     1 <1>   0.1000 
 42 H       -1.3770    -4.2050    -1.6450 H     1 <1>   0.1000 
 43 H       -1.0370    -5.4780     0.5130 H     1 <1>   0.1000 
 44 H       -0.6330    -6.9510    -0.4210 H     1 <1>   0.1000 
 45 H        7.5430     2.6690    -2.8090 H     1 <1>   0.1500 
 46 H        8.4570     4.3940     1.5180 H     1 <1>   0.1500 
 47 H        9.6430     6.1850     0.5500 H     1 <1>   0.0800 
 48 H        8.9960     6.6940    -0.9920 H     1 <1>   0.0800 
 49 H       10.4630     5.7510    -0.9310 H     1 <1>   0.0800 
@<TRIPOS>BOND
  1   1   2  2   
  2   2   3  am  
  3   2   4  1   
  4   3   5  1   
  5   3   6  1   
  6   4   7  1   
  7   4   8  2   
  8   5   9  1   
  9   5  26  1   
 10   5  27  1   
 11   6  10  1   
 12   6  28  1   
 13   6  29  1   
 14   7  11  1   
 15   8  12  1   
 16   8  30  1   
 17   9  13  1   
 18   9  31  1   
 19   9  32  1   
 20  10  14  1   
 21  10  33  1   
 22  10  34  1   
 23  11  12  2   
 24  12  15  1   
 25  13  14  1   
 26  13  16  1   
 27  13  35  1   
 28  14  36  1   
 29  14  37  1   
 30  15  17  1   
 31  15  18  1   
 32  15  38  1   
 33  16  19  1   
 34  16  39  1   
 35  16  40  1   
 36  17  18  1   
 37  17  41  1   
 38  17  42  1   
 39  18  43  1   
 40  18  44  1   
 41  19  20  ar  
 42  19  21  ar  
 43  20  22  ar  
 44  21  23  ar  
 45  21  45  1   
 46  22  24  ar  
 47  22  46  1   
 48  23  24  ar  
 49  24  25  1   
 50  25  47  1   
 51  25  48  1   
 52  25  49  1   
@<TRIPOS>SUBSTRUCTURE
  1 ****   9 GROUP 4 **** **** 0

# MOE 2024.06 (io_trps.svl 2023.06)
