@<TRIPOS>MOLECULE
NONAME
46 48 1 0 0 
SMALL
USER_CHARGES


@<TRIPOS>ATOM
  1 O       -0.4840    -0.6390     0.4990 O.3   1 <1>  -0.2800 
  2 C       -0.3300    -1.9450     0.5090 C.2   1 <1>  -0.0100 
  3 C       -1.2880    -0.3370    -0.5000 C.2   1 <1>  -0.0100 
  4 C       -1.0480    -2.5160    -0.4830 C.2   1 <1>  -0.1810 
  5 C       -1.6750    -1.4530    -1.1540 C.2   1 <1>  -0.1500 
  6 C       -1.1660    -3.9870    -0.8130 C.3   1 <1>   0.5240 
  7 N       -2.5690    -4.4280    -0.5630 N.4   1 <1>  -0.9590 
  8 C       -2.7260    -5.8510    -1.0380 C.3   1 <1>   0.3430 
  9 C       -2.9480    -4.1810     0.8620 C.3   1 <1>   0.3430 
 10 C       -3.3120    -6.8410    -0.0060 C.3   1 <1>   0.0000 
 11 C       -4.3150    -4.7710     1.2060 C.3   1 <1>  -0.1600 
 12 C       -4.5660    -6.1490     0.5750 C.3   1 <1>   0.2000 
 13 C       -3.8000    -8.0800    -0.7930 C.3   1 <1>   0.1200 
 14 C       -2.2900    -7.3000     1.0950 C.3   1 <1>  -0.0170 
 15 O       -5.2000    -6.9650     1.4930 O.3   1 <1>  -0.6800 
 16 O       -2.7880    -8.5350    -1.6260 O.3   1 <1>  -0.6800 
 17 C       -0.8520    -6.7950     0.9630 C.ar  1 <1>  -0.1440 
 18 C       -0.0530    -7.2010    -0.0960 C.ar  1 <1>  -0.1500 
 19 C       -0.3140    -5.9440     1.9200 C.ar  1 <1>  -0.1500 
 20 C        1.2380    -6.7210    -0.2290 C.ar  1 <1>  -0.1500 
 21 C        0.9780    -5.4640     1.7910 C.ar  1 <1>  -0.1500 
 22 C        1.7520    -5.8460     0.7100 C.ar  1 <1>  -0.1500 
 23 H        0.3090    -2.3780     1.2610 H     1 <1>   0.1500 
 24 H       -1.5270     0.6990    -0.6760 H     1 <1>   0.1500 
 25 H       -2.3200    -1.5180    -2.0130 H     1 <1>   0.1500 
 26 H       -0.4830    -4.5520    -0.2000 H     1 <1>   0.0800 
 27 H       -0.9020    -4.1460    -1.8450 H     1 <1>   0.0800 
 28 H       -3.1610    -3.8220    -1.1420 H     1 <1>   0.4500 
 29 H       -3.3830    -5.8480    -1.8920 H     1 <1>   0.0800 
 30 H       -1.7840    -6.2340    -1.3900 H     1 <1>   0.0800 
 31 H       -2.2130    -4.6290     1.5040 H     1 <1>   0.0800 
 32 H       -2.9510    -3.1220     1.0680 H     1 <1>   0.0800 
 33 H       -5.0770    -4.0930     0.8660 H     1 <1>   0.0800 
 34 H       -4.3930    -4.8220     2.2770 H     1 <1>   0.0800 
 35 H       -5.2720    -6.0090    -0.2280 H     1 <1>   0.0800 
 36 H       -4.6470    -7.8410    -1.4140 H     1 <1>   0.0800 
 37 H       -4.0830    -8.8780    -0.1250 H     1 <1>   0.0800 
 38 H       -2.6510    -7.0200     2.0680 H     1 <1>   0.0800 
 39 H       -2.2390    -8.3760     1.1160 H     1 <1>   0.0800 
 40 H       -4.7120    -7.0310     2.3370 H     1 <1>   0.4000 
 41 H       -3.0340    -9.3950    -2.0330 H     1 <1>   0.4000 
 42 H       -0.4250    -7.9020    -0.8230 H     1 <1>   0.1500 
 43 H       -0.8870    -5.6540     2.7840 H     1 <1>   0.1500 
 44 H        1.8500    -7.0410    -1.0560 H     1 <1>   0.1500 
 45 H        1.3900    -4.8060     2.5370 H     1 <1>   0.1500 
 46 H        2.7600    -5.4780     0.6110 H     1 <1>   0.1500 
@<TRIPOS>BOND
  1   1   2  1   
  2   1   3  1   
  3   2   4  2   
  4   2  23  1   
  5   3   5  2   
  6   3  24  1   
  7   4   5  1   
  8   4   6  1   
  9   5  25  1   
 10   6   7  1   
 11   6  26  1   
 12   6  27  1   
 13   7   8  1   
 14   7   9  1   
 15   7  28  1   
 16   8  10  1   
 17   8  29  1   
 18   8  30  1   
 19   9  11  1   
 20   9  31  1   
 21   9  32  1   
 22  10  12  1   
 23  10  13  1   
 24  10  14  1   
 25  11  12  1   
 26  11  33  1   
 27  11  34  1   
 28  12  15  1   
 29  12  35  1   
 30  13  16  1   
 31  13  36  1   
 32  13  37  1   
 33  14  17  1   
 34  14  38  1   
 35  14  39  1   
 36  15  40  1   
 37  16  41  1   
 38  17  18  ar  
 39  17  19  ar  
 40  18  20  ar  
 41  18  42  1   
 42  19  21  ar  
 43  19  43  1   
 44  20  22  ar  
 45  20  44  1   
 46  21  22  ar  
 47  21  45  1   
 48  22  46  1   
@<TRIPOS>SUBSTRUCTURE
  1 ****   7 GROUP 4 **** **** 0

# MOE 2024.06 (io_trps.svl 2023.06)
