@<TRIPOS>MOLECULE
NONAME
47 50 1 0 0 
SMALL
USER_CHARGES


@<TRIPOS>ATOM
  1 O       -2.9890     1.2030    -1.6680 O.2   1 <1>  -0.5700 
  2 C       -2.3670     0.9740    -0.6600 C.2   1 <1>   0.5690 
  3 N       -2.1200    -0.2890    -0.2440 N.am  1 <1>  -0.7300 
  4 C       -1.8580     2.1280     0.1720 C.3   1 <1>  -0.0990 
  5 C       -2.5790    -1.5080    -0.9450 C.3   1 <1>   0.2200 
  6 C       -1.4050     3.2900    -0.7200 C.3   1 <1>   0.0960 
  7 C       -3.8720    -1.9870    -0.3050 C.3   1 <1>  -0.0800 
  8 C       -1.6360    -2.6610    -0.6300 C.3   1 <1>   0.1200 
  9 N       -0.8640     4.3850     0.1060 N.pl3 1 <1>   0.0480 
 10 C       -3.3720    -2.8480     0.8630 C.3   1 <1>   0.1200 
 11 C       -4.7280    -2.7940    -1.3020 C.3   1 <1>  -0.0170 
 12 O       -2.0180    -3.1140     0.6320 O.3   1 <1>  -0.5600 
 13 C        0.4010     4.6150     0.4620 C.2   1 <1>   0.0360 
 14 C       -1.5200     5.3790     0.7040 C.2   1 <1>   0.0360 
 15 C       -6.0730    -3.1830    -0.6960 C.ar  1 <1>  -0.1440 
 16 N        0.5050     5.6550     1.2140 N.2   1 <1>  -0.3380 
 17 N       -0.7270     6.1450     1.3690 N.2   1 <1>  -0.3380 
 18 C       -7.1300    -2.2530    -0.5410 C.ar  1 <1>   0.0000 
 19 C       -6.2930    -4.4630    -0.2780 C.ar  1 <1>  -0.1500 
 20 C       -8.3290    -2.7150     0.0560 C.ar  1 <1>   0.3100 
 21 C       -7.0720    -0.8990    -0.9460 C.ar  1 <1>  -0.1500 
 22 C       -7.5210    -4.8170     0.2930 C.ar  1 <1>   0.1600 
 23 N       -8.5070    -3.9960     0.4670 N.ar  1 <1>  -0.6200 
 24 C       -9.3900    -1.8140     0.2350 C.ar  1 <1>  -0.1500 
 25 C       -8.1260    -0.0470    -0.7600 C.ar  1 <1>  -0.1500 
 26 C       -9.3010    -0.5070    -0.1600 C.ar  1 <1>  -0.1500 
 27 H       -1.6680    -0.4780     0.6550 H     1 <1>   0.3700 
 28 H       -2.6540     2.4520     0.8170 H     1 <1>   0.0800 
 29 H       -1.0330     1.7930     0.7750 H     1 <1>   0.0800 
 30 H       -2.6660    -1.3220    -2.0030 H     1 <1>   0.0800 
 31 H       -2.2340     3.6650    -1.2940 H     1 <1>   0.0800 
 32 H       -0.6430     2.9580    -1.4030 H     1 <1>   0.0800 
 33 H       -4.4500    -1.1580     0.0600 H     1 <1>   0.0800 
 34 H       -0.6030    -2.3640    -0.6130 H     1 <1>   0.0800 
 35 H       -1.7730    -3.4700    -1.3260 H     1 <1>   0.0800 
 36 H       -3.8970    -3.7820     0.9500 H     1 <1>   0.0800 
 37 H       -3.4450    -2.3120     1.7940 H     1 <1>   0.0800 
 38 H       -4.1980    -3.6810    -1.6020 H     1 <1>   0.0800 
 39 H       -4.8990    -2.2170    -2.1940 H     1 <1>   0.0800 
 40 H        1.2250     3.9980     0.1540 H     1 <1>   0.1500 
 41 H       -2.5840     5.5130     0.6330 H     1 <1>   0.1500 
 42 H       -5.5410    -5.2250    -0.3710 H     1 <1>   0.1500 
 43 H       -6.1810    -0.5210    -1.4140 H     1 <1>   0.1500 
 44 H       -7.6520    -5.8380     0.6100 H     1 <1>   0.1500 
 45 H      -10.2840    -2.1910     0.6950 H     1 <1>   0.1500 
 46 H       -8.0670     0.9820    -1.0720 H     1 <1>   0.1500 
 47 H      -10.1230     0.1730    -0.0170 H     1 <1>   0.1500 
@<TRIPOS>BOND
  1   1   2  2   
  2   2   3  am  
  3   2   4  1   
  4   3   5  1   
  5   3  27  1   
  6   4   6  1   
  7   4  28  1   
  8   4  29  1   
  9   5   7  1   
 10   5   8  1   
 11   5  30  1   
 12   6   9  1   
 13   6  31  1   
 14   6  32  1   
 15   7  10  1   
 16   7  11  1   
 17   7  33  1   
 18   8  12  1   
 19   8  34  1   
 20   8  35  1   
 21   9  13  1   
 22   9  14  1   
 23  10  12  1   
 24  10  36  1   
 25  10  37  1   
 26  11  15  1   
 27  11  38  1   
 28  11  39  1   
 29  13  16  2   
 30  13  40  1   
 31  14  17  2   
 32  14  41  1   
 33  15  18  ar  
 34  15  19  ar  
 35  16  17  1   
 36  18  20  ar  
 37  18  21  ar  
 38  19  22  ar  
 39  19  42  1   
 40  20  23  ar  
 41  20  24  ar  
 42  21  25  ar  
 43  21  43  1   
 44  22  23  ar  
 45  22  44  1   
 46  24  26  ar  
 47  24  45  1   
 48  25  26  ar  
 49  25  46  1   
 50  26  47  1   
@<TRIPOS>SUBSTRUCTURE
  1 ****   7 GROUP 4 **** **** 0

# MOE 2024.06 (io_trps.svl 2023.06)
