@<TRIPOS>MOLECULE
NONAME
50 53 1 0 0 
SMALL
USER_CHARGES


@<TRIPOS>ATOM
  1 O       -0.2250    -2.8370    -2.9050 O.2   1 <1>  -0.5700 
  2 C        0.3260    -2.2810    -1.9710 C.2   1 <1>   0.8410 
  3 N        0.1710    -0.9270    -1.8290 N.2   1 <1>  -0.6610 
  4 N        1.0870    -3.0090    -1.0690 N.am  1 <1>  -0.4690 
  5 C        0.7580    -0.3570    -0.8400 C.2   1 <1>   0.3760 
  6 C        1.7070    -2.3790    -0.0190 C.2   1 <1>  -0.0410 
  7 C        1.2370    -4.4930    -1.2220 C.3   1 <1>   0.2010 
  8 C        1.5490    -1.0420     0.1080 C.2   1 <1>  -0.1360 
  9 C        0.7540    -5.2650     0.0070 C.2   1 <1>   0.5690 
 10 O        1.6110    -5.6650     0.7630 O.2   1 <1>  -0.5700 
 11 N       -0.5810    -5.4940     0.2490 N.am  1 <1>  -0.6600 
 12 C       -1.7070    -5.0170    -0.6050 C.3   1 <1>   0.1400 
 13 C       -1.0380    -6.2100     1.4740 C.3   1 <1>   0.1400 
 14 C       -2.5570    -6.2150    -1.0330 C.3   1 <1>  -0.1600 
 15 C       -1.8880    -7.4180     1.0710 C.3   1 <1>  -0.1600 
 16 C       -3.0690    -7.0150     0.1760 C.3   1 <1>   0.4240 
 17 O       -3.8560    -6.1560     0.9680 O.3   1 <1>  -0.5600 
 18 C       -3.8590    -8.2640    -0.2720 C.ar  1 <1>  -0.1430 
 19 C       -5.1900    -5.9850     0.6030 C.3   1 <1>   0.1200 
 20 C       -5.2120    -8.4050     0.0210 C.ar  1 <1>  -0.1430 
 21 C       -3.2290    -9.2760    -0.9900 C.ar  1 <1>  -0.1500 
 22 C       -5.9240    -7.3090     0.7900 C.3   1 <1>  -0.0170 
 23 C       -5.9120    -9.5310    -0.3830 C.ar  1 <1>  -0.1500 
 24 C       -3.9270   -10.3990    -1.3960 C.ar  1 <1>  -0.1500 
 25 C       -5.2700   -10.5380    -1.0950 C.ar  1 <1>   0.0830 
 26 O       -5.8800   -11.6700    -1.5270 O.3   1 <1>  -0.3620 
 27 C       -7.2410   -11.9180    -1.2550 C.3   1 <1>   0.0400 
 28 H        0.6480     0.7060    -0.7140 H     1 <1>   0.0600 
 29 H        2.2930    -2.9700     0.6690 H     1 <1>   0.1500 
 30 H        2.2780    -4.7130    -1.3690 H     1 <1>   0.0800 
 31 H        0.7140    -4.8530    -2.0880 H     1 <1>   0.0800 
 32 H        2.0020    -0.4810     0.9040 H     1 <1>   0.1500 
 33 H       -1.3530    -4.5100    -1.4810 H     1 <1>   0.0800 
 34 H       -2.3070    -4.3230    -0.0410 H     1 <1>   0.0800 
 35 H       -1.6190    -5.5360     2.0800 H     1 <1>   0.0800 
 36 H       -0.1980    -6.5430     2.0600 H     1 <1>   0.0800 
 37 H       -1.9540    -6.8490    -1.6550 H     1 <1>   0.0800 
 38 H       -3.3830    -5.8830    -1.6330 H     1 <1>   0.0800 
 39 H       -2.2640    -7.9080     1.9500 H     1 <1>   0.0800 
 40 H       -1.2520    -8.1160     0.5600 H     1 <1>   0.0800 
 41 H       -5.2400    -5.6540    -0.4190 H     1 <1>   0.0800 
 42 H       -5.6120    -5.2280     1.2400 H     1 <1>   0.0800 
 43 H       -2.1870    -9.2000    -1.2420 H     1 <1>   0.1500 
 44 H       -6.9350    -7.2050     0.4400 H     1 <1>   0.0800 
 45 H       -5.9500    -7.5590     1.8350 H     1 <1>   0.0800 
 46 H       -6.9520    -9.6120    -0.1360 H     1 <1>   0.1500 
 47 H       -3.4330   -11.1770    -1.9490 H     1 <1>   0.1500 
 48 H       -7.4980   -12.8700    -1.6830 H     1 <1>   0.0800 
 49 H       -7.8340   -11.1420    -1.7050 H     1 <1>   0.0800 
 50 H       -7.3840   -11.9460    -0.1890 H     1 <1>   0.0800 
@<TRIPOS>BOND
  1   1   2  2   
  2   2   3  1   
  3   2   4  am  
  4   3   5  2   
  5   4   6  1   
  6   4   7  1   
  7   5   8  1   
  8   5  28  1   
  9   6   8  2   
 10   6  29  1   
 11   7   9  1   
 12   7  30  1   
 13   7  31  1   
 14   8  32  1   
 15   9  10  2   
 16   9  11  am  
 17  11  12  1   
 18  11  13  1   
 19  12  14  1   
 20  12  33  1   
 21  12  34  1   
 22  13  15  1   
 23  13  35  1   
 24  13  36  1   
 25  14  16  1   
 26  14  37  1   
 27  14  38  1   
 28  15  16  1   
 29  15  39  1   
 30  15  40  1   
 31  16  17  1   
 32  16  18  1   
 33  17  19  1   
 34  18  20  ar  
 35  18  21  ar  
 36  19  22  1   
 37  19  41  1   
 38  19  42  1   
 39  20  22  1   
 40  20  23  ar  
 41  21  24  ar  
 42  21  43  1   
 43  22  44  1   
 44  22  45  1   
 45  23  25  ar  
 46  23  46  1   
 47  24  25  ar  
 48  24  47  1   
 49  25  26  1   
 50  26  27  1   
 51  27  48  1   
 52  27  49  1   
 53  27  50  1   
@<TRIPOS>SUBSTRUCTURE
  1 ****  14 GROUP 4 **** **** 0

# MOE 2024.06 (io_trps.svl 2023.06)
