@<TRIPOS>MOLECULE
NONAME
40 42 1 0 0 
SMALL
USER_CHARGES


@<TRIPOS>ATOM
  1 S        0.0860     0.4700    -0.7300 S.3   1 <1>  -0.0800 
  2 C        1.5540    -0.4710    -0.4890 C.2   1 <1>   0.4620 
  3 C       -0.8640    -0.9370    -0.3800 C.2   1 <1>  -0.1100 
  4 N        1.3200    -1.6950    -0.1800 N.2   1 <1>  -0.5650 
  5 N        2.7910     0.1250    -0.6340 N.pl3 1 <1>  -0.8220 
  6 C       -0.0520    -1.9820    -0.1150 C.2   1 <1>   0.1410 
  7 C        3.0110     1.5680    -0.9730 C.3   1 <1>   0.2090 
  8 C        4.0440    -0.6400    -0.4000 C.3   1 <1>   0.2090 
  9 C       -0.5080    -3.3250     0.2180 C.2   1 <1>   0.7160 
 10 C        3.8050     2.2620     0.1440 C.3   1 <1>   0.2000 
 11 C        4.8410     0.0250     0.7280 C.3   1 <1>  -0.1600 
 12 O       -1.6860    -3.6080     0.2920 O.2   1 <1>  -0.5700 
 13 N        0.3760    -4.3190     0.4580 N.am  1 <1>  -0.8000 
 14 O        4.1080     3.5560    -0.2820 O.3   1 <1>  -0.5600 
 15 C        5.1140     1.5140     0.4470 C.3   1 <1>  -0.1600 
 16 C        4.2960     4.4930     0.7480 C.3   1 <1>   0.2630 
 17 C        4.6250     5.8860     0.2160 C.ar  1 <1>   0.1670 
 18 N        4.7740     6.8220     1.1460 N.ar  1 <1>  -0.6200 
 19 C        4.7550     6.1340    -1.1460 C.ar  1 <1>  -0.1500 
 20 C        5.0600     8.0370     0.7060 C.ar  1 <1>   0.1600 
 21 C        5.0540     7.4050    -1.5890 C.ar  1 <1>  -0.1500 
 22 C        5.2090     8.3770    -0.6270 C.ar  1 <1>  -0.1500 
 23 H       -1.9350    -0.8550    -0.4060 H     1 <1>   0.1500 
 24 H        2.0830     2.0880    -1.1150 H     1 <1>   0.0800 
 25 H        3.5710     1.6230    -1.8900 H     1 <1>   0.0800 
 26 H        4.6240    -0.6490    -1.3070 H     1 <1>   0.0800 
 27 H        3.8260    -1.6610    -0.1350 H     1 <1>   0.0800 
 28 H        3.1800     2.3140     1.0210 H     1 <1>   0.0800 
 29 H        5.7730    -0.4950     0.8540 H     1 <1>   0.0800 
 30 H        4.2840    -0.0760     1.6430 H     1 <1>   0.0800 
 31 H        0.0540    -5.2570     0.6860 H     1 <1>   0.3700 
 32 H        1.3780    -4.1360     0.4060 H     1 <1>   0.3700 
 33 H        5.6020     1.9460     1.3010 H     1 <1>   0.0800 
 34 H        5.7690     1.5950    -0.4030 H     1 <1>   0.0800 
 35 H        5.1030     4.1630     1.3770 H     1 <1>   0.0800 
 36 H        3.3920     4.5470     1.3290 H     1 <1>   0.0800 
 37 H        4.6250     5.3400    -1.8590 H     1 <1>   0.1500 
 38 H        5.1840     8.8050     1.4500 H     1 <1>   0.1500 
 39 H        5.1600     7.6240    -2.6370 H     1 <1>   0.1500 
 40 H        5.4430     9.3890    -0.9030 H     1 <1>   0.1500 
@<TRIPOS>BOND
  1   1   2  1   
  2   1   3  1   
  3   2   4  2   
  4   2   5  1   
  5   3   6  2   
  6   3  23  1   
  7   4   6  1   
  8   5   7  1   
  9   5   8  1   
 10   6   9  1   
 11   7  10  1   
 12   7  24  1   
 13   7  25  1   
 14   8  11  1   
 15   8  26  1   
 16   8  27  1   
 17   9  12  2   
 18   9  13  am  
 19  10  14  1   
 20  10  15  1   
 21  10  28  1   
 22  11  15  1   
 23  11  29  1   
 24  11  30  1   
 25  13  31  1   
 26  13  32  1   
 27  14  16  1   
 28  15  33  1   
 29  15  34  1   
 30  16  17  1   
 31  16  35  1   
 32  16  36  1   
 33  17  18  ar  
 34  17  19  ar  
 35  18  20  ar  
 36  19  21  ar  
 37  19  37  1   
 38  20  22  ar  
 39  20  38  1   
 40  21  22  ar  
 41  21  39  1   
 42  22  40  1   
@<TRIPOS>SUBSTRUCTURE
  1 ****   7 GROUP 4 **** **** 0

# MOE 2024.06 (io_trps.svl 2023.06)
