@<TRIPOS>MOLECULE
NONAME
40 43 1 0 0 
SMALL
USER_CHARGES


@<TRIPOS>ATOM
  1 O        0.1080     1.6570    -1.1290 O.2   1 <1>  -0.5700 
  2 C       -0.5000     2.2310    -0.2450 C.2   1 <1>   0.7160 
  3 N       -1.8300     1.9260    -0.0430 N.am  1 <1>  -0.6600 
  4 C        0.1870     3.2300     0.5400 C.2   1 <1>  -0.0860 
  5 C       -2.8240     2.8960     0.5190 C.3   1 <1>   0.1400 
  6 C       -2.4410     0.6850    -0.5980 C.3   1 <1>   0.1400 
  7 C        1.1790     4.0680     0.1370 C.2   1 <1>  -0.0100 
  8 C        0.0080     3.5490     1.9040 C.2   1 <1>  -0.1500 
  9 C       -3.8750     3.2910    -0.5370 C.3   1 <1>   0.1440 
 10 C       -3.4840     1.0410    -1.6650 C.3   1 <1>  -0.1600 
 11 O        1.5760     4.8500     1.1120 O.3   1 <1>  -0.2800 
 12 C        0.8770     4.5410     2.1830 C.2   1 <1>  -0.0100 
 13 C       -4.8780     4.2210     0.1210 C.ar  1 <1>   0.1670 
 14 C       -4.5360     2.0250    -1.1230 C.3   1 <1>  -0.1600 
 15 C       -3.2630     4.1920    -1.6440 C.3   1 <1>  -0.1600 
 16 N       -5.7970     3.8610     0.9860 N.ar  1 <1>  -0.6200 
 17 C       -4.7000     5.5140    -0.2780 C.ar  1 <1>  -0.1440 
 18 C       -3.5600     5.6510    -1.2560 C.3   1 <1>  -0.0170 
 19 C       -6.5390     4.8640     1.4320 C.ar  1 <1>   0.7200 
 20 C       -5.5380     6.4680     0.2480 C.ar  1 <1>   0.1600 
 21 N       -6.4760     6.1480     1.1110 N.ar  1 <1>  -0.6200 
 22 N       -7.4910     4.5340     2.3050 N.pl3 1 <1>  -0.9000 
 23 H       -2.3390     3.7890     0.8680 H     1 <1>   0.0800 
 24 H       -3.3190     2.4390     1.3580 H     1 <1>   0.0800 
 25 H       -2.9120     0.1420     0.2030 H     1 <1>   0.0800 
 26 H       -1.6860     0.0480    -1.0270 H     1 <1>   0.0800 
 27 H        1.6450     4.1530    -0.8300 H     1 <1>   0.1500 
 28 H       -0.6920     3.0680     2.5650 H     1 <1>   0.1500 
 29 H       -3.9710     0.1410    -1.9940 H     1 <1>   0.0800 
 30 H       -2.9790     1.4650    -2.5150 H     1 <1>   0.0800 
 31 H        1.0670     5.0740     3.0990 H     1 <1>   0.1500 
 32 H       -5.2290     2.2940    -1.9000 H     1 <1>   0.0800 
 33 H       -5.0990     1.5360    -0.3460 H     1 <1>   0.0800 
 34 H       -3.7550     3.9920    -2.5800 H     1 <1>   0.0800 
 35 H       -2.2090     4.0260    -1.7820 H     1 <1>   0.0800 
 36 H       -3.8370     6.2400    -2.1130 H     1 <1>   0.0800 
 37 H       -2.7110     6.0940    -0.7650 H     1 <1>   0.0800 
 38 H       -5.4380     7.5000    -0.0400 H     1 <1>   0.1500 
 39 H       -8.2340     5.2190     2.4090 H     1 <1>   0.4000 
 40 H       -7.7660     3.5570     2.2970 H     1 <1>   0.4000 
@<TRIPOS>BOND
  1   1   2  2   
  2   2   3  am  
  3   2   4  1   
  4   3   5  1   
  5   3   6  1   
  6   4   7  2   
  7   4   8  1   
  8   5   9  1   
  9   5  23  1   
 10   5  24  1   
 11   6  10  1   
 12   6  25  1   
 13   6  26  1   
 14   7  11  1   
 15   7  27  1   
 16   8  12  2   
 17   8  28  1   
 18   9  13  1   
 19   9  14  1   
 20   9  15  1   
 21  10  14  1   
 22  10  29  1   
 23  10  30  1   
 24  11  12  1   
 25  12  31  1   
 26  13  16  ar  
 27  13  17  ar  
 28  14  32  1   
 29  14  33  1   
 30  15  18  1   
 31  15  34  1   
 32  15  35  1   
 33  16  19  ar  
 34  17  18  1   
 35  17  20  ar  
 36  18  36  1   
 37  18  37  1   
 38  19  21  ar  
 39  19  22  1   
 40  20  21  ar  
 41  20  38  1   
 42  22  39  1   
 43  22  40  1   
@<TRIPOS>SUBSTRUCTURE
  1 ****   5 GROUP 4 **** **** 0

# MOE 2024.06 (io_trps.svl 2023.06)
