@<TRIPOS>MOLECULE
NONAME
45 46 1 0 0 
SMALL
USER_CHARGES


@<TRIPOS>ATOM
  1 S        0.3860     1.0730    -0.0460 S.3   1 <1>  -0.4600 
  2 C       -1.1310     1.7560     0.6810 C.3   1 <1>   0.2300 
  3 C        1.1030     2.4250    -1.0340 C.3   1 <1>   0.0700 
  4 C       -2.0100     2.3100    -0.4420 C.3   1 <1>  -0.2400 
  5 C       -0.7340     2.8370     1.6880 C.3   1 <1>  -0.2400 
  6 C       -1.8150     0.5830     1.3820 C.3   1 <1>  -0.2400 
  7 C        2.4770     1.9960    -1.5470 C.3   1 <1>   0.2090 
  8 N        3.0570     3.0870    -2.3610 N.pl3 1 <1>  -0.8520 
  9 C        3.6890     4.0770    -1.6260 C.2   1 <1>   0.3720 
 10 N        4.7690     3.8940    -0.9560 N.2   1 <1>  -0.4100 
 11 C        3.2210     5.3860    -1.5090 C.2   1 <1>  -0.2330 
 12 O        5.0340     5.0500    -0.4090 O.3   1 <1>  -0.0190 
 13 C        4.1450     5.9720    -0.6980 C.2   1 <1>   0.0870 
 14 C        2.0300     5.8760    -2.1390 C.2   1 <1>   1.0330 
 15 C        4.3060     7.2910    -0.1320 C.ar  1 <1>   0.0530 
 16 O        1.7710     7.0880    -2.1800 O.co2 1 <1>  -0.9000 
 17 O        1.2070     5.0840    -2.6400 O.co2 1 <1>  -0.9000 
 18 C        5.5820     7.8280     0.0550 C.ar  1 <1>  -0.1500 
 19 C        3.2160     8.0650     0.2680 C.ar  1 <1>  -0.1500 
 20 C        5.7910     9.0810     0.6100 C.ar  1 <1>   0.0820 
 21 C        3.3850     9.3200     0.8230 C.ar  1 <1>  -0.1500 
 22 O        7.0970     9.4610     0.7250 O.3   1 <1>  -0.3620 
 23 C        4.6630     9.8160     0.9920 C.ar  1 <1>   0.1900 
 24 C        7.4870    10.7410     1.1710 C.3   1 <1>   0.0400 
 25 F        4.7600    11.0050     1.5310 F     1 <1>  -0.1900 
 26 H        1.1890     3.2900    -0.4040 H     1 <1>   0.0800 
 27 H        0.4360     2.6240    -1.8540 H     1 <1>   0.0800 
 28 H       -1.5590     3.1750    -0.8940 H     1 <1>   0.0800 
 29 H       -2.9660     2.6050    -0.0500 H     1 <1>   0.0800 
 30 H       -2.1640     1.5620    -1.1980 H     1 <1>   0.0800 
 31 H       -0.2870     3.6790     1.1920 H     1 <1>   0.0800 
 32 H       -0.0320     2.4420     2.4010 H     1 <1>   0.0800 
 33 H       -1.6020     3.1850     2.2170 H     1 <1>   0.0800 
 34 H       -2.0450    -0.1900     0.6710 H     1 <1>   0.0800 
 35 H       -2.7280     0.9060     1.8480 H     1 <1>   0.0800 
 36 H       -1.1680     0.1740     2.1370 H     1 <1>   0.0800 
 37 H        2.3770     1.1170    -2.1590 H     1 <1>   0.0800 
 38 H        3.1250     1.7680    -0.7180 H     1 <1>   0.0800 
 39 H        2.2680     3.5720    -2.8410 H     1 <1>   0.4000 
 40 H        6.4380     7.2520    -0.2460 H     1 <1>   0.1500 
 41 H        2.2200     7.6780     0.1340 H     1 <1>   0.1500 
 42 H        2.5330     9.9050     1.1170 H     1 <1>   0.1500 
 43 H        8.5580    10.8030     1.1130 H     1 <1>   0.0800 
 44 H        7.1700    10.8680     2.1910 H     1 <1>   0.0800 
 45 H        7.0440    11.4850     0.5320 H     1 <1>   0.0800 
@<TRIPOS>BOND
  1   1   2  1   
  2   1   3  1   
  3   2   4  1   
  4   2   5  1   
  5   2   6  1   
  6   3   7  1   
  7   3  26  1   
  8   3  27  1   
  9   4  28  1   
 10   4  29  1   
 11   4  30  1   
 12   5  31  1   
 13   5  32  1   
 14   5  33  1   
 15   6  34  1   
 16   6  35  1   
 17   6  36  1   
 18   7   8  1   
 19   7  37  1   
 20   7  38  1   
 21   8   9  1   
 22   8  39  1   
 23   9  10  2   
 24   9  11  1   
 25  10  12  1   
 26  11  13  2   
 27  11  14  1   
 28  12  13  1   
 29  13  15  1   
 30  14  16  ar  
 31  14  17  ar  
 32  15  18  ar  
 33  15  19  ar  
 34  18  20  ar  
 35  18  40  1   
 36  19  21  ar  
 37  19  41  1   
 38  20  22  1   
 39  20  23  ar  
 40  21  23  ar  
 41  21  42  1   
 42  22  24  1   
 43  23  25  1   
 44  24  43  1   
 45  24  44  1   
 46  24  45  1   
@<TRIPOS>SUBSTRUCTURE
  1 ****  11 GROUP 4 **** **** 0

# MOE 2024.06 (io_trps.svl 2023.06)
