@<TRIPOS>MOLECULE
NONAME
23 24 1 0 0 
SMALL
USER_CHARGES


@<TRIPOS>ATOM
  1 N        0.0010     0.2940     0.0680 N.pl3 1 <1>  -0.9000 
  2 C        0.0490     1.6500     0.0240 C.ar  1 <1>   0.4100 
  3 N       -1.1500     2.1970     0.0130 N.ar  1 <1>  -0.6200 
  4 C        1.2550     2.3610    -0.0180 C.ar  1 <1>  -0.1430 
  5 C       -1.1680     3.5170    -0.0360 C.ar  1 <1>   0.1600 
  6 C        1.2100     3.7420    -0.0670 C.ar  1 <1>  -0.1430 
  7 C        2.5910     1.6190     0.0240 C.3   1 <1>  -0.0170 
  8 C       -0.0450     4.3210    -0.0780 C.ar  1 <1>  -0.1500 
  9 C        2.4550     4.6160    -0.1160 C.3   1 <1>  -0.0170 
 10 C        3.7860     2.4990    -0.3670 C.3   1 <1>  -0.1600 
 11 C        3.7090     3.8590     0.3320 C.3   1 <1>  -0.1600 
 12 H        0.5820    -0.1820    -0.6170 H     1 <1>   0.4000 
 13 H       -0.9680    -0.0260     0.0370 H     1 <1>   0.4000 
 14 H       -2.1370     3.9860    -0.0430 H     1 <1>   0.1500 
 15 H        2.5620     0.7680    -0.6320 H     1 <1>   0.0800 
 16 H        2.7350     1.2540     1.0270 H     1 <1>   0.0800 
 17 H       -0.1540     5.3890    -0.1170 H     1 <1>   0.1500 
 18 H        2.3200     5.4800     0.5110 H     1 <1>   0.0800 
 19 H        2.5900     4.9580    -1.1280 H     1 <1>   0.0800 
 20 H        3.7830     2.6470    -1.4340 H     1 <1>   0.0800 
 21 H        4.7020     1.9990    -0.1020 H     1 <1>   0.0800 
 22 H        3.6740     3.7100     1.3980 H     1 <1>   0.0800 
 23 H        4.5840     4.4410     0.1040 H     1 <1>   0.0800 
@<TRIPOS>BOND
  1   1   2  1   
  2   1  12  1   
  3   1  13  1   
  4   2   3  ar  
  5   2   4  ar  
  6   3   5  ar  
  7   4   6  ar  
  8   4   7  1   
  9   5   8  ar  
 10   5  14  1   
 11   6   8  ar  
 12   6   9  1   
 13   7  10  1   
 14   7  15  1   
 15   7  16  1   
 16   8  17  1   
 17   9  11  1   
 18   9  18  1   
 19   9  19  1   
 20  10  11  1   
 21  10  20  1   
 22  10  21  1   
 23  11  22  1   
 24  11  23  1   
@<TRIPOS>SUBSTRUCTURE
  1 ****   4 GROUP 4 **** **** 0

# MOE 2024.06 (io_trps.svl 2023.06)
