@<TRIPOS>MOLECULE
NONAME
46 48 1 0 0 
SMALL
USER_CHARGES


@<TRIPOS>ATOM
  1 O       -1.3410    -0.0270     0.6140 O.2   1 <1>  -0.5700 
  2 C       -2.1110     0.9110     0.7230 C.2   1 <1>   0.5440 
  3 N       -3.4300     0.6270     0.9950 N.am  1 <1>  -0.6600 
  4 C       -1.6360     2.2670     0.5410 C.ar  1 <1>   0.0860 
  5 C       -3.8090    -0.7180     1.5170 C.3   1 <1>   0.1400 
  6 C       -4.5490     1.3070     0.2790 C.3   1 <1>   0.1400 
  7 C       -2.1640     3.3230     1.2810 C.ar  1 <1>   0.1600 
  8 C       -0.6300     2.5760    -0.3650 C.ar  1 <1>  -0.1500 
  9 C       -4.1740    -1.6250     0.3180 C.3   1 <1>   0.4230 
 10 C       -4.9890     0.4200    -0.8970 C.3   1 <1>  -0.1600 
 11 N       -1.8080     4.5940     1.1840 N.ar  1 <1>  -0.6200 
 12 C       -0.2340     3.8910    -0.4870 C.ar  1 <1>  -0.1430 
 13 N       -4.4510    -3.0560     0.6810 N.4   1 <1>  -0.9590 
 14 C       -5.3740    -1.0190    -0.4450 C.3   1 <1>  -0.1060 
 15 C       -0.8520     4.8480     0.3050 C.ar  1 <1>   0.1600 
 16 C        0.8630     4.2810    -1.4630 C.3   1 <1>  -0.0970 
 17 C       -4.6760    -3.8980    -0.5210 C.3   1 <1>   0.3430 
 18 C       -3.4770    -3.6650     1.6240 C.3   1 <1>   0.2630 
 19 C       -6.5910    -0.9870     0.5010 C.2   1 <1>   0.9060 
 20 C       -5.6750    -1.8720    -1.7000 C.3   1 <1>  -0.1600 
 21 C       -5.8480    -3.3570    -1.3440 C.3   1 <1>  -0.1600 
 22 O       -6.7130    -1.8830     1.3530 O.co2 1 <1>  -0.9000 
 23 O       -7.4070    -0.0720     0.4090 O.co2 1 <1>  -0.9000 
 24 H       -2.9760    -1.1260     2.0600 H     1 <1>   0.0800 
 25 H       -4.6390    -0.6170     2.1950 H     1 <1>   0.0800 
 26 H       -5.3730     1.4610     0.9580 H     1 <1>   0.0800 
 27 H       -4.2430     2.2690    -0.0940 H     1 <1>   0.0800 
 28 H       -2.9330     3.0960     2.0000 H     1 <1>   0.1500 
 29 H       -0.1760     1.7950    -0.9510 H     1 <1>   0.1500 
 30 H       -3.3220    -1.6130    -0.3400 H     1 <1>   0.0800 
 31 H       -5.8340     0.8840    -1.3770 H     1 <1>   0.0800 
 32 H       -4.1900     0.3870    -1.6170 H     1 <1>   0.0800 
 33 H       -5.3900    -2.9590     1.1540 H     1 <1>   0.4500 
 34 H       -0.5430     5.8760     0.2130 H     1 <1>   0.1500 
 35 H        0.9310     3.5650    -2.2630 H     1 <1>   0.0800 
 36 H        1.8090     4.3180    -0.9530 H     1 <1>   0.0800 
 37 H        0.6610     5.2470    -1.8910 H     1 <1>   0.0800 
 38 H       -3.7850    -3.9060    -1.1270 H     1 <1>   0.0800 
 39 H       -4.8960    -4.9100    -0.2210 H     1 <1>   0.0800 
 40 H       -2.4870    -3.6510     1.1980 H     1 <1>   0.0800 
 41 H       -3.7550    -4.6840     1.8370 H     1 <1>   0.0800 
 42 H       -3.4660    -3.1170     2.5520 H     1 <1>   0.0800 
 43 H       -6.5750    -1.5090    -2.1700 H     1 <1>   0.0800 
 44 H       -4.8700    -1.7740    -2.4090 H     1 <1>   0.0800 
 45 H       -5.9410    -3.9320    -2.2480 H     1 <1>   0.0800 
 46 H       -6.7600    -3.4930    -0.7870 H     1 <1>   0.0800 
@<TRIPOS>BOND
  1   1   2  2   
  2   2   3  am  
  3   2   4  1   
  4   3   5  1   
  5   3   6  1   
  6   4   7  ar  
  7   4   8  ar  
  8   5   9  1   
  9   5  24  1   
 10   5  25  1   
 11   6  10  1   
 12   6  26  1   
 13   6  27  1   
 14   7  11  ar  
 15   7  28  1   
 16   8  12  ar  
 17   8  29  1   
 18   9  13  1   
 19   9  14  1   
 20   9  30  1   
 21  10  14  1   
 22  10  31  1   
 23  10  32  1   
 24  11  15  ar  
 25  12  15  ar  
 26  12  16  1   
 27  13  17  1   
 28  13  18  1   
 29  13  33  1   
 30  14  19  1   
 31  14  20  1   
 32  15  34  1   
 33  16  35  1   
 34  16  36  1   
 35  16  37  1   
 36  17  21  1   
 37  17  38  1   
 38  17  39  1   
 39  18  40  1   
 40  18  41  1   
 41  18  42  1   
 42  19  22  ar  
 43  19  23  ar  
 44  20  21  1   
 45  20  43  1   
 46  20  44  1   
 47  21  45  1   
 48  21  46  1   
@<TRIPOS>SUBSTRUCTURE
  1 ****   3 GROUP 4 **** **** 0

# MOE 2024.06 (io_trps.svl 2023.06)
