@<TRIPOS>MOLECULE
NONAME
57 59 1 0 0 
SMALL
USER_CHARGES


@<TRIPOS>ATOM
  1 O        0.5250     0.1430    -1.1900 O.3   1 <1>  -0.5600 
  2 C        1.7420    -0.5630    -1.2150 C.3   1 <1>   0.2000 
  3 C        0.6380     1.5310    -1.2920 C.3   1 <1>   0.1200 
  4 C        2.7100    -0.0640    -0.1060 C.3   1 <1>   0.5660 
  5 C        1.4430    -2.0600    -1.0310 C.3   1 <1>   0.1200 
  6 C        1.4460     2.0790    -0.1040 C.3   1 <1>   0.3430 
  7 N        2.7930     1.4280    -0.0010 N.4   1 <1>  -0.9590 
  8 C        4.1240    -0.5830    -0.3280 C.ar  1 <1>  -0.1430 
  9 O        1.1300    -2.3280     0.3000 O.3   1 <1>  -0.6800 
 10 C        3.5140     1.8450     1.2310 C.3   1 <1>   0.4870 
 11 C        4.7190    -1.3550     0.6600 C.ar  1 <1>  -0.1500 
 12 C        4.8390    -0.2960    -1.4860 C.ar  1 <1>  -0.1500 
 13 C        3.8190     3.3260     1.1100 C.ar  1 <1>  -0.1430 
 14 C        6.0120    -1.8240     0.5110 C.ar  1 <1>   0.0830 
 15 C        6.1360    -0.7540    -1.6370 C.ar  1 <1>  -0.1500 
 16 C        4.8750     3.8120     0.3370 C.ar  1 <1>  -0.1430 
 17 C        2.9910     4.2080     1.7900 C.ar  1 <1>  -0.1500 
 18 O        6.5070    -2.5890     1.5130 O.3   1 <1>  -0.3620 
 19 C        6.7390    -1.4990    -0.6390 C.ar  1 <1>   0.0830 
 20 C        5.0530     5.1900     0.2210 C.ar  1 <1>  -0.1430 
 21 C        5.8470     2.8700    -0.3790 C.3   1 <1>  -0.0970 
 22 C        3.1830     5.5700     1.6820 C.ar  1 <1>  -0.1500 
 23 C        6.8150    -3.9300     1.1970 C.3   1 <1>   0.0400 
 24 O        8.0240    -1.8780    -0.8390 O.3   1 <1>  -0.3630 
 25 C        4.2060     6.0560     0.8950 C.ar  1 <1>  -0.1500 
 26 C        6.1620     5.8030    -0.6270 C.3   1 <1>  -0.0970 
 27 C        8.9910    -1.3630     0.0510 C.3   1 <1>   0.0400 
 28 H        2.1740    -0.4170    -2.1890 H     1 <1>   0.0800 
 29 H        1.1000     1.7800    -2.2310 H     1 <1>   0.0800 
 30 H       -0.3580     1.9400    -1.2800 H     1 <1>   0.0800 
 31 H        2.3450    -0.4530     0.8310 H     1 <1>   0.0800 
 32 H        2.3030    -2.6540    -1.2920 H     1 <1>   0.0800 
 33 H        0.6120    -2.3510    -1.6510 H     1 <1>   0.0800 
 34 H        0.8830     1.9000     0.7970 H     1 <1>   0.0800 
 35 H        1.5620     3.1460    -0.2150 H     1 <1>   0.0800 
 36 H        3.3720     1.7600    -0.7780 H     1 <1>   0.4500 
 37 H        0.7100    -3.2110     0.3840 H     1 <1>   0.4000 
 38 H        2.9060     1.6610     2.1010 H     1 <1>   0.0800 
 39 H        4.4330     1.2940     1.3420 H     1 <1>   0.0800 
 40 H        4.1880    -1.6150     1.5610 H     1 <1>   0.1500 
 41 H        4.4090     0.2830    -2.2860 H     1 <1>   0.1500 
 42 H        6.6970    -0.5350    -2.5300 H     1 <1>   0.1500 
 43 H        2.1880     3.8510     2.4120 H     1 <1>   0.1500 
 44 H        6.8500     3.2530    -0.3210 H     1 <1>   0.0800 
 45 H        5.5810     2.7810    -1.4160 H     1 <1>   0.0800 
 46 H        5.8790     1.8930     0.0630 H     1 <1>   0.0800 
 47 H        2.5410     6.2550     2.2100 H     1 <1>   0.1500 
 48 H        7.0950    -4.4340     2.1050 H     1 <1>   0.0800 
 49 H        7.6320    -3.9570     0.4990 H     1 <1>   0.0800 
 50 H        5.9450    -4.3970     0.7700 H     1 <1>   0.0800 
 51 H        4.3430     7.1210     0.8160 H     1 <1>   0.1500 
 52 H        6.0190     6.8630    -0.7440 H     1 <1>   0.0800 
 53 H        6.1750     5.3640    -1.6080 H     1 <1>   0.0800 
 54 H        7.1150     5.6450    -0.1560 H     1 <1>   0.0800 
 55 H        9.9620    -1.6650    -0.2970 H     1 <1>   0.0800 
 56 H        8.8190    -1.7570     1.0360 H     1 <1>   0.0800 
 57 H        8.9200    -0.2900     0.0600 H     1 <1>   0.0800 
@<TRIPOS>BOND
  1   1   2  1   
  2   1   3  1   
  3   2   4  1   
  4   2   5  1   
  5   2  28  1   
  6   3   6  1   
  7   3  29  1   
  8   3  30  1   
  9   4   7  1   
 10   4   8  1   
 11   4  31  1   
 12   5   9  1   
 13   5  32  1   
 14   5  33  1   
 15   6   7  1   
 16   6  34  1   
 17   6  35  1   
 18   7  10  1   
 19   7  36  1   
 20   8  11  ar  
 21   8  12  ar  
 22   9  37  1   
 23  10  13  1   
 24  10  38  1   
 25  10  39  1   
 26  11  14  ar  
 27  11  40  1   
 28  12  15  ar  
 29  12  41  1   
 30  13  16  ar  
 31  13  17  ar  
 32  14  18  1   
 33  14  19  ar  
 34  15  19  ar  
 35  15  42  1   
 36  16  20  ar  
 37  16  21  1   
 38  17  22  ar  
 39  17  43  1   
 40  18  23  1   
 41  19  24  1   
 42  20  25  ar  
 43  20  26  1   
 44  21  44  1   
 45  21  45  1   
 46  21  46  1   
 47  22  25  ar  
 48  22  47  1   
 49  23  48  1   
 50  23  49  1   
 51  23  50  1   
 52  24  27  1   
 53  25  51  1   
 54  26  52  1   
 55  26  53  1   
 56  26  54  1   
 57  27  55  1   
 58  27  56  1   
 59  27  57  1   
@<TRIPOS>SUBSTRUCTURE
  1 ****   8 GROUP 4 **** **** 0

# MOE 2024.06 (io_trps.svl 2023.06)
