@<TRIPOS>MOLECULE
NONAME
53 55 1 0 0 
SMALL
USER_CHARGES


@<TRIPOS>ATOM
  1 S        0.9950    -1.3280     2.0990 S.o2  1 <1>   1.4470 
  2 O        0.8680    -0.7090     3.3960 O.2   1 <1>  -0.6500 
  3 O        1.7580    -2.5510     1.9730 O.2   1 <1>  -0.6500 
  4 N       -0.5800    -1.7390     1.6890 N.am  1 <1>  -0.9140 
  5 C        1.4670    -0.0900     0.8430 C.ar  1 <1>  -0.0090 
  6 C       -0.6960    -2.8160     0.7140 C.3   1 <1>   0.2760 
  7 C        2.7830     0.1110     0.4030 C.ar  1 <1>  -0.1430 
  8 C        0.4690     0.7130     0.3030 C.ar  1 <1>  -0.1500 
  9 C       -2.0690    -2.7810     0.0570 C.3   1 <1>  -0.0800 
 10 C       -0.7820    -4.1620     1.4320 C.3   1 <1>   0.1200 
 11 C        3.0580     1.0350    -0.6080 C.ar  1 <1>  -0.1430 
 12 C        3.9130    -0.6950     1.0520 C.3   1 <1>  -0.0970 
 13 C        0.7190     1.6410    -0.6860 C.ar  1 <1>  -0.1430 
 14 C       -2.9520    -3.5280     1.0620 C.3   1 <1>   0.1200 
 15 C       -2.5920    -1.3850    -0.3320 C.3   1 <1>  -0.0170 
 16 O       -2.0900    -4.2310     1.9100 O.3   1 <1>  -0.5600 
 17 C        2.0150     1.7780    -1.1620 C.ar  1 <1>   0.0820 
 18 C        4.4910     1.2510    -1.1050 C.3   1 <1>  -0.0970 
 19 C       -0.4280     2.4900    -1.2200 C.3   1 <1>  -0.0970 
 20 C       -3.9310    -1.4840    -1.0410 C.ar  1 <1>  -0.1430 
 21 O        2.2520     2.6610    -2.1570 O.3   1 <1>  -0.3620 
 22 C       -4.0230    -1.8160    -2.3780 C.ar  1 <1>  -0.1500 
 23 C       -5.1230    -1.2470    -0.3870 C.ar  1 <1>  -0.1500 
 24 C        2.1230     2.1670    -3.4710 C.3   1 <1>   0.0400 
 25 C       -5.2690    -1.8980    -2.9780 C.ar  1 <1>   0.1600 
 26 C       -6.3170    -1.3570    -1.0800 C.ar  1 <1>   0.1600 
 27 N       -6.4170    -1.6780    -2.3590 N.ar  1 <1>  -0.6200 
 28 H       -0.9810    -2.1030     2.5550 H     1 <1>   0.4200 
 29 H        0.0990    -2.7770    -0.0140 H     1 <1>   0.0800 
 30 H       -0.5360     0.6120     0.6720 H     1 <1>   0.1500 
 31 H       -2.0230    -3.3810    -0.8350 H     1 <1>   0.0800 
 32 H       -0.0910    -4.2600     2.2510 H     1 <1>   0.0800 
 33 H       -0.6390    -4.9740     0.7400 H     1 <1>   0.0800 
 34 H        4.8750    -0.2340     0.9380 H     1 <1>   0.0800 
 35 H        3.9570    -1.6790     0.6200 H     1 <1>   0.0800 
 36 H        3.7560    -0.7900     2.1120 H     1 <1>   0.0800 
 37 H       -3.6130    -4.2250     0.5750 H     1 <1>   0.0800 
 38 H       -3.5230    -2.8490     1.6720 H     1 <1>   0.0800 
 39 H       -1.8810    -0.9040    -0.9810 H     1 <1>   0.0800 
 40 H       -2.7010    -0.7680     0.5430 H     1 <1>   0.0800 
 41 H        5.0830     1.6910    -0.3230 H     1 <1>   0.0800 
 42 H        4.5430     1.9080    -1.9520 H     1 <1>   0.0800 
 43 H        4.9280     0.3130    -1.3950 H     1 <1>   0.0800 
 44 H       -1.2420     2.5200    -0.5190 H     1 <1>   0.0800 
 45 H       -0.7860     2.0850    -2.1480 H     1 <1>   0.0800 
 46 H       -0.0950     3.5000    -1.3860 H     1 <1>   0.0800 
 47 H       -3.1410    -2.0120    -2.9590 H     1 <1>   0.1500 
 48 H       -5.1380    -0.9800     0.6540 H     1 <1>   0.1500 
 49 H        2.3580     2.9620    -4.1540 H     1 <1>   0.0800 
 50 H        1.1120     1.8350    -3.6230 H     1 <1>   0.0800 
 51 H        2.8080     1.3480    -3.6050 H     1 <1>   0.0800 
 52 H       -5.3240    -2.1600    -4.0210 H     1 <1>   0.1500 
 53 H       -7.2390    -1.1690    -0.5560 H     1 <1>   0.1500 
@<TRIPOS>BOND
  1   1   2  2   
  2   1   3  2   
  3   1   4  am  
  4   1   5  1   
  5   4   6  1   
  6   4  28  1   
  7   5   7  ar  
  8   5   8  ar  
  9   6   9  1   
 10   6  10  1   
 11   6  29  1   
 12   7  11  ar  
 13   7  12  1   
 14   8  13  ar  
 15   8  30  1   
 16   9  14  1   
 17   9  15  1   
 18   9  31  1   
 19  10  16  1   
 20  10  32  1   
 21  10  33  1   
 22  11  17  ar  
 23  11  18  1   
 24  12  34  1   
 25  12  35  1   
 26  12  36  1   
 27  13  17  ar  
 28  13  19  1   
 29  14  16  1   
 30  14  37  1   
 31  14  38  1   
 32  15  20  1   
 33  15  39  1   
 34  15  40  1   
 35  17  21  1   
 36  18  41  1   
 37  18  42  1   
 38  18  43  1   
 39  19  44  1   
 40  19  45  1   
 41  19  46  1   
 42  20  22  ar  
 43  20  23  ar  
 44  21  24  1   
 45  22  25  ar  
 46  22  47  1   
 47  23  26  ar  
 48  23  48  1   
 49  24  49  1   
 50  24  50  1   
 51  24  51  1   
 52  25  27  ar  
 53  25  52  1   
 54  26  27  ar  
 55  26  53  1   
@<TRIPOS>SUBSTRUCTURE
  1 ****   8 GROUP 4 **** **** 0

# MOE 2024.06 (io_trps.svl 2023.06)
