@<TRIPOS>MOLECULE
NONAME
55 57 1 0 0 
SMALL
USER_CHARGES


@<TRIPOS>ATOM
  1 CL      -2.3980    -0.4810     3.0030 Cl    1 <1>  -0.1770 
  2 C       -2.5560    -1.3040     1.4720 C.ar  1 <1>   0.1770 
  3 C       -2.7430    -2.6710     1.4560 C.ar  1 <1>  -0.1500 
  4 C       -2.4890    -0.5700     0.3020 C.ar  1 <1>  -0.1500 
  5 C       -2.8700    -3.3350     0.2440 C.ar  1 <1>   0.1000 
  6 C       -2.6150    -1.2270    -0.9120 C.ar  1 <1>  -0.1500 
  7 N       -3.0590    -4.7110     0.2330 N.pl3 1 <1>  -0.8380 
  8 C       -2.8040    -2.5980    -0.9370 C.ar  1 <1>  -0.1500 
  9 C       -1.9230    -5.5360    -0.2650 C.3   1 <1>   0.2090 
 10 C       -4.4100    -5.1940    -0.1680 C.3   1 <1>   0.2090 
 11 C       -2.1310    -7.0220     0.1000 C.3   1 <1>   0.3430 
 12 C       -4.5850    -6.6860     0.1930 C.3   1 <1>   0.3430 
 13 N       -3.4740    -7.5630    -0.3570 N.4   1 <1>  -0.9590 
 14 C       -3.6120    -9.0010     0.0300 C.3   1 <1>   0.3430 
 15 C       -4.7710    -9.6770    -0.7140 C.3   1 <1>  -0.1600 
 16 C       -4.8000   -11.1770    -0.3890 C.3   1 <1>   0.3430 
 17 N       -5.9180   -11.8750    -1.0890 N.4   1 <1>  -0.9590 
 18 C       -5.6810   -13.3620    -1.0590 C.3   1 <1>   0.3430 
 19 C       -7.2710   -11.5300    -0.5070 C.3   1 <1>   0.3430 
 20 C       -5.7220   -13.9170     0.3600 C.3   1 <1>  -0.1860 
 21 C       -7.8920   -12.6360     0.3530 C.3   1 <1>  -0.1600 
 22 C       -5.9720   -15.3770     0.1640 C.2   1 <1>   0.9060 
 23 C       -6.8480   -13.3360     1.2170 C.3   1 <1>   0.2000 
 24 O       -6.9720   -15.6990    -0.4800 O.co2 1 <1>  -0.9000 
 25 O       -5.1460   -16.1700     0.6020 O.co2 1 <1>  -0.9000 
 26 O       -6.3060   -12.3880     2.0730 O.3   1 <1>  -0.6800 
 27 H       -2.7910    -3.2170     2.3780 H     1 <1>   0.1500 
 28 H       -2.3420     0.4940     0.3440 H     1 <1>   0.1500 
 29 H       -2.5660    -0.6680    -1.8310 H     1 <1>   0.1500 
 30 H       -2.9000    -3.1000    -1.8810 H     1 <1>   0.1500 
 31 H       -1.8320    -5.4250    -1.3310 H     1 <1>   0.0800 
 32 H       -1.0090    -5.1830     0.1830 H     1 <1>   0.0800 
 33 H       -5.1580    -4.6120     0.3440 H     1 <1>   0.0800 
 34 H       -4.5470    -5.0510    -1.2260 H     1 <1>   0.0800 
 35 H       -2.0530    -7.1110     1.1710 H     1 <1>   0.0800 
 36 H       -1.3330    -7.5990    -0.3370 H     1 <1>   0.0800 
 37 H       -5.5390    -7.0190    -0.1780 H     1 <1>   0.0800 
 38 H       -4.6040    -6.7620     1.2680 H     1 <1>   0.0800 
 39 H       -3.4890    -7.4730    -1.3810 H     1 <1>   0.4500 
 40 H       -2.6970    -9.5190    -0.2100 H     1 <1>   0.0800 
 41 H       -3.7640    -9.0770     1.0960 H     1 <1>   0.0800 
 42 H       -5.6980    -9.2270    -0.4090 H     1 <1>   0.0800 
 43 H       -4.6370    -9.5530    -1.7740 H     1 <1>   0.0800 
 44 H       -4.8980   -11.3200     0.6740 H     1 <1>   0.0800 
 45 H       -3.8660   -11.6240    -0.6920 H     1 <1>   0.0800 
 46 H       -5.9260   -11.6160    -2.0820 H     1 <1>   0.4500 
 47 H       -6.4540   -13.8460    -1.6370 H     1 <1>   0.0800 
 48 H       -4.7360   -13.6140    -1.5130 H     1 <1>   0.0800 
 49 H       -7.1770   -10.6530     0.1100 H     1 <1>   0.0800 
 50 H       -7.9590   -11.2980    -1.3040 H     1 <1>   0.0800 
 51 H       -4.7690   -13.8220     0.8430 H     1 <1>   0.0800 
 52 H       -8.3600   -13.3650    -0.2860 H     1 <1>   0.0800 
 53 H       -8.6670   -12.2280     0.9760 H     1 <1>   0.0800 
 54 H       -7.3120   -14.1020     1.8220 H     1 <1>   0.0800 
 55 H       -5.9290   -12.8570     2.8480 H     1 <1>   0.4000 
@<TRIPOS>BOND
  1   1   2  1   
  2   2   3  ar  
  3   2   4  ar  
  4   3   5  ar  
  5   3  27  1   
  6   4   6  ar  
  7   4  28  1   
  8   5   7  1   
  9   5   8  ar  
 10   6   8  ar  
 11   6  29  1   
 12   7   9  1   
 13   7  10  1   
 14   8  30  1   
 15   9  11  1   
 16   9  31  1   
 17   9  32  1   
 18  10  12  1   
 19  10  33  1   
 20  10  34  1   
 21  11  13  1   
 22  11  35  1   
 23  11  36  1   
 24  12  13  1   
 25  12  37  1   
 26  12  38  1   
 27  13  14  1   
 28  13  39  1   
 29  14  15  1   
 30  14  40  1   
 31  14  41  1   
 32  15  16  1   
 33  15  42  1   
 34  15  43  1   
 35  16  17  1   
 36  16  44  1   
 37  16  45  1   
 38  17  18  1   
 39  17  19  1   
 40  17  46  1   
 41  18  20  1   
 42  18  47  1   
 43  18  48  1   
 44  19  21  1   
 45  19  49  1   
 46  19  50  1   
 47  20  22  1   
 48  20  23  1   
 49  20  51  1   
 50  21  23  1   
 51  21  52  1   
 52  21  53  1   
 53  22  24  ar  
 54  22  25  ar  
 55  23  26  1   
 56  23  54  1   
 57  26  55  1   
@<TRIPOS>SUBSTRUCTURE
  1 ****  14 GROUP 4 **** **** 0

# MOE 2024.06 (io_trps.svl 2023.06)
