@<TRIPOS>MOLECULE
NONAME
50 52 1 0 0 
SMALL
USER_CHARGES


@<TRIPOS>ATOM
  1 CL      -0.0830     0.8590     1.4370 Cl    1 <1>  -0.1770 
  2 C       -1.7660     1.1100     1.0580 C.ar  1 <1>   0.1770 
  3 C       -2.1100     1.8860    -0.0330 C.ar  1 <1>  -0.1500 
  4 C       -2.7370     0.5330     1.8530 C.ar  1 <1>  -0.1500 
  5 C       -3.4470     2.0820    -0.3290 C.ar  1 <1>  -0.1500 
  6 C       -4.0710     0.7380     1.5480 C.ar  1 <1>  -0.1500 
  7 C       -4.4570     1.5110     0.4500 C.ar  1 <1>   0.0530 
  8 C       -5.8430     1.7430     0.1280 C.2   1 <1>   0.0870 
  9 O       -6.2180     2.9500    -0.2150 O.3   1 <1>  -0.0190 
 10 C       -6.9530     0.9540     0.0850 C.2   1 <1>  -0.0860 
 11 N       -7.4950     3.0370    -0.4690 N.2   1 <1>  -0.4100 
 12 C       -7.9590     1.8590    -0.2830 C.2   1 <1>   0.3720 
 13 C       -7.1090    -0.4560     0.2960 C.2   1 <1>   0.7160 
 14 N       -9.3150     1.6160    -0.4580 N.pl3 1 <1>  -0.8520 
 15 O       -6.1510    -1.1650     0.5390 O.2   1 <1>  -0.5700 
 16 N       -8.3460    -1.0160     0.2030 N.am  1 <1>  -0.7300 
 17 C      -10.1010     1.6830     0.8050 C.3   1 <1>   0.2090 
 18 C       -8.7470    -2.4300     0.1850 C.3   1 <1>   0.3000 
 19 C      -11.5680     1.3510     0.5310 C.3   1 <1>   0.1200 
 20 C       -8.2100    -3.1010    -1.0780 C.3   1 <1>  -0.1600 
 21 C      -10.2560    -2.4640    -0.0470 C.3   1 <1>  -0.1600 
 22 C       -8.3510    -3.1220     1.4890 C.3   1 <1>  -0.2400 
 23 O      -12.2440     1.2990     1.7470 O.3   1 <1>  -0.5600 
 24 C       -9.1330    -2.6420    -2.2140 C.3   1 <1>  -0.1600 
 25 C      -10.4500    -2.2190    -1.5490 C.3   1 <1>  -0.1600 
 26 C      -13.5960     0.9910     1.6300 C.3   1 <1>   0.0400 
 27 H       -1.3380     2.3260    -0.6380 H     1 <1>   0.1500 
 28 H       -2.4500    -0.0690     2.6960 H     1 <1>   0.1500 
 29 H       -3.7180     2.6850    -1.1780 H     1 <1>   0.1500 
 30 H       -4.8270     0.2900     2.1690 H     1 <1>   0.1500 
 31 H       -9.6580     2.3610    -1.0760 H     1 <1>   0.4000 
 32 H       -9.0590    -0.3860    -0.1780 H     1 <1>   0.3700 
 33 H      -10.0290     2.6740     1.2230 H     1 <1>   0.0800 
 34 H       -9.7060     0.9780     1.5170 H     1 <1>   0.0800 
 35 H      -11.6500     0.3910     0.0530 H     1 <1>   0.0800 
 36 H      -12.0170     2.1140    -0.0800 H     1 <1>   0.0800 
 37 H       -8.2990    -4.1680    -0.9700 H     1 <1>   0.0800 
 38 H       -7.1770    -2.8650    -1.2630 H     1 <1>   0.0800 
 39 H      -10.7810    -1.7560     0.5680 H     1 <1>   0.0800 
 40 H      -10.6230    -3.4490     0.1840 H     1 <1>   0.0800 
 41 H       -7.2820    -3.1740     1.5820 H     1 <1>   0.0800 
 42 H       -8.7310    -4.1270     1.5080 H     1 <1>   0.0800 
 43 H       -8.7540    -2.5880     2.3300 H     1 <1>   0.0800 
 44 H       -9.2850    -3.4330    -2.9280 H     1 <1>   0.0800 
 45 H       -8.6960    -1.7970    -2.7190 H     1 <1>   0.0800 
 46 H      -10.6240    -1.1730    -1.7340 H     1 <1>   0.0800 
 47 H      -11.2830    -2.7850    -1.9280 H     1 <1>   0.0800 
 48 H      -14.0210     0.9760     2.6180 H     1 <1>   0.0800 
 49 H      -13.7030     0.0220     1.1750 H     1 <1>   0.0800 
 50 H      -14.0830     1.7460     1.0380 H     1 <1>   0.0800 
@<TRIPOS>BOND
  1   1   2  1   
  2   2   3  ar  
  3   2   4  ar  
  4   3   5  ar  
  5   3  27  1   
  6   4   6  ar  
  7   4  28  1   
  8   5   7  ar  
  9   5  29  1   
 10   6   7  ar  
 11   6  30  1   
 12   7   8  1   
 13   8   9  1   
 14   8  10  2   
 15   9  11  1   
 16  10  12  1   
 17  10  13  1   
 18  11  12  2   
 19  12  14  1   
 20  13  15  2   
 21  13  16  am  
 22  14  17  1   
 23  14  31  1   
 24  16  18  1   
 25  16  32  1   
 26  17  19  1   
 27  17  33  1   
 28  17  34  1   
 29  18  20  1   
 30  18  21  1   
 31  18  22  1   
 32  19  23  1   
 33  19  35  1   
 34  19  36  1   
 35  20  24  1   
 36  20  37  1   
 37  20  38  1   
 38  21  25  1   
 39  21  39  1   
 40  21  40  1   
 41  22  41  1   
 42  22  42  1   
 43  22  43  1   
 44  23  26  1   
 45  24  25  1   
 46  24  44  1   
 47  24  45  1   
 48  25  46  1   
 49  25  47  1   
 50  26  48  1   
 51  26  49  1   
 52  26  50  1   
@<TRIPOS>SUBSTRUCTURE
  1 ****  10 GROUP 4 **** **** 0

# MOE 2024.06 (io_trps.svl 2023.06)
