@<TRIPOS>MOLECULE
NONAME
42 45 1 0 0 
SMALL
USER_CHARGES


@<TRIPOS>ATOM
  1 O       -0.5130    -0.0890    -0.5060 O.2   1 <1>  -0.5700 
  2 C       -1.4630     0.5170    -0.0400 C.2   1 <1>   0.7150 
  3 N       -2.4190    -0.2170     0.6190 N.am  1 <1>  -0.6600 
  4 C       -1.5360     1.9600    -0.2190 C.2   1 <1>  -0.2370 
  5 C       -3.5510     0.3860     1.3510 C.3   1 <1>   0.2350 
  6 C       -2.9520    -1.4650     0.0000 C.3   1 <1>   0.2350 
  7 N       -2.7250     2.6560    -0.3560 N.pl3 1 <1>   0.0330 
  8 C       -0.5230     2.8800    -0.3260 C.2   1 <1>  -0.1810 
  9 C       -4.7280     0.1800     0.4150 C.3   1 <1>  -0.2420 
 10 C       -4.4080    -1.1210    -0.2980 C.3   1 <1>  -0.2420 
 11 C       -2.4570     3.9830    -0.5310 C.ar  1 <1>  -0.1520 
 12 C       -1.0820     4.1580    -0.5290 C.ar  1 <1>   0.0000 
 13 C        0.9750     2.6460    -0.2460 C.3   1 <1>  -0.0590 
 14 C       -5.7740     1.1950     0.8350 C.2   1 <1>   0.9470 
 15 C       -4.6850     0.0940    -1.1070 C.3   1 <1>  -0.2000 
 16 C       -5.2710    -2.3760    -0.4210 C.2   1 <1>   0.9470 
 17 C       -3.3310     5.0600    -0.6790 C.ar  1 <1>  -0.1500 
 18 C       -0.5570     5.4450    -0.7050 C.ar  1 <1>  -0.1500 
 19 O       -5.5760     2.3540     0.4350 O.co2 1 <1>  -0.9000 
 20 O       -6.6620     0.9210     1.6450 O.co2 1 <1>  -0.9000 
 21 O       -5.9190    -2.5710    -1.4580 O.co2 1 <1>  -0.9000 
 22 O       -5.1940    -3.2360     0.4670 O.co2 1 <1>  -0.9000 
 23 C       -2.8030     6.3180    -0.8460 C.ar  1 <1>  -0.1500 
 24 C       -1.4150     6.5170    -0.8640 C.ar  1 <1>   0.0820 
 25 O       -1.0030     7.8040    -1.0400 O.3   1 <1>  -0.3630 
 26 C        0.3720     8.1140    -1.0700 C.3   1 <1>   0.0400 
 27 H       -3.7270    -0.1660     2.2580 H     1 <1>   0.0800 
 28 H       -3.3830     1.4130     1.6190 H     1 <1>   0.0800 
 29 H       -2.4260    -1.7260    -0.9010 H     1 <1>   0.0800 
 30 H       -2.8870    -2.2740     0.7080 H     1 <1>   0.0800 
 31 H       -3.6910     2.2840    -0.2490 H     1 <1>   0.2700 
 32 H        1.4220     3.3610     0.4190 H     1 <1>   0.0800 
 33 H        1.4100     2.7510    -1.2230 H     1 <1>   0.0800 
 34 H        1.1920     1.6610     0.1230 H     1 <1>   0.0800 
 35 H       -3.8950     0.5600    -1.6630 H     1 <1>   0.1000 
 36 H       -5.6210     0.1270    -1.6400 H     1 <1>   0.1000 
 37 H       -4.3940     4.8780    -0.6530 H     1 <1>   0.1500 
 38 H        0.5090     5.5500    -0.7090 H     1 <1>   0.1500 
 39 H       -3.4470     7.1690    -0.9640 H     1 <1>   0.1500 
 40 H        0.4720     9.1740    -1.2180 H     1 <1>   0.0800 
 41 H        0.8300     7.5840    -1.8870 H     1 <1>   0.0800 
 42 H        0.8120     7.8320    -0.1300 H     1 <1>   0.0800 
@<TRIPOS>BOND
  1   1   2  2   
  2   2   3  am  
  3   2   4  1   
  4   3   5  1   
  5   3   6  1   
  6   4   7  1   
  7   4   8  2   
  8   5   9  1   
  9   5  27  1   
 10   5  28  1   
 11   6  10  1   
 12   6  29  1   
 13   6  30  1   
 14   7  11  1   
 15   7  31  1   
 16   8  12  1   
 17   8  13  1   
 18   9  10  1   
 19   9  14  1   
 20   9  15  1   
 21  10  15  1   
 22  10  16  1   
 23  11  12  ar  
 24  11  17  ar  
 25  12  18  ar  
 26  13  32  1   
 27  13  33  1   
 28  13  34  1   
 29  14  19  ar  
 30  14  20  ar  
 31  15  35  1   
 32  15  36  1   
 33  16  21  ar  
 34  16  22  ar  
 35  17  23  ar  
 36  17  37  1   
 37  18  24  ar  
 38  18  38  1   
 39  23  24  ar  
 40  23  39  1   
 41  24  25  1   
 42  25  26  1   
 43  26  40  1   
 44  26  41  1   
 45  26  42  1   
@<TRIPOS>SUBSTRUCTURE
  1 ****   7 GROUP 4 **** **** 0

# MOE 2024.06 (io_trps.svl 2023.06)
