@<TRIPOS>MOLECULE
NONAME
45 46 1 0 0 
SMALL
USER_CHARGES


@<TRIPOS>ATOM
  1 CL      -1.5730    -2.2350     3.0030 Cl    1 <1>  -0.1770 
  2 C       -2.0430    -1.9560     1.3420 C.ar  1 <1>   0.1770 
  3 C       -2.4020    -3.0250     0.5260 C.ar  1 <1>   0.0820 
  4 C       -2.0500    -0.6580     0.8720 C.ar  1 <1>  -0.1500 
  5 O       -2.3530    -4.2930     0.9990 O.3   1 <1>  -0.3630 
  6 C       -2.8160    -2.7930    -0.7910 C.ar  1 <1>   0.0860 
  7 C       -2.4290    -0.4400    -0.4390 C.ar  1 <1>   0.1770 
  8 C       -1.0870    -4.9210     0.9380 C.3   1 <1>   0.0400 
  9 C       -3.2430    -3.8840    -1.6340 C.2   1 <1>   0.5440 
 10 C       -2.8050    -1.4810    -1.2650 C.ar  1 <1>  -0.1500 
 11 CL      -2.4430     1.1900    -1.0590 Cl    1 <1>  -0.1770 
 12 O       -2.5780    -4.1960    -2.6000 O.2   1 <1>  -0.5700 
 13 N       -4.3820    -4.6040    -1.3560 N.am  1 <1>  -0.6600 
 14 C       -4.3720    -6.0680    -1.6590 C.3   1 <1>   0.3200 
 15 C       -5.4860    -4.0390    -0.5100 C.3   1 <1>   0.1400 
 16 C       -4.8130    -6.8230    -0.4220 C.2   1 <1>  -0.3320 
 17 C       -6.8850    -4.4700    -0.9960 C.3   1 <1>   0.3430 
 18 N       -4.1830    -6.7230     0.7660 N.pl3 1 <1>   0.0330 
 19 C       -5.8490    -7.6680    -0.2360 C.2   1 <1>   0.0770 
 20 N       -7.9380    -4.3460     0.0710 N.4   1 <1>  -0.9590 
 21 C       -4.9080    -7.4850     1.6100 C.2   1 <1>   0.0360 
 22 N       -5.9290    -8.0510     1.0510 N.2   1 <1>  -0.5650 
 23 C       -7.7850    -5.4090     1.1230 C.3   1 <1>   0.2630 
 24 C       -9.3030    -4.4370    -0.5330 C.3   1 <1>   0.2630 
 25 H       -1.7670     0.1630     1.5060 H     1 <1>   0.1500 
 26 H       -1.1650    -5.9000     1.3770 H     1 <1>   0.0800 
 27 H       -0.3730    -4.3340     1.4890 H     1 <1>   0.0800 
 28 H       -0.7850    -5.0030    -0.0930 H     1 <1>   0.0800 
 29 H       -3.0870    -1.2770    -2.2830 H     1 <1>   0.1500 
 30 H       -3.3830    -6.3910    -1.9400 H     1 <1>   0.0800 
 31 H       -5.0320    -6.2710    -2.4850 H     1 <1>   0.0800 
 32 H       -5.4380    -2.9650    -0.5310 H     1 <1>   0.0800 
 33 H       -5.3300    -4.3550     0.5050 H     1 <1>   0.0800 
 34 H       -6.8470    -5.4940    -1.3230 H     1 <1>   0.0800 
 35 H       -7.1510    -3.8590    -1.8430 H     1 <1>   0.0800 
 36 H       -3.3510    -6.1560     0.9830 H     1 <1>   0.2700 
 37 H       -6.5630    -8.0210    -0.9640 H     1 <1>   0.1500 
 38 H       -7.8500    -3.4220     0.5220 H     1 <1>   0.4500 
 39 H       -4.6450    -7.5960     2.6490 H     1 <1>   0.1500 
 40 H       -7.9170    -6.3880     0.6930 H     1 <1>   0.0800 
 41 H       -8.5190    -5.2770     1.9020 H     1 <1>   0.0800 
 42 H       -6.8040    -5.3700     1.5690 H     1 <1>   0.0800 
 43 H       -9.4390    -5.3950    -1.0090 H     1 <1>   0.0800 
 44 H       -9.4410    -3.6620    -1.2700 H     1 <1>   0.0800 
 45 H      -10.0580    -4.3230     0.2290 H     1 <1>   0.0800 
@<TRIPOS>BOND
  1   1   2  1   
  2   2   3  ar  
  3   2   4  ar  
  4   3   5  1   
  5   3   6  ar  
  6   4   7  ar  
  7   4  25  1   
  8   5   8  1   
  9   6   9  1   
 10   6  10  ar  
 11   7  10  ar  
 12   7  11  1   
 13   8  26  1   
 14   8  27  1   
 15   8  28  1   
 16   9  12  2   
 17   9  13  am  
 18  10  29  1   
 19  13  14  1   
 20  13  15  1   
 21  14  16  1   
 22  14  30  1   
 23  14  31  1   
 24  15  17  1   
 25  15  32  1   
 26  15  33  1   
 27  16  18  1   
 28  16  19  2   
 29  17  20  1   
 30  17  34  1   
 31  17  35  1   
 32  18  21  1   
 33  18  36  1   
 34  19  22  1   
 35  19  37  1   
 36  20  23  1   
 37  20  24  1   
 38  20  38  1   
 39  21  22  2   
 40  21  39  1   
 41  23  40  1   
 42  23  41  1   
 43  23  42  1   
 44  24  43  1   
 45  24  44  1   
 46  24  45  1   
@<TRIPOS>SUBSTRUCTURE
  1 ****  13 GROUP 4 **** **** 0

# MOE 2024.06 (io_trps.svl 2023.06)
