@<TRIPOS>MOLECULE
NONAME
49 51 1 0 0 
SMALL
USER_CHARGES


@<TRIPOS>ATOM
  1 O       -0.6780    -0.5640    -1.5300 O.2   1 <1>  -0.5700 
  2 C       -1.8200    -0.4090    -1.1700 C.2   1 <1>   0.5690 
  3 N       -2.3130     0.6830    -0.5430 N.am  1 <1>  -0.6600 
  4 C       -2.8960    -1.4360    -1.3820 C.3   1 <1>  -0.0990 
  5 C       -1.5250     1.9130    -0.2720 C.3   1 <1>   0.2200 
  6 C       -3.7580     0.5580    -0.2690 C.3   1 <1>   0.1400 
  7 C       -4.0440    -0.9350    -0.4820 C.3   1 <1>  -0.0800 
  8 C       -1.6670     2.3550     1.1860 C.3   1 <1>  -0.1600 
  9 C       -2.0300     3.0870    -1.1220 C.3   1 <1>  -0.1600 
 10 C       -4.0470    -1.6570     0.8750 C.3   1 <1>   0.2090 
 11 C       -2.7130     3.4690     1.1900 C.3   1 <1>  -0.1600 
 12 C       -2.5290     4.1660    -0.1540 C.3   1 <1>  -0.1600 
 13 N       -4.4280    -3.0850     0.6970 N.pl3 1 <1>  -0.8380 
 14 C       -5.7050    -3.3850     0.2540 C.ar  1 <1>   0.4100 
 15 C       -3.7780    -4.0270     1.6450 C.3   1 <1>   0.1290 
 16 N       -6.6860    -2.7050     0.8390 N.ar  1 <1>  -0.6200 
 17 C       -5.9260    -4.3310    -0.7530 C.ar  1 <1>   0.0730 
 18 C       -7.9190    -2.9400     0.4290 C.ar  1 <1>   0.1670 
 19 C       -4.8340    -5.0360    -1.3490 C.1   1 <1>   0.4840 
 20 C       -7.2200    -4.5560    -1.1660 C.ar  1 <1>  -0.1500 
 21 C       -8.2600    -3.8430    -0.5820 C.ar  1 <1>  -0.1790 
 22 C       -8.9840    -2.1410     1.1600 C.3   1 <1>  -0.0970 
 23 N       -3.9730    -5.6150    -1.8280 N.1   1 <1>  -0.5570 
 24 C       -9.6160    -4.0680    -1.0420 C.2   1 <1>   0.9790 
 25 O       -9.9590    -5.2060    -1.4050 O.co2 1 <1>  -0.9000 
 26 O      -10.4420    -3.1430    -1.1210 O.co2 1 <1>  -0.9000 
 27 H       -2.5490    -2.4180    -1.1180 H     1 <1>   0.0800 
 28 H       -3.1880    -1.4230    -2.4150 H     1 <1>   0.0800 
 29 H       -0.4870     1.7180    -0.4910 H     1 <1>   0.0800 
 30 H       -4.3110     1.1520    -0.9760 H     1 <1>   0.0800 
 31 H       -3.9980     0.8680     0.7320 H     1 <1>   0.0800 
 32 H       -5.0040    -1.0560    -0.9520 H     1 <1>   0.0800 
 33 H       -0.7260     2.7710     1.5020 H     1 <1>   0.0800 
 34 H       -1.9180     1.5420     1.8430 H     1 <1>   0.0800 
 35 H       -2.8200     2.7760    -1.7820 H     1 <1>   0.0800 
 36 H       -1.2260     3.4770    -1.7200 H     1 <1>   0.0800 
 37 H       -4.7480    -1.1860     1.5430 H     1 <1>   0.0800 
 38 H       -3.0680    -1.5920     1.3190 H     1 <1>   0.0800 
 39 H       -2.5760     4.1460     2.0160 H     1 <1>   0.0800 
 40 H       -3.7010     3.0490     1.2450 H     1 <1>   0.0800 
 41 H       -3.4420     4.6230    -0.4970 H     1 <1>   0.0800 
 42 H       -1.7750     4.9280    -0.0560 H     1 <1>   0.0800 
 43 H       -2.7400    -4.1450     1.3830 H     1 <1>   0.0800 
 44 H       -4.2580    -4.9890     1.6040 H     1 <1>   0.0800 
 45 H       -3.8530    -3.6470     2.6490 H     1 <1>   0.0800 
 46 H       -7.4450    -5.2750    -1.9370 H     1 <1>   0.1500 
 47 H       -8.5870    -1.7060     2.0580 H     1 <1>   0.0800 
 48 H       -9.8090    -2.7780     1.4250 H     1 <1>   0.0800 
 49 H       -9.3450    -1.3570     0.5210 H     1 <1>   0.0800 
@<TRIPOS>BOND
  1   1   2  2   
  2   2   3  am  
  3   2   4  1   
  4   3   5  1   
  5   3   6  1   
  6   4   7  1   
  7   4  27  1   
  8   4  28  1   
  9   5   8  1   
 10   5   9  1   
 11   5  29  1   
 12   6   7  1   
 13   6  30  1   
 14   6  31  1   
 15   7  10  1   
 16   7  32  1   
 17   8  11  1   
 18   8  33  1   
 19   8  34  1   
 20   9  12  1   
 21   9  35  1   
 22   9  36  1   
 23  10  13  1   
 24  10  37  1   
 25  10  38  1   
 26  11  12  1   
 27  11  39  1   
 28  11  40  1   
 29  12  41  1   
 30  12  42  1   
 31  13  14  1   
 32  13  15  1   
 33  14  16  ar  
 34  14  17  ar  
 35  15  43  1   
 36  15  44  1   
 37  15  45  1   
 38  16  18  ar  
 39  17  19  1   
 40  17  20  ar  
 41  18  21  ar  
 42  18  22  1   
 43  19  23  3   
 44  20  21  ar  
 45  20  46  1   
 46  21  24  1   
 47  22  47  1   
 48  22  48  1   
 49  22  49  1   
 50  24  25  ar  
 51  24  26  ar  
@<TRIPOS>SUBSTRUCTURE
  1 ****   7 GROUP 4 **** **** 0

# MOE 2024.06 (io_trps.svl 2023.06)
