@<TRIPOS>MOLECULE
NONAME
54 57 1 0 0 
SMALL
USER_CHARGES


@<TRIPOS>ATOM
  1 O       -2.0580     0.4280    -2.5750 O.2   1 <1>  -0.5700 
  2 C       -1.9520     0.7780    -1.4150 C.2   1 <1>   0.5440 
  3 N       -1.9090    -0.1990    -0.4610 N.am  1 <1>  -0.7300 
  4 C       -1.8830     2.1830    -1.0580 C.ar  1 <1>   0.0860 
  5 C       -1.9630    -1.6570    -0.7210 C.3   1 <1>   0.2200 
  6 C       -1.5700     3.1530    -2.0140 C.ar  1 <1>  -0.1500 
  7 C       -2.1260     2.6400     0.2430 C.ar  1 <1>  -0.1500 
  8 C       -3.3390    -2.2250    -0.3990 C.3   1 <1>  -0.0800 
  9 C       -1.1170    -2.3730     0.3230 C.3   1 <1>   0.1200 
 10 C       -1.4960     4.4940    -1.6940 C.ar  1 <1>  -0.1500 
 11 C       -2.0500     3.9800     0.5640 C.ar  1 <1>  -0.1500 
 12 C       -3.2670    -2.4690     1.1130 C.3   1 <1>   0.1200 
 13 C       -4.5400    -1.3720    -0.8480 C.3   1 <1>  -0.0160 
 14 O       -1.9140    -2.4180     1.4680 O.3   1 <1>  -0.5600 
 15 C       -1.7330     4.9330    -0.3960 C.ar  1 <1>   0.1000 
 16 C       -5.8520    -2.0790    -0.5440 C.ar  1 <1>  -0.1430 
 17 N       -1.6620     6.2740    -0.0500 N.pl3 1 <1>  -0.8380 
 18 C       -6.3480    -3.0710    -1.3650 C.ar  1 <1>  -0.1500 
 19 C       -6.6130    -1.7690     0.5650 C.ar  1 <1>  -0.1500 
 20 C       -0.6050     7.1570    -0.6050 C.3   1 <1>   0.2090 
 21 C       -2.8790     6.9760     0.4310 C.3   1 <1>   0.2090 
 22 C       -7.5430    -3.6930    -1.0440 C.ar  1 <1>   0.1600 
 23 C       -7.7960    -2.4520     0.7960 C.ar  1 <1>   0.1600 
 24 C       -0.1950     8.1820     0.4560 C.3   1 <1>  -0.1600 
 25 C       -2.4840     7.9970     1.5020 C.3   1 <1>  -0.1600 
 26 N       -8.2780    -3.4090     0.0190 N.ar  1 <1>  -0.6200 
 27 C       -1.4030     8.9640     0.9940 C.3   1 <1>  -0.1600 
 28 H       -1.7850     0.0400     0.5240 H     1 <1>   0.3700 
 29 H       -1.6450    -1.8790    -1.7260 H     1 <1>   0.0800 
 30 H       -1.3840     2.8410    -3.0270 H     1 <1>   0.1500 
 31 H       -2.3820     1.9410     1.0170 H     1 <1>   0.1500 
 32 H       -3.4150    -3.1870    -0.8750 H     1 <1>   0.0800 
 33 H       -0.1960    -1.8600     0.5390 H     1 <1>   0.0800 
 34 H       -0.9130    -3.3850     0.0210 H     1 <1>   0.0800 
 35 H       -1.2600     5.2130    -2.4550 H     1 <1>   0.1500 
 36 H       -2.2300     4.3110     1.5700 H     1 <1>   0.1500 
 37 H       -3.6650    -3.4320     1.3810 H     1 <1>   0.0800 
 38 H       -3.7760    -1.6980     1.6650 H     1 <1>   0.0800 
 39 H       -4.4700    -1.1880    -1.9070 H     1 <1>   0.0800 
 40 H       -4.5300    -0.4160    -0.3560 H     1 <1>   0.0800 
 41 H       -5.8160    -3.3660    -2.2520 H     1 <1>   0.1500 
 42 H       -6.2990    -1.0040     1.2510 H     1 <1>   0.1500 
 43 H        0.2490     6.5660    -0.8900 H     1 <1>   0.0800 
 44 H       -0.9850     7.6600    -1.4780 H     1 <1>   0.0800 
 45 H       -3.3470     7.4770    -0.4000 H     1 <1>   0.0800 
 46 H       -3.5800     6.2670     0.8360 H     1 <1>   0.0800 
 47 H       -7.9140    -4.4640    -1.6960 H     1 <1>   0.1500 
 48 H       -8.3760    -2.1980     1.6660 H     1 <1>   0.1500 
 49 H        0.2850     7.6590     1.2650 H     1 <1>   0.0800 
 50 H        0.5210     8.8640     0.0340 H     1 <1>   0.0800 
 51 H       -3.3540     8.5510     1.8050 H     1 <1>   0.0800 
 52 H       -2.1160     7.4640     2.3620 H     1 <1>   0.0800 
 53 H       -1.8120     9.5740     0.2060 H     1 <1>   0.0800 
 54 H       -1.0910     9.6140     1.7930 H     1 <1>   0.0800 
@<TRIPOS>BOND
  1   1   2  2   
  2   2   3  am  
  3   2   4  1   
  4   3   5  1   
  5   3  28  1   
  6   4   6  ar  
  7   4   7  ar  
  8   5   8  1   
  9   5   9  1   
 10   5  29  1   
 11   6  10  ar  
 12   6  30  1   
 13   7  11  ar  
 14   7  31  1   
 15   8  12  1   
 16   8  13  1   
 17   8  32  1   
 18   9  14  1   
 19   9  33  1   
 20   9  34  1   
 21  10  15  ar  
 22  10  35  1   
 23  11  15  ar  
 24  11  36  1   
 25  12  14  1   
 26  12  37  1   
 27  12  38  1   
 28  13  16  1   
 29  13  39  1   
 30  13  40  1   
 31  15  17  1   
 32  16  18  ar  
 33  16  19  ar  
 34  17  20  1   
 35  17  21  1   
 36  18  22  ar  
 37  18  41  1   
 38  19  23  ar  
 39  19  42  1   
 40  20  24  1   
 41  20  43  1   
 42  20  44  1   
 43  21  25  1   
 44  21  45  1   
 45  21  46  1   
 46  22  26  ar  
 47  22  47  1   
 48  23  26  ar  
 49  23  48  1   
 50  24  27  1   
 51  24  49  1   
 52  24  50  1   
 53  25  27  1   
 54  25  51  1   
 55  25  52  1   
 56  27  53  1   
 57  27  54  1   
@<TRIPOS>SUBSTRUCTURE
  1 ****   7 GROUP 4 **** **** 0

# MOE 2024.06 (io_trps.svl 2023.06)
