@<TRIPOS>MOLECULE
NONAME
51 53 1 0 0 
SMALL
USER_CHARGES


@<TRIPOS>ATOM
  1 O       -1.8710     1.1070    -3.1450 O.2   1 <1>  -0.5700 
  2 C       -1.9500     1.2970    -1.9450 C.2   1 <1>   0.5440 
  3 N       -2.2800     0.2330    -1.1620 N.am  1 <1>  -0.7300 
  4 C       -1.6900     2.6090    -1.3750 C.ar  1 <1>   0.0860 
  5 C       -2.2980    -1.1830    -1.5880 C.3   1 <1>   0.2200 
  6 C       -1.3370     2.8250    -0.0290 C.ar  1 <1>   0.0820 
  7 C       -1.7840     3.7380    -2.1950 C.ar  1 <1>  -0.1500 
  8 C       -3.2680    -1.9920    -0.7400 C.3   1 <1>  -0.0800 
  9 C       -0.9770    -1.8290    -1.1930 C.3   1 <1>   0.1200 
 10 O       -1.2290     1.7750     0.8260 O.3   1 <1>  -0.3630 
 11 C       -1.1060     4.1110     0.4620 C.ar  1 <1>   0.0820 
 12 C       -1.5730     5.0140    -1.7140 C.ar  1 <1>  -0.1500 
 13 C       -2.4370    -2.3330     0.5030 C.3   1 <1>   0.1200 
 14 C       -4.6170    -1.3150    -0.4340 C.3   1 <1>  -0.0160 
 15 O       -1.0960    -2.1150     0.1690 O.3   1 <1>  -0.5600 
 16 C        0.0540     1.2110     0.9880 C.3   1 <1>   0.0400 
 17 O       -0.7350     4.2580     1.7680 O.3   1 <1>  -0.3630 
 18 C       -1.2570     5.2130    -0.3820 C.ar  1 <1>   0.0820 
 19 C       -5.5260    -2.2500     0.3500 C.ar  1 <1>  -0.1440 
 20 C        0.5400     4.8160     2.0080 C.3   1 <1>   0.0400 
 21 O       -1.1160     6.4930     0.0320 O.3   1 <1>  -0.3620 
 22 C       -6.2410    -3.2550    -0.2690 C.ar  1 <1>  -0.1500 
 23 C       -5.6820    -2.1440     1.7170 C.ar  1 <1>  -0.1500 
 24 C       -2.0810     6.9750     0.9420 C.3   1 <1>   0.0400 
 25 C       -7.0510    -4.0850     0.4870 C.ar  1 <1>   0.1600 
 26 C       -6.5180    -3.0270     2.3810 C.ar  1 <1>   0.1600 
 27 N       -7.2050    -3.9970     1.7990 N.ar  1 <1>  -0.6200 
 28 H       -2.1460     0.3640    -0.1520 H     1 <1>   0.3700 
 29 H       -2.4940    -1.2620    -2.6440 H     1 <1>   0.0800 
 30 H       -2.0340     3.6060    -3.2350 H     1 <1>   0.1500 
 31 H       -3.4640    -2.9150    -1.2580 H     1 <1>   0.0800 
 32 H       -0.1330    -1.1830    -1.3600 H     1 <1>   0.0800 
 33 H       -0.8360    -2.7590    -1.7150 H     1 <1>   0.0800 
 34 H       -1.6610     5.8650    -2.3660 H     1 <1>   0.1500 
 35 H       -2.5630    -3.3610     0.7980 H     1 <1>   0.0800 
 36 H       -2.6740    -1.6860     1.3290 H     1 <1>   0.0800 
 37 H       -5.0970    -1.0430    -1.3580 H     1 <1>   0.0800 
 38 H       -4.4670    -0.4110     0.1290 H     1 <1>   0.0800 
 39 H       -0.0430     0.3210     1.5850 H     1 <1>   0.0800 
 40 H        0.6870     1.9220     1.4870 H     1 <1>   0.0800 
 41 H        0.4550     0.9610     0.0220 H     1 <1>   0.0800 
 42 H        0.7780     4.6700     3.0460 H     1 <1>   0.0800 
 43 H        0.5190     5.8670     1.7850 H     1 <1>   0.0800 
 44 H        1.2640     4.3170     1.3890 H     1 <1>   0.0800 
 45 H       -6.1770    -3.4000    -1.3320 H     1 <1>   0.1500 
 46 H       -5.1640    -1.3850     2.2730 H     1 <1>   0.1500 
 47 H       -1.8830     8.0160     1.1210 H     1 <1>   0.0800 
 48 H       -2.0110     6.4250     1.8630 H     1 <1>   0.0800 
 49 H       -3.0570     6.8540     0.5080 H     1 <1>   0.0800 
 50 H       -7.6010    -4.8640    -0.0120 H     1 <1>   0.1500 
 51 H       -6.6280    -2.9300     3.4470 H     1 <1>   0.1500 
@<TRIPOS>BOND
  1   1   2  2   
  2   2   3  am  
  3   2   4  1   
  4   3   5  1   
  5   3  28  1   
  6   4   6  ar  
  7   4   7  ar  
  8   5   8  1   
  9   5   9  1   
 10   5  29  1   
 11   6  10  1   
 12   6  11  ar  
 13   7  12  ar  
 14   7  30  1   
 15   8  13  1   
 16   8  14  1   
 17   8  31  1   
 18   9  15  1   
 19   9  32  1   
 20   9  33  1   
 21  10  16  1   
 22  11  17  1   
 23  11  18  ar  
 24  12  18  ar  
 25  12  34  1   
 26  13  15  1   
 27  13  35  1   
 28  13  36  1   
 29  14  19  1   
 30  14  37  1   
 31  14  38  1   
 32  16  39  1   
 33  16  40  1   
 34  16  41  1   
 35  17  20  1   
 36  18  21  1   
 37  19  22  ar  
 38  19  23  ar  
 39  20  42  1   
 40  20  43  1   
 41  20  44  1   
 42  21  24  1   
 43  22  25  ar  
 44  22  45  1   
 45  23  26  ar  
 46  23  46  1   
 47  24  47  1   
 48  24  48  1   
 49  24  49  1   
 50  25  27  ar  
 51  25  50  1   
 52  26  27  ar  
 53  26  51  1   
@<TRIPOS>SUBSTRUCTURE
  1 ****   3 GROUP 4 **** **** 0

# MOE 2024.06 (io_trps.svl 2023.06)
