@<TRIPOS>MOLECULE
NONAME
48 51 1 0 0 
SMALL
USER_CHARGES


@<TRIPOS>ATOM
  1 O       -0.2790    -0.9540     0.5530 O.2   1 <1>  -0.5700 
  2 C       -1.4410    -0.6100     0.4140 C.2   1 <1>   0.7160 
  3 N       -1.6840     0.7130     0.1220 N.am  1 <1>  -0.7300 
  4 C       -2.5630    -1.5460     0.5490 C.2   1 <1>   0.4300 
  5 C       -0.6690     1.7830    -0.0530 C.3   1 <1>   0.0600 
  6 N       -3.8090    -1.2100     0.4590 N.2   1 <1>  -0.4100 
  7 N       -2.4360    -2.8630     0.7840 N.2   1 <1>  -0.5650 
  8 O       -4.5240    -2.2750     0.6210 O.3   1 <1>  -0.0190 
  9 C       -3.6510    -3.2310     0.8050 C.2   1 <1>   0.2980 
 10 C       -4.1460    -4.6540     1.0470 C.3   1 <1>   0.2900 
 11 N       -4.8680    -5.2380    -0.1090 N.3   1 <1>  -0.8100 
 12 C       -6.2120    -4.6730    -0.3640 C.3   1 <1>   0.1100 
 13 C       -4.9860    -6.7010    -0.0450 C.3   1 <1>   0.1100 
 14 C       -7.1940    -5.8440    -0.3420 C.3   1 <1>   0.2000 
 15 C       -6.3170    -7.0360    -0.7200 C.3   1 <1>  -0.0800 
 16 O       -7.6630    -5.9910     0.9560 O.3   1 <1>  -0.6800 
 17 C       -6.8860    -8.4200    -0.3390 C.3   1 <1>  -0.0170 
 18 C       -6.0360    -9.6330    -0.7390 C.ar  1 <1>  -0.1440 
 19 C       -6.2740   -10.8960    -0.1420 C.ar  1 <1>   0.0000 
 20 C       -5.0380    -9.5700    -1.6730 C.ar  1 <1>  -0.1500 
 21 C       -5.4350   -11.9760    -0.5140 C.ar  1 <1>   0.3100 
 22 C       -7.3000   -11.1580     0.7980 C.ar  1 <1>  -0.1500 
 23 C       -4.2760   -10.7030    -1.9780 C.ar  1 <1>   0.1600 
 24 N       -4.4420   -11.8630    -1.4300 N.ar  1 <1>  -0.6200 
 25 C       -5.6340   -13.2330     0.0800 C.ar  1 <1>  -0.1500 
 26 C       -7.4700   -12.3960     1.3560 C.ar  1 <1>  -0.1500 
 27 C       -6.6250   -13.4480     0.9980 C.ar  1 <1>  -0.1500 
 28 H       -2.6650     0.9870     0.0090 H     1 <1>   0.3700 
 29 H        0.3240     1.3880     0.0840 H     1 <1>   0.0800 
 30 H       -0.8340     2.5630     0.6690 H     1 <1>   0.0800 
 31 H       -0.7430     2.1950    -1.0450 H     1 <1>   0.0800 
 32 H       -4.7780    -4.6660     1.9170 H     1 <1>   0.0800 
 33 H       -3.2820    -5.2610     1.2550 H     1 <1>   0.0800 
 34 H       -6.4930    -3.9170     0.3490 H     1 <1>   0.0800 
 35 H       -6.2070    -4.2330    -1.3470 H     1 <1>   0.0800 
 36 H       -4.1510    -7.1650    -0.5400 H     1 <1>   0.0800 
 37 H       -5.0090    -7.0280     0.9820 H     1 <1>   0.0800 
 38 H       -8.0360    -5.7030    -0.9970 H     1 <1>   0.0800 
 39 H       -6.1760    -6.9950    -1.7850 H     1 <1>   0.0800 
 40 H       -6.9020    -5.9950     1.5660 H     1 <1>   0.4000 
 41 H       -7.8620    -8.5270    -0.7790 H     1 <1>   0.0800 
 42 H       -7.0100    -8.4370     0.7290 H     1 <1>   0.0800 
 43 H       -4.7940    -8.6710    -2.2050 H     1 <1>   0.1500 
 44 H       -7.9720   -10.3720     1.0850 H     1 <1>   0.1500 
 45 H       -3.4980   -10.6010    -2.7160 H     1 <1>   0.1500 
 46 H       -4.9740   -14.0280    -0.2160 H     1 <1>   0.1500 
 47 H       -8.2530   -12.5750     2.0720 H     1 <1>   0.1500 
 48 H       -6.7660   -14.4170     1.4450 H     1 <1>   0.1500 
@<TRIPOS>BOND
  1   1   2  2   
  2   2   3  am  
  3   2   4  1   
  4   3   5  1   
  5   3  28  1   
  6   4   6  2   
  7   4   7  1   
  8   5  29  1   
  9   5  30  1   
 10   5  31  1   
 11   6   8  1   
 12   7   9  2   
 13   8   9  1   
 14   9  10  1   
 15  10  11  1   
 16  10  32  1   
 17  10  33  1   
 18  11  12  1   
 19  11  13  1   
 20  12  14  1   
 21  12  34  1   
 22  12  35  1   
 23  13  15  1   
 24  13  36  1   
 25  13  37  1   
 26  14  15  1   
 27  14  16  1   
 28  14  38  1   
 29  15  17  1   
 30  15  39  1   
 31  16  40  1   
 32  17  18  1   
 33  17  41  1   
 34  17  42  1   
 35  18  19  ar  
 36  18  20  ar  
 37  19  21  ar  
 38  19  22  ar  
 39  20  23  ar  
 40  20  43  1   
 41  21  24  ar  
 42  21  25  ar  
 43  22  26  ar  
 44  22  44  1   
 45  23  24  ar  
 46  23  45  1   
 47  25  27  ar  
 48  25  46  1   
 49  26  27  ar  
 50  26  47  1   
 51  27  48  1   
@<TRIPOS>SUBSTRUCTURE
  1 ****  13 GROUP 4 **** **** 0

# MOE 2024.06 (io_trps.svl 2023.06)
