@<TRIPOS>MOLECULE
NONAME
50 52 1 0 0 
SMALL
USER_CHARGES


@<TRIPOS>ATOM
  1 O       -3.9950    -2.9100     0.6390 O.co2 1 <1>  -0.9000 
  2 C       -4.1380    -2.3090    -0.4290 C.2   1 <1>   0.9060 
  3 O       -4.5580    -2.9000    -1.4330 O.co2 1 <1>  -0.9000 
  4 C       -4.0780    -0.7920    -0.4430 C.3   1 <1>   0.0140 
  5 O       -5.3170    -0.2300    -0.8880 O.3   1 <1>  -0.3630 
  6 C       -6.1870     0.2660     0.0180 C.ar  1 <1>   0.0830 
  7 C       -6.9830    -0.5410     0.8340 C.ar  1 <1>  -0.1440 
  8 C       -6.3070     1.6450     0.0720 C.ar  1 <1>  -0.1500 
  9 C       -7.8830     0.0670     1.6990 C.ar  1 <1>  -0.1500 
 10 C       -6.9270    -2.0640     0.8400 C.3   1 <1>   0.4870 
 11 C       -7.2070     2.2370     0.9390 C.ar  1 <1>  -0.1500 
 12 C       -7.9960     1.4450     1.7540 C.ar  1 <1>  -0.1500 
 13 N       -7.1000    -2.6470    -0.5160 N.4   1 <1>  -0.9590 
 14 C       -8.2750    -2.1440    -1.2550 C.3   1 <1>   0.3430 
 15 C       -7.2090    -4.1210    -0.4380 C.3   1 <1>   0.3430 
 16 C       -9.3900    -3.1330    -0.9080 C.3   1 <1>   0.2000 
 17 C       -8.6430    -4.4710    -0.8580 C.3   1 <1>  -0.0800 
 18 O       -9.9000    -2.8470     0.3680 O.3   1 <1>  -0.5600 
 19 C       -9.2790    -5.5400     0.0480 C.3   1 <1>   0.0200 
 20 C      -10.8530    -1.8300     0.4100 C.3   1 <1>   0.0400 
 21 C       -8.4940    -6.8330    -0.0280 C.2   1 <1>  -0.0400 
 22 O       -8.4600    -7.5080    -1.1450 O.3   1 <1>  -0.0190 
 23 C       -7.7530    -7.4920     0.8760 C.2   1 <1>  -0.1500 
 24 N       -7.7330    -8.5820    -1.0400 N.2   1 <1>  -0.4100 
 25 C       -7.2930    -8.5980     0.1670 C.2   1 <1>   0.1080 
 26 C       -6.3940    -9.6760     0.7290 C.3   1 <1>  -0.0590 
 27 H       -3.3130    -0.4860    -1.1280 H     1 <1>   0.0800 
 28 H       -3.8530    -0.4250     0.5400 H     1 <1>   0.0800 
 29 H       -5.6920     2.2500    -0.5700 H     1 <1>   0.1500 
 30 H       -8.5060    -0.5310     2.3430 H     1 <1>   0.1500 
 31 H       -7.7160    -2.4310     1.4740 H     1 <1>   0.0800 
 32 H       -5.9950    -2.3880     1.2680 H     1 <1>   0.0800 
 33 H       -7.2920     3.3090     0.9790 H     1 <1>   0.1500 
 34 H       -8.6950     1.9040     2.4320 H     1 <1>   0.1500 
 35 H       -6.2040    -2.4630    -1.0360 H     1 <1>   0.4500 
 36 H       -8.5260    -1.1320    -0.9870 H     1 <1>   0.0800 
 37 H       -8.0690    -2.1910    -2.3110 H     1 <1>   0.0800 
 38 H       -6.4930    -4.5790    -1.1050 H     1 <1>   0.0800 
 39 H       -7.0030    -4.4600     0.5640 H     1 <1>   0.0800 
 40 H      -10.1930    -3.1380    -1.6260 H     1 <1>   0.0800 
 41 H       -8.5890    -4.8590    -1.8600 H     1 <1>   0.0800 
 42 H      -10.2930    -5.7270    -0.2600 H     1 <1>   0.0800 
 43 H       -9.2980    -5.2040     1.0700 H     1 <1>   0.0800 
 44 H      -11.1830    -1.7220     1.4290 H     1 <1>   0.0800 
 45 H      -11.6920    -2.0980    -0.2100 H     1 <1>   0.0800 
 46 H      -10.4150    -0.9050     0.0770 H     1 <1>   0.0800 
 47 H       -7.5370    -7.2580     1.9020 H     1 <1>   0.1500 
 48 H       -6.8420   -10.1080     1.6050 H     1 <1>   0.0800 
 49 H       -5.4400    -9.2550     0.9890 H     1 <1>   0.0800 
 50 H       -6.2450   -10.4490    -0.0030 H     1 <1>   0.0800 
@<TRIPOS>BOND
  1   1   2  ar  
  2   2   3  ar  
  3   2   4  1   
  4   4   5  1   
  5   4  27  1   
  6   4  28  1   
  7   5   6  1   
  8   6   7  ar  
  9   6   8  ar  
 10   7   9  ar  
 11   7  10  1   
 12   8  11  ar  
 13   8  29  1   
 14   9  12  ar  
 15   9  30  1   
 16  10  13  1   
 17  10  31  1   
 18  10  32  1   
 19  11  12  ar  
 20  11  33  1   
 21  12  34  1   
 22  13  14  1   
 23  13  15  1   
 24  13  35  1   
 25  14  16  1   
 26  14  36  1   
 27  14  37  1   
 28  15  17  1   
 29  15  38  1   
 30  15  39  1   
 31  16  17  1   
 32  16  18  1   
 33  16  40  1   
 34  17  19  1   
 35  17  41  1   
 36  18  20  1   
 37  19  21  1   
 38  19  42  1   
 39  19  43  1   
 40  20  44  1   
 41  20  45  1   
 42  20  46  1   
 43  21  22  1   
 44  21  23  2   
 45  22  24  1   
 46  23  25  1   
 47  23  47  1   
 48  24  25  2   
 49  25  26  1   
 50  26  48  1   
 51  26  49  1   
 52  26  50  1   
@<TRIPOS>SUBSTRUCTURE
  1 ****  13 GROUP 4 **** **** 0

# MOE 2024.06 (io_trps.svl 2023.06)
