@<TRIPOS>MOLECULE
NONAME
56 59 1 0 0 
SMALL
USER_CHARGES


@<TRIPOS>ATOM
  1 O       -4.2400     2.7170    -0.8330 O.2   1 <1>  -0.5700 
  2 C       -3.0380     2.5790    -0.8830 C.2   1 <1>   0.5690 
  3 N       -2.4990     1.4940    -1.5010 N.am  1 <1>  -0.7300 
  4 C       -2.0740     3.6020    -0.2320 C.3   1 <1>   0.2040 
  5 C       -3.2530     0.3360    -2.0190 C.3   1 <1>   0.2200 
  6 C       -0.8380     2.8370     0.2930 C.ar  1 <1>  -0.1440 
  7 C       -1.7270     4.7130    -1.2410 C.3   1 <1>  -0.1600 
  8 C       -2.7470     4.4170     0.8920 C.3   1 <1>  -0.1600 
  9 C       -3.2040    -0.7750    -0.9850 C.3   1 <1>  -0.0800 
 10 C       -2.4950    -0.2870    -3.1890 C.3   1 <1>   0.1200 
 11 C        0.3660     2.7980    -0.4040 C.ar  1 <1>  -0.1500 
 12 C       -0.9370     2.1120     1.4750 C.ar  1 <1>  -0.1500 
 13 C       -2.8980     5.6940    -1.1960 C.3   1 <1>  -0.1600 
 14 C       -3.4570     5.6020     0.2250 C.3   1 <1>  -0.1600 
 15 C       -1.8440    -1.4130    -1.2810 C.3   1 <1>   0.1200 
 16 C       -4.3680    -1.7670    -1.1650 C.3   1 <1>  -0.0170 
 17 O       -1.5830    -1.1940    -2.6370 O.3   1 <1>  -0.5600 
 18 C        1.4410     2.0650     0.0690 C.ar  1 <1>  -0.1500 
 19 C        0.1350     1.3790     1.9510 C.ar  1 <1>  -0.1500 
 20 C       -4.3360    -2.8590    -0.1070 C.ar  1 <1>  -0.1430 
 21 C        1.3300     1.3480     1.2540 C.ar  1 <1>   0.0820 
 22 C       -3.9200    -4.1450    -0.3900 C.ar  1 <1>  -0.1500 
 23 C       -4.7240    -2.6180     1.1950 C.ar  1 <1>  -0.1500 
 24 O        2.3300     0.6020     1.7850 O.3   1 <1>  -0.3630 
 25 C       -3.9100    -5.0980     0.6150 C.ar  1 <1>   0.1600 
 26 C       -4.6760    -3.6430     2.1260 C.ar  1 <1>   0.1600 
 27 C        3.5850     0.5010     1.1510 C.3   1 <1>   0.0400 
 28 N       -4.2780    -4.8780     1.8670 N.ar  1 <1>  -0.6200 
 29 H       -1.4890     1.3420    -1.4180 H     1 <1>   0.3700 
 30 H       -4.2540     0.6320    -2.2870 H     1 <1>   0.0800 
 31 H       -0.8430     5.2320    -0.9130 H     1 <1>   0.0800 
 32 H       -1.5680     4.3290    -2.2330 H     1 <1>   0.0800 
 33 H       -3.4350     3.8210     1.4660 H     1 <1>   0.0800 
 34 H       -1.9880     4.8000     1.5520 H     1 <1>   0.0800 
 35 H       -3.2360    -0.3800     0.0150 H     1 <1>   0.0800 
 36 H       -1.9680     0.4440    -3.7760 H     1 <1>   0.0800 
 37 H       -3.1640    -0.8450    -3.8190 H     1 <1>   0.0800 
 38 H        0.4890     3.3300    -1.3300 H     1 <1>   0.1500 
 39 H       -1.8550     2.1030     2.0360 H     1 <1>   0.1500 
 40 H       -2.5870     6.6950    -1.4410 H     1 <1>   0.0800 
 41 H       -3.6560     5.3820    -1.8960 H     1 <1>   0.0800 
 42 H       -4.5200     5.4260     0.1860 H     1 <1>   0.0800 
 43 H       -3.2740     6.5090     0.7750 H     1 <1>   0.0800 
 44 H       -1.8150    -2.4690    -1.0810 H     1 <1>   0.0800 
 45 H       -1.0680    -0.9230    -0.7180 H     1 <1>   0.0800 
 46 H       -4.3330    -2.2130    -2.1440 H     1 <1>   0.0800 
 47 H       -5.3020    -1.2380    -1.0830 H     1 <1>   0.0800 
 48 H        2.3520     2.0630    -0.4980 H     1 <1>   0.1500 
 49 H        0.0510     0.8220     2.8670 H     1 <1>   0.1500 
 50 H       -3.6020    -4.4140    -1.3800 H     1 <1>   0.1500 
 51 H       -5.0630    -1.6430     1.4950 H     1 <1>   0.1500 
 52 H       -3.5810    -6.0950     0.3760 H     1 <1>   0.1500 
 53 H       -4.9810    -3.4350     3.1370 H     1 <1>   0.1500 
 54 H        4.2110    -0.1360     1.7490 H     1 <1>   0.0800 
 55 H        4.0210     1.4820     1.0820 H     1 <1>   0.0800 
 56 H        3.4500     0.0690     0.1750 H     1 <1>   0.0800 
@<TRIPOS>BOND
  1   1   2  2   
  2   2   3  am  
  3   2   4  1   
  4   3   5  1   
  5   3  29  1   
  6   4   6  1   
  7   4   7  1   
  8   4   8  1   
  9   5   9  1   
 10   5  10  1   
 11   5  30  1   
 12   6  11  ar  
 13   6  12  ar  
 14   7  13  1   
 15   7  31  1   
 16   7  32  1   
 17   8  14  1   
 18   8  33  1   
 19   8  34  1   
 20   9  15  1   
 21   9  16  1   
 22   9  35  1   
 23  10  17  1   
 24  10  36  1   
 25  10  37  1   
 26  11  18  ar  
 27  11  38  1   
 28  12  19  ar  
 29  12  39  1   
 30  13  14  1   
 31  13  40  1   
 32  13  41  1   
 33  14  42  1   
 34  14  43  1   
 35  15  17  1   
 36  15  44  1   
 37  15  45  1   
 38  16  20  1   
 39  16  46  1   
 40  16  47  1   
 41  18  21  ar  
 42  18  48  1   
 43  19  21  ar  
 44  19  49  1   
 45  20  22  ar  
 46  20  23  ar  
 47  21  24  1   
 48  22  25  ar  
 49  22  50  1   
 50  23  26  ar  
 51  23  51  1   
 52  24  27  1   
 53  25  28  ar  
 54  25  52  1   
 55  26  28  ar  
 56  26  53  1   
 57  27  54  1   
 58  27  55  1   
 59  27  56  1   
@<TRIPOS>SUBSTRUCTURE
  1 ****   3 GROUP 4 **** **** 0

# MOE 2024.06 (io_trps.svl 2023.06)
