@<TRIPOS>MOLECULE
NONAME
44 46 1 0 0 
SMALL
USER_CHARGES


@<TRIPOS>ATOM
  1 F        1.1950     0.7140    -0.6440 F     1 <1>  -0.1900 
  2 C        2.1430    -0.1380    -0.3520 C.ar  1 <1>   0.1900 
  3 C        3.1750     0.2470     0.4930 C.ar  1 <1>  -0.1440 
  4 C        2.0720    -1.4000    -0.9120 C.ar  1 <1>  -0.1500 
  5 C        4.1650    -0.6840     0.7700 C.ar  1 <1>  -0.1500 
  6 C        3.2470     1.6430     1.1000 C.3   1 <1>  -0.0160 
  7 C        3.0690    -2.3150    -0.6230 C.ar  1 <1>  -0.1500 
  8 C        4.1120    -1.9550     0.2170 C.ar  1 <1>  -0.1500 
  9 C        3.8770     2.6240     0.1010 C.3   1 <1>  -0.0990 
 10 C        4.1170     4.0160     0.6690 C.2   1 <1>   0.5690 
 11 O        3.6180     4.2920     1.7360 O.2   1 <1>  -0.5700 
 12 N        4.8940     4.9210    -0.0160 N.am  1 <1>  -0.6600 
 13 C        5.4240     6.1240     0.7040 C.3   1 <1>   0.1400 
 14 C        5.4220     4.6960    -1.4010 C.3   1 <1>   0.1400 
 15 C        6.9520     6.1110     0.9440 C.3   1 <1>   0.2200 
 16 C        6.9520     4.5230    -1.4980 C.3   1 <1>  -0.0190 
 17 N        7.6820     6.5690    -0.2730 N.am  1 <1>  -0.6600 
 18 C        7.5420     4.7860     1.4940 C.3   1 <1>   0.1200 
 19 C        7.6550     5.8600    -1.4380 C.2   1 <1>   0.5690 
 20 C        7.6250     3.5150    -0.5460 C.3   1 <1>   0.1200 
 21 C        8.3910     7.8760    -0.1610 C.3   1 <1>   0.0600 
 22 O        7.2080     3.6230     0.7800 O.3   1 <1>  -0.5600 
 23 O        8.1840     6.2610    -2.4480 O.2   1 <1>  -0.5700 
 24 H        1.2540    -1.6550    -1.5610 H     1 <1>   0.1500 
 25 H        4.9840    -0.4230     1.4190 H     1 <1>   0.1500 
 26 H        2.2620     1.9810     1.3720 H     1 <1>   0.0800 
 27 H        3.8390     1.6180     1.9980 H     1 <1>   0.0800 
 28 H        3.0350    -3.3030    -1.0470 H     1 <1>   0.1500 
 29 H        4.8870    -2.6670     0.4420 H     1 <1>   0.1500 
 30 H        3.2370     2.7090    -0.7570 H     1 <1>   0.0800 
 31 H        4.8220     2.2200    -0.2090 H     1 <1>   0.0800 
 32 H        5.1570     7.0090     0.1550 H     1 <1>   0.0800 
 33 H        4.9490     6.2040     1.6660 H     1 <1>   0.0800 
 34 H        4.9580     3.8310    -1.8370 H     1 <1>   0.0800 
 35 H        5.1320     5.5350    -2.0110 H     1 <1>   0.0800 
 36 H        7.1330     6.8490     1.7060 H     1 <1>   0.0800 
 37 H        7.1400     4.1530    -2.4890 H     1 <1>   0.0800 
 38 H        7.1660     4.6370     2.4910 H     1 <1>   0.0800 
 39 H        8.6140     4.8520     1.5500 H     1 <1>   0.0800 
 40 H        8.6960     3.6190    -0.5760 H     1 <1>   0.0800 
 41 H        7.3770     2.5170    -0.8610 H     1 <1>   0.0800 
 42 H        9.1210     7.8290     0.6280 H     1 <1>   0.0800 
 43 H        7.6840     8.6580     0.0540 H     1 <1>   0.0800 
 44 H        8.8990     8.1170    -1.0790 H     1 <1>   0.0800 
@<TRIPOS>BOND
  1   1   2  1   
  2   2   3  ar  
  3   2   4  ar  
  4   3   5  ar  
  5   3   6  1   
  6   4   7  ar  
  7   4  24  1   
  8   5   8  ar  
  9   5  25  1   
 10   6   9  1   
 11   6  26  1   
 12   6  27  1   
 13   7   8  ar  
 14   7  28  1   
 15   8  29  1   
 16   9  10  1   
 17   9  30  1   
 18   9  31  1   
 19  10  11  2   
 20  10  12  am  
 21  12  13  1   
 22  12  14  1   
 23  13  15  1   
 24  13  32  1   
 25  13  33  1   
 26  14  16  1   
 27  14  34  1   
 28  14  35  1   
 29  15  17  1   
 30  15  18  1   
 31  15  36  1   
 32  16  19  1   
 33  16  20  1   
 34  16  37  1   
 35  17  19  am  
 36  17  21  1   
 37  18  22  1   
 38  18  38  1   
 39  18  39  1   
 40  19  23  2   
 41  20  22  1   
 42  20  40  1   
 43  20  41  1   
 44  21  42  1   
 45  21  43  1   
 46  21  44  1   
@<TRIPOS>SUBSTRUCTURE
  1 ****   9 GROUP 4 **** **** 0

# MOE 2024.06 (io_trps.svl 2023.06)
