@<TRIPOS>MOLECULE
NONAME
50 51 1 0 0 
SMALL
USER_CHARGES


@<TRIPOS>ATOM
  1 F        1.7920     2.4410     0.1110 F     1 <1>  -0.1900 
  2 C        2.5590     1.4010     0.3020 C.ar  1 <1>   0.1900 
  3 C        3.9510     1.5290     0.2450 C.ar  1 <1>   0.0860 
  4 C        1.9130     0.2040     0.5500 C.ar  1 <1>  -0.1500 
  5 C        4.6560     2.7760    -0.0120 C.2   1 <1>   0.5440 
  6 C        4.6710     0.3470     0.4560 C.ar  1 <1>  -0.1500 
  7 C        2.6630    -0.9390     0.7540 C.ar  1 <1>  -0.1500 
  8 O        5.8260     2.7580    -0.3470 O.2   1 <1>  -0.5700 
  9 N        4.0510     3.9970     0.1130 N.am  1 <1>  -0.7300 
 10 C        4.0440    -0.8620     0.7050 C.ar  1 <1>  -0.1500 
 11 C        4.7190     5.3110    -0.0360 C.3   1 <1>   0.1400 
 12 C        4.8900     5.6340    -1.5190 C.3   1 <1>  -0.0990 
 13 C        5.6780     6.9190    -1.6830 C.2   1 <1>   0.5690 
 14 O        5.0880     7.9370    -1.4040 O.2   1 <1>  -0.5700 
 15 N        6.9870     6.9390    -2.1110 N.am  1 <1>  -0.6600 
 16 C        7.7350     8.2390    -2.1780 C.3   1 <1>   0.1400 
 17 C        7.8240     5.7300    -2.3820 C.3   1 <1>   0.1400 
 18 C        8.9750     8.2780    -1.2650 C.3   1 <1>   0.1400 
 19 C        8.3880     5.1230    -1.0870 C.3   1 <1>  -0.1600 
 20 N        8.8560     7.3600    -0.0920 N.am  1 <1>  -0.6600 
 21 C        9.3970     5.9970    -0.3270 C.3   1 <1>   0.1400 
 22 C        8.1150     7.6460     1.0320 C.2   1 <1>   0.5690 
 23 O        8.0240     6.8510     1.9420 O.2   1 <1>  -0.5700 
 24 C        7.3090     8.9460     1.1660 C.3   1 <1>   0.1810 
 25 O        8.0980    10.1090     1.0710 O.3   1 <1>  -0.5600 
 26 C        7.3700    11.2860     1.2110 C.3   1 <1>   0.0400 
 27 H        0.8380     0.1670     0.5820 H     1 <1>   0.1500 
 28 H        5.7470     0.3800     0.4220 H     1 <1>   0.1500 
 29 H        2.1790    -1.8810     0.9490 H     1 <1>   0.1500 
 30 H        3.0470     4.0250     0.3130 H     1 <1>   0.3700 
 31 H        4.6350    -1.7500     0.8620 H     1 <1>   0.1500 
 32 H        5.6760     5.2800     0.4560 H     1 <1>   0.0800 
 33 H        4.1270     6.0740     0.4410 H     1 <1>   0.0800 
 34 H        3.9220     5.7770    -1.9620 H     1 <1>   0.0800 
 35 H        5.3630     4.8150    -2.0180 H     1 <1>   0.0800 
 36 H        7.0930     9.0540    -1.8980 H     1 <1>   0.0800 
 37 H        8.0370     8.4210    -3.1930 H     1 <1>   0.0800 
 38 H        8.6380     5.9990    -3.0340 H     1 <1>   0.0800 
 39 H        7.2430     4.9910    -2.9030 H     1 <1>   0.0800 
 40 H        9.1480     9.2860    -0.9350 H     1 <1>   0.0800 
 41 H        9.8370     7.9980    -1.8430 H     1 <1>   0.0800 
 42 H        8.8780     4.2000    -1.3350 H     1 <1>   0.0800 
 43 H        7.5860     4.8650    -0.4250 H     1 <1>   0.0800 
 44 H       10.3160     6.0660    -0.8810 H     1 <1>   0.0800 
 45 H        9.6260     5.5320     0.6180 H     1 <1>   0.0800 
 46 H        6.8240     8.9490     2.1250 H     1 <1>   0.0800 
 47 H        6.5600     8.9750     0.3990 H     1 <1>   0.0800 
 48 H        8.0500    12.1140     1.1150 H     1 <1>   0.0800 
 49 H        6.9120    11.3050     2.1850 H     1 <1>   0.0800 
 50 H        6.6230    11.3370     0.4380 H     1 <1>   0.0800 
@<TRIPOS>BOND
  1   1   2  1   
  2   2   3  ar  
  3   2   4  ar  
  4   3   5  1   
  5   3   6  ar  
  6   4   7  ar  
  7   4  27  1   
  8   5   8  2   
  9   5   9  am  
 10   6  10  ar  
 11   6  28  1   
 12   7  10  ar  
 13   7  29  1   
 14   9  11  1   
 15   9  30  1   
 16  10  31  1   
 17  11  12  1   
 18  11  32  1   
 19  11  33  1   
 20  12  13  1   
 21  12  34  1   
 22  12  35  1   
 23  13  14  2   
 24  13  15  am  
 25  15  16  1   
 26  15  17  1   
 27  16  18  1   
 28  16  36  1   
 29  16  37  1   
 30  17  19  1   
 31  17  38  1   
 32  17  39  1   
 33  18  20  1   
 34  18  40  1   
 35  18  41  1   
 36  19  21  1   
 37  19  42  1   
 38  19  43  1   
 39  20  21  1   
 40  20  22  am  
 41  21  44  1   
 42  21  45  1   
 43  22  23  2   
 44  22  24  1   
 45  24  25  1   
 46  24  46  1   
 47  24  47  1   
 48  25  26  1   
 49  26  48  1   
 50  26  49  1   
 51  26  50  1   
@<TRIPOS>SUBSTRUCTURE
  1 ****  11 GROUP 4 **** **** 0

# MOE 2024.06 (io_trps.svl 2023.06)
