@<TRIPOS>MOLECULE
NONAME
51 54 1 0 0 
SMALL
USER_CHARGES


@<TRIPOS>ATOM
  1 S        1.0190     0.9740     1.7700 S.3   1 <1>  -0.0800 
  2 C       -0.4010     1.3780     0.8180 C.2   1 <1>  -0.1400 
  3 C        0.1250    -0.2710     2.6330 C.2   1 <1>  -0.1100 
  4 C       -1.4430     0.6140     1.1730 C.2   1 <1>  -0.1810 
  5 C       -0.3960     2.4620    -0.2540 C.3   1 <1>   0.4600 
  6 C       -1.1500    -0.3350     2.2030 C.2   1 <1>  -0.1500 
  7 C       -2.7760     0.8070     0.4880 C.3   1 <1>   0.0210 
  8 O       -1.6390     2.4340    -0.9310 O.3   1 <1>  -0.5600 
  9 C        0.6750     2.1810    -1.3140 C.3   1 <1>  -0.1600 
 10 C       -0.1950     3.8570     0.3570 C.3   1 <1>  -0.1600 
 11 C       -2.8040     2.1990    -0.1740 C.3   1 <1>   0.1200 
 12 C        0.7350     3.2880    -2.3680 C.3   1 <1>   0.1400 
 13 C       -0.1390     4.9350    -0.7260 C.3   1 <1>   0.1400 
 14 N        0.9460     4.5960    -1.6870 N.am  1 <1>  -0.6600 
 15 C        2.0610     5.3580    -1.9370 C.2   1 <1>   0.5690 
 16 O        2.8610     5.0490    -2.7890 O.2   1 <1>  -0.5700 
 17 C        2.3110     6.6280    -1.1350 C.3   1 <1>  -0.0990 
 18 C        3.7160     7.2190    -1.3170 C.3   1 <1>  -0.0170 
 19 C        3.8710     8.4850    -0.4800 C.ar  1 <1>  -0.1430 
 20 C        4.1380     8.4210     0.8870 C.ar  1 <1>   0.0820 
 21 C        3.7380     9.7200    -1.0940 C.ar  1 <1>  -0.1500 
 22 O        4.2560     7.1910     1.4550 O.3   1 <1>  -0.3620 
 23 C        4.2700     9.6010     1.6170 C.ar  1 <1>  -0.1500 
 24 C        3.8690    10.8880    -0.3630 C.ar  1 <1>  -0.1500 
 25 C        4.6050     7.0280     2.8110 C.3   1 <1>   0.0400 
 26 C        4.1350    10.8280     0.9930 C.ar  1 <1>  -0.1500 
 27 H        0.6570    -0.8320     3.3810 H     1 <1>   0.1500 
 28 H       -1.9020    -1.0130     2.5690 H     1 <1>   0.1500 
 29 H       -3.5740     0.7380     1.2050 H     1 <1>   0.0800 
 30 H       -2.9180     0.0440    -0.2560 H     1 <1>   0.0800 
 31 H        0.4700     1.2360    -1.7830 H     1 <1>   0.0800 
 32 H        1.6400     2.1090    -0.8460 H     1 <1>   0.0800 
 33 H        0.7310     3.8730     0.9030 H     1 <1>   0.0800 
 34 H       -0.9800     4.0720     1.0560 H     1 <1>   0.0800 
 35 H       -2.8850     2.9670     0.5750 H     1 <1>   0.0800 
 36 H       -3.6460     2.2760    -0.8380 H     1 <1>   0.0800 
 37 H       -0.1880     3.3220    -2.9220 H     1 <1>   0.0800 
 38 H        1.5320     3.0820    -3.0620 H     1 <1>   0.0800 
 39 H        0.0160     5.8980    -0.2750 H     1 <1>   0.0800 
 40 H       -1.0760     4.9690    -1.2560 H     1 <1>   0.0800 
 41 H        2.1780     6.4050    -0.0930 H     1 <1>   0.0800 
 42 H        1.5820     7.3610    -1.4240 H     1 <1>   0.0800 
 43 H        3.8820     7.4440    -2.3560 H     1 <1>   0.0800 
 44 H        4.4560     6.4940    -1.0250 H     1 <1>   0.0800 
 45 H        3.5310     9.7800    -2.1480 H     1 <1>   0.1500 
 46 H        4.4750     9.5860     2.6700 H     1 <1>   0.1500 
 47 H        3.7640    11.8420    -0.8500 H     1 <1>   0.1500 
 48 H        4.6700     5.9740     3.0140 H     1 <1>   0.0800 
 49 H        3.8410     7.4720     3.4240 H     1 <1>   0.0800 
 50 H        5.5600     7.4930     2.9840 H     1 <1>   0.0800 
 51 H        4.2380    11.7360     1.5600 H     1 <1>   0.1500 
@<TRIPOS>BOND
  1   1   2  1   
  2   1   3  1   
  3   2   4  2   
  4   2   5  1   
  5   3   6  2   
  6   3  27  1   
  7   4   6  1   
  8   4   7  1   
  9   5   8  1   
 10   5   9  1   
 11   5  10  1   
 12   6  28  1   
 13   7  11  1   
 14   7  29  1   
 15   7  30  1   
 16   8  11  1   
 17   9  12  1   
 18   9  31  1   
 19   9  32  1   
 20  10  13  1   
 21  10  33  1   
 22  10  34  1   
 23  11  35  1   
 24  11  36  1   
 25  12  14  1   
 26  12  37  1   
 27  12  38  1   
 28  13  14  1   
 29  13  39  1   
 30  13  40  1   
 31  14  15  am  
 32  15  16  2   
 33  15  17  1   
 34  17  18  1   
 35  17  41  1   
 36  17  42  1   
 37  18  19  1   
 38  18  43  1   
 39  18  44  1   
 40  19  20  ar  
 41  19  21  ar  
 42  20  22  1   
 43  20  23  ar  
 44  21  24  ar  
 45  21  45  1   
 46  22  25  1   
 47  23  26  ar  
 48  23  46  1   
 49  24  26  ar  
 50  24  47  1   
 51  25  48  1   
 52  25  49  1   
 53  25  50  1   
 54  26  51  1   
@<TRIPOS>SUBSTRUCTURE
  1 ****  13 GROUP 4 **** **** 0

# MOE 2024.06 (io_trps.svl 2023.06)
