@<TRIPOS>MOLECULE
NONAME
49 50 1 0 0 
SMALL
USER_CHARGES


@<TRIPOS>ATOM
  1 O       -3.0510     0.9810    -2.0910 O.co2 1 <1>  -0.9000 
  2 C       -3.4610     1.7830    -1.2460 C.2   1 <1>   0.9060 
  3 O       -4.6470     2.1460    -1.2170 O.co2 1 <1>  -0.9000 
  4 C       -2.5010     2.1540    -0.0800 C.3   1 <1>   0.4600 
  5 N       -2.9140     1.6800     1.3130 N.4   1 <1>  -0.9590 
  6 C       -2.1260     3.6340     0.0390 C.ar  1 <1>  -0.1430 
  7 C       -2.9350     0.1760     1.3630 C.3   1 <1>   0.3430 
  8 C       -4.2080     2.3290     1.7120 C.3   1 <1>   0.2630 
  9 C       -2.9590     4.6540    -0.3490 C.ar  1 <1>  -0.1500 
 10 C       -0.8710     3.9560     0.5820 C.ar  1 <1>  -0.1500 
 11 C       -4.2700    -0.4710     0.9940 C.3   1 <1>  -0.0990 
 12 C       -2.5950     6.0070    -0.2060 C.ar  1 <1>   0.0000 
 13 C       -0.4920     5.2610     0.7340 C.ar  1 <1>  -0.1500 
 14 C       -4.0290    -1.9590     0.9490 C.2   1 <1>   0.5690 
 15 C       -1.3390     6.3190     0.3520 C.ar  1 <1>   0.0000 
 16 C       -3.4420     7.0630    -0.6000 C.ar  1 <1>  -0.1500 
 17 O       -3.9260    -2.5010     2.0240 O.2   1 <1>  -0.5700 
 18 N       -3.8760    -2.6380    -0.2340 N.am  1 <1>  -0.6600 
 19 C       -0.9820     7.6720     0.5010 C.ar  1 <1>  -0.1500 
 20 C       -3.0710     8.3700    -0.4450 C.ar  1 <1>  -0.1500 
 21 C       -3.8720    -2.0020    -1.5890 C.3   1 <1>   0.0600 
 22 C       -3.6310    -4.1080    -0.2570 C.3   1 <1>   0.0600 
 23 C       -1.8180     8.6850     0.1160 C.ar  1 <1>   0.0830 
 24 O       -1.3870     9.9570     0.2980 O.3   1 <1>  -0.3620 
 25 C       -2.1670    11.0680    -0.0840 C.3   1 <1>   0.0400 
 26 H       -1.5920     1.6410    -0.3370 H     1 <1>   0.0800 
 27 H       -2.1810     2.0300     1.9380 H     1 <1>   0.4500 
 28 H       -2.6830    -0.1490     2.3590 H     1 <1>   0.0800 
 29 H       -2.1770    -0.2100     0.7000 H     1 <1>   0.0800 
 30 H       -4.9920     2.0580     1.0230 H     1 <1>   0.0800 
 31 H       -4.1070     3.4020     1.6980 H     1 <1>   0.0800 
 32 H       -4.4940     2.0190     2.7030 H     1 <1>   0.0800 
 33 H       -3.9250     4.4510    -0.7800 H     1 <1>   0.1500 
 34 H       -0.1960     3.1690     0.8740 H     1 <1>   0.1500 
 35 H       -4.6570    -0.1160     0.0640 H     1 <1>   0.0800 
 36 H       -5.0000    -0.2810     1.7580 H     1 <1>   0.0800 
 37 H        0.4700     5.5080     1.1480 H     1 <1>   0.1500 
 38 H       -4.3960     6.8170    -1.0320 H     1 <1>   0.1500 
 39 H       -0.0260     7.9140     0.9270 H     1 <1>   0.1500 
 40 H       -3.7410     9.1480    -0.7570 H     1 <1>   0.1500 
 41 H       -4.6760    -1.2940    -1.6910 H     1 <1>   0.0800 
 42 H       -3.9950    -2.7480    -2.3550 H     1 <1>   0.0800 
 43 H       -2.9370    -1.4970    -1.7540 H     1 <1>   0.0800 
 44 H       -3.6280    -4.5170     0.7390 H     1 <1>   0.0800 
 45 H       -2.6780    -4.3100    -0.7140 H     1 <1>   0.0800 
 46 H       -4.4060    -4.5950    -0.8230 H     1 <1>   0.0800 
 47 H       -1.6150    11.9600     0.1520 H     1 <1>   0.0800 
 48 H       -3.0900    11.0530     0.4680 H     1 <1>   0.0800 
 49 H       -2.3480    11.0200    -1.1430 H     1 <1>   0.0800 
@<TRIPOS>BOND
  1   1   2  ar  
  2   2   3  ar  
  3   2   4  1   
  4   4   5  1   
  5   4   6  1   
  6   4  26  1   
  7   5   7  1   
  8   5   8  1   
  9   5  27  1   
 10   6   9  ar  
 11   6  10  ar  
 12   7  11  1   
 13   7  28  1   
 14   7  29  1   
 15   8  30  1   
 16   8  31  1   
 17   8  32  1   
 18   9  12  ar  
 19   9  33  1   
 20  10  13  ar  
 21  10  34  1   
 22  11  14  1   
 23  11  35  1   
 24  11  36  1   
 25  12  15  ar  
 26  12  16  ar  
 27  13  15  ar  
 28  13  37  1   
 29  14  17  2   
 30  14  18  am  
 31  15  19  ar  
 32  16  20  ar  
 33  16  38  1   
 34  18  21  1   
 35  18  22  1   
 36  19  23  ar  
 37  19  39  1   
 38  20  23  ar  
 39  20  40  1   
 40  21  41  1   
 41  21  42  1   
 42  21  43  1   
 43  22  44  1   
 44  22  45  1   
 45  22  46  1   
 46  23  24  1   
 47  24  25  1   
 48  25  47  1   
 49  25  48  1   
 50  25  49  1   
@<TRIPOS>SUBSTRUCTURE
  1 ****   6 GROUP 4 **** **** 0

# MOE 2024.06 (io_trps.svl 2023.06)
