@<TRIPOS>MOLECULE
NONAME
55 57 1 0 0 
SMALL
USER_CHARGES


@<TRIPOS>ATOM
  1 O       -0.0470    -0.0380    -0.9330 O.2   1 <1>  -0.5700 
  2 C        1.0780    -0.4160    -1.1710 C.2   1 <1>   0.5690 
  3 N        2.1430     0.4390    -1.3030 N.am  1 <1>  -0.4940 
  4 C        1.2770    -1.9520    -1.2880 C.3   1 <1>   0.4840 
  5 C        2.2710     1.8280    -1.0750 C.2   1 <1>  -0.0880 
  6 N        0.2680    -2.6990    -0.4470 N.4   1 <1>  -0.9590 
  7 C        2.7040    -2.4210    -0.9520 C.3   1 <1>  -0.2400 
  8 N        1.3470     2.8240    -1.1780 N.pl3 1 <1>   0.3140 
  9 C        3.4370     2.4180    -0.6900 C.2   1 <1>  -0.0540 
 10 C        0.4810    -2.5410     1.0240 C.3   1 <1>   0.3430 
 11 C        0.0770    -4.1200    -0.8570 C.3   1 <1>   0.3430 
 12 N        1.8830     4.0210    -0.8590 N.2   1 <1>  -0.7070 
 13 C       -0.0480     2.7720    -1.6390 C.3   1 <1>   0.0160 
 14 C        4.7050     1.7800    -0.4550 C.ar  1 <1>   0.0540 
 15 C        3.1170     3.7720    -0.5730 C.2   1 <1>   0.1080 
 16 C       -0.7230    -3.1060     1.7800 C.3   1 <1>  -0.1600 
 17 C       -1.1320    -4.7070    -0.1250 C.3   1 <1>  -0.1600 
 18 C        5.1970     1.6160     0.8360 C.ar  1 <1>  -0.1500 
 19 C        5.4640     1.2930    -1.5150 C.ar  1 <1>  -0.1500 
 20 C        4.0820     4.8610    -0.1610 C.3   1 <1>  -0.0590 
 21 C       -1.0030    -4.5660     1.3970 C.3   1 <1>  -0.1600 
 22 C        6.4010     0.9750     1.0680 C.ar  1 <1>  -0.1500 
 23 C        6.6660     0.6500    -1.2910 C.ar  1 <1>  -0.1500 
 24 C        7.1440     0.4830    -0.0010 C.ar  1 <1>   0.0820 
 25 O        8.3300    -0.1610     0.1330 O.3   1 <1>  -0.3630 
 26 C        8.9550    -0.2910     1.3910 C.3   1 <1>   0.0400 
 27 H        3.0590    -0.0010    -1.4260 H     1 <1>   0.3700 
 28 H        1.0870    -2.1970    -2.3200 H     1 <1>   0.0800 
 29 H       -0.6200    -2.2010    -0.6290 H     1 <1>   0.4500 
 30 H        3.0090    -2.0810     0.0230 H     1 <1>   0.0800 
 31 H        3.3970    -2.0220    -1.6710 H     1 <1>   0.0800 
 32 H        2.7830    -3.4910    -0.9960 H     1 <1>   0.0800 
 33 H        0.5980    -1.4980     1.2730 H     1 <1>   0.0800 
 34 H        1.3720    -3.0680     1.3250 H     1 <1>   0.0800 
 35 H        0.9560    -4.6930    -0.6090 H     1 <1>   0.0800 
 36 H       -0.0840    -4.1830    -1.9210 H     1 <1>   0.0800 
 37 H       -0.1310     2.0770    -2.4520 H     1 <1>   0.0800 
 38 H       -0.3450     3.7490    -1.9720 H     1 <1>   0.0800 
 39 H       -0.6760     2.4670    -0.8240 H     1 <1>   0.0800 
 40 H       -1.5880    -2.4990     1.5740 H     1 <1>   0.0800 
 41 H       -0.5330    -3.0450     2.8370 H     1 <1>   0.0800 
 42 H       -1.2240    -5.7490    -0.3790 H     1 <1>   0.0800 
 43 H       -2.0280    -4.2150    -0.4640 H     1 <1>   0.0800 
 44 H        4.6230     1.9970     1.6630 H     1 <1>   0.1500 
 45 H        5.1090     1.4310    -2.5220 H     1 <1>   0.1500 
 46 H        5.0820     4.6120    -0.4640 H     1 <1>   0.0800 
 47 H        4.0530     4.9840     0.9050 H     1 <1>   0.0800 
 48 H        3.7990     5.7880    -0.6260 H     1 <1>   0.0800 
 49 H       -1.9100    -4.9000     1.8730 H     1 <1>   0.0800 
 50 H       -0.2000    -5.1910     1.7500 H     1 <1>   0.0800 
 51 H        6.7450     0.8690     2.0800 H     1 <1>   0.1500 
 52 H        7.2520     0.2780    -2.1130 H     1 <1>   0.1500 
 53 H        9.8900    -0.8020     1.2470 H     1 <1>   0.0800 
 54 H        8.3200    -0.8690     2.0390 H     1 <1>   0.0800 
 55 H        9.1330     0.6890     1.7960 H     1 <1>   0.0800 
@<TRIPOS>BOND
  1   1   2  2   
  2   2   3  am  
  3   2   4  1   
  4   3   5  1   
  5   3  27  1   
  6   4   6  1   
  7   4   7  1   
  8   4  28  1   
  9   5   8  1   
 10   5   9  2   
 11   6  10  1   
 12   6  11  1   
 13   6  29  1   
 14   7  30  1   
 15   7  31  1   
 16   7  32  1   
 17   8  12  1   
 18   8  13  1   
 19   9  14  1   
 20   9  15  1   
 21  10  16  1   
 22  10  33  1   
 23  10  34  1   
 24  11  17  1   
 25  11  35  1   
 26  11  36  1   
 27  12  15  2   
 28  13  37  1   
 29  13  38  1   
 30  13  39  1   
 31  14  18  ar  
 32  14  19  ar  
 33  15  20  1   
 34  16  21  1   
 35  16  40  1   
 36  16  41  1   
 37  17  21  1   
 38  17  42  1   
 39  17  43  1   
 40  18  22  ar  
 41  18  44  1   
 42  19  23  ar  
 43  19  45  1   
 44  20  46  1   
 45  20  47  1   
 46  20  48  1   
 47  21  49  1   
 48  21  50  1   
 49  22  24  ar  
 50  22  51  1   
 51  23  24  ar  
 52  23  52  1   
 53  24  25  1   
 54  25  26  1   
 55  26  53  1   
 56  26  54  1   
 57  26  55  1   
@<TRIPOS>SUBSTRUCTURE
  1 ****   3 GROUP 4 **** **** 0

# MOE 2024.06 (io_trps.svl 2023.06)
