@<TRIPOS>MOLECULE
NONAME
47 49 1 0 0 
SMALL
USER_CHARGES


@<TRIPOS>ATOM
  1 O       -1.3430     0.0170     0.5180 O.2   1 <1>  -0.5700 
  2 C       -2.1740     0.9090     0.5440 C.2   1 <1>   0.7160 
  3 N       -3.4780     0.5570     0.8100 N.am  1 <1>  -0.6600 
  4 C       -1.7960     2.2810     0.2860 C.2   1 <1>  -0.0860 
  5 C       -3.7910    -0.7580     1.4410 C.3   1 <1>   0.1400 
  6 C       -4.6190     1.1290     0.0410 C.3   1 <1>   0.1400 
  7 C       -0.7910     2.7920    -0.4800 C.2   1 <1>  -0.0400 
  8 C       -2.4260     3.4240     0.8250 C.2   1 <1>  -0.1500 
  9 C       -4.1370    -1.7760     0.3280 C.3   1 <1>   0.4230 
 10 C       -5.0310     0.1270    -1.0490 C.3   1 <1>  -0.1600 
 11 O       -0.7880     4.1030    -0.4430 O.3   1 <1>  -0.2800 
 12 C        0.2680     2.1140    -1.3260 C.3   1 <1>  -0.0600 
 13 C       -1.7670     4.4940     0.3410 C.2   1 <1>  -0.0400 
 14 N       -4.3620    -3.1790     0.8170 N.4   1 <1>  -0.9590 
 15 C       -5.3630    -1.2790    -0.4690 C.3   1 <1>  -0.1060 
 16 C       -1.9730     5.9760     0.5580 C.3   1 <1>  -0.0600 
 17 C       -4.5690    -4.1300    -0.3040 C.3   1 <1>   0.3430 
 18 C       -3.3660    -3.6730     1.8040 C.3   1 <1>   0.2630 
 19 C       -6.5720    -1.2060     0.4840 C.2   1 <1>   0.9060 
 20 C       -5.6450    -2.2480    -1.6430 C.3   1 <1>  -0.1600 
 21 C       -5.7650    -3.7010    -1.1580 C.3   1 <1>  -0.1600 
 22 O       -6.6570    -2.0290     1.4100 O.co2 1 <1>  -0.9000 
 23 O       -7.4180    -0.3280     0.3250 O.co2 1 <1>  -0.9000 
 24 H       -2.9360    -1.0870     2.0020 H     1 <1>   0.0800 
 25 H       -4.6150    -0.6360     2.1230 H     1 <1>   0.0800 
 26 H       -5.4460     1.3170     0.7080 H     1 <1>   0.0800 
 27 H       -4.3450     2.0620    -0.4210 H     1 <1>   0.0800 
 28 H       -3.2670     3.4030     1.4950 H     1 <1>   0.1500 
 29 H       -3.2910    -1.7930    -0.3390 H     1 <1>   0.0800 
 30 H       -5.8950     0.5170    -1.5620 H     1 <1>   0.0800 
 31 H       -4.2350     0.0590    -1.7690 H     1 <1>   0.0800 
 32 H        0.1540     1.0470    -1.3050 H     1 <1>   0.0800 
 33 H        1.2430     2.3670    -0.9510 H     1 <1>   0.0800 
 34 H        0.1880     2.4520    -2.3430 H     1 <1>   0.0800 
 35 H       -5.3020    -3.0720     1.2890 H     1 <1>   0.4500 
 36 H       -2.8030     6.1430     1.2200 H     1 <1>   0.0800 
 37 H       -2.1710     6.4560    -0.3830 H     1 <1>   0.0800 
 38 H       -1.0870     6.4050     0.9900 H     1 <1>   0.0800 
 39 H       -3.6830    -4.1630    -0.9160 H     1 <1>   0.0800 
 40 H       -4.7530    -5.1180     0.0860 H     1 <1>   0.0800 
 41 H       -2.3790    -3.6720     1.3720 H     1 <1>   0.0800 
 42 H       -3.6150    -4.6760     2.1090 H     1 <1>   0.0800 
 43 H       -3.3670    -3.0450     2.6790 H     1 <1>   0.0800 
 44 H       -6.5610    -1.9570    -2.1320 H     1 <1>   0.0800 
 45 H       -4.8510    -2.1850    -2.3670 H     1 <1>   0.0800 
 46 H       -5.8450    -4.3550    -2.0080 H     1 <1>   0.0800 
 47 H       -6.6670    -3.8190    -0.5810 H     1 <1>   0.0800 
@<TRIPOS>BOND
  1   1   2  2   
  2   2   3  am  
  3   2   4  1   
  4   3   5  1   
  5   3   6  1   
  6   4   7  2   
  7   4   8  1   
  8   5   9  1   
  9   5  24  1   
 10   5  25  1   
 11   6  10  1   
 12   6  26  1   
 13   6  27  1   
 14   7  11  1   
 15   7  12  1   
 16   8  13  2   
 17   8  28  1   
 18   9  14  1   
 19   9  15  1   
 20   9  29  1   
 21  10  15  1   
 22  10  30  1   
 23  10  31  1   
 24  11  13  1   
 25  12  32  1   
 26  12  33  1   
 27  12  34  1   
 28  13  16  1   
 29  14  17  1   
 30  14  18  1   
 31  14  35  1   
 32  15  19  1   
 33  15  20  1   
 34  16  36  1   
 35  16  37  1   
 36  16  38  1   
 37  17  21  1   
 38  17  39  1   
 39  17  40  1   
 40  18  41  1   
 41  18  42  1   
 42  18  43  1   
 43  19  22  ar  
 44  19  23  ar  
 45  20  21  1   
 46  20  44  1   
 47  20  45  1   
 48  21  46  1   
 49  21  47  1   
@<TRIPOS>SUBSTRUCTURE
  1 ****   3 GROUP 4 **** **** 0

# MOE 2024.06 (io_trps.svl 2023.06)
