@<TRIPOS>MOLECULE
NONAME
55 57 1 0 0 
SMALL
USER_CHARGES


@<TRIPOS>ATOM
  1 O        0.0110     0.0700     3.4610 O.2   1 <1>  -0.5700 
  2 C        0.8490    -0.5130     2.8140 C.2   1 <1>   0.5690 
  3 N        2.0800     0.0210     2.6100 N.am  1 <1>  -0.7300 
  4 C        0.5260    -1.8900     2.2170 C.3   1 <1>   0.1710 
  5 C        2.4380     1.4220     2.8760 C.3   1 <1>   0.2840 
  6 N        0.2680    -1.8970     0.7490 N.3   1 <1>  -0.8100 
  7 C        3.2050     1.9170     1.6650 C.ar  1 <1>  -0.1430 
  8 C        1.3920    -1.4910    -0.1010 C.3   1 <1>   0.1100 
  9 C       -0.1870    -3.1970     0.2370 C.3   1 <1>   0.1100 
 10 C        2.5340     2.1630     0.4760 C.ar  1 <1>  -0.1500 
 11 C        4.5750     2.1070     1.7240 C.ar  1 <1>  -0.1500 
 12 C        0.9620    -1.9380    -1.4920 C.3   1 <1>   0.2000 
 13 C        0.2920    -3.2860    -1.2260 C.3   1 <1>  -0.0800 
 14 C        3.2150     2.5850    -0.6630 C.ar  1 <1>   0.0830 
 15 C        5.2620     2.5410     0.6060 C.ar  1 <1>  -0.1500 
 16 O       -0.0140    -1.0580    -1.9180 O.3   1 <1>  -0.6800 
 17 C        1.2810    -4.4460    -1.4440 C.3   1 <1>   0.0200 
 18 O        2.5580     2.7790    -1.8440 O.3   1 <1>  -0.3630 
 19 C        4.6030     2.7910    -0.5860 C.ar  1 <1>   0.0830 
 20 C        0.6630    -5.7870    -1.0940 C.2   1 <1>  -0.0400 
 21 C        1.2720     2.2430    -2.0760 C.3   1 <1>   0.0400 
 22 O        5.4030     3.2200    -1.6030 O.3   1 <1>  -0.3630 
 23 O       -0.4240    -6.1860    -1.6990 O.3   1 <1>  -0.0190 
 24 C        1.0190    -6.7370    -0.2170 C.2   1 <1>  -0.1500 
 25 C        4.9180     4.0970    -2.5960 C.3   1 <1>   0.0400 
 26 N       -0.8160    -7.3510    -1.2710 N.2   1 <1>  -0.4100 
 27 C        0.0350    -7.7090    -0.3780 C.2   1 <1>   0.1080 
 28 C       -0.0330    -9.0130     0.3860 C.3   1 <1>  -0.0590 
 29 H        2.7480    -0.4630     2.0130 H     1 <1>   0.3700 
 30 H       -0.3530    -2.2550     2.7180 H     1 <1>   0.0800 
 31 H        1.3340    -2.5610     2.4450 H     1 <1>   0.0800 
 32 H        1.5500     2.0160     3.0260 H     1 <1>   0.0800 
 33 H        3.0430     1.4780     3.7650 H     1 <1>   0.0800 
 34 H        1.5620    -0.4300    -0.0630 H     1 <1>   0.0800 
 35 H        2.2870    -2.0140     0.1910 H     1 <1>   0.0800 
 36 H        0.2250    -3.9980     0.8270 H     1 <1>   0.0800 
 37 H       -1.2620    -3.2500     0.2880 H     1 <1>   0.0800 
 38 H        1.4710     2.0120     0.4590 H     1 <1>   0.1500 
 39 H        5.1160     1.9190     2.6360 H     1 <1>   0.1500 
 40 H        1.7570    -1.9590    -2.2180 H     1 <1>   0.0800 
 41 H       -0.5460    -3.4300    -1.8860 H     1 <1>   0.0800 
 42 H        6.3260     2.6920     0.6500 H     1 <1>   0.1500 
 43 H       -0.6330    -0.9550    -1.1610 H     1 <1>   0.4000 
 44 H        2.1620    -4.3010    -0.8450 H     1 <1>   0.0800 
 45 H        1.5800    -4.4680    -2.4770 H     1 <1>   0.0800 
 46 H        1.0260     2.3980    -3.1110 H     1 <1>   0.0800 
 47 H        0.5590     2.7530    -1.4540 H     1 <1>   0.0800 
 48 H        1.2880     1.1900    -1.8630 H     1 <1>   0.0800 
 49 H        1.8510    -6.7790     0.4610 H     1 <1>   0.1500 
 50 H        5.7600     4.5780    -3.0590 H     1 <1>   0.0800 
 51 H        4.2800     4.8310    -2.1360 H     1 <1>   0.0800 
 52 H        4.3770     3.5260    -3.3290 H     1 <1>   0.0800 
 53 H        0.8790    -9.5640     0.2480 H     1 <1>   0.0800 
 54 H       -0.8550    -9.6050     0.0270 H     1 <1>   0.0800 
 55 H       -0.1760    -8.8160     1.4320 H     1 <1>   0.0800 
@<TRIPOS>BOND
  1   1   2  2   
  2   2   3  am  
  3   2   4  1   
  4   3   5  1   
  5   3  29  1   
  6   4   6  1   
  7   4  30  1   
  8   4  31  1   
  9   5   7  1   
 10   5  32  1   
 11   5  33  1   
 12   6   8  1   
 13   6   9  1   
 14   7  10  ar  
 15   7  11  ar  
 16   8  12  1   
 17   8  34  1   
 18   8  35  1   
 19   9  13  1   
 20   9  36  1   
 21   9  37  1   
 22  10  14  ar  
 23  10  38  1   
 24  11  15  ar  
 25  11  39  1   
 26  12  13  1   
 27  12  16  1   
 28  12  40  1   
 29  13  17  1   
 30  13  41  1   
 31  14  18  1   
 32  14  19  ar  
 33  15  19  ar  
 34  15  42  1   
 35  16  43  1   
 36  17  20  1   
 37  17  44  1   
 38  17  45  1   
 39  18  21  1   
 40  19  22  1   
 41  20  23  1   
 42  20  24  2   
 43  21  46  1   
 44  21  47  1   
 45  21  48  1   
 46  22  25  1   
 47  23  26  1   
 48  24  27  1   
 49  24  49  1   
 50  25  50  1   
 51  25  51  1   
 52  25  52  1   
 53  26  27  2   
 54  27  28  1   
 55  28  53  1   
 56  28  54  1   
 57  28  55  1   
@<TRIPOS>SUBSTRUCTURE
  1 ****   8 GROUP 4 **** **** 0

# MOE 2024.06 (io_trps.svl 2023.06)
