@<TRIPOS>MOLECULE
NONAME
48 49 1 0 0 
SMALL
USER_CHARGES


@<TRIPOS>ATOM
  1 O        0.8510     0.0430    -1.7620 O.2   1 <1>  -0.5700 
  2 C        1.3560    -0.6590    -0.9080 C.2   1 <1>   0.5440 
  3 N        2.0340    -0.0880     0.1440 N.am  1 <1>  -0.4940 
  4 C        1.2410    -2.1030    -0.9840 C.ar  1 <1>   0.0860 
  5 C        2.2640     1.2810     0.4230 C.2   1 <1>  -0.0880 
  6 C        2.2540    -2.9520    -0.5310 C.ar  1 <1>  -0.1500 
  7 C        0.1000    -2.7000    -1.5160 C.ar  1 <1>  -0.1500 
  8 N        3.4750     1.8130     0.7420 N.pl3 1 <1>   0.3140 
  9 C        1.3850     2.3130     0.4410 C.2   1 <1>  -0.1810 
 10 C        2.1210    -4.3270    -0.5880 C.ar  1 <1>  -0.1500 
 11 C       -0.0380    -4.0740    -1.5770 C.ar  1 <1>  -0.1500 
 12 N        3.3930     3.1410     0.9760 N.2   1 <1>  -0.7070 
 13 C        4.7750     1.1120     0.7980 C.3   1 <1>   0.0960 
 14 C        2.1420     3.4270     0.7850 C.2   1 <1>   0.1390 
 15 C       -0.1050     2.3090     0.1550 C.3   1 <1>  -0.0590 
 16 C        0.9720    -4.8980    -1.1090 C.ar  1 <1>  -0.1430 
 17 C        5.3340     0.8640    -0.6090 C.3   1 <1>  -0.2400 
 18 C        0.8190    -6.4090    -1.1670 C.3   1 <1>  -0.0170 
 19 C        0.2020    -6.9270     0.1440 C.3   1 <1>  -0.1600 
 20 C       -0.0780    -8.4400     0.1810 C.3   1 <1>   0.2800 
 21 O       -0.9120    -8.7520    -0.8600 O.3   1 <1>  -0.6800 
 22 C       -0.8130    -8.8270     1.4630 C.3   1 <1>  -0.2400 
 23 C        1.1810    -9.2890     0.0070 C.3   1 <1>  -0.2400 
 24 H        2.3780    -0.7460     0.8410 H     1 <1>   0.3700 
 25 H        3.1640    -2.5380    -0.1370 H     1 <1>   0.1500 
 26 H       -0.6910    -2.0700    -1.8880 H     1 <1>   0.1500 
 27 H        2.9160    -4.9570    -0.2280 H     1 <1>   0.1500 
 28 H       -0.9340    -4.5010    -1.9920 H     1 <1>   0.1500 
 29 H        4.6420     0.1830     1.3190 H     1 <1>   0.0800 
 30 H        5.4590     1.7230     1.3590 H     1 <1>   0.0800 
 31 H        1.7440     4.4220     0.8860 H     1 <1>   0.1500 
 32 H       -0.5080     1.3220     0.2910 H     1 <1>   0.0800 
 33 H       -0.2770     2.6110    -0.8620 H     1 <1>   0.0800 
 34 H       -0.6140     2.9850     0.8170 H     1 <1>   0.0800 
 35 H        4.6590     0.2520    -1.1820 H     1 <1>   0.0800 
 36 H        6.2830     0.3640    -0.5450 H     1 <1>   0.0800 
 37 H        5.4740     1.8020    -1.1170 H     1 <1>   0.0800 
 38 H        1.7820    -6.8560    -1.3290 H     1 <1>   0.0800 
 39 H        0.1930    -6.6740    -2.0020 H     1 <1>   0.0800 
 40 H       -0.7170    -6.3980     0.3260 H     1 <1>   0.0800 
 41 H        0.8670    -6.6830     0.9530 H     1 <1>   0.0800 
 42 H       -1.7760    -8.3250    -0.7210 H     1 <1>   0.4000 
 43 H       -1.7170    -8.2570     1.5750 H     1 <1>   0.0800 
 44 H       -0.1870    -8.6350     2.3150 H     1 <1>   0.0800 
 45 H       -1.0550    -9.8750     1.4540 H     1 <1>   0.0800 
 46 H        1.6280    -9.1210    -0.9550 H     1 <1>   0.0800 
 47 H        0.9370   -10.3330     0.0900 H     1 <1>   0.0800 
 48 H        1.8990    -9.0480     0.7690 H     1 <1>   0.0800 
@<TRIPOS>BOND
  1   1   2  2   
  2   2   3  am  
  3   2   4  1   
  4   3   5  1   
  5   3  24  1   
  6   4   6  ar  
  7   4   7  ar  
  8   5   8  1   
  9   5   9  2   
 10   6  10  ar  
 11   6  25  1   
 12   7  11  ar  
 13   7  26  1   
 14   8  12  1   
 15   8  13  1   
 16   9  14  1   
 17   9  15  1   
 18  10  16  ar  
 19  10  27  1   
 20  11  16  ar  
 21  11  28  1   
 22  12  14  2   
 23  13  17  1   
 24  13  29  1   
 25  13  30  1   
 26  14  31  1   
 27  15  32  1   
 28  15  33  1   
 29  15  34  1   
 30  16  18  1   
 31  17  35  1   
 32  17  36  1   
 33  17  37  1   
 34  18  19  1   
 35  18  38  1   
 36  18  39  1   
 37  19  20  1   
 38  19  40  1   
 39  19  41  1   
 40  20  21  1   
 41  20  22  1   
 42  20  23  1   
 43  21  42  1   
 44  22  43  1   
 45  22  44  1   
 46  22  45  1   
 47  23  46  1   
 48  23  47  1   
 49  23  48  1   
@<TRIPOS>SUBSTRUCTURE
  1 ****   4 GROUP 4 **** **** 0

# MOE 2024.06 (io_trps.svl 2023.06)
