@<TRIPOS>MOLECULE
NONAME
42 43 1 0 0 
SMALL
USER_CHARGES


@<TRIPOS>ATOM
  1 CL      -1.6030     2.0350    -2.5300 Cl    1 <1>  -0.1770 
  2 C       -0.5650     3.2210    -1.7780 C.ar  1 <1>   0.1770 
  3 C       -1.0470     4.4990    -1.5590 C.ar  1 <1>  -0.1500 
  4 C        0.7200     2.8620    -1.4180 C.ar  1 <1>  -0.1500 
  5 C       -0.2330     5.4510    -0.9630 C.ar  1 <1>  -0.1440 
  6 C        1.5370     3.8050    -0.8200 C.ar  1 <1>  -0.1500 
  7 C        1.0600     5.0860    -0.5840 C.ar  1 <1>   0.0820 
  8 C       -0.7710     6.8610    -0.7510 C.3   1 <1>  -0.0960 
  9 O        1.8900     5.9700     0.0090 O.3   1 <1>  -0.3630 
 10 C        1.6740     6.2230     1.3920 C.3   1 <1>   0.2610 
 11 C        1.5700     7.7330     1.6340 C.2   1 <1>   0.5690 
 12 C        2.8330     5.5810     2.1640 C.3   1 <1>  -0.2400 
 13 O        0.9880     8.1230     2.6210 O.2   1 <1>  -0.5700 
 14 N        2.1300     8.5740     0.7170 N.am  1 <1>  -0.4930 
 15 C        2.1560     9.9900     0.6930 C.2   1 <1>   0.0630 
 16 C        1.6650    10.9020     1.6270 C.2   1 <1>   0.1390 
 17 C        2.6830    10.7570    -0.2820 C.2   1 <1>  -0.3020 
 18 N        1.8670    12.1350     1.2670 N.2   1 <1>  -0.7070 
 19 N        2.5000    12.0490     0.0810 N.pl3 1 <1>   0.3140 
 20 C        2.9110    13.2640    -0.6740 C.3   1 <1>   0.1760 
 21 C        2.2020    13.3260    -2.0340 C.3   1 <1>  -0.2400 
 22 C        4.4360    13.3080    -0.8460 C.3   1 <1>  -0.2400 
 23 H       -2.0510     4.7360    -1.8600 H     1 <1>   0.1500 
 24 H        1.0700     1.8630    -1.6060 H     1 <1>   0.1500 
 25 H        2.5420     3.5520    -0.5350 H     1 <1>   0.1500 
 26 H       -1.6540     7.0270    -1.3420 H     1 <1>   0.0800 
 27 H       -0.0350     7.5890    -1.0420 H     1 <1>   0.0800 
 28 H       -1.0220     7.0120     0.2840 H     1 <1>   0.0800 
 29 H        0.7450     5.7680     1.6880 H     1 <1>   0.0800 
 30 H        3.7700     6.0140     1.8620 H     1 <1>   0.0800 
 31 H        2.8500     4.5210     1.9920 H     1 <1>   0.0800 
 32 H        2.7010     5.7540     3.2170 H     1 <1>   0.0800 
 33 H        2.5460     8.1100    -0.0910 H     1 <1>   0.3700 
 34 H        1.1740    10.6230     2.5440 H     1 <1>   0.1500 
 35 H        3.1680    10.4700    -1.1940 H     1 <1>   0.1500 
 36 H        2.6070    14.1150    -0.0900 H     1 <1>   0.0800 
 37 H        2.4920    12.4980    -2.6560 H     1 <1>   0.0800 
 38 H        2.4570    14.2400    -2.5400 H     1 <1>   0.0800 
 39 H        1.1360    13.3060    -1.8910 H     1 <1>   0.0800 
 40 H        4.7800    12.4810    -1.4410 H     1 <1>   0.0800 
 41 H        4.9130    13.2740     0.1180 H     1 <1>   0.0800 
 42 H        4.7240    14.2230    -1.3320 H     1 <1>   0.0800 
@<TRIPOS>BOND
  1   1   2  1   
  2   2   3  ar  
  3   2   4  ar  
  4   3   5  ar  
  5   3  23  1   
  6   4   6  ar  
  7   4  24  1   
  8   5   7  ar  
  9   5   8  1   
 10   6   7  ar  
 11   6  25  1   
 12   7   9  1   
 13   8  26  1   
 14   8  27  1   
 15   8  28  1   
 16   9  10  1   
 17  10  11  1   
 18  10  12  1   
 19  10  29  1   
 20  11  13  2   
 21  11  14  am  
 22  12  30  1   
 23  12  31  1   
 24  12  32  1   
 25  14  15  1   
 26  14  33  1   
 27  15  16  1   
 28  15  17  2   
 29  16  18  2   
 30  16  34  1   
 31  17  19  1   
 32  17  35  1   
 33  18  19  1   
 34  19  20  1   
 35  20  21  1   
 36  20  22  1   
 37  20  36  1   
 38  21  37  1   
 39  21  38  1   
 40  21  39  1   
 41  22  40  1   
 42  22  41  1   
 43  22  42  1   
@<TRIPOS>SUBSTRUCTURE
  1 ****  14 GROUP 4 **** **** 0

# MOE 2024.06 (io_trps.svl 2023.06)
