@<TRIPOS>MOLECULE
NONAME
46 49 1 0 0 
SMALL
USER_CHARGES


@<TRIPOS>ATOM
  1 O        0.3020    -0.7380    -2.7490 O.2   1 <1>  -0.5700 
  2 C        0.8910    -1.2260    -1.8140 C.2   1 <1>   0.5690 
  3 N        1.4480    -0.4990    -0.7990 N.am  1 <1>  -0.4940 
  4 C        1.0320    -2.7460    -1.7010 C.3   1 <1>   0.1610 
  5 C        1.4600     0.8870    -0.5390 C.2   1 <1>  -0.0880 
  6 C        1.0490    -3.1680    -0.2290 C.2   1 <1>  -0.3320 
  7 C        2.3420    -3.2030    -2.3930 C.3   1 <1>  -0.1600 
  8 N        1.7640     1.4360     0.6670 N.pl3 1 <1>   0.3140 
  9 C        1.1900     1.9190    -1.3700 C.2   1 <1>  -0.1500 
 10 N        0.1070    -2.8140     0.7010 N.pl3 1 <1>   0.0330 
 11 C        2.0060    -3.9140     0.3610 C.2   1 <1>  -0.1810 
 12 C        2.8640    -4.5630    -1.8860 C.3   1 <1>  -0.1600 
 13 N        1.7000     2.7860     0.6260 N.2   1 <1>  -0.7070 
 14 C        2.0300     0.7070     1.9270 C.3   1 <1>   0.0960 
 15 C        1.3580     3.0600    -0.5960 C.2   1 <1>   0.1390 
 16 C        0.5170    -3.2960     1.9180 C.ar  1 <1>  -0.1520 
 17 C        1.7060    -4.0000     1.7370 C.ar  1 <1>   0.0000 
 18 C        3.1760    -4.5280    -0.3790 C.3   1 <1>   0.0210 
 19 C        3.4330     0.0800     1.9360 C.3   1 <1>  -0.1600 
 20 C       -0.0570    -3.1710     3.1850 C.ar  1 <1>  -0.1500 
 21 C        2.3320    -4.5910     2.8380 C.ar  1 <1>  -0.1500 
 22 C        3.6430    -0.7790     3.1880 C.3   1 <1>  -0.2400 
 23 C        0.5730    -3.7550     4.2600 C.ar  1 <1>  -0.1500 
 24 C        1.7670    -4.4660     4.0860 C.ar  1 <1>  -0.1500 
 25 H        1.8640    -1.0990    -0.0790 H     1 <1>   0.3700 
 26 H        0.1920    -3.2120    -2.1850 H     1 <1>   0.0800 
 27 H        3.1080    -2.4680    -2.2180 H     1 <1>   0.0800 
 28 H        2.1770    -3.2470    -3.4560 H     1 <1>   0.0800 
 29 H        0.9060     1.8780    -2.4060 H     1 <1>   0.1500 
 30 H       -0.7510    -2.2750     0.5370 H     1 <1>   0.2700 
 31 H        3.7510    -4.8410    -2.4290 H     1 <1>   0.0800 
 32 H        2.1150    -5.3160    -2.0700 H     1 <1>   0.0800 
 33 H        1.2820    -0.0560     2.0390 H     1 <1>   0.0800 
 34 H        1.9330     1.4000     2.7430 H     1 <1>   0.0800 
 35 H        1.2190     4.0640    -0.9600 H     1 <1>   0.1500 
 36 H        3.3490    -5.5280    -0.0210 H     1 <1>   0.0800 
 37 H        4.0580    -3.9410    -0.1940 H     1 <1>   0.0800 
 38 H        4.1700     0.8660     1.9140 H     1 <1>   0.0800 
 39 H        3.5700    -0.5380     1.0670 H     1 <1>   0.0800 
 40 H       -0.9760    -2.6270     3.3100 H     1 <1>   0.1500 
 41 H        3.2470    -5.1340     2.6910 H     1 <1>   0.1500 
 42 H        3.5380    -0.1840     4.0780 H     1 <1>   0.0800 
 43 H        4.6300    -1.2080     3.1790 H     1 <1>   0.0800 
 44 H        2.9250    -1.5810     3.2210 H     1 <1>   0.0800 
 45 H        0.1520    -3.6740     5.2470 H     1 <1>   0.1500 
 46 H        2.2380    -4.9150     4.9430 H     1 <1>   0.1500 
@<TRIPOS>BOND
  1   1   2  2   
  2   2   3  am  
  3   2   4  1   
  4   3   5  1   
  5   3  25  1   
  6   4   6  1   
  7   4   7  1   
  8   4  26  1   
  9   5   8  1   
 10   5   9  2   
 11   6  10  1   
 12   6  11  2   
 13   7  12  1   
 14   7  27  1   
 15   7  28  1   
 16   8  13  1   
 17   8  14  1   
 18   9  15  1   
 19   9  29  1   
 20  10  16  1   
 21  10  30  1   
 22  11  17  1   
 23  11  18  1   
 24  12  18  1   
 25  12  31  1   
 26  12  32  1   
 27  13  15  2   
 28  14  19  1   
 29  14  33  1   
 30  14  34  1   
 31  15  35  1   
 32  16  17  ar  
 33  16  20  ar  
 34  17  21  ar  
 35  18  36  1   
 36  18  37  1   
 37  19  22  1   
 38  19  38  1   
 39  19  39  1   
 40  20  23  ar  
 41  20  40  1   
 42  21  24  ar  
 43  21  41  1   
 44  22  42  1   
 45  22  43  1   
 46  22  44  1   
 47  23  24  ar  
 48  23  45  1   
 49  24  46  1   
@<TRIPOS>SUBSTRUCTURE
  1 ****   6 GROUP 4 **** **** 0

# MOE 2024.06 (io_trps.svl 2023.06)
