@<TRIPOS>MOLECULE
NONAME
39 40 1 0 0 
SMALL
USER_CHARGES


@<TRIPOS>ATOM
  1 F        1.2430     0.0800     1.6930 F     1 <1>  -0.1900 
  2 C        1.9390    -0.8860     1.1590 C.ar  1 <1>   0.1900 
  3 C        1.3420    -1.6800     0.2010 C.ar  1 <1>  -0.1500 
  4 C        3.2400    -1.0820     1.5710 C.ar  1 <1>  -0.1500 
  5 C        2.0680    -2.7210    -0.3650 C.ar  1 <1>  -0.1440 
  6 C        3.9650    -2.1090     0.9950 C.ar  1 <1>  -0.1500 
  7 C        3.3920    -2.9280     0.0280 C.ar  1 <1>  -0.1430 
  8 C        1.3920    -3.6080    -1.3980 C.3   1 <1>   0.4870 
  9 C        4.2550    -4.0270    -0.5830 C.3   1 <1>  -0.0970 
 10 N        0.3020    -4.3760    -0.7380 N.4   1 <1>  -0.9590 
 11 C        0.8370    -5.2120     0.4090 C.3   1 <1>   0.3430 
 12 C       -0.4670    -5.1900    -1.7190 C.3   1 <1>   0.3430 
 13 C       -0.0010    -6.4770     0.7160 C.3   1 <1>   0.2000 
 14 C       -1.7100    -5.7800    -1.0400 C.3   1 <1>  -0.1600 
 15 O        0.4470    -7.5040    -0.1100 O.3   1 <1>  -0.6800 
 16 C       -1.4900    -6.2070     0.4350 C.3   1 <1>  -0.0800 
 17 C       -2.3930    -7.3810     0.8410 C.3   1 <1>   0.1200 
 18 O       -3.7070    -6.9980     0.6480 O.3   1 <1>  -0.6800 
 19 H        0.3270    -1.4660    -0.0820 H     1 <1>   0.1500 
 20 H        3.6730    -0.4420     2.3200 H     1 <1>   0.1500 
 21 H        4.9850    -2.2610     1.3060 H     1 <1>   0.1500 
 22 H        2.1050    -4.2850    -1.8350 H     1 <1>   0.0800 
 23 H        0.9860    -2.9910    -2.1840 H     1 <1>   0.0800 
 24 H        5.2530    -3.9990    -0.1810 H     1 <1>   0.0800 
 25 H        4.3320    -3.8940    -1.6480 H     1 <1>   0.0800 
 26 H        3.8460    -4.9980    -0.3760 H     1 <1>   0.0800 
 27 H       -0.3490    -3.6940    -0.3340 H     1 <1>   0.4500 
 28 H        1.8440    -5.5290     0.1990 H     1 <1>   0.0800 
 29 H        0.8710    -4.5950     1.2920 H     1 <1>   0.0800 
 30 H       -0.7650    -4.5920    -2.5650 H     1 <1>   0.0800 
 31 H        0.1560    -5.9970    -2.0740 H     1 <1>   0.0800 
 32 H        0.1630    -6.7820     1.7370 H     1 <1>   0.0800 
 33 H       -2.5210    -5.0730    -1.0870 H     1 <1>   0.0800 
 34 H       -2.0140    -6.6330    -1.6220 H     1 <1>   0.0800 
 35 H        0.0700    -8.3670     0.1580 H     1 <1>   0.4000 
 36 H       -1.7700    -5.3790     1.0650 H     1 <1>   0.0800 
 37 H       -2.2650    -7.6280     1.8820 H     1 <1>   0.0800 
 38 H       -2.2040    -8.2510     0.2340 H     1 <1>   0.0800 
 39 H       -4.3280    -7.7110     0.9060 H     1 <1>   0.4000 
@<TRIPOS>BOND
  1   1   2  1   
  2   2   3  ar  
  3   2   4  ar  
  4   3   5  ar  
  5   3  19  1   
  6   4   6  ar  
  7   4  20  1   
  8   5   7  ar  
  9   5   8  1   
 10   6   7  ar  
 11   6  21  1   
 12   7   9  1   
 13   8  10  1   
 14   8  22  1   
 15   8  23  1   
 16   9  24  1   
 17   9  25  1   
 18   9  26  1   
 19  10  11  1   
 20  10  12  1   
 21  10  27  1   
 22  11  13  1   
 23  11  28  1   
 24  11  29  1   
 25  12  14  1   
 26  12  30  1   
 27  12  31  1   
 28  13  15  1   
 29  13  16  1   
 30  13  32  1   
 31  14  16  1   
 32  14  33  1   
 33  14  34  1   
 34  15  35  1   
 35  16  17  1   
 36  16  36  1   
 37  17  18  1   
 38  17  37  1   
 39  17  38  1   
 40  18  39  1   
@<TRIPOS>SUBSTRUCTURE
  1 ****  10 GROUP 4 **** **** 0

# MOE 2024.06 (io_trps.svl 2023.06)
