@<TRIPOS>MOLECULE
NONAME
40 41 1 0 0 
SMALL
USER_CHARGES


@<TRIPOS>ATOM
  1 O       -0.3840    -0.1290    -0.5460 O.2   1 <1>  -0.5700 
  2 C       -1.4130    -0.7700    -0.5630 C.2   1 <1>   0.7800 
  3 O       -1.4400    -2.0530    -0.2010 O.3   1 <1>  -0.4300 
  4 N       -2.6040    -0.2040    -0.9450 N.am  1 <1>  -0.6600 
  5 C       -0.3510    -2.8450     0.2240 C.3   1 <1>   0.2800 
  6 C       -3.9040    -0.9560    -0.8990 C.3   1 <1>   0.1400 
  7 C       -2.6590     1.2390    -1.3760 C.3   1 <1>   0.1400 
  8 C        0.6910    -2.9610    -0.8950 C.3   1 <1>  -0.2400 
  9 C       -0.9460    -4.2260     0.5030 C.3   1 <1>  -0.2400 
 10 C        0.2420    -2.2800     1.5200 C.3   1 <1>  -0.2400 
 11 C       -4.9740    -0.0870    -0.2150 C.3   1 <1>   0.4230 
 12 C       -3.8400     2.0060    -0.7370 C.3   1 <1>   0.3430 
 13 N       -5.1060     1.2240    -0.8950 N.4   1 <1>  -0.9590 
 14 C       -6.4020    -0.6010    -0.1770 C.3   1 <1>  -0.1600 
 15 C       -6.3650     1.8250    -0.3510 C.3   1 <1>   0.3430 
 16 C       -7.1600     0.6510     0.2560 C.3   1 <1>   0.2000 
 17 O       -7.0470     0.7370     1.6330 O.3   1 <1>  -0.6800 
 18 H       -4.2080    -1.2070    -1.9000 H     1 <1>   0.0800 
 19 H       -3.7980    -1.8720    -0.3450 H     1 <1>   0.0800 
 20 H       -1.7450     1.7450    -1.1160 H     1 <1>   0.0800 
 21 H       -2.7470     1.2760    -2.4480 H     1 <1>   0.0800 
 22 H        1.4470    -3.6730    -0.6180 H     1 <1>   0.0800 
 23 H        1.1820    -2.0210    -1.0690 H     1 <1>   0.0800 
 24 H        0.2280    -3.2940    -1.8060 H     1 <1>   0.0800 
 25 H       -0.1790    -4.9020     0.8350 H     1 <1>   0.0800 
 26 H       -1.3880    -4.6300    -0.3900 H     1 <1>   0.0800 
 27 H       -1.6960    -4.1630     1.2710 H     1 <1>   0.0800 
 28 H        0.9770    -2.9600     1.9120 H     1 <1>   0.0800 
 29 H       -0.5260    -2.1470     2.2600 H     1 <1>   0.0800 
 30 H        0.7340    -1.3410     1.3460 H     1 <1>   0.0800 
 31 H       -4.6620     0.0790     0.8040 H     1 <1>   0.0800 
 32 H       -3.9350     2.9720    -1.2060 H     1 <1>   0.0800 
 33 H       -3.6320     2.1610     0.3090 H     1 <1>   0.0800 
 34 H       -5.2400     1.0300    -1.8940 H     1 <1>   0.4500 
 35 H       -6.5240    -1.4220     0.5090 H     1 <1>   0.0800 
 36 H       -6.7120    -0.9120    -1.1590 H     1 <1>   0.0800 
 37 H       -6.1510     2.5480     0.4200 H     1 <1>   0.0800 
 38 H       -6.9250     2.2960    -1.1420 H     1 <1>   0.0800 
 39 H       -8.2040     0.6610    -0.0130 H     1 <1>   0.0800 
 40 H       -7.6710     0.1300     2.0840 H     1 <1>   0.4000 
@<TRIPOS>BOND
  1   1   2  2   
  2   2   3  1   
  3   2   4  am  
  4   3   5  1   
  5   4   6  1   
  6   4   7  1   
  7   5   8  1   
  8   5   9  1   
  9   5  10  1   
 10   6  11  1   
 11   6  18  1   
 12   6  19  1   
 13   7  12  1   
 14   7  20  1   
 15   7  21  1   
 16   8  22  1   
 17   8  23  1   
 18   8  24  1   
 19   9  25  1   
 20   9  26  1   
 21   9  27  1   
 22  10  28  1   
 23  10  29  1   
 24  10  30  1   
 25  11  13  1   
 26  11  14  1   
 27  11  31  1   
 28  12  13  1   
 29  12  32  1   
 30  12  33  1   
 31  13  15  1   
 32  13  34  1   
 33  14  16  1   
 34  14  35  1   
 35  14  36  1   
 36  15  16  1   
 37  15  37  1   
 38  15  38  1   
 39  16  17  1   
 40  16  39  1   
 41  17  40  1   
@<TRIPOS>SUBSTRUCTURE
  1 ****   4 GROUP 4 **** **** 0

# MOE 2024.06 (io_trps.svl 2023.06)
