@<TRIPOS>MOLECULE
NONAME
43 43 1 0 0 
SMALL
USER_CHARGES


@<TRIPOS>ATOM
  1 O       -1.1320    -0.1980    -2.0380 O.2   1 <1>  -0.5700 
  2 C       -1.9520    -0.5650    -1.2370 C.2   1 <1>   0.5690 
  3 N       -2.0050    -1.7670    -0.5890 N.am  1 <1>  -0.4200 
  4 C       -3.1150     0.3060    -0.8630 C.3   1 <1>   0.0420 
  5 C       -1.0930    -2.7970    -0.6400 C.2   1 <1>   0.7800 
  6 C       -3.2010    -1.8390     0.2760 C.3   1 <1>   0.1400 
  7 C       -2.5730     1.3630     0.0710 C.2   1 <1>   0.6590 
  8 C       -4.0880    -0.6820    -0.1930 C.3   1 <1>  -0.1600 
  9 O       -0.1060    -2.7850    -1.3400 O.2   1 <1>  -0.5700 
 10 O       -1.3590    -3.8480     0.1430 O.3   1 <1>  -0.4300 
 11 O       -2.4010     1.1320     1.2420 O.2   1 <1>  -0.5700 
 12 O       -2.3230     2.5410    -0.4890 O.3   1 <1>  -0.4300 
 13 C       -0.5930    -5.0250     0.2950 C.3   1 <1>   0.2800 
 14 C       -1.7540     3.6810     0.1150 C.3   1 <1>   0.2800 
 15 C       -1.3590    -5.8700     1.3140 C.3   1 <1>  -0.2400 
 16 C        0.7920    -4.6860     0.8600 C.3   1 <1>  -0.2400 
 17 C       -0.5150    -5.7840    -1.0340 C.3   1 <1>  -0.2400 
 18 C       -0.3480     3.3500     0.6260 C.3   1 <1>  -0.2400 
 19 C       -1.6600     4.7240    -0.9980 C.3   1 <1>  -0.2400 
 20 C       -2.6720     4.1990     1.2270 C.3   1 <1>  -0.2400 
 21 H       -3.5470     0.7620    -1.7330 H     1 <1>   0.0800 
 22 H       -2.9010    -1.6970     1.3020 H     1 <1>   0.0800 
 23 H       -3.7020    -2.7870     0.1710 H     1 <1>   0.0800 
 24 H       -4.7860    -1.0520    -0.9230 H     1 <1>   0.0800 
 25 H       -4.6380    -0.2420     0.6210 H     1 <1>   0.0800 
 26 H       -1.4450    -5.3430     2.2470 H     1 <1>   0.0800 
 27 H       -0.8430    -6.7960     1.4950 H     1 <1>   0.0800 
 28 H       -2.3430    -6.0980     0.9460 H     1 <1>   0.0800 
 29 H        0.7000    -4.0940     1.7510 H     1 <1>   0.0800 
 30 H        1.3850    -4.1520     0.1400 H     1 <1>   0.0800 
 31 H        1.3190    -5.5900     1.1040 H     1 <1>   0.0800 
 32 H       -1.5000    -5.9410    -1.4350 H     1 <1>   0.0800 
 33 H       -0.0510    -6.7410    -0.8830 H     1 <1>   0.0800 
 34 H        0.0780    -5.2490    -1.7530 H     1 <1>   0.0800 
 35 H        0.2440     2.9180    -0.1620 H     1 <1>   0.0800 
 36 H       -0.3870     2.6650     1.4530 H     1 <1>   0.0800 
 37 H        0.1390     4.2450     0.9670 H     1 <1>   0.0800 
 38 H       -1.0400     4.3590    -1.7980 H     1 <1>   0.0800 
 39 H       -1.2280     5.6340    -0.6230 H     1 <1>   0.0800 
 40 H       -2.6380     4.9470    -1.3860 H     1 <1>   0.0800 
 41 H       -2.7080     3.5110     2.0520 H     1 <1>   0.0800 
 42 H       -3.6670     4.3540     0.8500 H     1 <1>   0.0800 
 43 H       -2.3000     5.1350     1.6020 H     1 <1>   0.0800 
@<TRIPOS>BOND
  1   1   2  2   
  2   2   3  am  
  3   2   4  1   
  4   3   5  am  
  5   3   6  1   
  6   4   7  1   
  7   4   8  1   
  8   4  21  1   
  9   5   9  2   
 10   5  10  1   
 11   6   8  1   
 12   6  22  1   
 13   6  23  1   
 14   7  11  2   
 15   7  12  1   
 16   8  24  1   
 17   8  25  1   
 18  10  13  1   
 19  12  14  1   
 20  13  15  1   
 21  13  16  1   
 22  13  17  1   
 23  14  18  1   
 24  14  19  1   
 25  14  20  1   
 26  15  26  1   
 27  15  27  1   
 28  15  28  1   
 29  16  29  1   
 30  16  30  1   
 31  16  31  1   
 32  17  32  1   
 33  17  33  1   
 34  17  34  1   
 35  18  35  1   
 36  18  36  1   
 37  18  37  1   
 38  19  38  1   
 39  19  39  1   
 40  19  40  1   
 41  20  41  1   
 42  20  42  1   
 43  20  43  1   
@<TRIPOS>SUBSTRUCTURE
  1 ****   2 GROUP 4 **** **** 0

# MOE 2024.06 (io_trps.svl 2023.06)
