@<TRIPOS>MOLECULE
NONAME
52 54 1 0 0 
SMALL
USER_CHARGES


@<TRIPOS>ATOM
  1 F       -0.8890     0.7300    -2.3530 F     1 <1>  -0.1900 
  2 C       -1.7660     1.2790    -1.5600 C.ar  1 <1>   0.1900 
  3 C       -1.6170     2.5900    -1.1970 C.ar  1 <1>  -0.1500 
  4 C       -2.8300     0.5000    -1.1170 C.ar  1 <1>  -0.1500 
  5 C       -2.5410     3.2010    -0.3250 C.ar  1 <1>   0.0000 
  6 C       -3.7710     1.0830    -0.3070 C.ar  1 <1>  -0.1500 
  7 C       -3.6580     2.4320     0.0750 C.ar  1 <1>   0.3610 
  8 C       -2.4290     4.5570     0.1290 C.ar  1 <1>   0.1000 
  9 N       -4.6520     3.0300     0.8150 N.ar  1 <1>  -0.1790 
 10 N       -1.3130     5.3060    -0.0640 N.pl3 1 <1>  -0.8380 
 11 C       -3.5120     5.0840     0.8370 C.ar  1 <1>  -0.1500 
 12 C       -4.6040     4.3240     1.1740 C.ar  1 <1>   0.2180 
 13 C       -1.3350     6.7310    -0.5390 C.3   1 <1>   0.2090 
 14 C        0.0430     4.7840     0.2840 C.3   1 <1>   0.2090 
 15 C       -5.7670     4.8990     1.9650 C.3   1 <1>  -0.0970 
 16 C       -0.2460     7.6440     0.0930 C.3   1 <1>   0.0000 
 17 C        0.6500     5.6160     1.4220 C.3   1 <1>  -0.1600 
 18 C        0.1560     7.0760     1.4770 C.3   1 <1>  -0.1600 
 19 C        1.0040     7.7070    -0.8320 C.3   1 <1>   0.1200 
 20 C       -0.8470     9.0520     0.3520 C.3   1 <1>   0.3430 
 21 O        1.7870     8.8180    -0.5290 O.3   1 <1>  -0.6800 
 22 N       -0.7560    10.0090    -0.7980 N.4   1 <1>  -0.9590 
 23 C       -0.9520    11.4120    -0.3250 C.3   1 <1>   0.2630 
 24 C       -1.6510     9.7080    -1.9560 C.3   1 <1>   0.2630 
 25 H       -0.7910     3.1480    -1.5960 H     1 <1>   0.1500 
 26 H       -2.8910    -0.5310    -1.4270 H     1 <1>   0.1500 
 27 H       -4.6070     0.4940     0.0300 H     1 <1>   0.1500 
 28 H       -5.4570     2.4560     1.0770 H     1 <1>   0.4570 
 29 H       -3.4650     6.1060     1.1600 H     1 <1>   0.1500 
 30 H       -2.3080     7.1420    -0.3400 H     1 <1>   0.0800 
 31 H       -1.2230     6.7210    -1.6090 H     1 <1>   0.0800 
 32 H        0.6720     4.8290    -0.5880 H     1 <1>   0.0800 
 33 H       -0.0110     3.7560     0.5990 H     1 <1>   0.0800 
 34 H       -5.8830     4.3760     2.8980 H     1 <1>   0.0800 
 35 H       -6.6820     4.8200     1.4030 H     1 <1>   0.0800 
 36 H       -5.6010     5.9390     2.1860 H     1 <1>   0.0800 
 37 H        1.7210     5.5940     1.3220 H     1 <1>   0.0800 
 38 H        0.4200     5.1380     2.3590 H     1 <1>   0.0800 
 39 H       -0.7060     7.1010     2.1220 H     1 <1>   0.0800 
 40 H        0.9160     7.6880     1.9340 H     1 <1>   0.0800 
 41 H        0.7200     7.7890    -1.8670 H     1 <1>   0.0800 
 42 H        1.6200     6.8320    -0.7260 H     1 <1>   0.0800 
 43 H       -0.2870     9.4790     1.1690 H     1 <1>   0.0800 
 44 H       -1.8680     8.9620     0.6830 H     1 <1>   0.0800 
 45 H        2.7200     8.6700    -0.8020 H     1 <1>   0.4000 
 46 H        0.2420     9.9270    -1.0930 H     1 <1>   0.4500 
 47 H       -1.9550    11.5470     0.0480 H     1 <1>   0.0800 
 48 H       -0.7880    12.1050    -1.1340 H     1 <1>   0.0800 
 49 H       -0.2550    11.6400     0.4660 H     1 <1>   0.0800 
 50 H       -2.6840     9.7410    -1.6500 H     1 <1>   0.0800 
 51 H       -1.4350     8.7330    -2.3580 H     1 <1>   0.0800 
 52 H       -1.5010    10.4360    -2.7370 H     1 <1>   0.0800 
@<TRIPOS>BOND
  1   1   2  1   
  2   2   3  ar  
  3   2   4  ar  
  4   3   5  ar  
  5   3  25  1   
  6   4   6  ar  
  7   4  26  1   
  8   5   7  ar  
  9   5   8  ar  
 10   6   7  ar  
 11   6  27  1   
 12   7   9  ar  
 13   8  10  1   
 14   8  11  ar  
 15   9  12  ar  
 16   9  28  1   
 17  10  13  1   
 18  10  14  1   
 19  11  12  ar  
 20  11  29  1   
 21  12  15  1   
 22  13  16  1   
 23  13  30  1   
 24  13  31  1   
 25  14  17  1   
 26  14  32  1   
 27  14  33  1   
 28  15  34  1   
 29  15  35  1   
 30  15  36  1   
 31  16  18  1   
 32  16  19  1   
 33  16  20  1   
 34  17  18  1   
 35  17  37  1   
 36  17  38  1   
 37  18  39  1   
 38  18  40  1   
 39  19  21  1   
 40  19  41  1   
 41  19  42  1   
 42  20  22  1   
 43  20  43  1   
 44  20  44  1   
 45  21  45  1   
 46  22  23  1   
 47  22  24  1   
 48  22  46  1   
 49  23  47  1   
 50  23  48  1   
 51  23  49  1   
 52  24  50  1   
 53  24  51  1   
 54  24  52  1   
@<TRIPOS>SUBSTRUCTURE
  1 ****  10 GROUP 4 **** **** 0

# MOE 2024.06 (io_trps.svl 2023.06)
