@<TRIPOS>MOLECULE
NONAME
60 63 1 0 0 
SMALL
USER_CHARGES


@<TRIPOS>ATOM
  1 O        2.5420    -2.8290    -0.0180 O.3   1 <1>  -0.5600 
  2 C        1.9330    -3.1340    -1.2420 C.3   1 <1>   0.1200 
  3 C        3.0160    -3.9480     0.6780 C.3   1 <1>   0.1200 
  4 C        0.7190    -4.0690    -1.0320 C.3   1 <1>   0.3430 
  5 C        1.8640    -4.9330     0.9820 C.3   1 <1>   0.3430 
  6 N        0.5460    -4.4340     0.4270 N.4   1 <1>  -0.9590 
  7 C       -0.6890    -5.2050     0.8030 C.3   1 <1>   0.5030 
  8 C       -0.6540    -6.6750     0.2270 C.3   1 <1>   0.3430 
  9 C       -1.8940    -4.4000     0.2960 C.3   1 <1>  -0.2400 
 10 C       -0.7420    -5.2110     2.3390 C.3   1 <1>  -0.2400 
 11 N       -1.8990    -7.5390     0.1980 N.4   1 <1>  -0.9590 
 12 C       -2.8780    -7.2940    -0.9160 C.3   1 <1>   0.3430 
 13 C       -2.7100    -7.7390     1.4360 C.3   1 <1>   0.3430 
 14 C       -4.2660    -7.6360    -0.3590 C.3   1 <1>   0.2000 
 15 C       -4.0110    -8.3830     0.9530 C.3   1 <1>  -0.0800 
 16 O       -4.8820    -6.4340    -0.0370 O.3   1 <1>  -0.6800 
 17 C       -3.9360    -9.9270     0.7940 C.3   1 <1>  -0.0170 
 18 C       -2.5630   -10.4960     0.4450 C.ar  1 <1>   0.1670 
 19 N       -2.0750   -10.2310    -0.7300 N.ar  1 <1>  -0.6200 
 20 C       -1.8800   -11.2570     1.4090 C.ar  1 <1>  -0.1500 
 21 C       -0.8610   -10.7540    -1.0510 C.ar  1 <1>   0.3100 
 22 C       -0.6430   -11.7520     1.1310 C.ar  1 <1>  -0.1500 
 23 C       -0.0890   -11.4970    -0.1330 C.ar  1 <1>   0.0000 
 24 C       -0.3390   -10.5240    -2.3350 C.ar  1 <1>  -0.1500 
 25 C        1.1860   -11.9520    -0.5210 C.ar  1 <1>  -0.1500 
 26 C        0.9020   -10.9790    -2.6940 C.ar  1 <1>  -0.1500 
 27 C        1.6740   -11.6960    -1.7740 C.ar  1 <1>  -0.1500 
 28 H        1.6160    -2.2070    -1.6900 H     1 <1>   0.0800 
 29 H        2.6640    -3.5870    -1.8900 H     1 <1>   0.0800 
 30 H        3.7850    -4.4220     0.0920 H     1 <1>   0.0800 
 31 H        3.4600    -3.6000     1.5950 H     1 <1>   0.0800 
 32 H        0.8570    -4.9550    -1.6300 H     1 <1>   0.0800 
 33 H       -0.1570    -3.5620    -1.3980 H     1 <1>   0.0800 
 34 H        1.8000    -5.0500     2.0520 H     1 <1>   0.0800 
 35 H        2.1100    -5.8950     0.5640 H     1 <1>   0.0800 
 36 H        0.4520    -3.5080     0.8750 H     1 <1>   0.4500 
 37 H        0.0930    -7.2090     0.7880 H     1 <1>   0.0800 
 38 H       -0.2930    -6.6090    -0.7850 H     1 <1>   0.0800 
 39 H       -2.8100    -4.8120     0.6800 H     1 <1>   0.0800 
 40 H       -1.9650    -4.4130    -0.7760 H     1 <1>   0.0800 
 41 H       -1.8430    -3.3790     0.6310 H     1 <1>   0.0800 
 42 H       -1.7100    -5.5070     2.6960 H     1 <1>   0.0800 
 43 H       -0.5610    -4.2260     2.7330 H     1 <1>   0.0800 
 44 H       -0.0250    -5.8940     2.7590 H     1 <1>   0.0800 
 45 H       -1.5860    -8.5090    -0.0300 H     1 <1>   0.4500 
 46 H       -2.8680    -6.2720    -1.2510 H     1 <1>   0.0800 
 47 H       -2.6510    -7.9450    -1.7440 H     1 <1>   0.0800 
 48 H       -2.2000    -8.3560     2.1590 H     1 <1>   0.0800 
 49 H       -2.9550    -6.7870     1.8740 H     1 <1>   0.0800 
 50 H       -4.8820    -8.1640    -1.0680 H     1 <1>   0.0800 
 51 H       -4.8040    -8.1760     1.6520 H     1 <1>   0.0800 
 52 H       -5.8490    -6.5520     0.0860 H     1 <1>   0.4000 
 53 H       -4.6410   -10.2520     0.0480 H     1 <1>   0.0800 
 54 H       -4.2590   -10.3720     1.7180 H     1 <1>   0.0800 
 55 H       -2.3380   -11.4520     2.3630 H     1 <1>   0.1500 
 56 H       -0.0900   -12.3400     1.8450 H     1 <1>   0.1500 
 57 H       -0.9460    -9.9880    -3.0400 H     1 <1>   0.1500 
 58 H        1.7720   -12.5160     0.1840 H     1 <1>   0.1500 
 59 H        1.2950   -10.8030    -3.6810 H     1 <1>   0.1500 
 60 H        2.6480   -12.0510    -2.0710 H     1 <1>   0.1500 
@<TRIPOS>BOND
  1   1   2  1   
  2   1   3  1   
  3   2   4  1   
  4   2  28  1   
  5   2  29  1   
  6   3   5  1   
  7   3  30  1   
  8   3  31  1   
  9   4   6  1   
 10   4  32  1   
 11   4  33  1   
 12   5   6  1   
 13   5  34  1   
 14   5  35  1   
 15   6   7  1   
 16   6  36  1   
 17   7   8  1   
 18   7   9  1   
 19   7  10  1   
 20   8  11  1   
 21   8  37  1   
 22   8  38  1   
 23   9  39  1   
 24   9  40  1   
 25   9  41  1   
 26  10  42  1   
 27  10  43  1   
 28  10  44  1   
 29  11  12  1   
 30  11  13  1   
 31  11  45  1   
 32  12  14  1   
 33  12  46  1   
 34  12  47  1   
 35  13  15  1   
 36  13  48  1   
 37  13  49  1   
 38  14  15  1   
 39  14  16  1   
 40  14  50  1   
 41  15  17  1   
 42  15  51  1   
 43  16  52  1   
 44  17  18  1   
 45  17  53  1   
 46  17  54  1   
 47  18  19  ar  
 48  18  20  ar  
 49  19  21  ar  
 50  20  22  ar  
 51  20  55  1   
 52  21  23  ar  
 53  21  24  ar  
 54  22  23  ar  
 55  22  56  1   
 56  23  25  ar  
 57  24  26  ar  
 58  24  57  1   
 59  25  27  ar  
 60  25  58  1   
 61  26  27  ar  
 62  26  59  1   
 63  27  60  1   
@<TRIPOS>SUBSTRUCTURE
  1 ****  11 GROUP 4 **** **** 0

# MOE 2024.06 (io_trps.svl 2023.06)
