@<TRIPOS>MOLECULE
NONAME
58 61 1 0 0 
SMALL
USER_CHARGES


@<TRIPOS>ATOM
  1 O       -0.8520     0.5390    -1.3650 O.2   1 <1>  -0.5700 
  2 C       -1.6640     1.0650    -0.6310 C.2   1 <1>   0.5690 
  3 N       -2.8170     0.3870    -0.2750 N.am  1 <1>  -0.6600 
  4 C       -1.3120     2.4930    -0.1480 C.3   1 <1>   0.1710 
  5 C       -4.0390     0.9780     0.3840 C.3   1 <1>   0.5070 
  6 C       -2.9130    -1.0790    -0.5360 C.3   1 <1>   0.1400 
  7 N        0.1400     2.7950    -0.1620 N.3   1 <1>  -0.9000 
  8 C       -5.3390     0.2190     0.0690 C.ar  1 <1>  -0.1440 
  9 C       -4.2210     2.4360    -0.0190 C.ar  1 <1>  -0.1430 
 10 C       -4.1000    -1.3590    -1.4510 C.3   1 <1>  -0.0170 
 11 C        0.4450     4.1520    -0.6420 C.3   1 <1>   0.1100 
 12 C       -5.3770    -0.8700    -0.7960 C.ar  1 <1>  -0.1430 
 13 C       -6.5210     0.6450     0.6630 C.ar  1 <1>  -0.1500 
 14 C       -4.1740     3.4320     0.9480 C.ar  1 <1>  -0.1500 
 15 C       -4.3600     2.7840    -1.3570 C.ar  1 <1>  -0.1500 
 16 C        0.0310     5.2580     0.3500 C.3   1 <1>   0.1200 
 17 C       -6.5760    -1.5170    -1.0540 C.ar  1 <1>  -0.1500 
 18 C       -7.7220     0.0110     0.4010 C.ar  1 <1>   0.0830 
 19 C       -4.1550     4.7610     0.5730 C.ar  1 <1>  -0.1500 
 20 C       -4.3400     4.1140    -1.7320 C.ar  1 <1>  -0.1500 
 21 O       -1.3150     5.6350     0.2170 O.3   1 <1>  -0.5600 
 22 C       -7.7480    -1.0960    -0.4520 C.ar  1 <1>   0.0830 
 23 O       -8.8350     0.5140     0.9870 O.3   1 <1>  -0.3620 
 24 C       -4.1810     5.1000    -0.7730 C.ar  1 <1>   0.0830 
 25 C       -1.5830     6.5940    -0.7690 C.3   1 <1>   0.1200 
 26 O       -8.8780    -1.7940    -0.7270 O.3   1 <1>  -0.3630 
 27 C       -9.7550     1.1420     0.1220 C.3   1 <1>   0.0400 
 28 O       -4.0030     6.3690    -1.1990 O.3   1 <1>  -0.3630 
 29 C       -3.0010     7.1790    -0.6000 C.3   1 <1>   0.1200 
 30 C       -9.4990    -2.4480     0.3590 C.3   1 <1>   0.0400 
 31 H       -1.6680     2.6340     0.8550 H     1 <1>   0.0800 
 32 H       -1.8180     3.1890    -0.7900 H     1 <1>   0.0800 
 33 H       -3.8860     0.9250     1.4480 H     1 <1>   0.0800 
 34 H       -3.0470    -1.5950     0.3990 H     1 <1>   0.0800 
 35 H       -2.0150    -1.4560    -0.9930 H     1 <1>   0.0800 
 36 H        0.5360     2.1120    -0.8310 H     1 <1>   0.3600 
 37 H       -4.1590    -2.4170    -1.6330 H     1 <1>   0.0800 
 38 H       -3.9540    -0.8620    -2.3940 H     1 <1>   0.0800 
 39 H       -0.0010     4.3230    -1.6070 H     1 <1>   0.0800 
 40 H        1.5120     4.2110    -0.7640 H     1 <1>   0.0800 
 41 H       -6.5260     1.4890     1.3290 H     1 <1>   0.1500 
 42 H       -4.1130     3.1840     1.9930 H     1 <1>   0.1500 
 43 H       -4.4470     2.0170    -2.1070 H     1 <1>   0.1500 
 44 H        0.6480     6.1290     0.2150 H     1 <1>   0.0800 
 45 H        0.1740     4.9010     1.3540 H     1 <1>   0.0800 
 46 H       -6.6140    -2.3580    -1.7220 H     1 <1>   0.1500 
 47 H       -4.0880     5.5240     1.3250 H     1 <1>   0.1500 
 48 H       -4.4150     4.3920    -2.7680 H     1 <1>   0.1500 
 49 H       -1.4720     6.1460    -1.7410 H     1 <1>   0.0800 
 50 H       -0.8710     7.3930    -0.6590 H     1 <1>   0.0800 
 51 H      -10.5470     1.5590     0.7160 H     1 <1>   0.0800 
 52 H      -10.1520     0.4150    -0.5640 H     1 <1>   0.0800 
 53 H       -9.2460     1.9230    -0.4160 H     1 <1>   0.0800 
 54 H       -3.0470     8.1280    -1.1020 H     1 <1>   0.0800 
 55 H       -3.2340     7.3360     0.4360 H     1 <1>   0.0800 
 56 H      -10.2720    -3.0850    -0.0310 H     1 <1>   0.0800 
 57 H       -9.9290    -1.7160     1.0180 H     1 <1>   0.0800 
 58 H       -8.7640    -3.0350     0.8790 H     1 <1>   0.0800 
@<TRIPOS>BOND
  1   1   2  2   
  2   2   3  am  
  3   2   4  1   
  4   3   5  1   
  5   3   6  1   
  6   4   7  1   
  7   4  31  1   
  8   4  32  1   
  9   5   8  1   
 10   5   9  1   
 11   5  33  1   
 12   6  10  1   
 13   6  34  1   
 14   6  35  1   
 15   7  11  1   
 16   7  36  1   
 17   8  12  ar  
 18   8  13  ar  
 19   9  14  ar  
 20   9  15  ar  
 21  10  12  1   
 22  10  37  1   
 23  10  38  1   
 24  11  16  1   
 25  11  39  1   
 26  11  40  1   
 27  12  17  ar  
 28  13  18  ar  
 29  13  41  1   
 30  14  19  ar  
 31  14  42  1   
 32  15  20  ar  
 33  15  43  1   
 34  16  21  1   
 35  16  44  1   
 36  16  45  1   
 37  17  22  ar  
 38  17  46  1   
 39  18  22  ar  
 40  18  23  1   
 41  19  24  ar  
 42  19  47  1   
 43  20  24  ar  
 44  20  48  1   
 45  21  25  1   
 46  22  26  1   
 47  23  27  1   
 48  24  28  1   
 49  25  29  1   
 50  25  49  1   
 51  25  50  1   
 52  26  30  1   
 53  27  51  1   
 54  27  52  1   
 55  27  53  1   
 56  28  29  1   
 57  29  54  1   
 58  29  55  1   
 59  30  56  1   
 60  30  57  1   
 61  30  58  1   
@<TRIPOS>SUBSTRUCTURE
  1 ****   9 GROUP 4 **** **** 0

# MOE 2024.06 (io_trps.svl 2023.06)
