@<TRIPOS>MOLECULE
NONAME
43 45 1 0 0 
SMALL
USER_CHARGES


@<TRIPOS>ATOM
  1 S       -0.9020    -0.0100    -0.4940 S.3   1 <1>  -0.0800 
  2 C       -1.1530    -0.4990     1.1880 C.2   1 <1>  -0.0450 
  3 C       -0.0890     1.4670    -0.0250 C.2   1 <1>  -0.1400 
  4 C       -1.8100    -1.7470     1.4980 C.2   1 <1>   0.7150 
  5 C       -0.6080     0.4470     1.9930 C.2   1 <1>  -0.1500 
  6 C       -0.0160     1.5530     1.3160 C.2   1 <1>  -0.1500 
  7 C        0.3910     2.3810    -1.1320 C.3   1 <1>  -0.0600 
  8 O       -1.4880    -2.3400     2.5120 O.2   1 <1>  -0.5700 
  9 N       -2.7890    -2.3150     0.7040 N.am  1 <1>  -0.6600 
 10 C       -3.8100    -1.5170    -0.0470 C.3   1 <1>   0.2200 
 11 C       -2.8090    -3.8010     0.5490 C.3   1 <1>   0.0600 
 12 C       -5.1110    -2.2810    -0.3060 C.3   1 <1>  -0.1600 
 13 C       -4.2970    -0.2920     0.7310 C.3   1 <1>  -0.1600 
 14 C       -6.1590    -1.2010    -0.5990 C.3   1 <1>  -0.0800 
 15 C       -5.6460     0.0750     0.1010 C.3   1 <1>  -0.0800 
 16 C       -7.5860    -1.6320    -0.2060 C.3   1 <1>   0.1400 
 17 C       -6.6450     0.6770     1.1070 C.3   1 <1>  -0.0990 
 18 N       -8.4720    -0.4450    -0.1140 N.am  1 <1>  -0.6600 
 19 C       -8.0440     0.6870     0.5250 C.2   1 <1>   0.5690 
 20 C       -9.8360    -0.5750    -0.6920 C.3   1 <1>   0.0600 
 21 O       -8.7250     1.6770     0.6480 O.2   1 <1>  -0.5700 
 22 H       -0.6040     0.3890     3.0680 H     1 <1>   0.1500 
 23 H        0.4390     2.3590     1.8650 H     1 <1>   0.1500 
 24 H        0.8750     3.2460    -0.7150 H     1 <1>   0.0800 
 25 H       -0.4420     2.7020    -1.7300 H     1 <1>   0.0800 
 26 H        1.0920     1.8590    -1.7590 H     1 <1>   0.0800 
 27 H       -3.3990    -1.2050    -0.9930 H     1 <1>   0.0800 
 28 H       -2.9250    -4.0640    -0.4870 H     1 <1>   0.0800 
 29 H       -3.6180    -4.2180     1.1230 H     1 <1>   0.0800 
 30 H       -1.8860    -4.2260     0.9060 H     1 <1>   0.0800 
 31 H       -5.0170    -2.9660    -1.1300 H     1 <1>   0.0800 
 32 H       -5.3910    -2.8130     0.5860 H     1 <1>   0.0800 
 33 H       -4.4340    -0.5630     1.7640 H     1 <1>   0.0800 
 34 H       -3.6130     0.5350     0.6630 H     1 <1>   0.0800 
 35 H       -6.1570    -1.0130    -1.6600 H     1 <1>   0.0800 
 36 H       -5.4730     0.8120    -0.6680 H     1 <1>   0.0800 
 37 H       -7.5770    -2.1190     0.7540 H     1 <1>   0.0800 
 38 H       -7.9680    -2.3270    -0.9340 H     1 <1>   0.0800 
 39 H       -6.3530     1.6790     1.3620 H     1 <1>   0.0800 
 40 H       -6.6710     0.0930     2.0080 H     1 <1>   0.0800 
 41 H      -10.3580    -1.3850    -0.2150 H     1 <1>   0.0800 
 42 H       -9.7670    -0.7660    -1.7480 H     1 <1>   0.0800 
 43 H      -10.3970     0.3320    -0.5430 H     1 <1>   0.0800 
@<TRIPOS>BOND
  1   1   2  1   
  2   1   3  1   
  3   2   4  1   
  4   2   5  2   
  5   3   6  2   
  6   3   7  1   
  7   4   8  2   
  8   4   9  am  
  9   5   6  1   
 10   5  22  1   
 11   6  23  1   
 12   7  24  1   
 13   7  25  1   
 14   7  26  1   
 15   9  10  1   
 16   9  11  1   
 17  10  12  1   
 18  10  13  1   
 19  10  27  1   
 20  11  28  1   
 21  11  29  1   
 22  11  30  1   
 23  12  14  1   
 24  12  31  1   
 25  12  32  1   
 26  13  15  1   
 27  13  33  1   
 28  13  34  1   
 29  14  15  1   
 30  14  16  1   
 31  14  35  1   
 32  15  17  1   
 33  15  36  1   
 34  16  18  1   
 35  16  37  1   
 36  16  38  1   
 37  17  19  1   
 38  17  39  1   
 39  17  40  1   
 40  18  19  am  
 41  18  20  1   
 42  19  21  2   
 43  20  41  1   
 44  20  42  1   
 45  20  43  1   
@<TRIPOS>SUBSTRUCTURE
  1 ****  13 GROUP 4 **** **** 0

# MOE 2024.06 (io_trps.svl 2023.06)
