@<TRIPOS>MOLECULE
NONAME
40 41 1 0 0 
SMALL
USER_CHARGES


@<TRIPOS>ATOM
  1 F       -1.8060    -0.4120    -2.0240 F     1 <1>  -0.1900 
  2 C       -2.3780    -1.2090    -1.1440 C.ar  1 <1>   0.1900 
  3 C       -3.4330    -0.7810    -0.3420 C.ar  1 <1>   0.4100 
  4 C       -1.9120    -2.4850    -1.0090 C.ar  1 <1>   0.1600 
  5 N       -3.9560    -1.6150     0.5370 N.ar  1 <1>  -0.6200 
  6 N       -3.9890     0.4960    -0.4040 N.pl3 1 <1>  -0.8380 
  7 N       -2.4380    -3.3220    -0.1380 N.ar  1 <1>  -0.6200 
  8 C       -3.4460    -2.8440     0.5900 C.ar  1 <1>   0.7200 
  9 C       -4.3540     1.0990    -1.7150 C.3   1 <1>   0.1290 
 10 C       -4.7020     1.0650     0.7730 C.3   1 <1>   0.1290 
 11 N       -4.0130    -3.7160     1.4960 N.pl3 1 <1>  -0.8380 
 12 C       -4.1300    -5.1640     1.1130 C.3   1 <1>   0.3900 
 13 C       -5.0640    -3.2440     2.4420 C.3   1 <1>   0.1290 
 14 C       -5.3100    -5.4510     0.1780 C.2   1 <1>   0.3350 
 15 N       -5.2100    -5.6960    -1.0700 N.2   1 <1>  -0.4100 
 16 N       -6.5660    -5.4860     0.6200 N.2   1 <1>  -0.5650 
 17 O       -6.4110    -5.8860    -1.5220 O.3   1 <1>  -0.0190 
 18 C       -7.1760    -5.7440    -0.4680 C.2   1 <1>   0.2980 
 19 C       -8.6860    -5.8940    -0.6210 C.3   1 <1>   0.1000 
 20 C       -9.0590    -7.2980    -1.1160 C.3   1 <1>  -0.2400 
 21 C       -9.2540    -4.8250    -1.5650 C.3   1 <1>  -0.2400 
 22 H       -1.0960    -2.8260    -1.6200 H     1 <1>   0.1500 
 23 H       -4.2110     0.3890    -2.5110 H     1 <1>   0.0800 
 24 H       -3.7370     1.9610    -1.8990 H     1 <1>   0.0800 
 25 H       -5.3880     1.3970    -1.7100 H     1 <1>   0.0800 
 26 H       -4.2400     0.7250     1.6830 H     1 <1>   0.0800 
 27 H       -5.7300     0.7460     0.7640 H     1 <1>   0.0800 
 28 H       -4.6580     2.1400     0.7460 H     1 <1>   0.0800 
 29 H       -4.2530    -5.7520     2.0040 H     1 <1>   0.0800 
 30 H       -3.2260    -5.5020     0.6400 H     1 <1>   0.0800 
 31 H       -4.7430    -2.3360     2.9240 H     1 <1>   0.0800 
 32 H       -5.2510    -3.9860     3.1980 H     1 <1>   0.0800 
 33 H       -5.9770    -3.0490     1.9040 H     1 <1>   0.0800 
 34 H       -9.1270    -5.7520     0.3510 H     1 <1>   0.0800 
 35 H       -8.6480    -7.4760    -2.0950 H     1 <1>   0.0800 
 36 H      -10.1270    -7.4070    -1.1640 H     1 <1>   0.0800 
 37 H       -8.6690    -8.0400    -0.4420 H     1 <1>   0.0800 
 38 H       -8.8480    -4.9400    -2.5550 H     1 <1>   0.0800 
 39 H       -8.9980    -3.8440    -1.2030 H     1 <1>   0.0800 
 40 H      -10.3250    -4.9010    -1.6180 H     1 <1>   0.0800 
@<TRIPOS>BOND
  1   1   2  1   
  2   2   3  ar  
  3   2   4  ar  
  4   3   5  ar  
  5   3   6  1   
  6   4   7  ar  
  7   4  22  1   
  8   5   8  ar  
  9   6   9  1   
 10   6  10  1   
 11   7   8  ar  
 12   8  11  1   
 13   9  23  1   
 14   9  24  1   
 15   9  25  1   
 16  10  26  1   
 17  10  27  1   
 18  10  28  1   
 19  11  12  1   
 20  11  13  1   
 21  12  14  1   
 22  12  29  1   
 23  12  30  1   
 24  13  31  1   
 25  13  32  1   
 26  13  33  1   
 27  14  15  2   
 28  14  16  1   
 29  15  17  1   
 30  16  18  2   
 31  17  18  1   
 32  18  19  1   
 33  19  20  1   
 34  19  21  1   
 35  19  34  1   
 36  20  35  1   
 37  20  36  1   
 38  20  37  1   
 39  21  38  1   
 40  21  39  1   
 41  21  40  1   
@<TRIPOS>SUBSTRUCTURE
  1 ****   8 GROUP 4 **** **** 0

# MOE 2024.06 (io_trps.svl 2023.06)
