@<TRIPOS>MOLECULE
NONAME
55 57 1 0 0 
SMALL
USER_CHARGES


@<TRIPOS>ATOM
  1 O       -0.0490     0.9890     1.4330 O.2   1 <1>  -0.5700 
  2 C       -0.0240     2.0880     0.9400 C.2   1 <1>   0.5690 
  3 N       -0.9820     2.9980     1.2350 N.am  1 <1>  -0.7300 
  4 C        1.0900     2.4630    -0.0510 C.3   1 <1>   0.1810 
  5 C       -0.9510     4.3810     0.7100 C.3   1 <1>   0.3640 
  6 O        1.1680     3.8530    -0.3180 O.3   1 <1>  -0.5600 
  7 C       -2.3630     4.9050     0.4900 C.ar  1 <1>  -0.1440 
  8 C       -0.0930     4.4500    -0.5710 C.3   1 <1>   0.2610 
  9 C       -2.6860     6.1770     0.9350 C.ar  1 <1>  -0.1500 
 10 C       -3.3320     4.1580    -0.1600 C.ar  1 <1>  -0.1500 
 11 C        0.0500     5.9010    -1.0290 C.2   1 <1>   0.5690 
 12 C       -3.9430     6.7190     0.7370 C.ar  1 <1>   0.0830 
 13 C       -4.5960     4.6820    -0.3690 C.ar  1 <1>  -0.1500 
 14 O       -0.6050     6.2880    -1.9670 O.2   1 <1>  -0.5700 
 15 N        0.8880     6.7500    -0.3700 N.am  1 <1>  -0.7300 
 16 O       -4.0980     7.9820     1.2300 O.3   1 <1>  -0.3630 
 17 C       -4.9200     5.9670     0.0630 C.ar  1 <1>   0.0830 
 18 C        1.0270     8.1680    -0.7260 C.3   1 <1>   0.2200 
 19 C       -5.3520     8.4310     1.6980 C.3   1 <1>   0.0400 
 20 O       -6.1540     6.5020    -0.1740 O.3   1 <1>  -0.3630 
 21 C        2.3690     8.7060    -0.2380 C.3   1 <1>  -0.1600 
 22 C       -0.1270     8.9570    -0.1080 C.3   1 <1>  -0.1600 
 23 C       -7.0680     5.9050    -1.0680 C.3   1 <1>   0.0400 
 24 C        2.4820    10.1970    -0.5520 C.3   1 <1>   0.3430 
 25 C        0.0130    10.4410    -0.4280 C.3   1 <1>   0.3430 
 26 N        1.3370    10.9410     0.0560 N.4   1 <1>  -0.9590 
 27 C        1.4660    12.4090    -0.1940 C.3   1 <1>   0.2630 
 28 H       -1.7160     2.7560     1.9040 H     1 <1>   0.3700 
 29 H        0.9210     1.9510    -0.9820 H     1 <1>   0.0800 
 30 H        2.0390     2.1500     0.3450 H     1 <1>   0.0800 
 31 H       -0.4780     4.9970     1.4560 H     1 <1>   0.0800 
 32 H       -0.5740     3.9010    -1.3610 H     1 <1>   0.0800 
 33 H       -1.9570     6.7770     1.4480 H     1 <1>   0.1500 
 34 H       -3.1100     3.1650    -0.5120 H     1 <1>   0.1500 
 35 H       -5.3140     4.0670    -0.8760 H     1 <1>   0.1500 
 36 H        1.5670     6.3480     0.2830 H     1 <1>   0.3700 
 37 H        0.9790     8.2580    -1.8010 H     1 <1>   0.0800 
 38 H       -5.1890     9.2740     2.3440 H     1 <1>   0.0800 
 39 H       -5.8300     7.6360     2.2420 H     1 <1>   0.0800 
 40 H       -5.9500     8.7290     0.8560 H     1 <1>   0.0800 
 41 H        2.4770     8.5530     0.8210 H     1 <1>   0.0800 
 42 H        3.1650     8.1850    -0.7400 H     1 <1>   0.0800 
 43 H       -1.0590     8.6060    -0.5190 H     1 <1>   0.0800 
 44 H       -0.1580     8.8160     0.9570 H     1 <1>   0.0800 
 45 H       -7.9120     6.5630    -1.1710 H     1 <1>   0.0800 
 46 H       -7.3890     4.9630    -0.6610 H     1 <1>   0.0800 
 47 H       -6.5890     5.7730    -2.0220 H     1 <1>   0.0800 
 48 H        2.4790    10.3380    -1.6210 H     1 <1>   0.0800 
 49 H        3.4150    10.5760    -0.1650 H     1 <1>   0.0800 
 50 H       -0.7880    10.9860     0.0460 H     1 <1>   0.0800 
 51 H       -0.0660    10.5850    -1.4940 H     1 <1>   0.0800 
 52 H        1.3670    10.7840     1.0740 H     1 <1>   0.4500 
 53 H        1.4340    12.6140    -1.2520 H     1 <1>   0.0800 
 54 H        2.4000    12.7770     0.2000 H     1 <1>   0.0800 
 55 H        0.6600    12.9430     0.2840 H     1 <1>   0.0800 
@<TRIPOS>BOND
  1   1   2  2   
  2   2   3  am  
  3   2   4  1   
  4   3   5  1   
  5   3  28  1   
  6   4   6  1   
  7   4  29  1   
  8   4  30  1   
  9   5   7  1   
 10   5   8  1   
 11   5  31  1   
 12   6   8  1   
 13   7   9  ar  
 14   7  10  ar  
 15   8  11  1   
 16   8  32  1   
 17   9  12  ar  
 18   9  33  1   
 19  10  13  ar  
 20  10  34  1   
 21  11  14  2   
 22  11  15  am  
 23  12  16  1   
 24  12  17  ar  
 25  13  17  ar  
 26  13  35  1   
 27  15  18  1   
 28  15  36  1   
 29  16  19  1   
 30  17  20  1   
 31  18  21  1   
 32  18  22  1   
 33  18  37  1   
 34  19  38  1   
 35  19  39  1   
 36  19  40  1   
 37  20  23  1   
 38  21  24  1   
 39  21  41  1   
 40  21  42  1   
 41  22  25  1   
 42  22  43  1   
 43  22  44  1   
 44  23  45  1   
 45  23  46  1   
 46  23  47  1   
 47  24  26  1   
 48  24  48  1   
 49  24  49  1   
 50  25  26  1   
 51  25  50  1   
 52  25  51  1   
 53  26  27  1   
 54  26  52  1   
 55  27  53  1   
 56  27  54  1   
 57  27  55  1   
@<TRIPOS>SUBSTRUCTURE
  1 ****   9 GROUP 4 **** **** 0

# MOE 2024.06 (io_trps.svl 2023.06)
