@<TRIPOS>MOLECULE
NONAME
54 56 1 0 0 
SMALL
USER_CHARGES


@<TRIPOS>ATOM
  1 S        1.1440     1.6690    -0.2770 S.o2  1 <1>   1.3330 
  2 O        0.8390     2.3570    -1.5110 O.2   1 <1>  -0.6500 
  3 O        2.2300     2.1340     0.5570 O.2   1 <1>  -0.6500 
  4 N        1.4540     0.0460    -0.6670 N.am  1 <1>  -0.8490 
  5 C       -0.3420     1.5420     0.7270 C.3   1 <1>  -0.0550 
  6 C        0.6810    -0.4360    -1.8180 C.3   1 <1>   0.1160 
  7 C        2.8810    -0.2110    -0.8890 C.3   1 <1>   0.1160 
  8 C       -0.9260     2.8540     1.3000 C.3   1 <1>  -0.0800 
  9 C       -1.2220     3.9130     0.2340 C.3   1 <1>   0.2000 
 10 C        0.0040     3.5540     2.3070 C.3   1 <1>   0.1100 
 11 O       -2.3680     4.5790     0.6240 O.3   1 <1>  -0.6800 
 12 C       -0.0620     4.8930     0.3680 C.3   1 <1>   0.1100 
 13 N        0.2320     4.9170     1.8090 N.3   1 <1>  -0.8100 
 14 C        1.6200     5.3760     2.0610 C.3   1 <1>   0.2530 
 15 C        1.8590     6.8140     1.5980 C.ar  1 <1>   0.1670 
 16 N        2.8850     7.0490     0.8330 N.ar  1 <1>  -0.6200 
 17 C        0.9680     7.8140     2.0220 C.ar  1 <1>  -0.1500 
 18 C        3.0900     8.3250     0.4230 C.ar  1 <1>   0.3100 
 19 C        1.1540     9.1050     1.6310 C.ar  1 <1>  -0.1500 
 20 C        2.2500     9.3950     0.8010 C.ar  1 <1>   0.0000 
 21 C        4.1850     8.6000    -0.4120 C.ar  1 <1>  -0.1500 
 22 C        2.5410    10.6910     0.3340 C.ar  1 <1>  -0.1500 
 23 C        4.4530     9.8670    -0.8580 C.ar  1 <1>  -0.1500 
 24 C        3.6170    10.9340    -0.4790 C.ar  1 <1>   0.0820 
 25 O        3.8200    12.2130    -0.8800 O.3   1 <1>  -0.3630 
 26 C        4.9060    12.5710    -1.7020 C.3   1 <1>   0.1200 
 27 C        4.8360    14.0750    -1.9470 C.3   1 <1>  -0.2400 
 28 H       -1.1070     1.0790     0.1360 H     1 <1>   0.0800 
 29 H       -0.1390     0.8810     1.5470 H     1 <1>   0.0800 
 30 H        0.8470    -1.4910    -1.9580 H     1 <1>   0.0800 
 31 H        0.9730     0.0870    -2.7140 H     1 <1>   0.0800 
 32 H       -0.3710    -0.2780    -1.6530 H     1 <1>   0.0800 
 33 H        3.0420    -1.2490    -1.1250 H     1 <1>   0.0800 
 34 H        3.4410     0.0210     0.0020 H     1 <1>   0.0800 
 35 H        3.2500     0.3990    -1.6970 H     1 <1>   0.0800 
 36 H       -1.8390     2.5870     1.8050 H     1 <1>   0.0800 
 37 H       -1.3640     3.5330    -0.7630 H     1 <1>   0.0800 
 38 H        0.9340     3.0220     2.4140 H     1 <1>   0.0800 
 39 H       -0.4630     3.6080     3.2760 H     1 <1>   0.0800 
 40 H       -2.1190     5.1210     1.4030 H     1 <1>   0.4000 
 41 H       -0.3190     5.8710    -0.0020 H     1 <1>   0.0800 
 42 H        0.7910     4.5330    -0.1800 H     1 <1>   0.0800 
 43 H        1.8230     5.3240     3.1150 H     1 <1>   0.0800 
 44 H        2.3160     4.7250     1.5580 H     1 <1>   0.0800 
 45 H        0.1420     7.5330     2.6510 H     1 <1>   0.1500 
 46 H        0.4910     9.8940     1.9360 H     1 <1>   0.1500 
 47 H        4.8090     7.7710    -0.6890 H     1 <1>   0.1500 
 48 H        1.9020    11.5050     0.6220 H     1 <1>   0.1500 
 49 H        5.3000    10.0310    -1.4960 H     1 <1>   0.1500 
 50 H        5.8190    12.3110    -1.1950 H     1 <1>   0.0800 
 51 H        4.8240    12.0310    -2.6300 H     1 <1>   0.0800 
 52 H        4.9010    14.6040    -1.0130 H     1 <1>   0.0800 
 53 H        3.9130    14.3260    -2.4380 H     1 <1>   0.0800 
 54 H        5.6530    14.3810    -2.5730 H     1 <1>   0.0800 
@<TRIPOS>BOND
  1   1   2  2   
  2   1   3  2   
  3   1   4  am  
  4   1   5  1   
  5   4   6  1   
  6   4   7  1   
  7   5   8  1   
  8   5  28  1   
  9   5  29  1   
 10   6  30  1   
 11   6  31  1   
 12   6  32  1   
 13   7  33  1   
 14   7  34  1   
 15   7  35  1   
 16   8   9  1   
 17   8  10  1   
 18   8  36  1   
 19   9  11  1   
 20   9  12  1   
 21   9  37  1   
 22  10  13  1   
 23  10  38  1   
 24  10  39  1   
 25  11  40  1   
 26  12  13  1   
 27  12  41  1   
 28  12  42  1   
 29  13  14  1   
 30  14  15  1   
 31  14  43  1   
 32  14  44  1   
 33  15  16  ar  
 34  15  17  ar  
 35  16  18  ar  
 36  17  19  ar  
 37  17  45  1   
 38  18  20  ar  
 39  18  21  ar  
 40  19  20  ar  
 41  19  46  1   
 42  20  22  ar  
 43  21  23  ar  
 44  21  47  1   
 45  22  24  ar  
 46  22  48  1   
 47  23  24  ar  
 48  23  49  1   
 49  24  25  1   
 50  25  26  1   
 51  26  27  1   
 52  26  50  1   
 53  26  51  1   
 54  27  52  1   
 55  27  53  1   
 56  27  54  1   
@<TRIPOS>SUBSTRUCTURE
  1 ****  15 GROUP 4 **** **** 0

# MOE 2024.06 (io_trps.svl 2023.06)
