@<TRIPOS>MOLECULE
NONAME
48 52 1 0 0 
SMALL
USER_CHARGES


@<TRIPOS>ATOM
  1 F        1.2630    -4.1640     1.3350 F     1 <1>  -0.3400 
  2 C        0.8100    -4.9300     0.3430 C.3   1 <1>   0.8560 
  3 F        1.8080    -4.9760    -0.5380 F     1 <1>  -0.3400 
  4 N       -0.4080    -4.3110    -0.2790 N.pl3 1 <1>   0.3140 
  5 N       -1.5940    -4.9580    -0.3760 N.2   1 <1>  -0.7070 
  6 C       -0.4980    -3.0740    -0.8150 C.2   1 <1>  -0.3020 
  7 C       -2.4290    -4.1170    -0.9720 C.2   1 <1>   0.2030 
  8 C       -1.7580    -2.9220    -1.2620 C.2   1 <1>  -0.1500 
  9 C       -3.8310    -4.3360    -1.3290 C.2   1 <1>   0.7160 
 10 O       -4.3140    -3.6860    -2.2430 O.2   1 <1>  -0.5700 
 11 N       -4.6570    -5.2530    -0.6940 N.am  1 <1>  -0.6600 
 12 C       -4.3770    -5.8680     0.6300 C.3   1 <1>   0.1400 
 13 C       -5.8880    -5.7880    -1.3340 C.3   1 <1>   0.1400 
 14 C       -4.1430    -7.3640     0.4280 C.3   1 <1>  -0.1600 
 15 C       -5.6970    -7.2890    -1.5670 C.3   1 <1>  -0.1600 
 16 C       -5.3390    -8.0260    -0.2670 C.3   1 <1>   0.4600 
 17 O       -6.4210    -7.9230     0.6340 O.3   1 <1>  -0.5600 
 18 C       -5.0420    -9.4970    -0.5340 C.2   1 <1>  -0.3320 
 19 C       -7.4950    -8.8220     0.4900 C.3   1 <1>   0.1200 
 20 N       -3.9890    -9.9950    -1.2500 N.pl3 1 <1>   0.0330 
 21 C       -5.7980   -10.5180    -0.0860 C.2   1 <1>  -0.1810 
 22 C       -7.0420   -10.2720     0.7290 C.3   1 <1>   0.0210 
 23 C       -4.0830   -11.3650    -1.2450 C.ar  1 <1>  -0.1520 
 24 C       -5.2130   -11.7270    -0.5160 C.ar  1 <1>   0.0000 
 25 C       -3.2650   -12.3380    -1.8260 C.ar  1 <1>  -0.1500 
 26 C       -5.5320   -13.0800    -0.3590 C.ar  1 <1>  -0.1500 
 27 C       -3.5910   -13.6650    -1.6650 C.ar  1 <1>  -0.1500 
 28 C       -4.7250   -14.0360    -0.9310 C.ar  1 <1>  -0.1500 
 29 H        0.6300    -5.9190     0.7200 H     1 <1>   0.0800 
 30 H        0.3310    -2.3880    -0.8460 H     1 <1>   0.1500 
 31 H       -2.2030    -2.0730    -1.7520 H     1 <1>   0.1500 
 32 H       -5.2280    -5.7170     1.2730 H     1 <1>   0.0800 
 33 H       -3.5290    -5.4110     1.1060 H     1 <1>   0.0800 
 34 H       -6.0810    -5.2970    -2.2720 H     1 <1>   0.0800 
 35 H       -6.7290    -5.6160    -0.6850 H     1 <1>   0.0800 
 36 H       -3.9780    -7.8430     1.3760 H     1 <1>   0.0800 
 37 H       -3.2560    -7.4930    -0.1630 H     1 <1>   0.0800 
 38 H       -4.9030    -7.4200    -2.2770 H     1 <1>   0.0800 
 39 H       -6.5820    -7.7120    -2.0010 H     1 <1>   0.0800 
 40 H       -7.8990    -8.7160    -0.5010 H     1 <1>   0.0800 
 41 H       -8.2510    -8.5460     1.2030 H     1 <1>   0.0800 
 42 H       -3.2490    -9.4550    -1.7090 H     1 <1>   0.2700 
 43 H       -7.8210   -10.9490     0.4310 H     1 <1>   0.0800 
 44 H       -6.8310   -10.4240     1.7720 H     1 <1>   0.0800 
 45 H       -2.3960   -12.0450    -2.3880 H     1 <1>   0.1500 
 46 H       -6.4040   -13.3490     0.2070 H     1 <1>   0.1500 
 47 H       -2.9770   -14.4320    -2.1020 H     1 <1>   0.1500 
 48 H       -4.9570   -15.0800    -0.8190 H     1 <1>   0.1500 
@<TRIPOS>BOND
  1   1   2  1   
  2   2   3  1   
  3   2   4  1   
  4   2  29  1   
  5   4   5  1   
  6   4   6  1   
  7   5   7  2   
  8   6   8  2   
  9   6  30  1   
 10   7   8  1   
 11   7   9  1   
 12   8  31  1   
 13   9  10  2   
 14   9  11  am  
 15  11  12  1   
 16  11  13  1   
 17  12  14  1   
 18  12  32  1   
 19  12  33  1   
 20  13  15  1   
 21  13  34  1   
 22  13  35  1   
 23  14  16  1   
 24  14  36  1   
 25  14  37  1   
 26  15  16  1   
 27  15  38  1   
 28  15  39  1   
 29  16  17  1   
 30  16  18  1   
 31  17  19  1   
 32  18  20  1   
 33  18  21  2   
 34  19  22  1   
 35  19  40  1   
 36  19  41  1   
 37  20  23  1   
 38  20  42  1   
 39  21  22  1   
 40  21  24  1   
 41  22  43  1   
 42  22  44  1   
 43  23  24  ar  
 44  23  25  ar  
 45  24  26  ar  
 46  25  27  ar  
 47  25  45  1   
 48  26  28  ar  
 49  26  46  1   
 50  27  28  ar  
 51  27  47  1   
 52  28  48  1   
@<TRIPOS>SUBSTRUCTURE
  1 ****  14 GROUP 4 **** **** 0

# MOE 2024.06 (io_trps.svl 2023.06)
