@<TRIPOS>MOLECULE
NONAME
58 61 1 0 0 
SMALL
USER_CHARGES


@<TRIPOS>ATOM
  1 S       -0.9000     3.1890    -1.1600 S.3   1 <1>  -0.0800 
  2 C       -2.4830     2.4570    -0.9730 C.2   1 <1>  -0.1100 
  3 C       -0.7690     3.4400     0.5700 C.2   1 <1>  -0.1100 
  4 C       -2.8540     2.4310     0.3230 C.2   1 <1>  -0.1810 
  5 C       -1.8690     2.9910     1.2020 C.2   1 <1>  -0.1500 
  6 C       -4.1630     1.8800     0.8820 C.3   1 <1>   0.0820 
  7 C       -5.1980     1.5250    -0.1810 C.2   1 <1>   0.5690 
  8 O       -5.4540     0.3520    -0.3310 O.2   1 <1>  -0.5700 
  9 N       -5.8320     2.4910    -0.9290 N.am  1 <1>  -0.6600 
 10 C       -6.8180     2.0870    -1.9740 C.3   1 <1>   0.1400 
 11 C       -5.5760     3.9530    -0.8390 C.3   1 <1>   0.1400 
 12 C       -7.7420     3.2500    -2.3660 C.3   1 <1>  -0.1600 
 13 C       -6.8740     4.6790    -0.4630 C.3   1 <1>  -0.1600 
 14 C       -8.1440     4.1050    -1.1530 C.3   1 <1>   0.2800 
 15 O       -8.8640     5.1730    -1.7000 O.3   1 <1>  -0.5600 
 16 C       -9.0550     3.2760    -0.2000 C.3   1 <1>  -0.1600 
 17 C       -9.5030     6.1020    -0.8490 C.3   1 <1>   0.1200 
 18 C      -10.4090     3.9330     0.1230 C.3   1 <1>   0.3000 
 19 C      -10.1760     5.4470     0.3740 C.3   1 <1>   0.2000 
 20 N      -11.2610     3.7500    -1.0710 N.am  1 <1>  -0.7300 
 21 C      -11.0590     3.2320     1.3240 C.3   1 <1>  -0.2400 
 22 O       -9.3590     5.6460     1.4900 O.3   1 <1>  -0.6800 
 23 C      -12.5530     4.1760    -1.1360 C.2   1 <1>   0.7160 
 24 O      -12.7080     5.3010    -1.5770 O.2   1 <1>  -0.5700 
 25 C      -13.6910     3.3720    -0.7070 C.2   1 <1>   0.1410 
 26 N      -13.6280     2.0550    -0.3420 N.2   1 <1>  -0.5650 
 27 C      -14.9890     3.7820    -0.6020 C.2   1 <1>  -0.3020 
 28 C      -14.8410     1.7350    -0.0420 C.2   1 <1>   0.0360 
 29 N      -15.7230     2.7470    -0.1790 N.pl3 1 <1>   0.0480 
 30 C      -17.1720     2.7180     0.0760 C.3   1 <1>   0.0160 
 31 H       -2.9770     2.1180    -1.8670 H     1 <1>   0.1500 
 32 H        0.1320     3.9020     0.9350 H     1 <1>   0.1500 
 33 H       -2.0270     3.0290     2.2660 H     1 <1>   0.1500 
 34 H       -4.5980     2.5940     1.5540 H     1 <1>   0.0800 
 35 H       -3.9430     0.9950     1.4520 H     1 <1>   0.0800 
 36 H       -6.2900     1.7300    -2.8420 H     1 <1>   0.0800 
 37 H       -7.4120     1.2710    -1.5960 H     1 <1>   0.0800 
 38 H       -4.8100     4.1850    -0.1210 H     1 <1>   0.0800 
 39 H       -5.2320     4.2990    -1.7990 H     1 <1>   0.0800 
 40 H       -8.6180     2.8550    -2.8480 H     1 <1>   0.0800 
 41 H       -7.2330     3.8680    -3.0840 H     1 <1>   0.0800 
 42 H       -6.7420     5.7100    -0.7360 H     1 <1>   0.0800 
 43 H       -6.9690     4.6430     0.6040 H     1 <1>   0.0800 
 44 H       -9.2520     2.3010    -0.6080 H     1 <1>   0.0800 
 45 H       -8.5230     3.0860     0.7130 H     1 <1>   0.0800 
 46 H       -8.7940     6.8520    -0.5480 H     1 <1>   0.0800 
 47 H      -10.2620     6.5810    -1.4440 H     1 <1>   0.0800 
 48 H      -11.1080     5.9410     0.5880 H     1 <1>   0.0800 
 49 H      -10.7230     4.1040    -1.8670 H     1 <1>   0.3700 
 50 H      -10.4180     3.2820     2.1850 H     1 <1>   0.0800 
 51 H      -11.2410     2.1960     1.0980 H     1 <1>   0.0800 
 52 H      -11.9890     3.7040     1.5820 H     1 <1>   0.0800 
 53 H       -8.5010     5.2050     1.3510 H     1 <1>   0.4000 
 54 H      -15.3900     4.7560    -0.8150 H     1 <1>   0.1500 
 55 H      -15.1450     0.7570     0.2880 H     1 <1>   0.1500 
 56 H      -17.5880     3.6920    -0.1060 H     1 <1>   0.0800 
 57 H      -17.3470     2.4390     1.0990 H     1 <1>   0.0800 
 58 H      -17.6340     2.0030    -0.5800 H     1 <1>   0.0800 
@<TRIPOS>BOND
  1   1   2  1   
  2   1   3  1   
  3   2   4  2   
  4   2  31  1   
  5   3   5  2   
  6   3  32  1   
  7   4   5  1   
  8   4   6  1   
  9   5  33  1   
 10   6   7  1   
 11   6  34  1   
 12   6  35  1   
 13   7   8  2   
 14   7   9  am  
 15   9  10  1   
 16   9  11  1   
 17  10  12  1   
 18  10  36  1   
 19  10  37  1   
 20  11  13  1   
 21  11  38  1   
 22  11  39  1   
 23  12  14  1   
 24  12  40  1   
 25  12  41  1   
 26  13  14  1   
 27  13  42  1   
 28  13  43  1   
 29  14  15  1   
 30  14  16  1   
 31  15  17  1   
 32  16  18  1   
 33  16  44  1   
 34  16  45  1   
 35  17  19  1   
 36  17  46  1   
 37  17  47  1   
 38  18  19  1   
 39  18  20  1   
 40  18  21  1   
 41  19  22  1   
 42  19  48  1   
 43  20  23  am  
 44  20  49  1   
 45  21  50  1   
 46  21  51  1   
 47  21  52  1   
 48  22  53  1   
 49  23  24  2   
 50  23  25  1   
 51  25  26  1   
 52  25  27  2   
 53  26  28  2   
 54  27  29  1   
 55  27  54  1   
 56  28  29  1   
 57  28  55  1   
 58  29  30  1   
 59  30  56  1   
 60  30  57  1   
 61  30  58  1   
@<TRIPOS>SUBSTRUCTURE
  1 ****  16 GROUP 4 **** **** 0

# MOE 2024.06 (io_trps.svl 2023.06)
