@<TRIPOS>MOLECULE
NONAME
56 58 1 0 0 
SMALL
USER_CHARGES


@<TRIPOS>ATOM
  1 O        1.4740    -0.7520    -2.0350 O.2   1 <1>  -0.5700 
  2 C        1.5930    -1.0460    -0.8610 C.2   1 <1>   0.5440 
  3 N        2.1460    -0.1390     0.0010 N.am  1 <1>  -0.5790 
  4 C        1.1350    -2.3370    -0.3790 C.ar  1 <1>   0.0860 
  5 C        2.6630     1.1890    -0.3610 C.3   1 <1>   0.0490 
  6 C        0.1530    -3.0580    -1.0330 C.ar  1 <1>  -0.1500 
  7 C        1.6400    -2.9500     0.7630 C.ar  1 <1>  -0.1500 
  8 C        3.8050     1.7350     0.4300 C.3   1 <1>  -0.2000 
  9 C        2.4320     2.3150     0.5910 C.3   1 <1>  -0.2000 
 10 C       -0.2890    -4.2810    -0.5490 C.ar  1 <1>   0.4100 
 11 C        1.1440    -4.1720     1.1720 C.ar  1 <1>   0.1600 
 12 N        0.1920    -4.8440     0.5520 N.ar  1 <1>  -0.6200 
 13 N       -1.2920    -4.9520    -1.2210 N.pl3 1 <1>  -0.8380 
 14 C       -2.6710    -4.3860    -1.1220 C.3   1 <1>   0.2090 
 15 C       -1.2960    -6.4490    -1.2190 C.3   1 <1>   0.2090 
 16 C       -3.4840    -5.0590     0.0090 C.3   1 <1>   0.2000 
 17 C       -2.1950    -7.0210    -0.0980 C.3   1 <1>   0.2000 
 18 O       -3.4720    -6.4520    -0.1660 O.3   1 <1>  -0.5600 
 19 C       -4.9580    -4.5920     0.0670 C.3   1 <1>  -0.0800 
 20 C       -2.3830    -8.5410    -0.1870 C.3   1 <1>  -0.1600 
 21 C       -5.0810    -3.0730     0.2810 C.3   1 <1>  -0.2400 
 22 C       -5.7310    -5.3080     1.1880 C.3   1 <1>  -0.2400 
 23 C       -1.0760    -9.3230     0.0230 C.3   1 <1>  -0.1600 
 24 C       -1.3340   -10.8340     0.0190 C.3   1 <1>  -0.1600 
 25 C       -0.0330   -11.6150     0.2260 C.3   1 <1>  -0.2400 
 26 H        2.1450    -0.3340     1.0000 H     1 <1>   0.3700 
 27 H        2.6250     1.3910    -1.4210 H     1 <1>   0.1000 
 28 H       -0.2810    -2.6760    -1.9370 H     1 <1>   0.1500 
 29 H        2.4240    -2.4860     1.3310 H     1 <1>   0.1500 
 30 H        4.2210     1.1400     1.2230 H     1 <1>   0.1000 
 31 H        4.5480     2.3240    -0.0800 H     1 <1>   0.1000 
 32 H        2.2430     3.2950     0.1890 H     1 <1>   0.1000 
 33 H        1.8840     2.1270     1.4970 H     1 <1>   0.1000 
 34 H        1.5510    -4.6260     2.0600 H     1 <1>   0.1500 
 35 H       -2.6070    -3.3290    -0.9380 H     1 <1>   0.0800 
 36 H       -3.1790    -4.5290    -2.0590 H     1 <1>   0.0800 
 37 H       -1.6520    -6.7990    -2.1720 H     1 <1>   0.0800 
 38 H       -0.2900    -6.8090    -1.0950 H     1 <1>   0.0800 
 39 H       -3.0120    -4.8410     0.9520 H     1 <1>   0.0800 
 40 H       -1.7700    -6.7720     0.8600 H     1 <1>   0.0800 
 41 H       -5.4220    -4.8370    -0.8730 H     1 <1>   0.0800 
 42 H       -3.0870    -8.8330     0.5730 H     1 <1>   0.0800 
 43 H       -2.8020    -8.7890    -1.1470 H     1 <1>   0.0800 
 44 H       -4.5650    -2.7740     1.1760 H     1 <1>   0.0800 
 45 H       -6.1160    -2.7950     0.3760 H     1 <1>   0.0800 
 46 H       -4.6760    -2.5290    -0.5530 H     1 <1>   0.0800 
 47 H       -5.2820    -5.1110     2.1450 H     1 <1>   0.0800 
 48 H       -5.7290    -6.3720     1.0250 H     1 <1>   0.0800 
 49 H       -6.7550    -4.9800     1.2110 H     1 <1>   0.0800 
 50 H       -0.3750    -9.0850    -0.7580 H     1 <1>   0.0800 
 51 H       -0.6380    -9.0380     0.9650 H     1 <1>   0.0800 
 52 H       -2.0260   -11.0850     0.8050 H     1 <1>   0.0800 
 53 H       -1.7760   -11.1230    -0.9190 H     1 <1>   0.0800 
 54 H        0.4150   -11.3560     1.1690 H     1 <1>   0.0800 
 55 H        0.6660   -11.3970    -0.5620 H     1 <1>   0.0800 
 56 H       -0.2340   -12.6720     0.2210 H     1 <1>   0.0800 
@<TRIPOS>BOND
  1   1   2  2   
  2   2   3  am  
  3   2   4  1   
  4   3   5  1   
  5   3  26  1   
  6   4   6  ar  
  7   4   7  ar  
  8   5   8  1   
  9   5   9  1   
 10   5  27  1   
 11   6  10  ar  
 12   6  28  1   
 13   7  11  ar  
 14   7  29  1   
 15   8   9  1   
 16   8  30  1   
 17   8  31  1   
 18   9  32  1   
 19   9  33  1   
 20  10  12  ar  
 21  10  13  1   
 22  11  12  ar  
 23  11  34  1   
 24  13  14  1   
 25  13  15  1   
 26  14  16  1   
 27  14  35  1   
 28  14  36  1   
 29  15  17  1   
 30  15  37  1   
 31  15  38  1   
 32  16  18  1   
 33  16  19  1   
 34  16  39  1   
 35  17  18  1   
 36  17  20  1   
 37  17  40  1   
 38  19  21  1   
 39  19  22  1   
 40  19  41  1   
 41  20  23  1   
 42  20  42  1   
 43  20  43  1   
 44  21  44  1   
 45  21  45  1   
 46  21  46  1   
 47  22  47  1   
 48  22  48  1   
 49  22  49  1   
 50  23  24  1   
 51  23  50  1   
 52  23  51  1   
 53  24  25  1   
 54  24  52  1   
 55  24  53  1   
 56  25  54  1   
 57  25  55  1   
 58  25  56  1   
@<TRIPOS>SUBSTRUCTURE
  1 ****  10 GROUP 4 **** **** 0

# MOE 2024.06 (io_trps.svl 2023.06)
