@<TRIPOS>MOLECULE
NONAME
38 38 1 0 0 
SMALL
USER_CHARGES


@<TRIPOS>ATOM
  1 O       -0.5270     0.1720     0.7060 O.2   1 <1>  -0.5700 
  2 C       -1.5070     0.0560     0.0020 C.2   1 <1>   0.7800 
  3 O       -1.9670    -1.1330    -0.3860 O.3   1 <1>  -0.4300 
  4 N       -2.2320     1.1470    -0.3850 N.am  1 <1>  -0.6600 
  5 C       -1.3750    -2.3930    -0.1430 C.3   1 <1>   0.2800 
  6 C       -3.5650     1.1110    -1.0190 C.3   1 <1>   0.1400 
  7 C       -1.8830     2.5370    -0.0120 C.3   1 <1>   0.1400 
  8 C       -1.3560    -2.6910     1.3610 C.3   1 <1>  -0.2400 
  9 C       -2.2820    -3.4040    -0.8460 C.3   1 <1>  -0.2400 
 10 C        0.0240    -2.4500    -0.7670 C.3   1 <1>  -0.2400 
 11 C       -4.2880     2.2570    -0.3100 C.3   1 <1>   0.4230 
 12 C       -3.1860     3.3300    -0.2150 C.3   1 <1>  -0.0800 
 13 N       -4.6530     1.8090     1.0580 N.4   1 <1>  -0.8530 
 14 C       -3.3840     4.4430     0.8360 C.3   1 <1>  -0.1600 
 15 C       -4.6880     5.2240     0.6260 C.3   1 <1>  -0.2400 
 16 H       -3.4610     1.3200    -2.0700 H     1 <1>   0.0800 
 17 H       -4.0580     0.1630    -0.8890 H     1 <1>   0.0800 
 18 H       -1.5500     2.5650     1.0140 H     1 <1>   0.0800 
 19 H       -1.0940     2.9070    -0.6460 H     1 <1>   0.0800 
 20 H       -1.0240    -3.7000     1.5270 H     1 <1>   0.0800 
 21 H       -2.3390    -2.5850     1.7810 H     1 <1>   0.0800 
 22 H       -0.6740    -2.0410     1.8790 H     1 <1>   0.0800 
 23 H       -1.9000    -4.4000    -0.7150 H     1 <1>   0.0800 
 24 H       -2.3260    -3.1970    -1.9000 H     1 <1>   0.0800 
 25 H       -3.2750    -3.3680    -0.4360 H     1 <1>   0.0800 
 26 H        0.4140    -3.4490    -0.7000 H     1 <1>   0.0800 
 27 H        0.7090    -1.8020    -0.2520 H     1 <1>   0.0800 
 28 H       -0.0150    -2.1710    -1.8050 H     1 <1>   0.0800 
 29 H       -5.1520     2.6030    -0.8550 H     1 <1>   0.0800 
 30 H       -3.1130     3.8020    -1.1810 H     1 <1>   0.0800 
 31 H       -3.8170     1.3750     1.4710 H     1 <1>   0.4500 
 32 H       -5.4070     1.1160     1.0500 H     1 <1>   0.4500 
 33 H       -4.9250     2.6100     1.6370 H     1 <1>   0.4500 
 34 H       -3.3540     4.0470     1.8370 H     1 <1>   0.0800 
 35 H       -2.5620     5.1370     0.7550 H     1 <1>   0.0800 
 36 H       -5.5580     4.6050     0.7460 H     1 <1>   0.0800 
 37 H       -4.7090     5.6650    -0.3570 H     1 <1>   0.0800 
 38 H       -4.7480     6.0250     1.3440 H     1 <1>   0.0800 
@<TRIPOS>BOND
  1   1   2  2   
  2   2   3  1   
  3   2   4  am  
  4   3   5  1   
  5   4   6  1   
  6   4   7  1   
  7   5   8  1   
  8   5   9  1   
  9   5  10  1   
 10   6  11  1   
 11   6  16  1   
 12   6  17  1   
 13   7  12  1   
 14   7  18  1   
 15   7  19  1   
 16   8  20  1   
 17   8  21  1   
 18   8  22  1   
 19   9  23  1   
 20   9  24  1   
 21   9  25  1   
 22  10  26  1   
 23  10  27  1   
 24  10  28  1   
 25  11  12  1   
 26  11  13  1   
 27  11  29  1   
 28  12  14  1   
 29  12  30  1   
 30  13  31  1   
 31  13  32  1   
 32  13  33  1   
 33  14  15  1   
 34  14  34  1   
 35  14  35  1   
 36  15  36  1   
 37  15  37  1   
 38  15  38  1   
@<TRIPOS>SUBSTRUCTURE
  1 ****   4 GROUP 4 **** **** 0

# MOE 2024.06 (io_trps.svl 2023.06)
