@<TRIPOS>MOLECULE
NONAME
32 33 1 0 0 
SMALL
USER_CHARGES


@<TRIPOS>ATOM
  1 O       -0.5370     0.1730     1.1600 O.2   1 <1>  -0.5700 
  2 C       -1.4880     0.6940     0.6050 C.2   1 <1>   0.7160 
  3 N       -2.4480    -0.1140     0.0410 N.am  1 <1>  -0.6600 
  4 C       -1.5790     2.1370     0.5590 C.2   1 <1>  -0.0860 
  5 C       -2.5220    -1.5770     0.3770 C.3   1 <1>   0.1400 
  6 C       -3.4250     0.3340    -0.9900 C.3   1 <1>   0.1400 
  7 C       -0.6200     3.0610     0.2710 C.2   1 <1>  -0.0400 
  8 C       -2.7260     2.9110     0.8400 C.2   1 <1>  -0.1500 
  9 C       -3.9250    -2.1860     0.1620 C.3   1 <1>   0.2000 
 10 C       -4.8660     0.1020    -0.5070 C.3   1 <1>  -0.1600 
 11 O       -1.0980     4.2800     0.3430 O.3   1 <1>  -0.2800 
 12 C        0.8380     2.8830    -0.0980 C.3   1 <1>  -0.0600 
 13 C       -2.3650     4.2000     0.6870 C.2   1 <1>  -0.0100 
 14 O       -4.0430    -2.6530    -1.1380 O.3   1 <1>  -0.6800 
 15 C       -5.0280    -1.1470     0.4000 C.3   1 <1>  -0.1860 
 16 C       -6.3950    -1.7870     0.2690 C.2   1 <1>   0.9060 
 17 O       -7.2050    -1.6490     1.1880 O.co2 1 <1>  -0.9000 
 18 O       -6.6460    -2.4370    -0.7560 O.co2 1 <1>  -0.9000 
 19 H       -1.7980    -2.1210    -0.2020 H     1 <1>   0.0800 
 20 H       -2.2670    -1.6920     1.4160 H     1 <1>   0.0800 
 21 H       -3.2790     1.3650    -1.2560 H     1 <1>   0.0800 
 22 H       -3.2590    -0.2530    -1.8780 H     1 <1>   0.0800 
 23 H       -3.6820     2.5080     1.1230 H     1 <1>   0.1500 
 24 H       -4.0640    -3.0330     0.8120 H     1 <1>   0.0800 
 25 H       -5.2230     0.9670     0.0210 H     1 <1>   0.0800 
 26 H       -5.4870    -0.0110    -1.3790 H     1 <1>   0.0800 
 27 H        1.0940     1.8400    -0.1440 H     1 <1>   0.0800 
 28 H        1.4570     3.3600     0.6390 H     1 <1>   0.0800 
 29 H        1.0270     3.3310    -1.0560 H     1 <1>   0.0800 
 30 H       -2.9300     5.1080     0.8030 H     1 <1>   0.1500 
 31 H       -5.0300    -2.7480    -1.2940 H     1 <1>   0.4000 
 32 H       -4.9380    -0.8240     1.4200 H     1 <1>   0.0800 
@<TRIPOS>BOND
  1   1   2  2   
  2   2   3  am  
  3   2   4  1   
  4   3   5  1   
  5   3   6  1   
  6   4   7  2   
  7   4   8  1   
  8   5   9  1   
  9   5  19  1   
 10   5  20  1   
 11   6  10  1   
 12   6  21  1   
 13   6  22  1   
 14   7  11  1   
 15   7  12  1   
 16   8  13  2   
 17   8  23  1   
 18   9  14  1   
 19   9  15  1   
 20   9  24  1   
 21  10  15  1   
 22  10  25  1   
 23  10  26  1   
 24  11  13  1   
 25  12  27  1   
 26  12  28  1   
 27  12  29  1   
 28  13  30  1   
 29  14  31  1   
 30  15  16  1   
 31  15  32  1   
 32  16  17  ar  
 33  16  18  ar  
@<TRIPOS>SUBSTRUCTURE
  1 ****   3 GROUP 4 **** **** 0

# MOE 2024.06 (io_trps.svl 2023.06)
