@<TRIPOS>MOLECULE
NONAME
42 45 1 0 0 
SMALL
USER_CHARGES


@<TRIPOS>ATOM
  1 N        0.5860     0.4660     1.9130 N.ar  1 <1>  -0.6200 
  2 C       -0.3960     1.2100     2.4050 C.ar  1 <1>   0.7200 
  3 C        1.0820     0.9270     0.7920 C.ar  1 <1>   0.1660 
  4 N       -0.9220     2.3180     1.9040 N.ar  1 <1>  -0.6200 
  5 N       -0.9370     0.7810     3.5440 N.pl3 1 <1>  -0.9000 
  6 C        0.6390     2.0600     0.1800 C.ar  1 <1>  -0.1430 
  7 C        2.2210     0.2860     0.0360 C.3   1 <1>   0.1440 
  8 C       -0.3920     2.7440     0.7790 C.ar  1 <1>   0.1600 
  9 C        1.4110     2.3490    -1.0830 C.3   1 <1>  -0.0170 
 10 C        3.3370    -0.0500     1.0420 C.3   1 <1>   0.3430 
 11 C        1.7390    -0.9940    -0.6770 C.3   1 <1>  -0.1600 
 12 C        2.6210     1.3990    -0.9710 C.3   1 <1>  -0.1600 
 13 N        4.4630    -0.8110     0.4030 N.4   1 <1>  -0.9590 
 14 C        2.9120    -1.8120    -1.2470 C.3   1 <1>  -0.1600 
 15 C        3.9850    -2.0940    -0.1920 C.3   1 <1>   0.3430 
 16 C        5.5650    -1.0260     1.3720 C.3   1 <1>   0.4380 
 17 C        6.8330    -1.3440     0.5820 C.3   1 <1>  -0.1950 
 18 C        8.1560    -0.8160     1.0390 C.3   1 <1>  -0.2000 
 19 C        7.5340    -0.2920    -0.2230 C.3   1 <1>  -0.2000 
 20 H       -1.8320     1.2070     3.7760 H     1 <1>   0.4000 
 21 H       -0.8480    -0.2110     3.7390 H     1 <1>   0.4000 
 22 H       -0.7840     3.6440     0.3360 H     1 <1>   0.1500 
 23 H        1.7150     3.3800    -1.1390 H     1 <1>   0.0800 
 24 H        0.8060     2.1010    -1.9400 H     1 <1>   0.0800 
 25 H        2.9080    -0.6420     1.8350 H     1 <1>   0.0800 
 26 H        3.7020     0.8650     1.4770 H     1 <1>   0.0800 
 27 H        1.0450    -0.7430    -1.4620 H     1 <1>   0.0800 
 28 H        1.2050    -1.6060     0.0320 H     1 <1>   0.0800 
 29 H        2.9000     1.0170    -1.9370 H     1 <1>   0.0800 
 30 H        3.4480     1.9650    -0.5770 H     1 <1>   0.0800 
 31 H        4.8570    -0.2410    -0.3560 H     1 <1>   0.4500 
 32 H        3.3590    -1.3000    -2.0810 H     1 <1>   0.0800 
 33 H        2.5370    -2.7500    -1.6190 H     1 <1>   0.0800 
 34 H        3.5690    -2.7210     0.5810 H     1 <1>   0.0800 
 35 H        4.8070    -2.6210    -0.6500 H     1 <1>   0.0800 
 36 H        5.3300    -1.8250     2.0570 H     1 <1>   0.0800 
 37 H        5.7290    -0.1240     1.9390 H     1 <1>   0.0800 
 38 H        6.8480    -2.3570     0.2170 H     1 <1>   0.1000 
 39 H        9.0290    -1.4430     0.9530 H     1 <1>   0.1000 
 40 H        8.2160    -0.1550     1.8880 H     1 <1>   0.1000 
 41 H        7.1970     0.7310    -0.2160 H     1 <1>   0.1000 
 42 H        7.9930    -0.5630    -1.1600 H     1 <1>   0.1000 
@<TRIPOS>BOND
  1   1   2  ar  
  2   1   3  ar  
  3   2   4  ar  
  4   2   5  1   
  5   3   6  ar  
  6   3   7  1   
  7   4   8  ar  
  8   5  20  1   
  9   5  21  1   
 10   6   8  ar  
 11   6   9  1   
 12   7  10  1   
 13   7  11  1   
 14   7  12  1   
 15   8  22  1   
 16   9  12  1   
 17   9  23  1   
 18   9  24  1   
 19  10  13  1   
 20  10  25  1   
 21  10  26  1   
 22  11  14  1   
 23  11  27  1   
 24  11  28  1   
 25  12  29  1   
 26  12  30  1   
 27  13  15  1   
 28  13  16  1   
 29  13  31  1   
 30  14  15  1   
 31  14  32  1   
 32  14  33  1   
 33  15  34  1   
 34  15  35  1   
 35  16  17  1   
 36  16  36  1   
 37  16  37  1   
 38  17  18  1   
 39  17  19  1   
 40  17  38  1   
 41  18  19  1   
 42  18  39  1   
 43  18  40  1   
 44  19  41  1   
 45  19  42  1   
@<TRIPOS>SUBSTRUCTURE
  1 ****   7 GROUP 4 **** **** 0

# MOE 2024.06 (io_trps.svl 2023.06)
