@<TRIPOS>MOLECULE
NONAME
52 54 1 0 0 
SMALL
USER_CHARGES


@<TRIPOS>ATOM
  1 O       -2.4650    -1.1910     1.5580 O.2   1 <1>  -0.5700 
  2 C       -2.4060    -0.1150     1.0090 C.2   1 <1>   0.5690 
  3 N       -2.7850     0.0460    -0.2970 N.am  1 <1>  -0.6600 
  4 C       -1.9120     1.0660     1.8240 C.3   1 <1>  -0.0990 
  5 C       -2.8090     1.3560    -0.9980 C.3   1 <1>   0.1400 
  6 C       -3.2480    -1.1270    -1.0840 C.3   1 <1>   0.1400 
  7 C       -3.0110     2.1060     2.0960 C.3   1 <1>  -0.1600 
  8 C       -3.8220     2.3080    -0.3510 C.3   1 <1>  -0.1600 
  9 C       -4.7410    -1.3430    -0.8510 C.3   1 <1>  -0.0990 
 10 C       -3.2930     3.0270     0.9000 C.3   1 <1>  -0.1600 
 11 C       -5.1390    -2.7030    -1.3600 C.2   1 <1>   0.5690 
 12 O       -5.6360    -2.8040    -2.4530 O.2   1 <1>  -0.5700 
 13 N       -4.9120    -3.7750    -0.5650 N.am  1 <1>  -0.7300 
 14 C       -5.2370    -5.1740    -0.9220 C.3   1 <1>   0.2200 
 15 C       -6.4400    -5.6290    -0.1140 C.3   1 <1>  -0.0800 
 16 C       -4.1370    -6.1110    -0.4240 C.3   1 <1>   0.1200 
 17 C       -5.7810    -6.0700     1.1940 C.3   1 <1>   0.1200 
 18 C       -7.1830    -6.7830    -0.8120 C.3   1 <1>  -0.0170 
 19 O       -4.5020    -6.5230     0.8620 O.3   1 <1>  -0.5600 
 20 C       -8.3980    -7.2270    -0.0130 C.ar  1 <1>  -0.1440 
 21 C       -9.5600    -6.4820     0.0140 C.ar  1 <1>  -0.1500 
 22 C       -8.4050    -8.3940     0.7260 C.ar  1 <1>  -0.1500 
 23 C      -10.6400    -6.9250     0.7600 C.ar  1 <1>   0.1600 
 24 C       -9.5390    -8.7460     1.4380 C.ar  1 <1>   0.1600 
 25 N      -10.6570    -8.0390     1.4740 N.ar  1 <1>  -0.6200 
 26 H       -1.5610     0.6870     2.7670 H     1 <1>   0.0800 
 27 H       -1.0720     1.5190     1.3310 H     1 <1>   0.0800 
 28 H       -1.8250     1.7920    -0.9890 H     1 <1>   0.0800 
 29 H       -3.0870     1.2040    -2.0260 H     1 <1>   0.0800 
 30 H       -3.0480    -0.9870    -2.1330 H     1 <1>   0.0800 
 31 H       -2.7020    -2.0000    -0.7650 H     1 <1>   0.0800 
 32 H       -3.9160     1.6020     2.3930 H     1 <1>   0.0800 
 33 H       -2.6990     2.7200     2.9240 H     1 <1>   0.0800 
 34 H       -4.0670     3.0630    -1.0770 H     1 <1>   0.0800 
 35 H       -4.7310     1.7770    -0.1260 H     1 <1>   0.0800 
 36 H       -5.3060    -0.5890    -1.3660 H     1 <1>   0.0800 
 37 H       -4.9630    -1.2890     0.1990 H     1 <1>   0.0800 
 38 H       -2.3970     3.5680     0.6490 H     1 <1>   0.0800 
 39 H       -4.0260     3.7540     1.2050 H     1 <1>   0.0800 
 40 H       -4.4690    -3.6490     0.3510 H     1 <1>   0.3700 
 41 H       -5.3870    -5.2590    -1.9860 H     1 <1>   0.0800 
 42 H       -7.1290    -4.8200     0.0520 H     1 <1>   0.0800 
 43 H       -3.1730    -5.6340    -0.3890 H     1 <1>   0.0800 
 44 H       -4.0840    -6.9910    -1.0400 H     1 <1>   0.0800 
 45 H       -6.3150    -6.8560     1.6990 H     1 <1>   0.0800 
 46 H       -5.6650    -5.2330     1.8600 H     1 <1>   0.0800 
 47 H       -6.5210    -7.6200    -0.9560 H     1 <1>   0.0800 
 48 H       -7.5120    -6.4590    -1.7840 H     1 <1>   0.0800 
 49 H       -9.6350    -5.5630    -0.5370 H     1 <1>   0.1500 
 50 H       -7.5400    -9.0310     0.7560 H     1 <1>   0.1500 
 51 H      -11.5380    -6.3310     0.7690 H     1 <1>   0.1500 
 52 H       -9.5260    -9.6590     2.0090 H     1 <1>   0.1500 
@<TRIPOS>BOND
  1   1   2  2   
  2   2   3  am  
  3   2   4  1   
  4   3   5  1   
  5   3   6  1   
  6   4   7  1   
  7   4  26  1   
  8   4  27  1   
  9   5   8  1   
 10   5  28  1   
 11   5  29  1   
 12   6   9  1   
 13   6  30  1   
 14   6  31  1   
 15   7  10  1   
 16   7  32  1   
 17   7  33  1   
 18   8  10  1   
 19   8  34  1   
 20   8  35  1   
 21   9  11  1   
 22   9  36  1   
 23   9  37  1   
 24  10  38  1   
 25  10  39  1   
 26  11  12  2   
 27  11  13  am  
 28  13  14  1   
 29  13  40  1   
 30  14  15  1   
 31  14  16  1   
 32  14  41  1   
 33  15  17  1   
 34  15  18  1   
 35  15  42  1   
 36  16  19  1   
 37  16  43  1   
 38  16  44  1   
 39  17  19  1   
 40  17  45  1   
 41  17  46  1   
 42  18  20  1   
 43  18  47  1   
 44  18  48  1   
 45  20  21  ar  
 46  20  22  ar  
 47  21  23  ar  
 48  21  49  1   
 49  22  24  ar  
 50  22  50  1   
 51  23  25  ar  
 52  23  51  1   
 53  24  25  ar  
 54  24  52  1   
@<TRIPOS>SUBSTRUCTURE
  1 ****  13 GROUP 4 **** **** 0

# MOE 2024.06 (io_trps.svl 2023.06)
