@<TRIPOS>MOLECULE
NONAME
39 41 1 0 0 
SMALL
USER_CHARGES


@<TRIPOS>ATOM
  1 O        1.5670     0.2520     0.8160 O.2   1 <1>  -0.5700 
  2 C        2.0860    -0.4450    -0.0520 C.2   1 <1>   0.6160 
  3 N        1.7320    -1.7910    -0.1080 N.am  1 <1>  -0.4690 
  4 C        3.0340     0.0750    -1.0020 C.2   1 <1>   0.0290 
  5 C        2.2690    -2.6210    -1.0610 C.2   1 <1>  -0.0410 
  6 C        0.7530    -2.3360     0.8720 C.3   1 <1>   0.0600 
  7 C        3.4360     1.4640    -0.9740 C.2   1 <1>   0.6160 
  8 C        3.5450    -0.7940    -1.9400 C.2   1 <1>  -0.1500 
  9 C        3.1610    -2.1470    -1.9700 C.2   1 <1>  -0.1500 
 10 O        4.1210     1.9040    -1.8810 O.2   1 <1>  -0.5700 
 11 N        3.0820     2.3190     0.0430 N.am  1 <1>  -0.4940 
 12 C        3.3040     3.7070     0.2180 C.2   1 <1>  -0.0880 
 13 N        4.4660     4.4130     0.0600 N.pl3 1 <1>   0.3140 
 14 C        2.3630     4.5960     0.6110 C.2   1 <1>  -0.1500 
 15 N        4.2590     5.7330     0.3330 N.2   1 <1>  -0.7070 
 16 C        5.8230     3.8810    -0.2940 C.3   1 <1>   0.1760 
 17 C        3.0090     5.8210     0.6570 C.2   1 <1>   0.1390 
 18 C        6.2870     2.7410     0.6300 C.3   1 <1>  -0.1600 
 19 C        6.9540     4.9150    -0.2130 C.3   1 <1>  -0.1600 
 20 C        7.8000     2.9110     0.8290 C.3   1 <1>  -0.1600 
 21 C        8.2190     4.0760    -0.0660 C.3   1 <1>  -0.1600 
 22 H        1.9610    -3.6540    -1.0670 H     1 <1>   0.1500 
 23 H       -0.1840    -1.8160     0.7710 H     1 <1>   0.0800 
 24 H        1.1260    -2.1910     1.8710 H     1 <1>   0.0800 
 25 H        0.5920    -3.3860     0.7060 H     1 <1>   0.0800 
 26 H        4.2540    -0.4560    -2.6780 H     1 <1>   0.1500 
 27 H        3.5870    -2.7900    -2.7220 H     1 <1>   0.1500 
 28 H        2.3860     1.9070     0.6820 H     1 <1>   0.3700 
 29 H        1.3290     4.4180     0.8380 H     1 <1>   0.1500 
 30 H        5.7890     3.5230    -1.3050 H     1 <1>   0.0800 
 31 H        2.5350     6.7490     0.9310 H     1 <1>   0.1500 
 32 H        6.0740     1.7900     0.1770 H     1 <1>   0.0800 
 33 H        5.7900     2.8020     1.5840 H     1 <1>   0.0800 
 34 H        6.8390     5.5240     0.6680 H     1 <1>   0.0800 
 35 H        6.9820     5.5420    -1.0860 H     1 <1>   0.0800 
 36 H        8.3390     2.0140     0.5790 H     1 <1>   0.0800 
 37 H        7.9970     3.1610     1.8580 H     1 <1>   0.0800 
 38 H        9.0320     4.6410     0.3560 H     1 <1>   0.0800 
 39 H        8.5130     3.7010    -1.0320 H     1 <1>   0.0800 
@<TRIPOS>BOND
  1   1   2  2   
  2   2   3  am  
  3   2   4  1   
  4   3   5  1   
  5   3   6  1   
  6   4   7  1   
  7   4   8  2   
  8   5   9  2   
  9   5  22  1   
 10   6  23  1   
 11   6  24  1   
 12   6  25  1   
 13   7  10  2   
 14   7  11  am  
 15   8   9  1   
 16   8  26  1   
 17   9  27  1   
 18  11  12  1   
 19  11  28  1   
 20  12  13  1   
 21  12  14  2   
 22  13  15  1   
 23  13  16  1   
 24  14  17  1   
 25  14  29  1   
 26  15  17  2   
 27  16  18  1   
 28  16  19  1   
 29  16  30  1   
 30  17  31  1   
 31  18  20  1   
 32  18  32  1   
 33  18  33  1   
 34  19  21  1   
 35  19  34  1   
 36  19  35  1   
 37  20  21  1   
 38  20  36  1   
 39  20  37  1   
 40  21  38  1   
 41  21  39  1   
@<TRIPOS>SUBSTRUCTURE
  1 ****   7 GROUP 4 **** **** 0

# MOE 2024.06 (io_trps.svl 2023.06)
