@<TRIPOS>MOLECULE
NONAME
45 46 1 0 0 
SMALL
USER_CHARGES


@<TRIPOS>ATOM
  1 S        0.4160    -0.7360    -1.2540 S.o2  1 <1>   1.3330 
  2 O       -0.8080    -0.4870    -1.9810 O.2   1 <1>  -0.6500 
  3 O        1.1950    -1.9200    -1.5390 O.2   1 <1>  -0.6500 
  4 N        0.0300    -0.7500     0.4010 N.am  1 <1>  -0.8490 
  5 C        1.5000     0.6840    -1.4200 C.3   1 <1>  -0.0550 
  6 C       -0.2760    -2.1010     0.8840 C.3   1 <1>   0.1160 
  7 C       -1.0730     0.1550     0.7450 C.3   1 <1>   0.1160 
  8 C        2.8880     0.4960    -0.7660 C.3   1 <1>  -0.0800 
  9 C        3.8940     1.6030    -1.0510 C.3   1 <1>   0.2760 
 10 C        2.8900     0.4290     0.7720 C.3   1 <1>   0.1200 
 11 N        3.2180     2.8930    -0.9210 N.am  1 <1>  -0.9140 
 12 C        4.8500     1.3680     0.1130 C.3   1 <1>   0.1200 
 13 O        3.9970     1.1770     1.1970 O.3   1 <1>  -0.5600 
 14 S        4.1620     4.2610    -1.1930 S.o2  1 <1>   1.3330 
 15 O        3.2970     5.2050    -1.8580 O.2   1 <1>  -0.6500 
 16 O        5.3830     3.8040    -1.8170 O.2   1 <1>  -0.6500 
 17 C        4.5190     4.8820     0.4640 C.3   1 <1>   0.0890 
 18 C        5.4490     6.0880     0.4880 C.ar  1 <1>  -0.1440 
 19 C        5.0000     7.3180     0.0210 C.ar  1 <1>  -0.1500 
 20 C        6.7460     5.9610     0.9730 C.ar  1 <1>  -0.1500 
 21 C        5.8380     8.4210     0.0410 C.ar  1 <1>  -0.1500 
 22 C        7.5920     7.0570     0.9980 C.ar  1 <1>  -0.1500 
 23 C        7.1200     8.2690     0.5310 C.ar  1 <1>   0.1900 
 24 F        7.9140     9.3050     0.5540 F     1 <1>  -0.1900 
 25 H        1.6520     0.8680    -2.4660 H     1 <1>   0.0800 
 26 H        1.0150     1.5500    -1.0160 H     1 <1>   0.0800 
 27 H       -0.5100    -2.0810     1.9340 H     1 <1>   0.0800 
 28 H        0.5750    -2.7460     0.7420 H     1 <1>   0.0800 
 29 H       -1.1130    -2.5120     0.3420 H     1 <1>   0.0800 
 30 H       -1.2160     0.1760     1.8120 H     1 <1>   0.0800 
 31 H       -1.9880    -0.1700     0.2760 H     1 <1>   0.0800 
 32 H       -0.8530     1.1550     0.4130 H     1 <1>   0.0800 
 33 H        3.3080    -0.4260    -1.1310 H     1 <1>   0.0800 
 34 H        4.3640     1.5000    -2.0160 H     1 <1>   0.0800 
 35 H        2.9940    -0.5840     1.1240 H     1 <1>   0.0800 
 36 H        2.0090     0.8730     1.2020 H     1 <1>   0.0800 
 37 H        2.8670     2.9370     0.0330 H     1 <1>   0.4200 
 38 H        5.5280     2.1780     0.3020 H     1 <1>   0.0800 
 39 H        5.4160     0.4630    -0.0340 H     1 <1>   0.0800 
 40 H        3.5970     5.1630     0.9350 H     1 <1>   0.0800 
 41 H        4.9520     4.1030     1.0580 H     1 <1>   0.0800 
 42 H        4.0000     7.4270    -0.3670 H     1 <1>   0.1500 
 43 H        7.1080     5.0130     1.3320 H     1 <1>   0.1500 
 44 H        5.5070     9.3780    -0.3190 H     1 <1>   0.1500 
 45 H        8.5980     6.9790     1.3690 H     1 <1>   0.1500 
@<TRIPOS>BOND
  1   1   2  2   
  2   1   3  2   
  3   1   4  am  
  4   1   5  1   
  5   4   6  1   
  6   4   7  1   
  7   5   8  1   
  8   5  25  1   
  9   5  26  1   
 10   6  27  1   
 11   6  28  1   
 12   6  29  1   
 13   7  30  1   
 14   7  31  1   
 15   7  32  1   
 16   8   9  1   
 17   8  10  1   
 18   8  33  1   
 19   9  11  1   
 20   9  12  1   
 21   9  34  1   
 22  10  13  1   
 23  10  35  1   
 24  10  36  1   
 25  11  14  am  
 26  11  37  1   
 27  12  13  1   
 28  12  38  1   
 29  12  39  1   
 30  14  15  2   
 31  14  16  2   
 32  14  17  1   
 33  17  18  1   
 34  17  40  1   
 35  17  41  1   
 36  18  19  ar  
 37  18  20  ar  
 38  19  21  ar  
 39  19  42  1   
 40  20  22  ar  
 41  20  43  1   
 42  21  23  ar  
 43  21  44  1   
 44  22  23  ar  
 45  22  45  1   
 46  23  24  1   
@<TRIPOS>SUBSTRUCTURE
  1 ****  11 GROUP 4 **** **** 0

# MOE 2024.06 (io_trps.svl 2023.06)
