@<TRIPOS>MOLECULE
NONAME
50 52 1 0 0 
SMALL
USER_CHARGES


@<TRIPOS>ATOM
  1 O       -1.1470    -2.3170     0.1210 O.2   1 <1>  -0.5700 
  2 C        0.0690    -2.2710     0.0280 C.2   1 <1>   0.5440 
  3 N        0.7190    -1.0770     0.2050 N.am  1 <1>  -0.6600 
  4 C        0.7710    -3.5000    -0.2720 C.ar  1 <1>   0.0860 
  5 C        2.1740    -0.9260     0.4420 C.3   1 <1>   0.1400 
  6 C        0.0010     0.1780     0.5230 C.3   1 <1>   0.1400 
  7 C        0.4930    -4.6460     0.4400 C.ar  1 <1>  -0.1500 
  8 C        1.6790    -3.6600    -1.3120 C.ar  1 <1>  -0.1500 
  9 C        2.3040     0.3760     1.2230 C.3   1 <1>  -0.1600 
 10 C        1.0970     1.2040     0.7910 C.3   1 <1>  -0.1600 
 11 C        0.9820    -5.8710     0.0250 C.ar  1 <1>   0.4100 
 12 C        2.1880    -4.9130    -1.5930 C.ar  1 <1>   0.1600 
 13 N        1.8470    -6.0240    -0.9580 N.ar  1 <1>  -0.6200 
 14 N        0.5110    -7.0240     0.5850 N.pl3 1 <1>  -0.8690 
 15 C       -0.4470    -7.8210    -0.2420 C.3   1 <1>   0.2090 
 16 C       -1.9200    -7.4700     0.0570 C.3   1 <1>   0.2000 
 17 O       -2.7580    -8.1420    -0.8420 O.3   1 <1>  -0.6800 
 18 C       -2.1750    -5.9520    -0.0590 C.3   1 <1>   0.3430 
 19 N       -3.5870    -5.5940    -0.3780 N.4   1 <1>  -0.9590 
 20 C       -3.7250    -4.1830    -0.8130 C.3   1 <1>   0.3430 
 21 C       -4.5330    -5.7840     0.7400 C.3   1 <1>   0.3430 
 22 C       -5.1980    -3.8600    -0.5980 C.3   1 <1>  -0.1600 
 23 C       -5.7350    -4.9360     0.3520 C.3   1 <1>  -0.1600 
 24 H        2.6790    -0.8400    -0.5050 H     1 <1>   0.0800 
 25 H        2.5720    -1.7580     0.9970 H     1 <1>   0.0800 
 26 H       -0.5990     0.0270     1.4050 H     1 <1>   0.0800 
 27 H       -0.6310     0.4740    -0.2960 H     1 <1>   0.0800 
 28 H       -0.1370    -4.5940     1.3060 H     1 <1>   0.1500 
 29 H        1.9710    -2.8100    -1.9020 H     1 <1>   0.1500 
 30 H        3.2370     0.8730     1.0230 H     1 <1>   0.0800 
 31 H        2.2410     0.1600     2.2760 H     1 <1>   0.0800 
 32 H        0.8010     1.9190     1.5370 H     1 <1>   0.0800 
 33 H        1.3180     1.7240    -0.1250 H     1 <1>   0.0800 
 34 H        2.9020    -5.0150    -2.3950 H     1 <1>   0.1500 
 35 H        1.3260    -7.6170     0.7870 H     1 <1>   0.4000 
 36 H       -0.2830    -8.8660    -0.0420 H     1 <1>   0.0800 
 37 H       -0.2440    -7.6450    -1.2870 H     1 <1>   0.0800 
 38 H       -2.1690    -7.8030     1.0490 H     1 <1>   0.0800 
 39 H       -2.6310    -9.1140    -0.7860 H     1 <1>   0.4000 
 40 H       -1.5390    -5.5750    -0.8430 H     1 <1>   0.0800 
 41 H       -1.8760    -5.4750     0.8570 H     1 <1>   0.0800 
 42 H       -3.8740    -6.2300    -1.1400 H     1 <1>   0.4500 
 43 H       -3.4280    -4.0510    -1.8410 H     1 <1>   0.0800 
 44 H       -3.1230    -3.5450    -0.1850 H     1 <1>   0.0800 
 45 H       -4.1020    -5.4010     1.6520 H     1 <1>   0.0800 
 46 H       -4.7950    -6.8220     0.8690 H     1 <1>   0.0800 
 47 H       -5.7210    -3.8860    -1.5380 H     1 <1>   0.0800 
 48 H       -5.2970    -2.8730    -0.1790 H     1 <1>   0.0800 
 49 H       -6.1970    -4.5080     1.2240 H     1 <1>   0.0800 
 50 H       -6.4590    -5.5510    -0.1540 H     1 <1>   0.0800 
@<TRIPOS>BOND
  1   1   2  2   
  2   2   3  am  
  3   2   4  1   
  4   3   5  1   
  5   3   6  1   
  6   4   7  ar  
  7   4   8  ar  
  8   5   9  1   
  9   5  24  1   
 10   5  25  1   
 11   6  10  1   
 12   6  26  1   
 13   6  27  1   
 14   7  11  ar  
 15   7  28  1   
 16   8  12  ar  
 17   8  29  1   
 18   9  10  1   
 19   9  30  1   
 20   9  31  1   
 21  10  32  1   
 22  10  33  1   
 23  11  13  ar  
 24  11  14  1   
 25  12  13  ar  
 26  12  34  1   
 27  14  15  1   
 28  14  35  1   
 29  15  16  1   
 30  15  36  1   
 31  15  37  1   
 32  16  17  1   
 33  16  18  1   
 34  16  38  1   
 35  17  39  1   
 36  18  19  1   
 37  18  40  1   
 38  18  41  1   
 39  19  20  1   
 40  19  21  1   
 41  19  42  1   
 42  20  22  1   
 43  20  43  1   
 44  20  44  1   
 45  21  23  1   
 46  21  45  1   
 47  21  46  1   
 48  22  23  1   
 49  22  47  1   
 50  22  48  1   
 51  23  49  1   
 52  23  50  1   
@<TRIPOS>SUBSTRUCTURE
  1 ****   7 GROUP 4 **** **** 0

# MOE 2024.06 (io_trps.svl 2023.06)
