@<TRIPOS>MOLECULE
NONAME
56 59 1 0 0 
SMALL
USER_CHARGES


@<TRIPOS>ATOM
  1 O       -1.2970     0.2820    -1.3600 O.2   1 <1>  -0.5700 
  2 C       -0.1390     0.6130    -1.4800 C.2   1 <1>   0.5690 
  3 N        0.3130     1.8420    -1.0520 N.am  1 <1>  -0.6600 
  4 C        0.7870    -0.4100    -2.1300 C.3   1 <1>   0.0440 
  5 C       -0.6240     2.7690    -0.3170 C.3   1 <1>   0.2200 
  6 C        1.7690     2.1750    -0.9350 C.3   1 <1>   0.1400 
  7 C        1.7100    -1.1070    -1.1320 C.ar  1 <1>  -0.1440 
  8 C        0.0730     3.9230     0.4730 C.3   1 <1>   0.1380 
  9 C       -1.8180     3.2510    -1.1610 C.3   1 <1>  -0.1600 
 10 C        2.1710     2.4410     0.5270 C.3   1 <1>  -0.1600 
 11 C        3.0610    -1.2530    -1.4080 C.ar  1 <1>  -0.1500 
 12 C        1.2080    -1.6000     0.0630 C.ar  1 <1>  -0.1500 
 13 C        0.7730     5.0470    -0.3570 C.2   1 <1>  -0.2760 
 14 C       -1.0350     4.5760     1.3540 C.3   1 <1>   0.1200 
 15 C        1.1200     3.2080     1.3590 C.3   1 <1>  -0.1600 
 16 C       -2.4330     4.5210    -0.5610 C.3   1 <1>   0.1200 
 17 C        3.9090    -1.8720    -0.5040 C.ar  1 <1>   0.0830 
 18 C        2.0470    -2.2210     0.9720 C.ar  1 <1>  -0.1500 
 19 C        0.7310     5.2150    -1.6880 C.2   1 <1>  -0.2880 
 20 C        1.6180     6.0470     0.4440 C.3   1 <1>  -0.0220 
 21 O       -2.3340     4.4490     0.8280 O.3   1 <1>  -0.5600 
 22 O        5.2150    -1.9640    -0.8590 O.3   1 <1>  -0.3620 
 23 C        3.3960    -2.3590     0.6940 C.ar  1 <1>  -0.1500 
 24 C        1.4560     6.3200    -2.4470 C.3   1 <1>   0.2580 
 25 C        1.9220     7.3090    -0.3750 C.3   1 <1>   0.1200 
 26 C        6.1530    -2.6210    -0.0350 C.3   1 <1>   0.0400 
 27 O        2.4020     6.9410    -1.6290 O.3   1 <1>  -0.5600 
 28 H        0.1850    -1.1580    -2.6120 H     1 <1>   0.0800 
 29 H        1.3560     0.0800    -2.8970 H     1 <1>   0.0800 
 30 H       -1.0760     2.1560     0.4470 H     1 <1>   0.0800 
 31 H        2.3920     1.3940    -1.3230 H     1 <1>   0.0800 
 32 H        1.9760     3.0430    -1.5310 H     1 <1>   0.0800 
 33 H       -2.5730     2.4870    -1.1540 H     1 <1>   0.0800 
 34 H       -1.5490     3.4160    -2.1850 H     1 <1>   0.0800 
 35 H        2.3800     1.4990     1.0030 H     1 <1>   0.0800 
 36 H        3.0920     2.9980     0.5160 H     1 <1>   0.0800 
 37 H        3.4770    -0.8890    -2.3290 H     1 <1>   0.1500 
 38 H        0.1600    -1.5010     0.2920 H     1 <1>   0.1500 
 39 H       -0.8580     5.6250     1.4960 H     1 <1>   0.0800 
 40 H       -1.0600     4.1120     2.3240 H     1 <1>   0.0800 
 41 H        1.6060     3.8910     2.0310 H     1 <1>   0.0800 
 42 H        0.6070     2.4890     1.9760 H     1 <1>   0.0800 
 43 H       -3.4750     4.5960    -0.8200 H     1 <1>   0.0800 
 44 H       -1.9240     5.4090    -0.8960 H     1 <1>   0.0800 
 45 H        1.6460    -2.5980     1.8970 H     1 <1>   0.1500 
 46 H        0.1950     4.5800    -2.3620 H     1 <1>   0.1500 
 47 H        2.5530     5.5920     0.7160 H     1 <1>   0.0800 
 48 H        1.1280     6.3520     1.3480 H     1 <1>   0.0800 
 49 H        4.0240    -2.8430     1.4160 H     1 <1>   0.1500 
 50 H        0.7610     7.0650    -2.7940 H     1 <1>   0.0800 
 51 H        1.9850     5.9110    -3.2890 H     1 <1>   0.0800 
 52 H        2.6790     7.9010     0.1090 H     1 <1>   0.0800 
 53 H        1.0360     7.9070    -0.5070 H     1 <1>   0.0800 
 54 H        7.1090    -2.5870    -0.5250 H     1 <1>   0.0800 
 55 H        5.8450    -3.6430     0.0960 H     1 <1>   0.0800 
 56 H        6.2070    -2.1090     0.9090 H     1 <1>   0.0800 
@<TRIPOS>BOND
  1   1   2  2   
  2   2   3  am  
  3   2   4  1   
  4   3   5  1   
  5   3   6  1   
  6   4   7  1   
  7   4  28  1   
  8   4  29  1   
  9   5   8  1   
 10   5   9  1   
 11   5  30  1   
 12   6  10  1   
 13   6  31  1   
 14   6  32  1   
 15   7  11  ar  
 16   7  12  ar  
 17   8  13  1   
 18   8  14  1   
 19   8  15  1   
 20   9  16  1   
 21   9  33  1   
 22   9  34  1   
 23  10  15  1   
 24  10  35  1   
 25  10  36  1   
 26  11  17  ar  
 27  11  37  1   
 28  12  18  ar  
 29  12  38  1   
 30  13  19  2   
 31  13  20  1   
 32  14  21  1   
 33  14  39  1   
 34  14  40  1   
 35  15  41  1   
 36  15  42  1   
 37  16  21  1   
 38  16  43  1   
 39  16  44  1   
 40  17  22  1   
 41  17  23  ar  
 42  18  23  ar  
 43  18  45  1   
 44  19  24  1   
 45  19  46  1   
 46  20  25  1   
 47  20  47  1   
 48  20  48  1   
 49  22  26  1   
 50  23  49  1   
 51  24  27  1   
 52  24  50  1   
 53  24  51  1   
 54  25  27  1   
 55  25  52  1   
 56  25  53  1   
 57  26  54  1   
 58  26  55  1   
 59  26  56  1   
@<TRIPOS>SUBSTRUCTURE
  1 ****   6 GROUP 4 **** **** 0

# MOE 2024.06 (io_trps.svl 2023.06)
