@<TRIPOS>MOLECULE
Untitled Document
39 39 1 0 0 
SMALL
USER_CHARGES


@<TRIPOS>ATOM
  1 N       -1.3140    -1.1600    -2.8830 N.1   1 <1>  -0.5570 
  2 C       -2.3990    -1.2360    -2.5430 C.1   1 <1>   0.6630 
  3 N       -3.7190    -1.3500    -2.1220 N.2   1 <1>  -0.5560 
  4 C       -4.3210    -0.2920    -1.7530 C.2   1 <1>   0.5500 
  5 N       -3.8060     0.9750    -1.6530 N.pl3 1 <1>  -0.5500 
  6 N       -5.6350    -0.3930    -1.4590 N.pl3 1 <1>  -0.8190 
  7 C       -2.7130     1.4410    -0.9190 C.ar  1 <1>   0.1000 
  8 C       -6.2480     0.2110    -0.2560 C.3   1 <1>   0.2890 
  9 C       -2.2020     2.7060    -1.1780 C.ar  1 <1>  -0.1500 
 10 C       -2.1210     0.6820     0.0850 C.ar  1 <1>  -0.1500 
 11 C       -6.6800    -0.8950     0.7630 C.3   1 <1>   0.0000 
 12 C       -7.3760     1.1180    -0.7570 C.3   1 <1>  -0.2400 
 13 C       -1.1290     3.1970    -0.4580 C.ar  1 <1>  -0.1500 
 14 C       -1.0470     1.1740     0.8030 C.ar  1 <1>  -0.1500 
 15 C       -5.4480    -1.7050     1.2130 C.3   1 <1>  -0.2400 
 16 C       -7.7140    -1.8800     0.1790 C.3   1 <1>  -0.2400 
 17 C       -7.2890    -0.2580     2.0270 C.3   1 <1>  -0.2400 
 18 C       -0.5320     2.4400     0.5450 C.ar  1 <1>   0.0730 
 19 C        0.5810     2.9510     1.2920 C.1   1 <1>   0.4840 
 20 N        1.4600     3.3630     1.8900 N.1   1 <1>  -0.5570 
 21 H       -4.4790     1.6790    -1.9490 H     1 <1>   0.4000 
 22 H       -5.9890    -1.3370    -1.6230 H     1 <1>   0.4000 
 23 H       -5.5200     0.8340     0.2360 H     1 <1>   0.0800 
 24 H       -2.6420     3.3070    -1.9540 H     1 <1>   0.1500 
 25 H       -2.5000    -0.3000     0.3060 H     1 <1>   0.1500 
 26 H       -8.1310     0.5490    -1.2660 H     1 <1>   0.0800 
 27 H       -6.9790     1.8480    -1.4370 H     1 <1>   0.0800 
 28 H       -7.8310     1.6460     0.0590 H     1 <1>   0.0800 
 29 H       -0.7460     4.1800    -0.6780 H     1 <1>   0.1500 
 30 H       -0.6010     0.5660     1.5730 H     1 <1>   0.1500 
 31 H       -5.7200    -2.4260     1.9650 H     1 <1>   0.0800 
 32 H       -4.6990    -1.0540     1.6260 H     1 <1>   0.0800 
 33 H       -5.0130    -2.2410     0.3890 H     1 <1>   0.0800 
 34 H       -7.9670    -2.6300     0.9070 H     1 <1>   0.0800 
 35 H       -7.3270    -2.3820    -0.6890 H     1 <1>   0.0800 
 36 H       -8.6200    -1.3720    -0.0960 H     1 <1>   0.0800 
 37 H       -7.4890    -1.0100     2.7700 H     1 <1>   0.0800 
 38 H       -8.2190     0.2340     1.8060 H     1 <1>   0.0800 
 39 H       -6.6120     0.4620     2.4530 H     1 <1>   0.0800 
@<TRIPOS>BOND
  1   1   2  3   
  2   2   3  1   
  3   3   4  2   
  4   4   5  1   
  5   4   6  1   
  6   5   7  1   
  7   5  21  1   
  8   6   8  1   
  9   6  22  1   
 10   7   9  ar  
 11   7  10  ar  
 12   8  11  1   
 13   8  12  1   
 14   8  23  1   
 15   9  13  ar  
 16   9  24  1   
 17  10  14  ar  
 18  10  25  1   
 19  11  15  1   
 20  11  16  1   
 21  11  17  1   
 22  12  26  1   
 23  12  27  1   
 24  12  28  1   
 25  13  18  ar  
 26  13  29  1   
 27  14  18  ar  
 28  14  30  1   
 29  15  31  1   
 30  15  32  1   
 31  15  33  1   
 32  16  34  1   
 33  16  35  1   
 34  16  36  1   
 35  17  37  1   
 36  17  38  1   
 37  17  39  1   
 38  18  19  1   
 39  19  20  3   
@<TRIPOS>SUBSTRUCTURE
  1 ****   7 GROUP 4 **** **** 0

# MOE 2024.06 (io_trps.svl 2023.06)
