@<TRIPOS>MOLECULE
NONAME
54 57 1 0 0 
SMALL
USER_CHARGES


@<TRIPOS>ATOM
  1 O       -0.2310     0.5110    -0.2330 O.2   1 <1>  -0.5700 
  2 C       -0.2080     1.7280    -0.2140 C.2   1 <1>   0.5440 
  3 N       -1.4060     2.4130    -0.1960 N.am  1 <1>  -0.6600 
  4 C        1.0690     2.4170    -0.1950 C.ar  1 <1>   0.0860 
  5 C       -1.5100     3.8350     0.2450 C.3   1 <1>   0.1400 
  6 C       -2.6850     1.6930    -0.4620 C.3   1 <1>   0.1400 
  7 C        1.3600     3.4540    -1.0810 C.ar  1 <1>  -0.1500 
  8 C        2.0630     2.0600     0.7150 C.ar  1 <1>  -0.1500 
  9 C       -2.8400     4.0570     0.9620 C.3   1 <1>  -0.1600 
 10 C       -3.7550     2.6660    -0.9670 C.3   1 <1>  -0.1600 
 11 C        2.5740     4.1130    -1.0450 C.ar  1 <1>  -0.1500 
 12 C        3.2770     2.7190     0.7520 C.ar  1 <1>  -0.1500 
 13 C       -4.0340     3.8370     0.0080 C.3   1 <1>   0.2800 
 14 C        3.5560     3.7620    -0.1250 C.ar  1 <1>   0.0000 
 15 O       -4.1530     4.9720    -0.8170 O.3   1 <1>  -0.5600 
 16 C       -5.3460     3.6100     0.8030 C.3   1 <1>  -0.1600 
 17 C        4.8250     4.4530    -0.0860 C.ar  1 <1>   0.0000 
 18 C       -4.8260     6.0920    -0.3120 C.3   1 <1>   0.1200 
 19 C       -6.5610     4.2680     0.1440 C.3   1 <1>   0.2800 
 20 C        6.0220     3.7610    -0.2450 C.ar  1 <1>  -0.1500 
 21 C        4.8870     5.8290     0.1120 C.ar  1 <1>  -0.1500 
 22 C       -6.3010     5.7680    -0.0290 C.3   1 <1>  -0.1600 
 23 O       -6.7030     3.7400    -1.1120 O.3   1 <1>  -0.6800 
 24 C       -7.8620     3.9840     0.8900 C.3   1 <1>  -0.2400 
 25 C        7.2390     4.4180    -0.2080 C.ar  1 <1>  -0.1500 
 26 C        6.1010     6.4930     0.1500 C.ar  1 <1>  -0.1500 
 27 C        7.2800     5.7870    -0.0100 C.ar  1 <1>  -0.1500 
 28 H       -1.4490     4.4820    -0.6150 H     1 <1>   0.0800 
 29 H       -0.6990     4.0720     0.9130 H     1 <1>   0.0800 
 30 H       -3.0150     1.2160     0.4450 H     1 <1>   0.0800 
 31 H       -2.5190     0.9260    -1.2010 H     1 <1>   0.0800 
 32 H        0.6200     3.7370    -1.8100 H     1 <1>   0.1500 
 33 H        1.8690     1.2510     1.3980 H     1 <1>   0.1500 
 34 H       -2.8640     5.0420     1.3850 H     1 <1>   0.0800 
 35 H       -2.8930     3.3620     1.7810 H     1 <1>   0.0800 
 36 H       -4.6520     2.1070    -1.1590 H     1 <1>   0.0800 
 37 H       -3.4140     3.0490    -1.9130 H     1 <1>   0.0800 
 38 H        2.7730     4.9080    -1.7430 H     1 <1>   0.1500 
 39 H        4.0220     2.4260     1.4710 H     1 <1>   0.1500 
 40 H       -5.2390     4.0330     1.7860 H     1 <1>   0.0800 
 41 H       -5.5220     2.5600     0.9500 H     1 <1>   0.0800 
 42 H       -4.7510     6.8780    -1.0440 H     1 <1>   0.0800 
 43 H       -4.3300     6.4170     0.5850 H     1 <1>   0.0800 
 44 H        5.9960     2.6970    -0.4040 H     1 <1>   0.1500 
 45 H        3.9740     6.3830     0.2410 H     1 <1>   0.1500 
 46 H       -6.9250     6.1620    -0.8120 H     1 <1>   0.0800 
 47 H       -6.5760     6.2850     0.8730 H     1 <1>   0.0800 
 48 H       -5.8970     3.9910    -1.6120 H     1 <1>   0.4000 
 49 H       -7.8110     4.3700     1.8910 H     1 <1>   0.0800 
 50 H       -8.0370     2.9240     0.9400 H     1 <1>   0.0800 
 51 H       -8.6880     4.4520     0.3850 H     1 <1>   0.0800 
 52 H        8.1540     3.8660    -0.3330 H     1 <1>   0.1500 
 53 H        6.1300     7.5570     0.3040 H     1 <1>   0.1500 
 54 H        8.2250     6.3000     0.0190 H     1 <1>   0.1500 
@<TRIPOS>BOND
  1   1   2  2   
  2   2   3  am  
  3   2   4  1   
  4   3   5  1   
  5   3   6  1   
  6   4   7  ar  
  7   4   8  ar  
  8   5   9  1   
  9   5  28  1   
 10   5  29  1   
 11   6  10  1   
 12   6  30  1   
 13   6  31  1   
 14   7  11  ar  
 15   7  32  1   
 16   8  12  ar  
 17   8  33  1   
 18   9  13  1   
 19   9  34  1   
 20   9  35  1   
 21  10  13  1   
 22  10  36  1   
 23  10  37  1   
 24  11  14  ar  
 25  11  38  1   
 26  12  14  ar  
 27  12  39  1   
 28  13  15  1   
 29  13  16  1   
 30  14  17  1   
 31  15  18  1   
 32  16  19  1   
 33  16  40  1   
 34  16  41  1   
 35  17  20  ar  
 36  17  21  ar  
 37  18  22  1   
 38  18  42  1   
 39  18  43  1   
 40  19  22  1   
 41  19  23  1   
 42  19  24  1   
 43  20  25  ar  
 44  20  44  1   
 45  21  26  ar  
 46  21  45  1   
 47  22  46  1   
 48  22  47  1   
 49  23  48  1   
 50  24  49  1   
 51  24  50  1   
 52  24  51  1   
 53  25  27  ar  
 54  25  52  1   
 55  26  27  ar  
 56  26  53  1   
 57  27  54  1   
@<TRIPOS>SUBSTRUCTURE
  1 ****   5 GROUP 4 **** **** 0

# MOE 2024.06 (io_trps.svl 2023.06)
