@<TRIPOS>MOLECULE
NONAME
43 44 1 0 0 
SMALL
USER_CHARGES


@<TRIPOS>ATOM
  1 CL       0.1390    -0.7410     1.1100 Cl    1 <1>  -0.1770 
  2 C        0.0480    -2.4620     0.8420 C.ar  1 <1>   0.1770 
  3 C       -0.7020    -3.2440     1.6990 C.ar  1 <1>  -0.1500 
  4 C        0.7280    -3.0180    -0.2250 C.ar  1 <1>  -0.1500 
  5 C       -0.7730    -4.6100     1.4820 C.ar  1 <1>  -0.1500 
  6 C        0.6540    -4.3840    -0.4400 C.ar  1 <1>  -0.1500 
  7 C       -0.0980    -5.1860     0.4110 C.ar  1 <1>  -0.1430 
  8 C       -0.1850    -6.6840     0.1660 C.3   1 <1>   0.4870 
  9 N       -1.5940    -7.0770    -0.0160 N.4   1 <1>  -0.9590 
 10 C       -1.8170    -8.5670    -0.0870 C.3   1 <1>   0.3430 
 11 C       -2.3510    -6.3390    -1.0580 C.3   1 <1>   0.3430 
 12 C       -3.2620    -8.9320    -0.5190 C.3   1 <1>   0.2000 
 13 C       -3.8620    -6.5040    -0.8060 C.3   1 <1>  -0.1600 
 14 O       -3.2980    -9.0650    -1.9090 O.3   1 <1>  -0.6800 
 15 C       -4.2510    -7.8310    -0.0700 C.3   1 <1>  -0.1060 
 16 C       -4.0130    -7.7430     1.4500 C.2   1 <1>   0.9060 
 17 C       -5.7210    -8.2240    -0.3830 C.3   1 <1>  -0.1600 
 18 O       -3.4420    -6.7440     1.9150 O.co2 1 <1>  -0.9000 
 19 O       -4.1590    -8.7620     2.1220 O.co2 1 <1>  -0.9000 
 20 C       -6.7520    -7.2050     0.1290 C.3   1 <1>  -0.1600 
 21 C       -8.1780    -7.6620    -0.1890 C.3   1 <1>  -0.2400 
 22 H       -1.2250    -2.7920     2.5220 H     1 <1>   0.1500 
 23 H        1.3060    -2.3840    -0.8740 H     1 <1>   0.1500 
 24 H       -1.3660    -5.2130     2.1550 H     1 <1>   0.1500 
 25 H        1.1860    -4.8110    -1.2740 H     1 <1>   0.1500 
 26 H        0.2290    -7.2050     1.0140 H     1 <1>   0.0800 
 27 H        0.3830    -6.9470    -0.7110 H     1 <1>   0.0800 
 28 H       -2.0910    -6.7870     0.8680 H     1 <1>   0.4500 
 29 H       -1.1260    -9.0260    -0.7720 H     1 <1>   0.0800 
 30 H       -1.6520    -8.9800     0.8950 H     1 <1>   0.0800 
 31 H       -2.1000    -5.2910    -1.0430 H     1 <1>   0.0800 
 32 H       -2.1030    -6.7420    -2.0260 H     1 <1>   0.0800 
 33 H       -3.5300    -9.8860    -0.0940 H     1 <1>   0.0800 
 34 H       -4.2130    -5.6590    -0.2370 H     1 <1>   0.0800 
 35 H       -4.3520    -6.4550    -1.7610 H     1 <1>   0.0800 
 36 H       -4.1990    -9.3340    -2.1800 H     1 <1>   0.4000 
 37 H       -5.8530    -8.3460    -1.4430 H     1 <1>   0.0800 
 38 H       -5.9270    -9.1740     0.0840 H     1 <1>   0.0800 
 39 H       -6.6530    -7.0920     1.1960 H     1 <1>   0.0800 
 40 H       -6.5860    -6.2430    -0.3230 H     1 <1>   0.0800 
 41 H       -8.3800    -8.6090     0.2810 H     1 <1>   0.0800 
 42 H       -8.3160    -7.7630    -1.2510 H     1 <1>   0.0800 
 43 H       -8.8850    -6.9410     0.1820 H     1 <1>   0.0800 
@<TRIPOS>BOND
  1   1   2  1   
  2   2   3  ar  
  3   2   4  ar  
  4   3   5  ar  
  5   3  22  1   
  6   4   6  ar  
  7   4  23  1   
  8   5   7  ar  
  9   5  24  1   
 10   6   7  ar  
 11   6  25  1   
 12   7   8  1   
 13   8   9  1   
 14   8  26  1   
 15   8  27  1   
 16   9  10  1   
 17   9  11  1   
 18   9  28  1   
 19  10  12  1   
 20  10  29  1   
 21  10  30  1   
 22  11  13  1   
 23  11  31  1   
 24  11  32  1   
 25  12  14  1   
 26  12  15  1   
 27  12  33  1   
 28  13  15  1   
 29  13  34  1   
 30  13  35  1   
 31  14  36  1   
 32  15  16  1   
 33  15  17  1   
 34  16  18  ar  
 35  16  19  ar  
 36  17  20  1   
 37  17  37  1   
 38  17  38  1   
 39  20  21  1   
 40  20  39  1   
 41  20  40  1   
 42  21  41  1   
 43  21  42  1   
 44  21  43  1   
@<TRIPOS>SUBSTRUCTURE
  1 ****   9 GROUP 4 **** **** 0

# MOE 2024.06 (io_trps.svl 2023.06)
