@<TRIPOS>MOLECULE
NONAME
60 62 1 0 0 
SMALL
USER_CHARGES


@<TRIPOS>ATOM
  1 O        0.0020    -1.3240    -2.1250 O.2   1 <1>  -0.5700 
  2 C        0.3310    -1.4980    -0.9750 C.2   1 <1>   0.5690 
  3 N        1.6380    -1.5500    -0.6100 N.am  1 <1>  -0.7300 
  4 C       -0.7860    -1.6570     0.0740 C.3   1 <1>   0.4040 
  5 C        2.7680    -1.5330    -1.5590 C.3   1 <1>   0.2840 
  6 N       -2.1300    -1.1500    -0.3980 N.4   1 <1>  -0.9590 
  7 C        3.8780    -2.3550    -0.9370 C.ar  1 <1>  -0.1430 
  8 C       -3.2830    -1.6480     0.4080 C.3   1 <1>   0.3430 
  9 C       -2.1460     0.3380    -0.5710 C.3   1 <1>   0.3430 
 10 C        4.8980    -1.7420    -0.2230 C.ar  1 <1>  -0.1500 
 11 C        3.8670    -3.7340    -1.0610 C.ar  1 <1>  -0.1500 
 12 C       -4.6190    -1.4320    -0.3430 C.3   1 <1>   0.0000 
 13 C       -3.5790     0.8740    -0.7060 C.3   1 <1>  -0.1600 
 14 C        5.9110    -2.4920     0.3750 C.ar  1 <1>   0.0830 
 15 C        4.8650    -4.4890    -0.4750 C.ar  1 <1>  -0.1500 
 16 C       -5.7460    -1.4090     0.7150 C.3   1 <1>   0.2000 
 17 C       -4.5480    -0.1790    -1.2640 C.3   1 <1>  -0.1600 
 18 C       -4.9540    -2.6940    -1.1560 C.3   1 <1>  -0.1600 
 19 O        6.8990    -1.8920     1.1020 O.3   1 <1>  -0.3630 
 20 C        5.8910    -3.8910     0.2370 C.ar  1 <1>   0.0830 
 21 O       -6.9220    -0.9360     0.1320 O.3   1 <1>  -0.5600 
 22 C       -5.9530    -2.8840     1.0810 C.3   1 <1>  -0.1600 
 23 C       -5.5490    -3.6960    -0.1580 C.3   1 <1>  -0.1600 
 24 C        7.0070    -0.4910     1.2310 C.3   1 <1>   0.0400 
 25 O        6.8050    -4.7610     0.7530 O.3   1 <1>  -0.3630 
 26 C       -7.8720    -0.4270     1.0160 C.3   1 <1>   0.0400 
 27 C        8.1510    -4.3910     0.9550 C.3   1 <1>   0.0400 
 28 H        1.9440    -1.7630     0.3450 H     1 <1>   0.3700 
 29 H       -0.4970    -1.1390     0.9710 H     1 <1>   0.0800 
 30 H       -0.8640    -2.7060     0.3030 H     1 <1>   0.0800 
 31 H        2.4720    -1.9560    -2.5060 H     1 <1>   0.0800 
 32 H        3.0920    -0.5190    -1.7230 H     1 <1>   0.0800 
 33 H       -2.2440    -1.5260    -1.3550 H     1 <1>   0.4500 
 34 H       -3.1670    -2.6970     0.6260 H     1 <1>   0.0800 
 35 H       -3.3130    -1.1120     1.3430 H     1 <1>   0.0800 
 36 H       -1.6690     0.8190     0.2670 H     1 <1>   0.0800 
 37 H       -1.5890     0.5900    -1.4610 H     1 <1>   0.0800 
 38 H        4.8860    -0.6730    -0.1380 H     1 <1>   0.1500 
 39 H        3.0850    -4.2280    -1.6110 H     1 <1>   0.1500 
 40 H       -3.9270     1.2040     0.2570 H     1 <1>   0.0800 
 41 H       -3.5690     1.7380    -1.3480 H     1 <1>   0.0800 
 42 H        4.8580    -5.5600    -0.5700 H     1 <1>   0.1500 
 43 H       -5.5010    -0.7910     1.5630 H     1 <1>   0.0800 
 44 H       -4.1990    -0.4710    -2.2400 H     1 <1>   0.0800 
 45 H       -5.5190     0.2610    -1.4110 H     1 <1>   0.0800 
 46 H       -5.7170    -2.4520    -1.8790 H     1 <1>   0.0800 
 47 H       -4.1070    -3.1000    -1.6810 H     1 <1>   0.0800 
 48 H       -5.3090    -3.1450     1.9020 H     1 <1>   0.0800 
 49 H       -6.9670    -3.0920     1.3720 H     1 <1>   0.0800 
 50 H       -4.8310    -4.4530     0.1070 H     1 <1>   0.0800 
 51 H       -6.4100    -4.1770    -0.5910 H     1 <1>   0.0800 
 52 H        7.8790    -0.2770     1.8220 H     1 <1>   0.0800 
 53 H        6.1300    -0.1170     1.7290 H     1 <1>   0.0800 
 54 H        7.1140    -0.0560     0.2530 H     1 <1>   0.0800 
 55 H       -8.7300    -0.1240     0.4430 H     1 <1>   0.0800 
 56 H       -7.4610     0.4270     1.5270 H     1 <1>   0.0800 
 57 H       -8.1600    -1.1870     1.7200 H     1 <1>   0.0800 
 58 H        8.7350    -5.2890     1.0390 H     1 <1>   0.0800 
 59 H        8.2220    -3.8260     1.8670 H     1 <1>   0.0800 
 60 H        8.4850    -3.8090     0.1150 H     1 <1>   0.0800 
@<TRIPOS>BOND
  1   1   2  2   
  2   2   3  am  
  3   2   4  1   
  4   3   5  1   
  5   3  28  1   
  6   4   6  1   
  7   4  29  1   
  8   4  30  1   
  9   5   7  1   
 10   5  31  1   
 11   5  32  1   
 12   6   8  1   
 13   6   9  1   
 14   6  33  1   
 15   7  10  ar  
 16   7  11  ar  
 17   8  12  1   
 18   8  34  1   
 19   8  35  1   
 20   9  13  1   
 21   9  36  1   
 22   9  37  1   
 23  10  14  ar  
 24  10  38  1   
 25  11  15  ar  
 26  11  39  1   
 27  12  16  1   
 28  12  17  1   
 29  12  18  1   
 30  13  17  1   
 31  13  40  1   
 32  13  41  1   
 33  14  19  1   
 34  14  20  ar  
 35  15  20  ar  
 36  15  42  1   
 37  16  21  1   
 38  16  22  1   
 39  16  43  1   
 40  17  44  1   
 41  17  45  1   
 42  18  23  1   
 43  18  46  1   
 44  18  47  1   
 45  19  24  1   
 46  20  25  1   
 47  21  26  1   
 48  22  23  1   
 49  22  48  1   
 50  22  49  1   
 51  23  50  1   
 52  23  51  1   
 53  24  52  1   
 54  24  53  1   
 55  24  54  1   
 56  25  27  1   
 57  26  55  1   
 58  26  56  1   
 59  26  57  1   
 60  27  58  1   
 61  27  59  1   
 62  27  60  1   
@<TRIPOS>SUBSTRUCTURE
  1 ****   2 GROUP 4 **** **** 0

# MOE 2024.06 (io_trps.svl 2023.06)
