@<TRIPOS>MOLECULE
NONAME
53 55 1 0 0 
SMALL
USER_CHARGES


@<TRIPOS>ATOM
  1 O        0.3880     1.3900    -0.9150 O.2   1 <1>  -0.5700 
  2 C        0.1040     2.5560    -0.7710 C.2   1 <1>   0.5690 
  3 N       -0.9250     2.9680     0.0320 N.am  1 <1>  -0.6600 
  4 C        0.9160     3.5980    -1.5400 C.3   1 <1>   0.1810 
  5 C       -1.2920     4.4190     0.1470 C.3   1 <1>   0.3640 
  6 C       -1.7110     2.0210     0.8750 C.3   1 <1>   0.0600 
  7 O        0.8830     4.8630    -0.9290 O.3   1 <1>  -0.5600 
  8 C       -2.7930     4.6280    -0.1160 C.ar  1 <1>  -0.1430 
  9 C       -0.4250     5.3760    -0.7160 C.3   1 <1>   0.2610 
 10 C       -3.4800     4.1580    -1.2420 C.ar  1 <1>  -0.1430 
 11 C       -3.5000     5.3390     0.8470 C.ar  1 <1>  -0.1500 
 12 C       -0.3430     6.7460    -0.0330 C.2   1 <1>   0.5690 
 13 C       -4.8410     4.4020    -1.3620 C.ar  1 <1>  -0.1500 
 14 C       -2.8220     3.3680    -2.3680 C.3   1 <1>  -0.0960 
 15 C       -4.8540     5.5780     0.7150 C.ar  1 <1>  -0.1500 
 16 O       -1.3010     7.4820    -0.0430 O.2   1 <1>  -0.5700 
 17 N        0.8150     7.1120     0.5730 N.am  1 <1>  -0.7300 
 18 C       -5.5280     5.1070    -0.3920 C.ar  1 <1>  -0.1500 
 19 C        1.1010     8.4380     1.1470 C.3   1 <1>   0.2840 
 20 C        2.4950     8.8570     0.7050 C.ar  1 <1>  -0.1430 
 21 C        2.7250     9.4870    -0.5150 C.ar  1 <1>  -0.1430 
 22 C        3.5650     8.5950     1.5480 C.ar  1 <1>  -0.1500 
 23 C        4.0190     9.8450    -0.8640 C.ar  1 <1>  -0.1500 
 24 C        1.5900     9.7920    -1.4840 C.3   1 <1>  -0.0970 
 25 C        4.8510     8.9550     1.1900 C.ar  1 <1>  -0.1500 
 26 C        5.0840     9.5850    -0.0190 C.ar  1 <1>  -0.1430 
 27 C        6.4930     9.9830    -0.4210 C.3   1 <1>  -0.0970 
 28 H        0.5390     3.6880    -2.5420 H     1 <1>   0.0800 
 29 H        1.9430     3.2840    -1.5830 H     1 <1>   0.0800 
 30 H       -1.1010     4.6870     1.1720 H     1 <1>   0.0800 
 31 H       -1.6950     2.3440     1.9010 H     1 <1>   0.0800 
 32 H       -1.2960     1.0290     0.8210 H     1 <1>   0.0800 
 33 H       -2.7310     1.9840     0.5340 H     1 <1>   0.0800 
 34 H       -0.8820     5.5190    -1.6760 H     1 <1>   0.0800 
 35 H       -2.9980     5.7260     1.7170 H     1 <1>   0.1500 
 36 H       -5.3840     4.0430    -2.2180 H     1 <1>   0.1500 
 37 H       -3.4720     3.3010    -3.2210 H     1 <1>   0.0800 
 38 H       -2.6060     2.3670    -2.0390 H     1 <1>   0.0800 
 39 H       -1.9140     3.8360    -2.6910 H     1 <1>   0.0800 
 40 H       -5.3810     6.1330     1.4720 H     1 <1>   0.1500 
 41 H        1.6410     6.5280     0.4100 H     1 <1>   0.3700 
 42 H       -6.5830     5.2890    -0.5010 H     1 <1>   0.1500 
 43 H        0.3650     9.1540     0.8250 H     1 <1>   0.0800 
 44 H        1.0550     8.3750     2.2200 H     1 <1>   0.0800 
 45 H        3.4030     8.1050     2.4920 H     1 <1>   0.1500 
 46 H        4.2030    10.3330    -1.8040 H     1 <1>   0.1500 
 47 H        1.9680    10.1900    -2.4080 H     1 <1>   0.0800 
 48 H        0.9210    10.5140    -1.0520 H     1 <1>   0.0800 
 49 H        1.0400     8.8950    -1.7060 H     1 <1>   0.0800 
 50 H        5.6680     8.7440     1.8570 H     1 <1>   0.1500 
 51 H        7.1100    10.1170     0.4490 H     1 <1>   0.0800 
 52 H        6.4760    10.9060    -0.9710 H     1 <1>   0.0800 
 53 H        6.9240     9.2160    -1.0390 H     1 <1>   0.0800 
@<TRIPOS>BOND
  1   1   2  2   
  2   2   3  am  
  3   2   4  1   
  4   3   5  1   
  5   3   6  1   
  6   4   7  1   
  7   4  28  1   
  8   4  29  1   
  9   5   8  1   
 10   5   9  1   
 11   5  30  1   
 12   6  31  1   
 13   6  32  1   
 14   6  33  1   
 15   7   9  1   
 16   8  10  ar  
 17   8  11  ar  
 18   9  12  1   
 19   9  34  1   
 20  10  13  ar  
 21  10  14  1   
 22  11  15  ar  
 23  11  35  1   
 24  12  16  2   
 25  12  17  am  
 26  13  18  ar  
 27  13  36  1   
 28  14  37  1   
 29  14  38  1   
 30  14  39  1   
 31  15  18  ar  
 32  15  40  1   
 33  17  19  1   
 34  17  41  1   
 35  18  42  1   
 36  19  20  1   
 37  19  43  1   
 38  19  44  1   
 39  20  21  ar  
 40  20  22  ar  
 41  21  23  ar  
 42  21  24  1   
 43  22  25  ar  
 44  22  45  1   
 45  23  26  ar  
 46  23  46  1   
 47  24  47  1   
 48  24  48  1   
 49  24  49  1   
 50  25  26  ar  
 51  25  50  1   
 52  26  27  1   
 53  27  51  1   
 54  27  52  1   
 55  27  53  1   
@<TRIPOS>SUBSTRUCTURE
  1 ****  12 GROUP 4 **** **** 0

# MOE 2024.06 (io_trps.svl 2023.06)
