@<TRIPOS>MOLECULE
NONAME
46 48 1 0 0 
SMALL
USER_CHARGES


@<TRIPOS>ATOM
  1 S       -0.7530     0.0010    -0.0900 S.o2  1 <1>   1.3330 
  2 O        0.6800     0.1220    -0.0170 O.2   1 <1>  -0.6500 
  3 O       -1.4840     0.4270    -1.2580 O.2   1 <1>  -0.6500 
  4 N       -1.0420    -1.6320     0.1070 N.am  1 <1>  -0.9140 
  5 C       -1.4970     0.7130     1.3610 C.3   1 <1>  -0.1350 
  6 C       -0.9140    -2.3550    -1.1740 C.3   1 <1>   0.2570 
  7 C       -1.0550    -3.8770    -1.0400 C.2   1 <1>   0.5690 
  8 O       -0.0440    -4.5410    -1.0490 O.2   1 <1>  -0.5700 
  9 N       -2.2920    -4.4520    -0.9080 N.am  1 <1>  -0.6600 
 10 C       -3.5670    -3.7190    -0.7100 C.3   1 <1>   0.1400 
 11 C       -2.4950    -5.9100    -0.7440 C.3   1 <1>   0.1400 
 12 C       -4.5980    -4.7940    -0.3570 C.3   1 <1>   0.2000 
 13 C       -3.7990    -6.0330     0.0460 C.3   1 <1>  -0.0800 
 14 O       -5.4060    -4.3930     0.6960 O.3   1 <1>  -0.6800 
 15 C       -4.5630    -7.3420    -0.2120 C.3   1 <1>  -0.0170 
 16 C       -3.7280    -8.5530     0.1660 C.ar  1 <1>   0.1670 
 17 N       -2.9520    -9.0520    -0.7470 N.ar  1 <1>  -0.6200 
 18 C       -3.8220    -9.0630     1.4710 C.ar  1 <1>  -0.1500 
 19 C       -2.1890   -10.1240    -0.4120 C.ar  1 <1>   0.3100 
 20 C       -3.0700   -10.1390     1.8330 C.ar  1 <1>  -0.1500 
 21 C       -2.2140   -10.7060     0.8750 C.ar  1 <1>   0.0000 
 22 C       -1.3340   -10.6770    -1.3790 C.ar  1 <1>  -0.1500 
 23 C       -1.3880   -11.8160     1.1410 C.ar  1 <1>  -0.1500 
 24 C       -0.5380   -11.7570    -1.1000 C.ar  1 <1>  -0.1500 
 25 C       -0.5670   -12.3320     0.1750 C.ar  1 <1>  -0.1500 
 26 H       -0.2550    -1.9560     0.6710 H     1 <1>   0.4200 
 27 H       -1.0440     0.3130     2.2470 H     1 <1>   0.0800 
 28 H       -2.5470     0.4990     1.3800 H     1 <1>   0.0800 
 29 H       -1.3630     1.7770     1.3560 H     1 <1>   0.0800 
 30 H       -1.6620    -2.0070    -1.8640 H     1 <1>   0.0800 
 31 H        0.0500    -2.1470    -1.6070 H     1 <1>   0.0800 
 32 H       -3.4550    -3.0110     0.0930 H     1 <1>   0.0800 
 33 H       -3.8480    -3.2110    -1.6150 H     1 <1>   0.0800 
 34 H       -2.5900    -6.3640    -1.7160 H     1 <1>   0.0800 
 35 H       -1.6710    -6.3670    -0.2210 H     1 <1>   0.0800 
 36 H       -5.2260    -4.9900    -1.2100 H     1 <1>   0.0800 
 37 H       -3.5400    -5.9720     1.0890 H     1 <1>   0.0800 
 38 H       -4.8650    -4.2280     1.4920 H     1 <1>   0.4000 
 39 H       -4.8270    -7.4140    -1.2530 H     1 <1>   0.0800 
 40 H       -5.4770    -7.3440     0.3540 H     1 <1>   0.0800 
 41 H       -4.4890    -8.5950     2.1720 H     1 <1>   0.1500 
 42 H       -3.1150   -10.5580     2.8220 H     1 <1>   0.1500 
 43 H       -1.3260   -10.2200    -2.3510 H     1 <1>   0.1500 
 44 H       -1.4140   -12.2520     2.1230 H     1 <1>   0.1500 
 45 H        0.1130   -12.1710    -1.8510 H     1 <1>   0.1500 
 46 H        0.0640   -13.1790     0.3810 H     1 <1>   0.1500 
@<TRIPOS>BOND
  1   1   2  2   
  2   1   3  2   
  3   1   4  am  
  4   1   5  1   
  5   4   6  1   
  6   4  26  1   
  7   5  27  1   
  8   5  28  1   
  9   5  29  1   
 10   6   7  1   
 11   6  30  1   
 12   6  31  1   
 13   7   8  2   
 14   7   9  am  
 15   9  10  1   
 16   9  11  1   
 17  10  12  1   
 18  10  32  1   
 19  10  33  1   
 20  11  13  1   
 21  11  34  1   
 22  11  35  1   
 23  12  13  1   
 24  12  14  1   
 25  12  36  1   
 26  13  15  1   
 27  13  37  1   
 28  14  38  1   
 29  15  16  1   
 30  15  39  1   
 31  15  40  1   
 32  16  17  ar  
 33  16  18  ar  
 34  17  19  ar  
 35  18  20  ar  
 36  18  41  1   
 37  19  21  ar  
 38  19  22  ar  
 39  20  21  ar  
 40  20  42  1   
 41  21  23  ar  
 42  22  24  ar  
 43  22  43  1   
 44  23  25  ar  
 45  23  44  1   
 46  24  25  ar  
 47  24  45  1   
 48  25  46  1   
@<TRIPOS>SUBSTRUCTURE
  1 ****  11 GROUP 4 **** **** 0

# MOE 2024.06 (io_trps.svl 2023.06)
