@<TRIPOS>MOLECULE
NONAME
47 50 1 0 0 
SMALL
USER_CHARGES


@<TRIPOS>ATOM
  1 O        0.0820     0.0690     1.2730 O.3   1 <1>  -0.6800 
  2 C        0.9250    -0.0210     0.1730 C.3   1 <1>   0.2000 
  3 C        1.6720    -1.3520     0.2680 C.3   1 <1>  -0.0800 
  4 C        2.0350     1.0360     0.3280 C.3   1 <1>   0.3430 
  5 C        2.7180    -1.0130     1.3330 C.3   1 <1>   0.3430 
  6 C        2.2740    -1.7420    -1.1110 C.3   1 <1>  -0.0170 
  7 N        3.2120     0.3170     0.9170 N.4   1 <1>  -0.9590 
  8 C        3.6720    -2.3440    -1.0440 C.ar  1 <1>   0.1670 
  9 C        3.9220     1.0810     1.9660 C.3   1 <1>   0.4860 
 10 N        4.6760    -1.4850    -0.9020 N.ar  1 <1>  -0.6200 
 11 C        3.8420    -3.7240    -1.1360 C.ar  1 <1>   0.1600 
 12 C        4.4560     2.3490     1.3310 C.ar  1 <1>  -0.1440 
 13 C        5.8510    -2.1020    -0.8820 C.ar  1 <1>   0.1600 
 14 N        5.0130    -4.3330    -1.0900 N.ar  1 <1>  -0.6200 
 15 C        5.4750     2.2930     0.4030 C.ar  1 <1>  -0.1500 
 16 C        3.8920     3.5840     1.6830 C.ar  1 <1>  -0.1500 
 17 C        6.0130    -3.4790    -0.9710 C.ar  1 <1>   0.1600 
 18 C        5.9280     3.4750    -0.1890 C.ar  1 <1>  -0.1520 
 19 C        4.3370     4.7490     1.1040 C.ar  1 <1>  -0.1500 
 20 N        6.9060     3.7020    -1.1290 N.pl3 1 <1>   0.0480 
 21 C        5.3620     4.6980     0.1570 C.ar  1 <1>   0.0000 
 22 C        6.9510     5.0460    -1.3690 C.2   1 <1>  -0.3020 
 23 C        7.7640     2.6900    -1.7650 C.3   1 <1>   0.0160 
 24 C        6.0290     5.6780    -0.6060 C.2   1 <1>  -0.1500 
 25 H       -0.7560    -0.4190     1.1270 H     1 <1>   0.4000 
 26 H        0.3410     0.1110    -0.7230 H     1 <1>   0.0800 
 27 H        1.0370    -2.1490     0.6140 H     1 <1>   0.0800 
 28 H        1.6940     1.8320     0.9700 H     1 <1>   0.0800 
 29 H        2.3060     1.4460    -0.6300 H     1 <1>   0.0800 
 30 H        3.5130    -1.7400     1.3780 H     1 <1>   0.0800 
 31 H        2.2370    -0.9410     2.2960 H     1 <1>   0.0800 
 32 H        2.3360    -0.8810    -1.7550 H     1 <1>   0.0800 
 33 H        1.6080    -2.4320    -1.5990 H     1 <1>   0.0800 
 34 H        3.8880     0.1340     0.1520 H     1 <1>   0.4500 
 35 H        3.2490     1.3240     2.7730 H     1 <1>   0.0800 
 36 H        4.7410     0.5020     2.3580 H     1 <1>   0.0800 
 37 H        2.9780    -4.3560    -1.2520 H     1 <1>   0.1500 
 38 H        6.7340    -1.4940    -0.7920 H     1 <1>   0.1500 
 39 H        5.9330     1.3620     0.1180 H     1 <1>   0.1500 
 40 H        3.1030     3.6310     2.4140 H     1 <1>   0.1500 
 41 H        7.0080    -3.8900    -0.9420 H     1 <1>   0.1500 
 42 H        3.9170     5.7040     1.3630 H     1 <1>   0.1500 
 43 H        7.6410     5.4780    -2.0720 H     1 <1>   0.1500 
 44 H        8.4290     3.1670    -2.4620 H     1 <1>   0.0800 
 45 H        7.1490     1.9810    -2.2870 H     1 <1>   0.0800 
 46 H        8.3390     2.1880    -1.0090 H     1 <1>   0.0800 
 47 H        5.8130     6.7310    -0.5600 H     1 <1>   0.1500 
@<TRIPOS>BOND
  1   1   2  1   
  2   1  25  1   
  3   2   3  1   
  4   2   4  1   
  5   2  26  1   
  6   3   5  1   
  7   3   6  1   
  8   3  27  1   
  9   4   7  1   
 10   4  28  1   
 11   4  29  1   
 12   5   7  1   
 13   5  30  1   
 14   5  31  1   
 15   6   8  1   
 16   6  32  1   
 17   6  33  1   
 18   7   9  1   
 19   7  34  1   
 20   8  10  ar  
 21   8  11  ar  
 22   9  12  1   
 23   9  35  1   
 24   9  36  1   
 25  10  13  ar  
 26  11  14  ar  
 27  11  37  1   
 28  12  15  ar  
 29  12  16  ar  
 30  13  17  ar  
 31  13  38  1   
 32  14  17  ar  
 33  15  18  ar  
 34  15  39  1   
 35  16  19  ar  
 36  16  40  1   
 37  17  41  1   
 38  18  20  1   
 39  18  21  ar  
 40  19  21  ar  
 41  19  42  1   
 42  20  22  1   
 43  20  23  1   
 44  21  24  1   
 45  22  24  2   
 46  22  43  1   
 47  23  44  1   
 48  23  45  1   
 49  23  46  1   
 50  24  47  1   
@<TRIPOS>SUBSTRUCTURE
  1 ****   7 GROUP 4 **** **** 0

# MOE 2024.06 (io_trps.svl 2023.06)
