@<TRIPOS>MOLECULE
NONAME
40 41 1 0 0 
SMALL
USER_CHARGES


@<TRIPOS>ATOM
  1 O       -2.5670     2.5980    -0.0530 O.2   1 <1>  -0.5700 
  2 C       -2.2970     1.4660     0.2760 C.2   1 <1>   0.5690 
  3 N       -3.0220     0.4040    -0.2080 N.am  1 <1>  -0.6600 
  4 C       -1.1350     1.3090     1.2510 C.3   1 <1>  -0.0990 
  5 C       -2.7860    -1.0300     0.1990 C.3   1 <1>   0.3640 
  6 C       -4.1820     0.7010    -1.1040 C.3   1 <1>   0.1400 
  7 C        0.2300     1.4410     0.5550 C.3   1 <1>  -0.1600 
  8 C       -1.4400    -1.5060    -0.3550 C.ar  1 <1>  -0.1440 
  9 C       -3.8880    -2.0590    -0.2100 C.3   1 <1>   0.2000 
 10 C       -4.7980    -0.5450    -1.7400 C.3   1 <1>   0.1200 
 11 C        1.3840     1.2460     1.5430 C.3   1 <1>  -0.2400 
 12 C       -1.0790    -1.2720    -1.6760 C.ar  1 <1>  -0.1500 
 13 C       -0.5580    -2.1910     0.4700 C.ar  1 <1>  -0.1500 
 14 O       -5.0470    -1.4830    -0.7470 O.3   1 <1>  -0.5600 
 15 C       -4.3420    -2.9230     0.9760 C.3   1 <1>   0.1200 
 16 C        0.1390    -1.7150    -2.1620 C.ar  1 <1>  -0.1500 
 17 C        0.6610    -2.6340    -0.0140 C.ar  1 <1>  -0.1500 
 18 O       -3.2670    -3.6040     1.5400 O.3   1 <1>  -0.6800 
 19 C        1.0100    -2.3960    -1.3310 C.ar  1 <1>  -0.1500 
 20 H       -1.2230     2.0880     1.9870 H     1 <1>   0.0800 
 21 H       -1.1870     0.3770     1.7770 H     1 <1>   0.0800 
 22 H       -2.7290    -1.0470     1.2730 H     1 <1>   0.0800 
 23 H       -4.9380     1.2060    -0.5290 H     1 <1>   0.0800 
 24 H       -3.8650     1.3740    -1.8820 H     1 <1>   0.0800 
 25 H        0.3110     0.7090    -0.2300 H     1 <1>   0.0800 
 26 H        0.3030     2.4160     0.1020 H     1 <1>   0.0800 
 27 H       -3.4960    -2.7140    -0.9690 H     1 <1>   0.0800 
 28 H       -4.1470    -0.9720    -2.4820 H     1 <1>   0.0800 
 29 H       -5.7370    -0.2960    -2.2030 H     1 <1>   0.0800 
 30 H        1.3430     0.2630     1.9770 H     1 <1>   0.0800 
 31 H        1.3350     1.9790     2.3290 H     1 <1>   0.0800 
 32 H        2.3240     1.3540     1.0320 H     1 <1>   0.0800 
 33 H       -1.7410    -0.7350    -2.3310 H     1 <1>   0.1500 
 34 H       -0.8150    -2.3870     1.4980 H     1 <1>   0.1500 
 35 H       -5.0700    -3.6490     0.6560 H     1 <1>   0.0800 
 36 H       -4.7730    -2.3000     1.7410 H     1 <1>   0.0800 
 37 H        0.4100    -1.5250    -3.1860 H     1 <1>   0.1500 
 38 H        1.3380    -3.1620     0.6340 H     1 <1>   0.1500 
 39 H       -2.9350    -4.2950     0.9320 H     1 <1>   0.4000 
 40 H        1.9580    -2.7380    -1.7080 H     1 <1>   0.1500 
@<TRIPOS>BOND
  1   1   2  2   
  2   2   3  am  
  3   2   4  1   
  4   3   5  1   
  5   3   6  1   
  6   4   7  1   
  7   4  20  1   
  8   4  21  1   
  9   5   8  1   
 10   5   9  1   
 11   5  22  1   
 12   6  10  1   
 13   6  23  1   
 14   6  24  1   
 15   7  11  1   
 16   7  25  1   
 17   7  26  1   
 18   8  12  ar  
 19   8  13  ar  
 20   9  14  1   
 21   9  15  1   
 22   9  27  1   
 23  10  14  1   
 24  10  28  1   
 25  10  29  1   
 26  11  30  1   
 27  11  31  1   
 28  11  32  1   
 29  12  16  ar  
 30  12  33  1   
 31  13  17  ar  
 32  13  34  1   
 33  15  18  1   
 34  15  35  1   
 35  15  36  1   
 36  16  19  ar  
 37  16  37  1   
 38  17  19  ar  
 39  17  38  1   
 40  18  39  1   
 41  19  40  1   
@<TRIPOS>SUBSTRUCTURE
  1 ****   8 GROUP 4 **** **** 0

# MOE 2024.06 (io_trps.svl 2023.06)
