@<TRIPOS>MOLECULE
NONAME
49 51 1 0 0 
SMALL
USER_CHARGES


@<TRIPOS>ATOM
  1 O        0.4680     0.1590    -0.4580 O.3   1 <1>  -0.5600 
  2 C        1.7110    -0.4680    -0.6260 C.3   1 <1>   0.3440 
  3 C        0.4380     1.5250    -0.7690 C.3   1 <1>   0.2000 
  4 C        1.5950    -1.9430    -0.2720 C.ar  1 <1>  -0.1440 
  5 C        2.7590     0.2000     0.2930 C.3   1 <1>   0.3430 
  6 C       -1.0190     2.0210    -0.6470 C.3   1 <1>  -0.0800 
  7 C        1.4010     2.2830     0.1730 C.3   1 <1>   0.3430 
  8 C        2.3350    -2.8810    -0.9790 C.ar  1 <1>  -0.1500 
  9 C        0.7740    -2.3720     0.7630 C.ar  1 <1>  -0.1500 
 10 N        2.7890     1.6990     0.1540 N.4   1 <1>  -0.9590 
 11 C       -1.9600     1.2350    -1.5750 C.3   1 <1>  -0.2400 
 12 C       -1.1440     3.5200    -0.9710 C.3   1 <1>  -0.2400 
 13 C        2.2630    -4.2240    -0.6500 C.ar  1 <1>  -0.1500 
 14 C        0.7020    -3.7150     1.0920 C.ar  1 <1>  -0.1500 
 15 C        3.6960     2.3590     1.1250 C.3   1 <1>   0.4860 
 16 C        1.4480    -4.6410     0.3870 C.ar  1 <1>  -0.1500 
 17 C        3.8470     3.8110     0.7250 C.ar  1 <1>  -0.1440 
 18 C        4.2780     4.1420    -0.5610 C.ar  1 <1>   0.4100 
 19 C        3.5400     4.8250     1.6080 C.ar  1 <1>  -0.1500 
 20 N        4.3880     5.3670    -1.0170 N.ar  1 <1>  -0.6200 
 21 N        4.6110     3.2100    -1.4920 N.pl3 1 <1>  -0.9000 
 22 C        3.6730     6.1180     1.1420 C.ar  1 <1>  -0.1500 
 23 C        4.0920     6.3300    -0.1590 C.ar  1 <1>   0.1600 
 24 H        1.9970    -0.3680    -1.6590 H     1 <1>   0.0800 
 25 H        0.7580     1.6440    -1.7910 H     1 <1>   0.0800 
 26 H        3.7290    -0.2130     0.0720 H     1 <1>   0.0800 
 27 H        2.5150    -0.0660     1.3080 H     1 <1>   0.0800 
 28 H       -1.3480     1.8700     0.3690 H     1 <1>   0.0800 
 29 H        0.9990     2.2380     1.1710 H     1 <1>   0.0800 
 30 H        1.4400     3.3190    -0.1220 H     1 <1>   0.0800 
 31 H        2.9720    -2.5830    -1.7930 H     1 <1>   0.1500 
 32 H        0.1780    -1.6670     1.3170 H     1 <1>   0.1500 
 33 H        3.2090     1.9500    -0.7630 H     1 <1>   0.4500 
 34 H       -1.6650     1.3450    -2.6040 H     1 <1>   0.0800 
 35 H       -2.9720     1.5850    -1.4700 H     1 <1>   0.0800 
 36 H       -1.9480     0.1870    -1.3280 H     1 <1>   0.0800 
 37 H       -0.7890     3.7260    -1.9670 H     1 <1>   0.0800 
 38 H       -0.5960     4.1250    -0.2730 H     1 <1>   0.0800 
 39 H       -2.1760     3.8220    -0.9170 H     1 <1>   0.0800 
 40 H        2.8380    -4.9470    -1.2020 H     1 <1>   0.1500 
 41 H        0.0620    -4.0400     1.8940 H     1 <1>   0.1500 
 42 H        3.2960     2.2850     2.1230 H     1 <1>   0.0800 
 43 H        4.6650     1.8870     1.1040 H     1 <1>   0.0800 
 44 H        1.3910    -5.6860     0.6410 H     1 <1>   0.1500 
 45 H        3.2100     4.6420     2.6170 H     1 <1>   0.1500 
 46 H        4.4970     3.6490    -2.4150 H     1 <1>   0.4000 
 47 H        5.6130     2.9910    -1.4500 H     1 <1>   0.4000 
 48 H        3.4540     6.9570     1.7800 H     1 <1>   0.1500 
 49 H        4.1880     7.3440    -0.5130 H     1 <1>   0.1500 
@<TRIPOS>BOND
  1   1   2  1   
  2   1   3  1   
  3   2   4  1   
  4   2   5  1   
  5   2  24  1   
  6   3   6  1   
  7   3   7  1   
  8   3  25  1   
  9   4   8  ar  
 10   4   9  ar  
 11   5  10  1   
 12   5  26  1   
 13   5  27  1   
 14   6  11  1   
 15   6  12  1   
 16   6  28  1   
 17   7  10  1   
 18   7  29  1   
 19   7  30  1   
 20   8  13  ar  
 21   8  31  1   
 22   9  14  ar  
 23   9  32  1   
 24  10  15  1   
 25  10  33  1   
 26  11  34  1   
 27  11  35  1   
 28  11  36  1   
 29  12  37  1   
 30  12  38  1   
 31  12  39  1   
 32  13  16  ar  
 33  13  40  1   
 34  14  16  ar  
 35  14  41  1   
 36  15  17  1   
 37  15  42  1   
 38  15  43  1   
 39  16  44  1   
 40  17  18  ar  
 41  17  19  ar  
 42  18  20  ar  
 43  18  21  1   
 44  19  22  ar  
 45  19  45  1   
 46  20  23  ar  
 47  21  46  1   
 48  21  47  1   
 49  22  23  ar  
 50  22  48  1   
 51  23  49  1   
@<TRIPOS>SUBSTRUCTURE
  1 ****  10 GROUP 4 **** **** 0

# MOE 2024.06 (io_trps.svl 2023.06)
