@<TRIPOS>MOLECULE
NONAME
61 64 1 0 0 
SMALL
USER_CHARGES


@<TRIPOS>ATOM
  1 O       -0.0830     0.8580    -0.9320 O.2   1 <1>  -0.5700 
  2 C       -0.1680     2.0260    -0.6020 C.2   1 <1>   0.5440 
  3 N        1.0250     2.7210    -0.3080 N.am  1 <1>  -0.6600 
  4 C       -1.5120     2.6030    -0.5040 C.ar  1 <1>   0.0860 
  5 C        1.1290     4.2270    -0.1500 C.3   1 <1>   0.1400 
  6 C        2.3320     2.0240    -0.5100 C.3   1 <1>   0.1400 
  7 C       -2.6840     1.9130    -0.1600 C.ar  1 <1>  -0.1500 
  8 C       -1.6750     3.9590    -0.6790 C.ar  1 <1>  -0.1500 
  9 C        2.3540     4.8710     0.5060 C.3   1 <1>   0.2200 
 10 C        3.4410     2.6040     0.3770 C.3   1 <1>  -0.1600 
 11 C       -3.9040     2.5760     0.0670 C.ar  1 <1>   0.0830 
 12 C       -2.7090     4.6100    -0.0880 C.ar  1 <1>   0.0830 
 13 N        2.5220     6.2980     0.0710 N.am  1 <1>  -0.7300 
 14 C        3.6290     4.1090     0.1420 C.3   1 <1>  -0.1600 
 15 O       -5.0710     1.9090     0.2890 O.3   1 <1>  -0.3630 
 16 C       -3.9410     3.9770     0.0930 C.ar  1 <1>   0.0830 
 17 O       -2.3590     5.8130     0.4140 O.3   1 <1>  -0.3630 
 18 C        1.7190     7.3660    -0.2250 C.2   1 <1>   0.5690 
 19 C       -5.1570     0.5100     0.1320 C.3   1 <1>   0.0400 
 20 O       -5.1200     4.7020     0.2030 O.3   1 <1>  -0.3630 
 21 C       -2.2710     5.8560     1.8290 C.3   1 <1>   0.0400 
 22 O        2.2550     8.3520    -0.6580 O.2   1 <1>  -0.5700 
 23 C        0.1990     7.4020    -0.0430 C.3   1 <1>  -0.0990 
 24 C       -4.9800     6.0910    -0.0660 C.3   1 <1>   0.1200 
 25 C       -0.5020     8.6930    -0.5530 C.3   1 <1>   0.0210 
 26 C       -6.1560     7.0130    -0.3270 C.3   1 <1>  -0.1600 
 27 C       -2.0190     8.7570    -0.3080 C.2   1 <1>   0.0460 
 28 C       -5.5880     8.3860    -0.8260 C.3   1 <1>   0.0960 
 29 N       -2.5240     9.1380     0.8730 N.2   1 <1>  -0.2270 
 30 C       -3.0410     8.4870    -1.1440 C.2   1 <1>  -0.3020 
 31 N       -4.1610     8.6900    -0.4300 N.pl3 1 <1>   0.3140 
 32 N       -3.8140     9.0920     0.7990 N.2   1 <1>  -0.4180 
 33 H        0.3150     4.5610     0.4620 H     1 <1>   0.0800 
 34 H        1.0650     4.6470    -1.1380 H     1 <1>   0.0800 
 35 H        2.6120     2.1110    -1.5460 H     1 <1>   0.0800 
 36 H        2.2260     0.9750    -0.2860 H     1 <1>   0.0800 
 37 H       -2.6110     0.8450    -0.0780 H     1 <1>   0.1500 
 38 H       -0.9720     4.5560    -1.2060 H     1 <1>   0.1500 
 39 H        2.2260     4.8460     1.5750 H     1 <1>   0.0800 
 40 H        4.3610     2.0920     0.1550 H     1 <1>   0.0800 
 41 H        3.2040     2.4120     1.4090 H     1 <1>   0.0800 
 42 H        3.5060     6.5310    -0.0790 H     1 <1>   0.3700 
 43 H        4.4460     4.4650     0.7460 H     1 <1>   0.0800 
 44 H        3.8690     4.2730    -0.8950 H     1 <1>   0.0800 
 45 H       -6.1830     0.2220     0.2730 H     1 <1>   0.0800 
 46 H       -4.5410     0.0360     0.8750 H     1 <1>   0.0800 
 47 H       -4.8360     0.2480    -0.8610 H     1 <1>   0.0800 
 48 H       -2.1050     6.8740     2.1320 H     1 <1>   0.0800 
 49 H       -1.4520     5.2360     2.1470 H     1 <1>   0.0800 
 50 H       -3.1920     5.4990     2.2580 H     1 <1>   0.0800 
 51 H       -0.0120     7.2790     1.0010 H     1 <1>   0.0800 
 52 H       -0.2150     6.5840    -0.5880 H     1 <1>   0.0800 
 53 H       -4.3550     6.1650    -0.9380 H     1 <1>   0.0800 
 54 H       -4.5010     6.5040     0.7980 H     1 <1>   0.0800 
 55 H       -0.3250     8.7850    -1.6090 H     1 <1>   0.0800 
 56 H       -0.0530     9.5490    -0.0800 H     1 <1>   0.0800 
 57 H       -6.7050     7.1570     0.5860 H     1 <1>   0.0800 
 58 H       -6.8100     6.5930    -1.0690 H     1 <1>   0.0800 
 59 H       -6.2120     9.1840    -0.4640 H     1 <1>   0.0800 
 60 H       -5.6270     8.4050    -1.8990 H     1 <1>   0.0800 
 61 H       -3.0330     8.1590    -2.1650 H     1 <1>   0.1500 
@<TRIPOS>BOND
  1   1   2  2   
  2   2   3  am  
  3   2   4  1   
  4   3   5  1   
  5   3   6  1   
  6   4   7  ar  
  7   4   8  ar  
  8   5   9  1   
  9   5  33  1   
 10   5  34  1   
 11   6  10  1   
 12   6  35  1   
 13   6  36  1   
 14   7  11  ar  
 15   7  37  1   
 16   8  12  ar  
 17   8  38  1   
 18   9  13  1   
 19   9  14  1   
 20   9  39  1   
 21  10  14  1   
 22  10  40  1   
 23  10  41  1   
 24  11  15  1   
 25  11  16  ar  
 26  12  16  ar  
 27  12  17  1   
 28  13  18  am  
 29  13  42  1   
 30  14  43  1   
 31  14  44  1   
 32  15  19  1   
 33  16  20  1   
 34  17  21  1   
 35  18  22  2   
 36  18  23  1   
 37  19  45  1   
 38  19  46  1   
 39  19  47  1   
 40  20  24  1   
 41  21  48  1   
 42  21  49  1   
 43  21  50  1   
 44  23  25  1   
 45  23  51  1   
 46  23  52  1   
 47  24  26  1   
 48  24  53  1   
 49  24  54  1   
 50  25  27  1   
 51  25  55  1   
 52  25  56  1   
 53  26  28  1   
 54  26  57  1   
 55  26  58  1   
 56  27  29  1   
 57  27  30  2   
 58  28  31  1   
 59  28  59  1   
 60  28  60  1   
 61  29  32  2   
 62  30  31  1   
 63  30  61  1   
 64  31  32  1   
@<TRIPOS>SUBSTRUCTURE
  1 ****  17 GROUP 4 **** **** 0

# MOE 2024.06 (io_trps.svl 2023.06)
