@<TRIPOS>MOLECULE
NONAME
49 52 1 0 0 
SMALL
USER_CHARGES


@<TRIPOS>ATOM
  1 F       -1.1440    -1.1330    -1.1400 F     1 <1>  -0.1900 
  2 C       -2.1610    -0.3220    -1.2840 C.ar  1 <1>   0.1900 
  3 C       -3.2250    -0.3870    -0.3500 C.ar  1 <1>   0.3100 
  4 C       -2.1270     0.5430    -2.3420 C.ar  1 <1>  -0.1500 
  5 N       -3.1980    -1.2900     0.6690 N.ar  1 <1>  -0.6200 
  6 C       -4.3010     0.5170    -0.5360 C.ar  1 <1>   0.0000 
  7 C       -3.2100     1.4020    -2.4960 C.ar  1 <1>   0.1900 
  8 C       -4.2050    -1.3060     1.4900 C.ar  1 <1>   0.1660 
  9 C       -5.3710     0.4800     0.3900 C.ar  1 <1>   0.1000 
 10 C       -4.2720     1.4030    -1.6350 C.ar  1 <1>  -0.1500 
 11 F       -3.1960     2.2310    -3.5050 F     1 <1>  -0.1900 
 12 C       -5.3000    -0.4510     1.3910 C.ar  1 <1>  -0.1500 
 13 C       -4.1500    -2.3250     2.6090 C.3   1 <1>  -0.0960 
 14 N       -6.4430     1.3500     0.2940 N.pl3 1 <1>  -0.8380 
 15 C       -7.8330     0.8060     0.2590 C.3   1 <1>   0.2090 
 16 C       -6.3060     2.7200     0.8660 C.3   1 <1>   0.2090 
 17 C       -8.7410     1.7040    -0.6240 C.3   1 <1>   0.0000 
 18 C       -7.6560     3.4550     0.9150 C.3   1 <1>  -0.1600 
 19 C      -10.2250     1.3320    -0.4410 C.3   1 <1>   0.2000 
 20 C       -8.4740     3.2150    -0.3650 C.3   1 <1>  -0.1600 
 21 C       -8.5240     1.3510    -2.1060 C.3   1 <1>  -0.1600 
 22 O      -10.5440     1.1110     0.9010 O.3   1 <1>  -0.5600 
 23 C      -10.4420     0.0670    -1.2770 C.3   1 <1>  -0.1600 
 24 C       -9.3690     0.1000    -2.3740 C.3   1 <1>  -0.1600 
 25 C      -11.9070     1.1040     1.1870 C.3   1 <1>   0.0400 
 26 H       -1.3060     0.5680    -3.0340 H     1 <1>   0.1500 
 27 H       -5.0950     2.0750    -1.7910 H     1 <1>   0.1500 
 28 H       -6.0920    -0.5140     2.1110 H     1 <1>   0.1500 
 29 H       -5.0280    -2.2750     3.2260 H     1 <1>   0.0800 
 30 H       -3.2840    -2.1400     3.2180 H     1 <1>   0.0800 
 31 H       -4.0740    -3.3120     2.1900 H     1 <1>   0.0800 
 32 H       -7.8200    -0.2030    -0.1130 H     1 <1>   0.0800 
 33 H       -8.2040     0.7750     1.2680 H     1 <1>   0.0800 
 34 H       -5.8870     2.6570     1.8550 H     1 <1>   0.0800 
 35 H       -5.6230     3.2770     0.2490 H     1 <1>   0.0800 
 36 H       -8.2150     3.1140     1.7680 H     1 <1>   0.0800 
 37 H       -7.4790     4.5070     1.0460 H     1 <1>   0.0800 
 38 H      -10.8420     2.1280    -0.8250 H     1 <1>   0.0800 
 39 H       -7.9120     3.6260    -1.1870 H     1 <1>   0.0800 
 40 H       -9.3980     3.7610    -0.3040 H     1 <1>   0.0800 
 41 H       -8.8900     2.1510    -2.7280 H     1 <1>   0.0800 
 42 H       -7.4840     1.1890    -2.3340 H     1 <1>   0.0800 
 43 H      -10.3040    -0.8080    -0.6660 H     1 <1>   0.0800 
 44 H      -11.4280     0.0580    -1.7050 H     1 <1>   0.0800 
 45 H       -8.7540    -0.7810    -2.3070 H     1 <1>   0.0800 
 46 H       -9.8090     0.1410    -3.3550 H     1 <1>   0.0800 
 47 H      -12.0240     0.9410     2.2440 H     1 <1>   0.0800 
 48 H      -12.3840     0.3070     0.6440 H     1 <1>   0.0800 
 49 H      -12.3320     2.0550     0.9180 H     1 <1>   0.0800 
@<TRIPOS>BOND
  1   1   2  1   
  2   2   3  ar  
  3   2   4  ar  
  4   3   5  ar  
  5   3   6  ar  
  6   4   7  ar  
  7   4  26  1   
  8   5   8  ar  
  9   6   9  ar  
 10   6  10  ar  
 11   7  10  ar  
 12   7  11  1   
 13   8  12  ar  
 14   8  13  1   
 15   9  12  ar  
 16   9  14  1   
 17  10  27  1   
 18  12  28  1   
 19  13  29  1   
 20  13  30  1   
 21  13  31  1   
 22  14  15  1   
 23  14  16  1   
 24  15  17  1   
 25  15  32  1   
 26  15  33  1   
 27  16  18  1   
 28  16  34  1   
 29  16  35  1   
 30  17  19  1   
 31  17  20  1   
 32  17  21  1   
 33  18  20  1   
 34  18  36  1   
 35  18  37  1   
 36  19  22  1   
 37  19  23  1   
 38  19  38  1   
 39  20  39  1   
 40  20  40  1   
 41  21  24  1   
 42  21  41  1   
 43  21  42  1   
 44  22  25  1   
 45  23  24  1   
 46  23  43  1   
 47  23  44  1   
 48  24  45  1   
 49  24  46  1   
 50  25  47  1   
 51  25  48  1   
 52  25  49  1   
@<TRIPOS>SUBSTRUCTURE
  1 ****  14 GROUP 4 **** **** 0

# MOE 2024.06 (io_trps.svl 2023.06)
