@<TRIPOS>MOLECULE
NONAME
20 19 1 0 0 
SMALL
USER_CHARGES


@<TRIPOS>ATOM
  1 S       -0.6070     0.1490     0.4960 S.o2  1 <1>   1.0900 
  2 O       -1.9800     0.5620     0.3040 O.2   1 <1>  -0.6500 
  3 O        0.3360     0.3770    -0.5660 O.2   1 <1>  -0.6500 
  4 C       -0.7040    -1.6190     0.6450 C.3   1 <1>  -0.0550 
  5 C        0.0270     0.7530     2.0490 C.3   1 <1>  -0.1350 
  6 C       -1.1760    -2.1820    -0.6970 C.3   1 <1>   0.4230 
  7 N       -2.5590    -1.7640    -1.0110 N.4   1 <1>  -0.8530 
  8 C       -1.1450    -3.7060    -0.7030 C.3   1 <1>  -0.2400 
  9 H        0.2710    -2.0130     0.8630 H     1 <1>   0.0800 
 10 H       -1.3720    -1.9110     1.4330 H     1 <1>   0.0800 
 11 H       -0.6230     0.4860     2.8600 H     1 <1>   0.0800 
 12 H        0.1040     1.8240     2.0210 H     1 <1>   0.0800 
 13 H        1.0050     0.3550     2.2430 H     1 <1>   0.0800 
 14 H       -0.5120    -1.8140    -1.4680 H     1 <1>   0.0800 
 15 H       -3.2540    -2.2650    -0.4510 H     1 <1>   0.4500 
 16 H       -2.7740    -1.9040    -2.0040 H     1 <1>   0.4500 
 17 H       -2.6710    -0.7490    -0.8090 H     1 <1>   0.4500 
 18 H       -1.7790    -4.1170     0.0640 H     1 <1>   0.0800 
 19 H       -0.1400    -4.0490    -0.5220 H     1 <1>   0.0800 
 20 H       -1.4480    -4.0900    -1.6610 H     1 <1>   0.0800 
@<TRIPOS>BOND
  1   1   2  2   
  2   1   3  2   
  3   1   4  1   
  4   1   5  1   
  5   4   6  1   
  6   4   9  1   
  7   4  10  1   
  8   5  11  1   
  9   5  12  1   
 10   5  13  1   
 11   6   7  1   
 12   6   8  1   
 13   6  14  1   
 14   7  15  1   
 15   7  16  1   
 16   7  17  1   
 17   8  18  1   
 18   8  19  1   
 19   8  20  1   
@<TRIPOS>SUBSTRUCTURE
  1 ****   4 GROUP 4 **** **** 0

# MOE 2024.06 (io_trps.svl 2023.06)
