@<TRIPOS>MOLECULE
NONAME
41 42 1 0 0 
SMALL
USER_CHARGES


@<TRIPOS>ATOM
  1 CL       0.0720     0.1680    -0.5860 Cl    1 <1>  -0.1770 
  2 C       -1.4960     0.9310    -0.4470 C.ar  1 <1>   0.1770 
  3 C       -1.6540     2.0660     0.3320 C.ar  1 <1>  -0.1440 
  4 C       -2.5570     0.3720    -1.1310 C.ar  1 <1>  -0.1500 
  5 C       -2.9130     2.6350     0.4070 C.ar  1 <1>  -0.1500 
  6 C       -0.4810     2.6790     1.0820 C.3   1 <1>  -0.0960 
  7 C       -3.8290     0.9300    -1.0560 C.ar  1 <1>  -0.0090 
  8 C       -3.9900     2.0740    -0.2770 C.ar  1 <1>   0.0830 
  9 S       -5.2030     0.1640    -1.9610 S.o2  1 <1>   1.4470 
 10 O       -5.2160     2.6370    -0.2000 O.3   1 <1>  -0.3630 
 11 O       -5.5750     0.9840    -3.0920 O.2   1 <1>  -0.6500 
 12 O       -4.8640    -1.2220    -2.2130 O.2   1 <1>  -0.6500 
 13 N       -6.5330     0.0860    -0.9120 N.am  1 <1>  -0.8490 
 14 C       -5.6940     3.1030     1.0420 C.3   1 <1>   0.1200 
 15 C       -6.2280    -0.7570     0.2690 C.3   1 <1>   0.2570 
 16 C       -7.7320    -0.3630    -1.6230 C.3   1 <1>   0.1960 
 17 C       -7.1970     3.3210     0.9150 C.3   1 <1>  -0.2400 
 18 C       -7.0730    -0.4420     1.5080 C.2   1 <1>   0.5690 
 19 C       -9.0300    -0.1110    -0.8450 C.3   1 <1>  -0.1600 
 20 O       -6.5300    -0.0420     2.5090 O.2   1 <1>  -0.5700 
 21 N       -8.4150    -0.6180     1.5010 N.am  1 <1>  -0.7300 
 22 C       -9.2540    -1.0280     0.3610 C.3   1 <1>   0.1400 
 23 H       -2.3870    -0.5080    -1.7270 H     1 <1>   0.1500 
 24 H       -3.0550     3.5250     0.9920 H     1 <1>   0.1500 
 25 H       -0.0740     1.9640     1.7740 H     1 <1>   0.0800 
 26 H       -0.7860     3.5500     1.6330 H     1 <1>   0.0800 
 27 H        0.2890     2.9660     0.3880 H     1 <1>   0.0800 
 28 H       -5.1980     4.0270     1.2800 H     1 <1>   0.0800 
 29 H       -5.4810     2.3610     1.7940 H     1 <1>   0.0800 
 30 H       -5.2050    -0.6090     0.5640 H     1 <1>   0.0800 
 31 H       -6.3390    -1.7970     0.0210 H     1 <1>   0.0800 
 32 H       -7.6410    -1.4060    -1.8810 H     1 <1>   0.0800 
 33 H       -7.8120     0.1880    -2.5460 H     1 <1>   0.0800 
 34 H       -7.4040     4.0400     0.1440 H     1 <1>   0.0800 
 35 H       -7.5920     3.6850     1.8460 H     1 <1>   0.0800 
 36 H       -7.6800     2.3910     0.6800 H     1 <1>   0.0800 
 37 H       -9.8400    -0.2870    -1.5290 H     1 <1>   0.0800 
 38 H       -9.0900     0.9210    -0.5510 H     1 <1>   0.0800 
 39 H       -8.9000    -0.3630     2.3650 H     1 <1>   0.3700 
 40 H       -9.0420    -2.0520     0.1020 H     1 <1>   0.0800 
 41 H      -10.2870    -0.9670     0.6610 H     1 <1>   0.0800 
@<TRIPOS>BOND
  1   1   2  1   
  2   2   3  ar  
  3   2   4  ar  
  4   3   5  ar  
  5   3   6  1   
  6   4   7  ar  
  7   4  23  1   
  8   5   8  ar  
  9   5  24  1   
 10   6  25  1   
 11   6  26  1   
 12   6  27  1   
 13   7   8  ar  
 14   7   9  1   
 15   8  10  1   
 16   9  11  2   
 17   9  12  2   
 18   9  13  am  
 19  10  14  1   
 20  13  15  1   
 21  13  16  1   
 22  14  17  1   
 23  14  28  1   
 24  14  29  1   
 25  15  18  1   
 26  15  30  1   
 27  15  31  1   
 28  16  19  1   
 29  16  32  1   
 30  16  33  1   
 31  17  34  1   
 32  17  35  1   
 33  17  36  1   
 34  18  20  2   
 35  18  21  am  
 36  19  22  1   
 37  19  37  1   
 38  19  38  1   
 39  21  22  1   
 40  21  39  1   
 41  22  40  1   
 42  22  41  1   
@<TRIPOS>SUBSTRUCTURE
  1 ****   7 GROUP 4 **** **** 0

# MOE 2024.06 (io_trps.svl 2023.06)
