@<TRIPOS>MOLECULE
NONAME
52 55 1 0 0 
SMALL
USER_CHARGES


@<TRIPOS>ATOM
  1 O       -0.9960    -0.0090    -0.2980 O.3   1 <1>  -0.3630 
  2 C       -0.7500     1.2940    -0.0040 C.ar  1 <1>   0.0830 
  3 C       -1.5510    -0.8790     0.6650 C.3   1 <1>   0.1200 
  4 C       -0.1460     2.0520    -0.9940 C.ar  1 <1>  -0.1500 
  5 C       -1.0660     1.8870     1.2160 C.ar  1 <1>  -0.1500 
  6 C       -1.6740    -2.2900     0.0770 C.3   1 <1>  -0.0800 
  7 C        0.1450     3.3890    -0.7820 C.ar  1 <1>  -0.1500 
  8 C       -0.7750     3.2230     1.4280 C.ar  1 <1>  -0.1500 
  9 C       -2.2970    -3.2250     1.1250 C.3   1 <1>   0.2090 
 10 C       -0.3180    -2.8380    -0.4080 C.3   1 <1>  -0.1600 
 11 C       -0.1700     3.9810     0.4380 C.ar  1 <1>   0.0830 
 12 N       -2.3860    -4.6180     0.6090 N.pl3 1 <1>  -0.8380 
 13 C       -0.4770    -4.2760    -0.9220 C.3   1 <1>  -0.1600 
 14 O        0.0790     5.2830     0.7350 O.3   1 <1>  -0.3630 
 15 C       -3.5850    -5.1230     0.1560 C.ar  1 <1>   0.4100 
 16 C       -1.1020    -5.1950     0.1310 C.3   1 <1>   0.2090 
 17 C        0.6890     6.1380    -0.2060 C.3   1 <1>   0.0400 
 18 N       -4.3450    -4.3140    -0.5250 N.ar  1 <1>  -0.6200 
 19 C       -3.9630    -6.4680     0.4050 C.ar  1 <1>   0.0000 
 20 C       -5.4600    -4.8280    -1.0470 C.ar  1 <1>   0.4770 
 21 C       -5.1460    -6.8920    -0.2080 C.ar  1 <1>   0.3100 
 22 C       -3.2660    -7.3830     1.2220 C.ar  1 <1>  -0.1500 
 23 N       -5.8910    -6.0430    -0.9450 N.ar  1 <1>  -0.6200 
 24 C       -6.2900    -3.8560    -1.8480 C.3   1 <1>  -0.0970 
 25 C       -5.5720    -8.2170    -0.0400 C.ar  1 <1>  -0.1500 
 26 C       -3.7030    -8.6730     1.3810 C.ar  1 <1>  -0.1500 
 27 C       -4.8660    -9.0990     0.7380 C.ar  1 <1>  -0.1500 
 28 H       -2.5220    -0.5020     0.9350 H     1 <1>   0.0800 
 29 H       -0.9030    -0.8840     1.5240 H     1 <1>   0.0800 
 30 H        0.0930     1.5860    -1.9330 H     1 <1>   0.1500 
 31 H       -1.5360     1.3330     2.0050 H     1 <1>   0.1500 
 32 H       -2.3540    -2.2420    -0.7560 H     1 <1>   0.0800 
 33 H        0.6120     3.9450    -1.5710 H     1 <1>   0.1500 
 34 H       -1.0150     3.6890     2.3660 H     1 <1>   0.1500 
 35 H       -3.2810    -2.8750     1.3870 H     1 <1>   0.0800 
 36 H       -1.6970    -3.2280     2.0180 H     1 <1>   0.0800 
 37 H        0.3920    -2.8210     0.4010 H     1 <1>   0.0800 
 38 H        0.0650    -2.2190    -1.2020 H     1 <1>   0.0800 
 39 H        0.4820    -4.6670    -1.2100 H     1 <1>   0.0800 
 40 H       -1.1080    -4.2780    -1.7940 H     1 <1>   0.0800 
 41 H       -1.2710    -6.1660    -0.3020 H     1 <1>   0.0800 
 42 H       -0.4330    -5.3070     0.9670 H     1 <1>   0.0800 
 43 H        0.7860     7.1110     0.2420 H     1 <1>   0.0800 
 44 H        0.0650     6.1990    -1.0800 H     1 <1>   0.0800 
 45 H        1.6620     5.7500    -0.4510 H     1 <1>   0.0800 
 46 H       -2.3810    -7.0480     1.7300 H     1 <1>   0.1500 
 47 H       -5.7030    -3.4720    -2.6610 H     1 <1>   0.0800 
 48 H       -6.5950    -3.0420    -1.2180 H     1 <1>   0.0800 
 49 H       -7.1640    -4.3410    -2.2430 H     1 <1>   0.0800 
 50 H       -6.4750    -8.5180    -0.5370 H     1 <1>   0.1500 
 51 H       -3.1610    -9.3650     2.0020 H     1 <1>   0.1500 
 52 H       -5.2000   -10.1140     0.8630 H     1 <1>   0.1500 
@<TRIPOS>BOND
  1   1   2  1   
  2   1   3  1   
  3   2   4  ar  
  4   2   5  ar  
  5   3   6  1   
  6   3  28  1   
  7   3  29  1   
  8   4   7  ar  
  9   4  30  1   
 10   5   8  ar  
 11   5  31  1   
 12   6   9  1   
 13   6  10  1   
 14   6  32  1   
 15   7  11  ar  
 16   7  33  1   
 17   8  11  ar  
 18   8  34  1   
 19   9  12  1   
 20   9  35  1   
 21   9  36  1   
 22  10  13  1   
 23  10  37  1   
 24  10  38  1   
 25  11  14  1   
 26  12  15  1   
 27  12  16  1   
 28  13  16  1   
 29  13  39  1   
 30  13  40  1   
 31  14  17  1   
 32  15  18  ar  
 33  15  19  ar  
 34  16  41  1   
 35  16  42  1   
 36  17  43  1   
 37  17  44  1   
 38  17  45  1   
 39  18  20  ar  
 40  19  21  ar  
 41  19  22  ar  
 42  20  23  ar  
 43  20  24  1   
 44  21  23  ar  
 45  21  25  ar  
 46  22  26  ar  
 47  22  46  1   
 48  24  47  1   
 49  24  48  1   
 50  24  49  1   
 51  25  27  ar  
 52  25  50  1   
 53  26  27  ar  
 54  26  51  1   
 55  27  52  1   
@<TRIPOS>SUBSTRUCTURE
  1 ****   6 GROUP 4 **** **** 0

# MOE 2024.06 (io_trps.svl 2023.06)
