@<TRIPOS>MOLECULE
NONAME
47 49 1 0 0 
SMALL
USER_CHARGES


@<TRIPOS>ATOM
  1 O       -2.7440     0.5810    -2.0790 O.2   1 <1>  -0.5700 
  2 C       -2.4010     0.5100    -0.9250 C.2   1 <1>   0.5690 
  3 N       -2.1460    -0.6780    -0.3290 N.am  1 <1>  -0.7300 
  4 C       -2.2770     1.7800    -0.1070 C.3   1 <1>  -0.0990 
  5 C       -2.1640    -1.9940    -1.0100 C.3   1 <1>   0.2200 
  6 C       -0.9290     2.4990    -0.3070 C.3   1 <1>  -0.0800 
  7 C       -3.4120    -2.7910    -0.6510 C.3   1 <1>  -0.0800 
  8 C       -1.0880    -2.8730    -0.3890 C.3   1 <1>   0.1200 
  9 C        0.2540     1.6470     0.1740 C.3   1 <1>  -0.2400 
 10 C       -0.9320     3.8410     0.4360 C.3   1 <1>  -0.2400 
 11 C       -3.0340    -3.4050     0.7040 C.3   1 <1>   0.1200 
 12 C       -4.7260    -1.9820    -0.6500 C.3   1 <1>  -0.0170 
 13 O       -1.6410    -3.3320     0.8080 O.3   1 <1>  -0.5600 
 14 C       -6.0200    -2.7680    -0.4100 C.ar  1 <1>  -0.1440 
 15 C       -7.2380    -2.0660    -0.2260 C.ar  1 <1>   0.0000 
 16 C       -6.0820    -4.1330    -0.3680 C.ar  1 <1>  -0.1500 
 17 C       -8.4110    -2.8200     0.0210 C.ar  1 <1>   0.3100 
 18 C       -7.3620    -0.6560    -0.2810 C.ar  1 <1>  -0.1500 
 19 C       -7.2990    -4.7820    -0.1260 C.ar  1 <1>   0.1600 
 20 N       -8.4240    -4.1750     0.0690 N.ar  1 <1>  -0.6200 
 21 C       -9.6260    -2.1460     0.2230 C.ar  1 <1>  -0.1500 
 22 C       -8.5630    -0.0300    -0.0830 C.ar  1 <1>  -0.1500 
 23 C       -9.7110    -0.7820     0.1750 C.ar  1 <1>  -0.1500 
 24 H       -1.8720    -0.7220     0.6550 H     1 <1>   0.3700 
 25 H       -3.0740     2.4360    -0.4080 H     1 <1>   0.0800 
 26 H       -2.4200     1.5510     0.9320 H     1 <1>   0.0800 
 27 H       -2.0350    -1.8750    -2.0730 H     1 <1>   0.0800 
 28 H       -0.8030     2.6960    -1.3600 H     1 <1>   0.0800 
 29 H       -3.4970    -3.5850    -1.3710 H     1 <1>   0.0800 
 30 H       -0.1750    -2.3410    -0.1890 H     1 <1>   0.0800 
 31 H       -0.8860    -3.7290    -1.0100 H     1 <1>   0.0800 
 32 H        0.1470     1.3970     1.2150 H     1 <1>   0.0800 
 33 H        1.1760     2.1880     0.0460 H     1 <1>   0.0800 
 34 H        0.3250     0.7390    -0.3970 H     1 <1>   0.0800 
 35 H       -1.0540     3.6910     1.4940 H     1 <1>   0.0800 
 36 H       -1.7340     4.4640     0.0810 H     1 <1>   0.0800 
 37 H       -0.0060     4.3620     0.2690 H     1 <1>   0.0800 
 38 H       -3.3330    -4.4360     0.7820 H     1 <1>   0.0800 
 39 H       -3.4520    -2.8440     1.5220 H     1 <1>   0.0800 
 40 H       -4.8110    -1.4750    -1.5970 H     1 <1>   0.0800 
 41 H       -4.6540    -1.2290     0.1140 H     1 <1>   0.0800 
 42 H       -5.2260    -4.7600    -0.5160 H     1 <1>   0.1500 
 43 H       -6.4970    -0.0550    -0.4870 H     1 <1>   0.1500 
 44 H       -7.2960    -5.8590    -0.0990 H     1 <1>   0.1500 
 45 H      -10.4960    -2.7460     0.4160 H     1 <1>   0.1500 
 46 H       -8.6390     1.0430    -0.1260 H     1 <1>   0.1500 
 47 H      -10.6500    -0.2780     0.3310 H     1 <1>   0.1500 
@<TRIPOS>BOND
  1   1   2  2   
  2   2   3  am  
  3   2   4  1   
  4   3   5  1   
  5   3  24  1   
  6   4   6  1   
  7   4  25  1   
  8   4  26  1   
  9   5   7  1   
 10   5   8  1   
 11   5  27  1   
 12   6   9  1   
 13   6  10  1   
 14   6  28  1   
 15   7  11  1   
 16   7  12  1   
 17   7  29  1   
 18   8  13  1   
 19   8  30  1   
 20   8  31  1   
 21   9  32  1   
 22   9  33  1   
 23   9  34  1   
 24  10  35  1   
 25  10  36  1   
 26  10  37  1   
 27  11  13  1   
 28  11  38  1   
 29  11  39  1   
 30  12  14  1   
 31  12  40  1   
 32  12  41  1   
 33  14  15  ar  
 34  14  16  ar  
 35  15  17  ar  
 36  15  18  ar  
 37  16  19  ar  
 38  16  42  1   
 39  17  20  ar  
 40  17  21  ar  
 41  18  22  ar  
 42  18  43  1   
 43  19  20  ar  
 44  19  44  1   
 45  21  23  ar  
 46  21  45  1   
 47  22  23  ar  
 48  22  46  1   
 49  23  47  1   
@<TRIPOS>SUBSTRUCTURE
  1 ****  12 GROUP 4 **** **** 0

# MOE 2024.06 (io_trps.svl 2023.06)
