@<TRIPOS>MOLECULE
NONAME
51 54 1 0 0 
SMALL
USER_CHARGES


@<TRIPOS>ATOM
  1 O       -0.1250     1.0390    -0.8860 O.2   1 <1>  -0.5700 
  2 C       -0.2620     2.2400    -0.8760 C.2   1 <1>   0.5690 
  3 N       -1.0780     2.9020     0.0030 N.am  1 <1>  -0.5090 
  4 C        0.4950     3.0540    -1.9200 C.3   1 <1>   0.1810 
  5 C       -1.3780     4.3600    -0.1630 C.3   1 <1>   0.3640 
  6 C       -1.8380     2.2110     1.0720 C.3   1 <1>   0.0490 
  7 O        0.7260     4.3710    -1.4860 O.3   1 <1>  -0.5600 
  8 C       -2.8430     4.5340    -0.5790 C.ar  1 <1>  -0.1440 
  9 C       -0.4550     5.0970    -1.1740 C.3   1 <1>   0.2610 
 10 C       -1.6200     2.6350     2.4920 C.3   1 <1>  -0.2000 
 11 C       -1.1220     1.3060     2.0240 C.3   1 <1>  -0.2000 
 12 C       -3.4170     3.7400    -1.5640 C.ar  1 <1>  -0.1500 
 13 C       -3.6200     5.5100     0.0300 C.ar  1 <1>  -0.1500 
 14 C       -0.0870     6.4870    -0.6360 C.2   1 <1>   0.5690 
 15 C       -4.7390     3.9200    -1.9290 C.ar  1 <1>  -0.1500 
 16 C       -4.9430     5.6930    -0.3340 C.ar  1 <1>  -0.1500 
 17 O       -0.9410     7.2040    -0.1700 O.2   1 <1>  -0.5700 
 18 N        1.2100     6.8950    -0.6820 N.am  1 <1>  -0.7300 
 19 C       -5.5110     4.8950    -1.3210 C.ar  1 <1>   0.0820 
 20 C        1.7060     8.2450    -0.3170 C.3   1 <1>   0.1400 
 21 O       -6.7960     5.0070    -1.7390 O.3   1 <1>  -0.3630 
 22 C        1.6940     8.4240     1.2020 C.3   1 <1>   0.0960 
 23 C       -7.6570     5.9870    -1.2020 C.3   1 <1>   0.0400 
 24 N        2.1780     9.7700     1.5400 N.pl3 1 <1>   0.3140 
 25 N        3.4680    10.1120     1.4700 N.2   1 <1>  -0.4180 
 26 C        1.4590    10.8260     1.9260 C.2   1 <1>  -0.3020 
 27 N        3.5810    11.3510     1.8040 N.2   1 <1>  -0.2270 
 28 C        2.3580    11.8080     2.0890 C.2   1 <1>   0.0770 
 29 H       -0.0620     3.0820    -2.8390 H     1 <1>   0.0800 
 30 H        1.4500     2.5960    -2.1020 H     1 <1>   0.0800 
 31 H       -1.2460     4.8200     0.8000 H     1 <1>   0.0800 
 32 H       -2.8330     1.9380     0.7620 H     1 <1>   0.1000 
 33 H       -0.9890     5.2430    -2.0960 H     1 <1>   0.0800 
 34 H       -0.8880     3.3880     2.7240 H     1 <1>   0.1000 
 35 H       -2.4610     2.6510     3.1620 H     1 <1>   0.1000 
 36 H       -1.6270     0.4170     2.3590 H     1 <1>   0.1000 
 37 H       -0.0660     1.1530     1.8860 H     1 <1>   0.1000 
 38 H       -2.8470     2.9690    -2.0520 H     1 <1>   0.1500 
 39 H       -3.1980     6.1430     0.7930 H     1 <1>   0.1500 
 40 H       -5.1830     3.3030    -2.6900 H     1 <1>   0.1500 
 41 H       -5.5100     6.4590     0.1590 H     1 <1>   0.1500 
 42 H        1.8920     6.2300    -1.0680 H     1 <1>   0.3700 
 43 H        2.7070     8.3700    -0.6940 H     1 <1>   0.0800 
 44 H        1.0680     8.9850    -0.7710 H     1 <1>   0.0800 
 45 H        2.3430     7.7050     1.6650 H     1 <1>   0.0800 
 46 H        0.6970     8.3100     1.5840 H     1 <1>   0.0800 
 47 H       -8.6120     5.8930    -1.6860 H     1 <1>   0.0800 
 48 H       -7.2420     6.9600    -1.3960 H     1 <1>   0.0800 
 49 H       -7.7640     5.8150    -0.1450 H     1 <1>   0.0800 
 50 H        0.3940    10.8150     2.0570 H     1 <1>   0.1500 
 51 H        2.1940    12.8260     2.3950 H     1 <1>   0.1500 
@<TRIPOS>BOND
  1   1   2  2   
  2   2   3  am  
  3   2   4  1   
  4   3   5  1   
  5   3   6  1   
  6   4   7  1   
  7   4  29  1   
  8   4  30  1   
  9   5   8  1   
 10   5   9  1   
 11   5  31  1   
 12   6  10  1   
 13   6  11  1   
 14   6  32  1   
 15   7   9  1   
 16   8  12  ar  
 17   8  13  ar  
 18   9  14  1   
 19   9  33  1   
 20  10  11  1   
 21  10  34  1   
 22  10  35  1   
 23  11  36  1   
 24  11  37  1   
 25  12  15  ar  
 26  12  38  1   
 27  13  16  ar  
 28  13  39  1   
 29  14  17  2   
 30  14  18  am  
 31  15  19  ar  
 32  15  40  1   
 33  16  19  ar  
 34  16  41  1   
 35  18  20  1   
 36  18  42  1   
 37  19  21  1   
 38  20  22  1   
 39  20  43  1   
 40  20  44  1   
 41  21  23  1   
 42  22  24  1   
 43  22  45  1   
 44  22  46  1   
 45  23  47  1   
 46  23  48  1   
 47  23  49  1   
 48  24  25  1   
 49  24  26  1   
 50  25  27  2   
 51  26  28  2   
 52  26  50  1   
 53  27  28  1   
 54  28  51  1   
@<TRIPOS>SUBSTRUCTURE
  1 ****  14 GROUP 4 **** **** 0

# MOE 2024.06 (io_trps.svl 2023.06)
