@<TRIPOS>MOLECULE
NONAME
53 54 1 0 0 
SMALL
USER_CHARGES


@<TRIPOS>ATOM
  1 S        1.0330    -0.0480     0.0810 S.o2  1 <1>   1.3330 
  2 O        1.0390     0.0880     1.5200 O.2   1 <1>  -0.6500 
  3 O        1.3860    -1.3170    -0.5150 O.2   1 <1>  -0.6500 
  4 N       -0.5120     0.3710    -0.4840 N.am  1 <1>  -0.8490 
  5 C        2.0840     1.2320    -0.6010 C.3   1 <1>  -0.0550 
  6 C       -0.7610    -0.0440    -1.8680 C.3   1 <1>   0.1160 
  7 C       -1.5750    -0.1380     0.3870 C.3   1 <1>   0.1160 
  8 C        3.5460     1.1410    -0.1290 C.3   1 <1>  -0.0800 
  9 C        4.4230     2.1970    -0.7680 C.3   1 <1>   0.2200 
 10 C        4.2660    -0.1460    -0.5260 C.3   1 <1>   0.1200 
 11 N        4.3410     3.4760    -0.0370 N.am  1 <1>  -0.7300 
 12 C        5.8090     1.5660    -0.7110 C.3   1 <1>   0.1200 
 13 O        5.6150     0.1830    -0.6730 O.3   1 <1>  -0.5600 
 14 C        3.5710     4.5350    -0.3950 C.2   1 <1>   0.5690 
 15 O        2.7670     4.4590    -1.2940 O.2   1 <1>  -0.5700 
 16 C        3.7200     5.8400     0.3500 C.3   1 <1>   0.1570 
 17 N        5.1510     6.1290     0.5110 N.pl3 1 <1>   0.3140 
 18 N        5.8430     5.6200     1.5490 N.2   1 <1>  -0.7070 
 19 C        5.9580     6.8120    -0.3330 C.2   1 <1>  -0.3320 
 20 C        7.0640     6.0050     1.3560 C.2   1 <1>   0.1080 
 21 C        7.2020     6.7570     0.1920 C.2   1 <1>  -0.1810 
 22 C        5.4810     7.4710    -1.6190 C.3   1 <1>  -0.0600 
 23 C        8.1770     5.6520     2.3170 C.3   1 <1>  -0.0590 
 24 C        8.4880     7.3600    -0.3490 C.3   1 <1>   0.0210 
 25 C        9.1960     6.3670    -1.2720 C.3   1 <1>  -0.2400 
 26 H        2.0530     1.1840    -1.6720 H     1 <1>   0.0800 
 27 H        1.6920     2.1870    -0.3100 H     1 <1>   0.0800 
 28 H       -1.7200     0.3200    -2.1960 H     1 <1>   0.0800 
 29 H       -0.7480    -1.1190    -1.9490 H     1 <1>   0.0800 
 30 H       -0.0060     0.3610    -2.5190 H     1 <1>   0.0800 
 31 H       -2.5400     0.1600     0.0130 H     1 <1>   0.0800 
 32 H       -1.4620     0.2640     1.3800 H     1 <1>   0.0800 
 33 H       -1.5310    -1.2130     0.4430 H     1 <1>   0.0800 
 34 H        3.5900     1.2280     0.9430 H     1 <1>   0.0800 
 35 H        4.1500     2.3430    -1.8000 H     1 <1>   0.0800 
 36 H        3.9170    -0.5180    -1.4750 H     1 <1>   0.0800 
 37 H        4.1700    -0.9160     0.2210 H     1 <1>   0.0800 
 38 H        5.0530     3.6400     0.6930 H     1 <1>   0.3700 
 39 H        6.3300     1.8450     0.1880 H     1 <1>   0.0800 
 40 H        6.3970     1.8110    -1.5780 H     1 <1>   0.0800 
 41 H        3.2700     5.7560     1.3200 H     1 <1>   0.0800 
 42 H        3.2500     6.6350    -0.1950 H     1 <1>   0.0800 
 43 H        6.3100     7.8820    -2.1660 H     1 <1>   0.0800 
 44 H        4.7930     8.2670    -1.3960 H     1 <1>   0.0800 
 45 H        4.9910     6.7490    -2.2470 H     1 <1>   0.0800 
 46 H        8.9910     5.1970     1.7840 H     1 <1>   0.0800 
 47 H        7.8160     4.9620     3.0570 H     1 <1>   0.0800 
 48 H        8.5230     6.5400     2.8100 H     1 <1>   0.0800 
 49 H        8.2620     8.2600    -0.8920 H     1 <1>   0.0800 
 50 H        9.1350     7.6280     0.4680 H     1 <1>   0.0800 
 51 H        8.5540     6.1110    -2.0960 H     1 <1>   0.0800 
 52 H        9.4400     5.4680    -0.7340 H     1 <1>   0.0800 
 53 H       10.1020     6.7990    -1.6570 H     1 <1>   0.0800 
@<TRIPOS>BOND
  1   1   2  2   
  2   1   3  2   
  3   1   4  am  
  4   1   5  1   
  5   4   6  1   
  6   4   7  1   
  7   5   8  1   
  8   5  26  1   
  9   5  27  1   
 10   6  28  1   
 11   6  29  1   
 12   6  30  1   
 13   7  31  1   
 14   7  32  1   
 15   7  33  1   
 16   8   9  1   
 17   8  10  1   
 18   8  34  1   
 19   9  11  1   
 20   9  12  1   
 21   9  35  1   
 22  10  13  1   
 23  10  36  1   
 24  10  37  1   
 25  11  14  am  
 26  11  38  1   
 27  12  13  1   
 28  12  39  1   
 29  12  40  1   
 30  14  15  2   
 31  14  16  1   
 32  16  17  1   
 33  16  41  1   
 34  16  42  1   
 35  17  18  1   
 36  17  19  1   
 37  18  20  2   
 38  19  21  2   
 39  19  22  1   
 40  20  21  1   
 41  20  23  1   
 42  21  24  1   
 43  22  43  1   
 44  22  44  1   
 45  22  45  1   
 46  23  46  1   
 47  23  47  1   
 48  23  48  1   
 49  24  25  1   
 50  24  49  1   
 51  24  50  1   
 52  25  51  1   
 53  25  52  1   
 54  25  53  1   
@<TRIPOS>SUBSTRUCTURE
  1 ****  11 GROUP 4 **** **** 0

# MOE 2024.06 (io_trps.svl 2023.06)
