@<TRIPOS>MOLECULE
NONAME
61 64 1 0 0 
SMALL
USER_CHARGES


@<TRIPOS>ATOM
  1 O       -1.4680    -1.2120    -0.1430 O.2   1 <1>  -0.5700 
  2 C       -0.6880    -2.0480     0.2400 C.2   1 <1>   0.5690 
  3 N        0.3020    -1.7170     1.1340 N.am  1 <1>  -0.6600 
  4 C       -0.8670    -3.4390    -0.3430 C.3   1 <1>  -0.0990 
  5 C        1.4880    -2.5650     1.4710 C.3   1 <1>   0.1400 
  6 C        0.1870    -0.4370     1.9120 C.3   1 <1>   0.1400 
  7 C       -0.0630    -4.5650     0.3080 C.3   1 <1>   0.1200 
  8 C        2.0800    -3.3930     0.2890 C.3   1 <1>   0.2800 
  9 C        1.0420     0.6850     1.3110 C.3   1 <1>   0.1200 
 10 O        1.2960    -4.5060    -0.0280 O.3   1 <1>  -0.5600 
 11 C        2.2790    -2.6110    -1.0250 C.3   1 <1>  -0.1600 
 12 C        3.4410    -3.9760     0.6980 C.3   1 <1>  -0.1600 
 13 O        2.4080     0.4350     1.5940 O.3   1 <1>  -0.3630 
 14 C        3.3510    -1.5440    -0.8920 C.3   1 <1>   0.3430 
 15 C        4.5290    -2.9040     0.7920 C.3   1 <1>   0.3430 
 16 C        3.3980     1.2020     1.0820 C.ar  1 <1>   0.0820 
 17 N        4.6430    -2.1710    -0.5010 N.4   1 <1>  -0.9590 
 18 C        4.5840     1.2510     1.7980 C.ar  1 <1>  -0.1500 
 19 C        3.2900     1.8880    -0.1230 C.ar  1 <1>  -0.1500 
 20 C        5.7050    -1.1060    -0.4540 C.3   1 <1>   0.3430 
 21 C        5.6680     1.9540     1.3050 C.ar  1 <1>  -0.1500 
 22 C        4.3770     2.5910    -0.6140 C.ar  1 <1>  -0.1500 
 23 C        7.1320    -1.6630    -0.3120 C.3   1 <1>   0.2000 
 24 C        5.5660     2.6200     0.0950 C.ar  1 <1>  -0.1500 
 25 O        8.0210    -0.6070    -0.4100 O.3   1 <1>  -0.5600 
 26 C        7.5650    -2.6200    -1.4160 C.3   1 <1>  -0.1600 
 27 C        9.2820    -1.0540    -0.8060 C.3   1 <1>   0.1200 
 28 C        9.0700    -2.4220    -1.4530 C.3   1 <1>  -0.1600 
 29 H       -0.6640    -3.4140    -1.3970 H     1 <1>   0.0800 
 30 H       -1.9080    -3.6830    -0.2350 H     1 <1>   0.0800 
 31 H        1.2350    -3.2210     2.2850 H     1 <1>   0.0800 
 32 H        2.2580    -1.9210     1.8460 H     1 <1>   0.0800 
 33 H        0.4640    -0.5980     2.9390 H     1 <1>   0.0800 
 34 H       -0.8410    -0.1140     1.9120 H     1 <1>   0.0800 
 35 H       -0.4270    -5.5090    -0.0590 H     1 <1>   0.0800 
 36 H       -0.1770    -4.5690     1.3780 H     1 <1>   0.0800 
 37 H        0.7830     1.6320     1.7510 H     1 <1>   0.0800 
 38 H        0.8810     0.7220     0.2490 H     1 <1>   0.0800 
 39 H        1.3750    -2.1250    -1.3320 H     1 <1>   0.0800 
 40 H        2.5570    -3.2900    -1.8120 H     1 <1>   0.0800 
 41 H        3.7480    -4.7170    -0.0190 H     1 <1>   0.0800 
 42 H        3.3490    -4.4670     1.6510 H     1 <1>   0.0800 
 43 H        3.0480    -0.8320    -0.1480 H     1 <1>   0.0800 
 44 H        3.4610    -1.0240    -1.8310 H     1 <1>   0.0800 
 45 H        5.4690    -3.3740     1.0340 H     1 <1>   0.0800 
 46 H        4.2900    -2.2090     1.5810 H     1 <1>   0.0800 
 47 H        4.8950    -2.8440    -1.2370 H     1 <1>   0.4500 
 48 H        4.6550     0.7420     2.7430 H     1 <1>   0.1500 
 49 H        2.3800     1.8880    -0.6930 H     1 <1>   0.1500 
 50 H        5.5140    -0.4440     0.3710 H     1 <1>   0.0800 
 51 H        5.6680    -0.5250    -1.3600 H     1 <1>   0.0800 
 52 H        6.5910     1.9920     1.8600 H     1 <1>   0.1500 
 53 H        4.3000     3.1240    -1.5470 H     1 <1>   0.1500 
 54 H        7.2800    -2.1050     0.6580 H     1 <1>   0.0800 
 55 H        6.4100     3.1690    -0.2880 H     1 <1>   0.1500 
 56 H        7.1370    -2.3170    -2.3570 H     1 <1>   0.0800 
 57 H        7.2950    -3.6400    -1.2070 H     1 <1>   0.0800 
 58 H        9.9110    -1.1220     0.0650 H     1 <1>   0.0800 
 59 H        9.6920    -0.3390    -1.4990 H     1 <1>   0.0800 
 60 H        9.4570    -2.4440    -2.4570 H     1 <1>   0.0800 
 61 H        9.5740    -3.1730    -0.8700 H     1 <1>   0.0800 
@<TRIPOS>BOND
  1   1   2  2   
  2   2   3  am  
  3   2   4  1   
  4   3   5  1   
  5   3   6  1   
  6   4   7  1   
  7   4  29  1   
  8   4  30  1   
  9   5   8  1   
 10   5  31  1   
 11   5  32  1   
 12   6   9  1   
 13   6  33  1   
 14   6  34  1   
 15   7  10  1   
 16   7  35  1   
 17   7  36  1   
 18   8  10  1   
 19   8  11  1   
 20   8  12  1   
 21   9  13  1   
 22   9  37  1   
 23   9  38  1   
 24  11  14  1   
 25  11  39  1   
 26  11  40  1   
 27  12  15  1   
 28  12  41  1   
 29  12  42  1   
 30  13  16  1   
 31  14  17  1   
 32  14  43  1   
 33  14  44  1   
 34  15  17  1   
 35  15  45  1   
 36  15  46  1   
 37  16  18  ar  
 38  16  19  ar  
 39  17  20  1   
 40  17  47  1   
 41  18  21  ar  
 42  18  48  1   
 43  19  22  ar  
 44  19  49  1   
 45  20  23  1   
 46  20  50  1   
 47  20  51  1   
 48  21  24  ar  
 49  21  52  1   
 50  22  24  ar  
 51  22  53  1   
 52  23  25  1   
 53  23  26  1   
 54  23  54  1   
 55  24  55  1   
 56  25  27  1   
 57  26  28  1   
 58  26  56  1   
 59  26  57  1   
 60  27  28  1   
 61  27  58  1   
 62  27  59  1   
 63  28  60  1   
 64  28  61  1   
@<TRIPOS>SUBSTRUCTURE
  1 ****  14 GROUP 4 **** **** 0

# MOE 2024.06 (io_trps.svl 2023.06)
