@<TRIPOS>MOLECULE
NONAME
41 42 1 0 0 
SMALL
USER_CHARGES


@<TRIPOS>ATOM
  1 O       -0.3260     0.0710    -0.0330 O.2   1 <1>  -0.5700 
  2 C       -1.3810     0.6550    -0.1130 C.2   1 <1>   0.5690 
  3 N       -2.5600    -0.0210    -0.2600 N.am  1 <1>  -0.6600 
  4 C       -1.4000     2.1720    -0.0480 C.3   1 <1>  -0.0990 
  5 C       -3.9160     0.5760    -0.3250 C.3   1 <1>   0.1400 
  6 C       -2.6330    -1.5000    -0.3240 C.3   1 <1>   0.1400 
  7 C        0.0010     2.7730     0.0500 C.3   1 <1>   0.1200 
  8 C       -4.8690    -0.6140    -0.4580 C.3   1 <1>   0.2000 
  9 C       -4.0850    -1.8360     0.0200 C.3   1 <1>  -0.0800 
 10 O       -0.1330     4.1570     0.0980 O.3   1 <1>  -0.5600 
 11 O       -6.0040    -0.4480     0.3200 O.3   1 <1>  -0.6800 
 12 C       -4.5980    -3.1450    -0.6050 C.3   1 <1>  -0.0170 
 13 C        1.0760     4.8310     0.1870 C.3   1 <1>   0.1200 
 14 C       -3.8390    -4.3570    -0.0890 C.ar  1 <1>   0.1670 
 15 C        0.7670     6.3220     0.2280 C.3   1 <1>  -0.2400 
 16 N       -2.6810    -4.6210    -0.6730 N.ar  1 <1>  -0.6200 
 17 C       -4.3690    -5.1220     0.9490 C.ar  1 <1>   0.1600 
 18 C       -2.0940    -5.6870    -0.1530 C.ar  1 <1>   0.1600 
 19 N       -3.7840    -6.1880     1.4700 N.ar  1 <1>  -0.6200 
 20 C       -2.6270    -6.4440     0.8830 C.ar  1 <1>   0.1600 
 21 H       -1.8740     2.5490    -0.9340 H     1 <1>   0.0800 
 22 H       -1.9650     2.4710     0.8140 H     1 <1>   0.0800 
 23 H       -4.1090     1.1270     0.5790 H     1 <1>   0.0800 
 24 H       -3.9980     1.2230    -1.1810 H     1 <1>   0.0800 
 25 H       -2.3880    -1.8200    -1.3230 H     1 <1>   0.0800 
 26 H       -1.9450    -1.9550     0.3700 H     1 <1>   0.0800 
 27 H        0.5880     2.5060    -0.8120 H     1 <1>   0.0800 
 28 H        0.4940     2.4370     0.9470 H     1 <1>   0.0800 
 29 H       -5.1740    -0.7210    -1.4850 H     1 <1>   0.0800 
 30 H       -4.1460    -1.9040     1.0920 H     1 <1>   0.0800 
 31 H       -5.7600    -0.3520     1.2620 H     1 <1>   0.4000 
 32 H       -4.5020    -3.1040    -1.6760 H     1 <1>   0.0800 
 33 H       -5.6440    -3.2560    -0.3800 H     1 <1>   0.0800 
 34 H        1.5830     4.5220     1.0860 H     1 <1>   0.0800 
 35 H        1.6750     4.5910    -0.6760 H     1 <1>   0.0800 
 36 H        0.1590     6.5480     1.0850 H     1 <1>   0.0800 
 37 H        0.2500     6.6160    -0.6670 H     1 <1>   0.0800 
 38 H        1.6820     6.8820     0.2980 H     1 <1>   0.0800 
 39 H       -5.3180    -4.8390     1.3690 H     1 <1>   0.1500 
 40 H       -1.1450    -5.9760    -0.5680 H     1 <1>   0.1500 
 41 H       -2.0740    -7.2940     1.2380 H     1 <1>   0.1500 
@<TRIPOS>BOND
  1   1   2  2   
  2   2   3  am  
  3   2   4  1   
  4   3   5  1   
  5   3   6  1   
  6   4   7  1   
  7   4  21  1   
  8   4  22  1   
  9   5   8  1   
 10   5  23  1   
 11   5  24  1   
 12   6   9  1   
 13   6  25  1   
 14   6  26  1   
 15   7  10  1   
 16   7  27  1   
 17   7  28  1   
 18   8   9  1   
 19   8  11  1   
 20   8  29  1   
 21   9  12  1   
 22   9  30  1   
 23  10  13  1   
 24  11  31  1   
 25  12  14  1   
 26  12  32  1   
 27  12  33  1   
 28  13  15  1   
 29  13  34  1   
 30  13  35  1   
 31  14  16  ar  
 32  14  17  ar  
 33  15  36  1   
 34  15  37  1   
 35  15  38  1   
 36  16  18  ar  
 37  17  19  ar  
 38  17  39  1   
 39  18  20  ar  
 40  18  40  1   
 41  19  20  ar  
 42  20  41  1   
@<TRIPOS>SUBSTRUCTURE
  1 ****   6 GROUP 4 **** **** 0

# MOE 2024.06 (io_trps.svl 2023.06)
