@<TRIPOS>MOLECULE
Untitled Document
48 49 1 0 0 
SMALL
USER_CHARGES


@<TRIPOS>ATOM
  1 O       -0.1660    -1.1190    -0.7230 O.co2 1 <1>  -0.9000 
  2 C       -0.4790    -2.2550    -0.3210 C.2   1 <1>   0.9790 
  3 O        0.4300    -3.0460    -0.0070 O.co2 1 <1>  -0.9000 
  4 C       -1.8790    -2.6480    -0.2190 C.ar  1 <1>  -0.1790 
  5 C       -2.2530    -3.9160     0.2320 C.ar  1 <1>  -0.1500 
  6 C       -2.9100    -1.7720    -0.5690 C.ar  1 <1>  -0.1500 
  7 C       -3.5810    -4.2880     0.3300 C.ar  1 <1>  -0.1500 
  8 C       -4.2410    -2.1350    -0.4750 C.ar  1 <1>  -0.1500 
  9 C       -4.5870    -3.4040    -0.0200 C.ar  1 <1>   0.0830 
 10 O       -5.8630    -3.8390     0.1090 O.3   1 <1>  -0.3630 
 11 C       -6.9580    -3.0000    -0.1960 C.3   1 <1>   0.1200 
 12 C       -8.2770    -3.7440     0.0570 C.3   1 <1>   0.2000 
 13 O       -8.4460    -4.7440    -0.8920 O.3   1 <1>  -0.6800 
 14 C       -9.4850    -2.8030    -0.0130 C.3   1 <1>   0.1200 
 15 O      -10.6750    -3.5590     0.1250 O.3   1 <1>  -0.3630 
 16 C      -11.8920    -2.9630     0.0950 C.ar  1 <1>   0.0830 
 17 C      -12.9940    -3.7790     0.2740 C.ar  1 <1>  -0.1500 
 18 C      -12.0880    -1.6010    -0.1010 C.ar  1 <1>  -0.1500 
 19 C      -14.2730    -3.2530     0.2590 C.ar  1 <1>  -0.1500 
 20 C      -13.3700    -1.0810    -0.1160 C.ar  1 <1>  -0.1500 
 21 C      -14.4890    -1.8910     0.0630 C.ar  1 <1>  -0.1430 
 22 C      -15.8970    -1.2570     0.0370 C.3   1 <1>   0.1430 
 23 C      -16.1330    -0.5820    -1.3230 C.3   1 <1>  -0.2400 
 24 C      -16.0090    -0.2080     1.1530 C.3   1 <1>  -0.2400 
 25 C      -17.0260    -2.2800     0.2480 C.3   1 <1>  -0.2400 
 26 H       -1.4760    -4.6100     0.5060 H     1 <1>   0.1500 
 27 H       -2.6410    -0.7900    -0.9220 H     1 <1>   0.1500 
 28 H       -3.8420    -5.2700     0.6780 H     1 <1>   0.1500 
 29 H       -4.9830    -1.4180    -0.7630 H     1 <1>   0.1500 
 30 H       -6.8880    -2.7020    -1.2270 H     1 <1>   0.0800 
 31 H       -6.8920    -2.1380     0.4430 H     1 <1>   0.0800 
 32 H       -8.2430    -4.2040     1.0300 H     1 <1>   0.0800 
 33 H       -9.3550    -5.1000    -0.8070 H     1 <1>   0.4000 
 34 H       -9.5090    -2.2980    -0.9620 H     1 <1>   0.0800 
 35 H       -9.4470    -2.0850     0.7870 H     1 <1>   0.0800 
 36 H      -12.8460    -4.8330     0.4270 H     1 <1>   0.1500 
 37 H      -11.2640    -0.9310    -0.2460 H     1 <1>   0.1500 
 38 H      -15.0890    -3.9350     0.4030 H     1 <1>   0.1500 
 39 H      -13.4900    -0.0250    -0.2700 H     1 <1>   0.1500 
 40 H      -15.4290     0.2120    -1.4900 H     1 <1>   0.0800 
 41 H      -17.1230    -0.1670    -1.3750 H     1 <1>   0.0800 
 42 H      -16.0210    -1.3030    -2.1130 H     1 <1>   0.0800 
 43 H      -15.3050     0.5900     1.0090 H     1 <1>   0.0800 
 44 H      -15.8110    -0.6640     2.1070 H     1 <1>   0.0800 
 45 H      -16.9960     0.2190     1.1760 H     1 <1>   0.0800 
 46 H      -17.0090    -3.0260    -0.5270 H     1 <1>   0.0800 
 47 H      -17.9860    -1.7960     0.2220 H     1 <1>   0.0800 
 48 H      -16.9240    -2.7630     1.2030 H     1 <1>   0.0800 
@<TRIPOS>BOND
  1   1   2  ar  
  2   2   3  ar  
  3   2   4  1   
  4   4   5  ar  
  5   4   6  ar  
  6   5   7  ar  
  7   5  26  1   
  8   6   8  ar  
  9   6  27  1   
 10   7   9  ar  
 11   7  28  1   
 12   8   9  ar  
 13   8  29  1   
 14   9  10  1   
 15  10  11  1   
 16  11  12  1   
 17  11  30  1   
 18  11  31  1   
 19  12  13  1   
 20  12  14  1   
 21  12  32  1   
 22  13  33  1   
 23  14  15  1   
 24  14  34  1   
 25  14  35  1   
 26  15  16  1   
 27  16  17  ar  
 28  16  18  ar  
 29  17  19  ar  
 30  17  36  1   
 31  18  20  ar  
 32  18  37  1   
 33  19  21  ar  
 34  19  38  1   
 35  20  21  ar  
 36  20  39  1   
 37  21  22  1   
 38  22  23  1   
 39  22  24  1   
 40  22  25  1   
 41  23  40  1   
 42  23  41  1   
 43  23  42  1   
 44  24  43  1   
 45  24  44  1   
 46  24  45  1   
 47  25  46  1   
 48  25  47  1   
 49  25  48  1   
@<TRIPOS>SUBSTRUCTURE
  1 ****  14 GROUP 4 **** **** 0

# MOE 2024.06 (io_trps.svl 2023.06)
