@<TRIPOS>MOLECULE
NONAME
55 58 1 0 0 
SMALL
USER_CHARGES


@<TRIPOS>ATOM
  1 O       -2.7330    -0.3180    -1.4260 O.2   1 <1>  -0.5700 
  2 C       -2.6650     0.3240    -0.3940 C.2   1 <1>   0.5440 
  3 N       -3.1240    -0.2710     0.7640 N.am  1 <1>  -0.6600 
  4 C       -2.1630     1.6880    -0.4110 C.ar  1 <1>   0.0860 
  5 C       -3.9800     0.4600     1.7260 C.3   1 <1>   0.1400 
  6 C       -3.2180    -1.7450     0.8650 C.3   1 <1>   0.1400 
  7 C       -1.3970     2.2010     0.6380 C.ar  1 <1>  -0.1500 
  8 C       -2.4290     2.5370    -1.4850 C.ar  1 <1>  -0.1500 
  9 C       -5.4360     0.1130     1.4070 C.3   1 <1>  -0.1600 
 10 C       -4.6470    -2.1560     0.5160 C.3   1 <1>  -0.1600 
 11 C       -0.9390     3.5060     0.6260 C.ar  1 <1>  -0.1500 
 12 C       -1.9740     3.8430    -1.5040 C.ar  1 <1>  -0.1500 
 13 C       -5.6630    -1.4070     1.3950 C.3   1 <1>   0.4230 
 14 C       -1.2300     4.3310    -0.4450 C.ar  1 <1>  -0.1500 
 15 N       -7.0670    -1.6970     0.9780 N.4   1 <1>  -0.9590 
 16 C       -7.4740    -1.2410    -0.3900 C.3   1 <1>   0.3430 
 17 C       -7.4740    -3.1350     1.0900 C.3   1 <1>   0.3430 
 18 C       -8.6480    -2.1460    -0.7660 C.3   1 <1>   0.2000 
 19 C       -8.2200    -3.4980    -0.2050 C.3   1 <1>  -0.0800 
 20 O       -9.7640    -1.7170    -0.0570 O.3   1 <1>  -0.6800 
 21 C       -7.3340    -4.2690    -1.2090 C.3   1 <1>   0.0200 
 22 C       -6.5500    -5.3790    -0.5370 C.2   1 <1>  -0.0400 
 23 O       -7.1230    -6.1350     0.3610 O.3   1 <1>  -0.0190 
 24 C       -5.2740    -5.7780    -0.6590 C.2   1 <1>  -0.1500 
 25 N       -6.2950    -7.0000     0.8630 N.2   1 <1>  -0.4100 
 26 C       -5.1750    -6.8200     0.2590 C.2   1 <1>   0.1080 
 27 C       -3.9280    -7.6360     0.5180 C.3   1 <1>  -0.0590 
 28 H       -3.7240     0.1650     2.7300 H     1 <1>   0.0800 
 29 H       -3.8320     1.5240     1.6390 H     1 <1>   0.0800 
 30 H       -2.5210    -2.2060     0.1830 H     1 <1>   0.0800 
 31 H       -2.9610    -2.0530     1.8640 H     1 <1>   0.0800 
 32 H       -1.1540     1.5640     1.4700 H     1 <1>   0.1500 
 33 H       -3.0000     2.1610    -2.3170 H     1 <1>   0.1500 
 34 H       -5.6630     0.5420     0.4480 H     1 <1>   0.0800 
 35 H       -6.0690     0.5720     2.1450 H     1 <1>   0.0800 
 36 H       -4.7270    -3.2160     0.6630 H     1 <1>   0.0800 
 37 H       -4.7970    -1.9400    -0.5250 H     1 <1>   0.0800 
 38 H       -0.3520     3.8800     1.4470 H     1 <1>   0.1500 
 39 H       -2.1960     4.4790    -2.3440 H     1 <1>   0.1500 
 40 H       -5.5290    -1.7580     2.4070 H     1 <1>   0.0800 
 41 H       -0.8740     5.3470    -0.4580 H     1 <1>   0.1500 
 42 H       -7.7000    -1.1900     1.6120 H     1 <1>   0.4500 
 43 H       -7.7650    -0.2030    -0.4010 H     1 <1>   0.0800 
 44 H       -6.6700    -1.3910    -1.0900 H     1 <1>   0.0800 
 45 H       -6.6250    -3.7790     1.2460 H     1 <1>   0.0800 
 46 H       -8.1420    -3.2510     1.9280 H     1 <1>   0.0800 
 47 H       -8.8720    -2.1410    -1.8200 H     1 <1>   0.0800 
 48 H       -9.0700    -4.1160     0.0290 H     1 <1>   0.0800 
 49 H      -10.5780    -2.1740    -0.3610 H     1 <1>   0.4000 
 50 H       -6.6340    -3.6140    -1.6970 H     1 <1>   0.0800 
 51 H       -7.9590    -4.7050    -1.9700 H     1 <1>   0.0800 
 52 H       -4.4870    -5.4140    -1.2940 H     1 <1>   0.1500 
 53 H       -3.0870    -6.9880     0.6810 H     1 <1>   0.0800 
 54 H       -3.7280    -8.2710    -0.3250 H     1 <1>   0.0800 
 55 H       -4.0670    -8.2520     1.3890 H     1 <1>   0.0800 
@<TRIPOS>BOND
  1   1   2  2   
  2   2   3  am  
  3   2   4  1   
  4   3   5  1   
  5   3   6  1   
  6   4   7  ar  
  7   4   8  ar  
  8   5   9  1   
  9   5  28  1   
 10   5  29  1   
 11   6  10  1   
 12   6  30  1   
 13   6  31  1   
 14   7  11  ar  
 15   7  32  1   
 16   8  12  ar  
 17   8  33  1   
 18   9  13  1   
 19   9  34  1   
 20   9  35  1   
 21  10  13  1   
 22  10  36  1   
 23  10  37  1   
 24  11  14  ar  
 25  11  38  1   
 26  12  14  ar  
 27  12  39  1   
 28  13  15  1   
 29  13  40  1   
 30  14  41  1   
 31  15  16  1   
 32  15  17  1   
 33  15  42  1   
 34  16  18  1   
 35  16  43  1   
 36  16  44  1   
 37  17  19  1   
 38  17  45  1   
 39  17  46  1   
 40  18  19  1   
 41  18  20  1   
 42  18  47  1   
 43  19  21  1   
 44  19  48  1   
 45  20  49  1   
 46  21  22  1   
 47  21  50  1   
 48  21  51  1   
 49  22  23  1   
 50  22  24  2   
 51  23  25  1   
 52  24  26  1   
 53  24  52  1   
 54  25  26  2   
 55  26  27  1   
 56  27  53  1   
 57  27  54  1   
 58  27  55  1   
@<TRIPOS>SUBSTRUCTURE
  1 ****  10 GROUP 4 **** **** 0

# MOE 2024.06 (io_trps.svl 2023.06)
