@<TRIPOS>MOLECULE
NONAME
57 60 1 0 0 
SMALL
USER_CHARGES


@<TRIPOS>ATOM
  1 O       -2.5760    -1.1450     0.2030 O.2   1 <1>  -0.5700 
  2 C       -2.8030     0.0520     0.0510 C.2   1 <1>   0.6160 
  3 N       -2.2860     0.9600     0.9780 N.am  1 <1>  -0.4690 
  4 C       -3.6040     0.5370    -1.0310 C.2   1 <1>   0.0290 
  5 C       -2.5750     2.3070     0.8670 C.2   1 <1>  -0.0290 
  6 C       -1.4260     0.4570     2.0940 C.3   1 <1>   0.0600 
  7 C       -3.8670     1.8850    -1.1290 C.2   1 <1>  -0.1380 
  8 C       -4.0990    -0.4350    -1.9630 C.2   1 <1>   0.6160 
  9 C       -3.3440     2.7610    -0.1600 C.2   1 <1>  -0.1500 
 10 C       -2.0300     3.2830     1.9010 C.3   1 <1>  -0.1020 
 11 C       -4.7040     2.5030    -2.2430 C.3   1 <1>  -0.1020 
 12 O       -3.5270    -0.5750    -3.0310 O.2   1 <1>  -0.5700 
 13 N       -5.2530    -1.1560    -1.7170 N.am  1 <1>  -0.6600 
 14 C       -6.0700    -1.0200    -0.4820 C.3   1 <1>   0.1400 
 15 C       -5.6870    -2.2800    -2.5920 C.3   1 <1>   0.1400 
 16 C       -5.9560    -2.3070     0.3360 C.3   1 <1>  -0.1600 
 17 C       -5.5800    -3.5930    -1.8130 C.3   1 <1>  -0.1600 
 18 C       -6.3590    -3.5510    -0.4840 C.3   1 <1>   0.4240 
 19 O       -7.6990    -3.3560    -0.8860 O.3   1 <1>  -0.5600 
 20 C       -6.1910    -4.8690     0.3270 C.ar  1 <1>  -0.1430 
 21 C       -8.7050    -3.7020     0.0090 C.3   1 <1>   0.1200 
 22 C       -4.9410    -5.3040     0.7840 C.ar  1 <1>   0.0830 
 23 C       -7.3060    -5.6490     0.6330 C.ar  1 <1>  -0.1430 
 24 C       -8.6850    -5.2130     0.1850 C.3   1 <1>  -0.0170 
 25 O       -3.8450    -4.5530     0.5120 O.3   1 <1>  -0.3630 
 26 C       -4.8250    -6.4880     1.5060 C.ar  1 <1>  -0.1500 
 27 C       -7.1810    -6.8260     1.3520 C.ar  1 <1>  -0.1500 
 28 C       -2.6550    -4.6360     1.2620 C.3   1 <1>   0.0400 
 29 C       -5.9420    -7.2480     1.7890 C.ar  1 <1>  -0.1500 
 30 H       -1.1310    -0.5660     1.9370 H     1 <1>   0.0800 
 31 H       -1.9680     0.5190     3.0210 H     1 <1>   0.0800 
 32 H       -0.5300     1.0470     2.1620 H     1 <1>   0.0800 
 33 H       -3.5690     3.8090    -0.2550 H     1 <1>   0.1500 
 34 H       -2.3540     3.0030     2.8870 H     1 <1>   0.0800 
 35 H       -2.3800     4.2800     1.7050 H     1 <1>   0.0800 
 36 H       -0.9550     3.2970     1.8690 H     1 <1>   0.0800 
 37 H       -5.5400     3.0320    -1.8230 H     1 <1>   0.0800 
 38 H       -5.0840     1.7630    -2.9250 H     1 <1>   0.0800 
 39 H       -4.1040     3.1950    -2.8060 H     1 <1>   0.0800 
 40 H       -7.0970    -0.8500    -0.7590 H     1 <1>   0.0800 
 41 H       -5.7440    -0.1840     0.1100 H     1 <1>   0.0800 
 42 H       -5.0760    -2.3360    -3.4760 H     1 <1>   0.0800 
 43 H       -6.7050    -2.1140    -2.9010 H     1 <1>   0.0800 
 44 H       -6.5570    -2.2380     1.2210 H     1 <1>   0.0800 
 45 H       -4.9390    -2.3920     0.6610 H     1 <1>   0.0800 
 46 H       -4.5380    -3.7740    -1.6420 H     1 <1>   0.0800 
 47 H       -5.9490    -4.4050    -2.4100 H     1 <1>   0.0800 
 48 H       -9.6430    -3.3820    -0.4080 H     1 <1>   0.0800 
 49 H       -8.5410    -3.1980     0.9450 H     1 <1>   0.0800 
 50 H       -8.9330    -5.6870    -0.7480 H     1 <1>   0.0800 
 51 H       -9.4220    -5.4930     0.9150 H     1 <1>   0.0800 
 52 H       -3.8700    -6.8360     1.8490 H     1 <1>   0.1500 
 53 H       -8.0500    -7.4210     1.5750 H     1 <1>   0.1500 
 54 H       -2.0280    -3.8100     0.9730 H     1 <1>   0.0800 
 55 H       -2.1640    -5.5650     1.0360 H     1 <1>   0.0800 
 56 H       -2.8950    -4.5650     2.3080 H     1 <1>   0.0800 
 57 H       -5.8480    -8.1640     2.3450 H     1 <1>   0.1500 
@<TRIPOS>BOND
  1   1   2  2   
  2   2   3  am  
  3   2   4  1   
  4   3   5  1   
  5   3   6  1   
  6   4   7  2   
  7   4   8  1   
  8   5   9  2   
  9   5  10  1   
 10   6  30  1   
 11   6  31  1   
 12   6  32  1   
 13   7   9  1   
 14   7  11  1   
 15   8  12  2   
 16   8  13  am  
 17   9  33  1   
 18  10  34  1   
 19  10  35  1   
 20  10  36  1   
 21  11  37  1   
 22  11  38  1   
 23  11  39  1   
 24  13  14  1   
 25  13  15  1   
 26  14  16  1   
 27  14  40  1   
 28  14  41  1   
 29  15  17  1   
 30  15  42  1   
 31  15  43  1   
 32  16  18  1   
 33  16  44  1   
 34  16  45  1   
 35  17  18  1   
 36  17  46  1   
 37  17  47  1   
 38  18  19  1   
 39  18  20  1   
 40  19  21  1   
 41  20  22  ar  
 42  20  23  ar  
 43  21  24  1   
 44  21  48  1   
 45  21  49  1   
 46  22  25  1   
 47  22  26  ar  
 48  23  24  1   
 49  23  27  ar  
 50  24  50  1   
 51  24  51  1   
 52  25  28  1   
 53  26  29  ar  
 54  26  52  1   
 55  27  29  ar  
 56  27  53  1   
 57  28  54  1   
 58  28  55  1   
 59  28  56  1   
 60  29  57  1   
@<TRIPOS>SUBSTRUCTURE
  1 ****  16 GROUP 4 **** **** 0

# MOE 2024.06 (io_trps.svl 2023.06)
