@<TRIPOS>MOLECULE
NONAME
56 59 1 0 0 
SMALL
USER_CHARGES


@<TRIPOS>ATOM
  1 O        3.5080     0.3410     2.0980 O.co2 1 <1>  -0.9000 
  2 C        3.3830     1.3000     1.3320 C.2   1 <1>   0.9060 
  3 O        4.0690     2.3140     1.4740 O.co2 1 <1>  -0.9000 
  4 C        2.6740     1.0680    -0.0190 C.3   1 <1>  -0.1060 
  5 C        3.3880    -0.1570    -0.6240 C.3   1 <1>   0.4230 
  6 C        2.8790     2.2670    -1.0040 C.3   1 <1>  -0.1600 
  7 C        1.1510     0.8220     0.1410 C.3   1 <1>  -0.1600 
  8 N        3.0460    -1.3980     0.1650 N.4   1 <1>  -0.9590 
  9 C        4.9280     0.1420    -0.7200 C.3   1 <1>   0.3430 
 10 C        4.2900     2.4060    -1.6120 C.3   1 <1>   0.3430 
 11 C        0.8340    -0.5190     0.8190 C.3   1 <1>  -0.1600 
 12 C        1.5850    -1.6850     0.1770 C.3   1 <1>   0.3430 
 13 C        3.8410    -2.6260    -0.1210 C.3   1 <1>   0.2630 
 14 N        5.2660     1.6110    -0.8190 N.4   1 <1>  -0.9590 
 15 C        6.6970     1.9100    -1.0900 C.3   1 <1>   0.4860 
 16 C        6.9340     3.4100    -1.0480 C.ar  1 <1>  -0.1430 
 17 C        6.6020     4.1580     0.0530 C.ar  1 <1>  -0.1500 
 18 C        7.5000     4.0450    -2.1640 C.ar  1 <1>  -0.1500 
 19 C        6.8020     5.5510     0.0860 C.ar  1 <1>   0.0000 
 20 C        7.7110     5.3960    -2.1540 C.ar  1 <1>  -0.1500 
 21 C        7.3710     6.1850    -1.0380 C.ar  1 <1>   0.0000 
 22 C        6.4510     6.3370     1.2020 C.ar  1 <1>  -0.1500 
 23 C        7.5740     7.5770    -0.9980 C.ar  1 <1>  -0.1500 
 24 C        6.6570     7.6890     1.2140 C.ar  1 <1>  -0.1500 
 25 C        7.2300     8.3250     0.0960 C.ar  1 <1>   0.0830 
 26 O        7.4640     9.6600     0.0420 O.3   1 <1>  -0.3630 
 27 C        7.1390    10.5130     1.1170 C.3   1 <1>   0.0400 
 28 H        3.0200    -0.2900    -1.6270 H     1 <1>   0.0800 
 29 H        2.6460     3.1830    -0.4860 H     1 <1>   0.0800 
 30 H        2.1860     2.2070    -1.8250 H     1 <1>   0.0800 
 31 H        0.7170     1.6220     0.7190 H     1 <1>   0.0800 
 32 H        0.6740     0.8260    -0.8240 H     1 <1>   0.0800 
 33 H        3.2480    -1.0840     1.1570 H     1 <1>   0.4500 
 34 H        5.3290    -0.3780    -1.5720 H     1 <1>   0.0800 
 35 H        5.3970    -0.2440     0.1710 H     1 <1>   0.0800 
 36 H        4.5670     3.4490    -1.6100 H     1 <1>   0.0800 
 37 H        4.2880     2.0630    -2.6340 H     1 <1>   0.0800 
 38 H       -0.2240    -0.7070     0.7600 H     1 <1>   0.0800 
 39 H        1.0840    -0.4710     1.8660 H     1 <1>   0.0800 
 40 H        1.2310    -1.8380    -0.8290 H     1 <1>   0.0800 
 41 H        1.3920    -2.5800     0.7470 H     1 <1>   0.0800 
 42 H        3.6800    -2.9520    -1.1360 H     1 <1>   0.0800 
 43 H        3.5440    -3.4190     0.5470 H     1 <1>   0.0800 
 44 H        4.8920    -2.4400     0.0290 H     1 <1>   0.0800 
 45 H        5.1060     2.0020     0.1510 H     1 <1>   0.4500 
 46 H        7.3170     1.4380    -0.3440 H     1 <1>   0.0800 
 47 H        6.9760     1.5290    -2.0580 H     1 <1>   0.0800 
 48 H        6.1700     3.7050     0.9310 H     1 <1>   0.1500 
 49 H        7.7730     3.4710    -3.0340 H     1 <1>   0.1500 
 50 H        8.1480     5.8880    -3.0060 H     1 <1>   0.1500 
 51 H        6.0110     5.8460     2.0520 H     1 <1>   0.1500 
 52 H        8.0110     8.0640    -1.8500 H     1 <1>   0.1500 
 53 H        6.3770     8.2560     2.0810 H     1 <1>   0.1500 
 54 H        7.4130    11.5150     0.8410 H     1 <1>   0.0800 
 55 H        7.6950    10.2080     1.9850 H     1 <1>   0.0800 
 56 H        6.0800    10.4600     1.2960 H     1 <1>   0.0800 
@<TRIPOS>BOND
  1   1   2  ar  
  2   2   3  ar  
  3   2   4  1   
  4   4   5  1   
  5   4   6  1   
  6   4   7  1   
  7   5   8  1   
  8   5   9  1   
  9   5  28  1   
 10   6  10  1   
 11   6  29  1   
 12   6  30  1   
 13   7  11  1   
 14   7  31  1   
 15   7  32  1   
 16   8  12  1   
 17   8  13  1   
 18   8  33  1   
 19   9  14  1   
 20   9  34  1   
 21   9  35  1   
 22  10  14  1   
 23  10  36  1   
 24  10  37  1   
 25  11  12  1   
 26  11  38  1   
 27  11  39  1   
 28  12  40  1   
 29  12  41  1   
 30  13  42  1   
 31  13  43  1   
 32  13  44  1   
 33  14  15  1   
 34  14  45  1   
 35  15  16  1   
 36  15  46  1   
 37  15  47  1   
 38  16  17  ar  
 39  16  18  ar  
 40  17  19  ar  
 41  17  48  1   
 42  18  20  ar  
 43  18  49  1   
 44  19  21  ar  
 45  19  22  ar  
 46  20  21  ar  
 47  20  50  1   
 48  21  23  ar  
 49  22  24  ar  
 50  22  51  1   
 51  23  25  ar  
 52  23  52  1   
 53  24  25  ar  
 54  24  53  1   
 55  25  26  1   
 56  26  27  1   
 57  27  54  1   
 58  27  55  1   
 59  27  56  1   
@<TRIPOS>SUBSTRUCTURE
  1 ****  14 GROUP 4 **** **** 0

# MOE 2024.06 (io_trps.svl 2023.06)
