@<TRIPOS>MOLECULE
NONAME
48 50 1 0 0 
SMALL
USER_CHARGES


@<TRIPOS>ATOM
  1 S       -1.9430    -1.4360    -1.8870 S.3   1 <1>  -0.0800 
  2 C       -1.0520    -1.6160    -0.3800 C.2   1 <1>  -0.1400 
  3 C       -2.2930     0.2450    -1.5290 C.2   1 <1>  -0.1100 
  4 C       -1.0490    -0.4580     0.3080 C.2   1 <1>  -0.1500 
  5 C       -0.4610    -2.9790    -0.0950 C.3   1 <1>   0.5230 
  6 C       -1.7570     0.6000    -0.3480 C.2   1 <1>  -0.1500 
  7 N       -1.5750    -3.9760    -0.1580 N.4   1 <1>  -0.9590 
  8 C       -2.5660    -3.7170     0.9580 C.3   1 <1>   0.3430 
  9 C       -1.0310    -5.3610    -0.1460 C.3   1 <1>   0.3430 
 10 C       -3.9430    -4.4320     0.8350 C.3   1 <1>   0.3430 
 11 C       -1.9010    -6.3250    -0.9570 C.3   1 <1>  -0.1600 
 12 N       -3.9050    -5.9060     0.4940 N.4   1 <1>  -0.9590 
 13 C       -3.4200    -6.1430    -0.8990 C.3   1 <1>   0.3430 
 14 C       -5.2790    -6.4810     0.6580 C.3   1 <1>   0.3430 
 15 C       -5.1920    -8.0010     0.8090 C.3   1 <1>  -0.1600 
 16 C       -6.5810    -8.6550     0.9520 C.3   1 <1>  -0.0800 
 17 C       -6.4270   -10.1670     1.0840 C.3   1 <1>   0.1200 
 18 C       -7.4160    -8.5580    -0.3270 C.3   1 <1>  -0.1600 
 19 O       -6.2950   -10.5960    -0.2260 O.3   1 <1>  -0.5600 
 20 C       -7.1900    -9.8990    -1.0290 C.3   1 <1>   0.1200 
 21 H       -2.8670     0.8020    -2.2510 H     1 <1>   0.1500 
 22 H       -0.5760    -0.2750     1.2590 H     1 <1>   0.1500 
 23 H        0.0100    -2.9850     0.8750 H     1 <1>   0.0800 
 24 H        0.2840    -3.2000    -0.8440 H     1 <1>   0.0800 
 25 H       -1.8260     1.5800     0.0960 H     1 <1>   0.1500 
 26 H       -2.0110    -3.7700    -1.0700 H     1 <1>   0.4500 
 27 H       -2.7640    -2.6570     1.0160 H     1 <1>   0.0800 
 28 H       -2.1190    -3.9970     1.8980 H     1 <1>   0.0800 
 29 H       -0.9530    -5.7080     0.8730 H     1 <1>   0.0800 
 30 H       -0.0360    -5.3720    -0.5660 H     1 <1>   0.0800 
 31 H       -4.5250    -3.9150     0.0890 H     1 <1>   0.0800 
 32 H       -4.4610    -4.3020     1.7720 H     1 <1>   0.0800 
 33 H       -1.6640    -7.3290    -0.6500 H     1 <1>   0.0800 
 34 H       -1.6040    -6.2590    -1.9890 H     1 <1>   0.0800 
 35 H       -3.3140    -6.4240     1.1600 H     1 <1>   0.4500 
 36 H       -3.8790    -7.0310    -1.3060 H     1 <1>   0.0800 
 37 H       -3.7150    -5.3190    -1.5290 H     1 <1>   0.0800 
 38 H       -5.8940    -6.2250    -0.1890 H     1 <1>   0.0800 
 39 H       -5.7460    -6.0780     1.5440 H     1 <1>   0.0800 
 40 H       -4.6200    -8.2350     1.6900 H     1 <1>   0.0800 
 41 H       -4.6990    -8.4410    -0.0390 H     1 <1>   0.0800 
 42 H       -7.1050    -8.2570     1.8050 H     1 <1>   0.0800 
 43 H       -7.3130   -10.6210     1.4970 H     1 <1>   0.0800 
 44 H       -5.5620   -10.4690     1.6480 H     1 <1>   0.0800 
 45 H       -7.1460    -7.7430    -0.9720 H     1 <1>   0.0800 
 46 H       -8.4610    -8.4690    -0.0880 H     1 <1>   0.0800 
 47 H       -6.7570    -9.7890    -2.0080 H     1 <1>   0.0800 
 48 H       -8.1020   -10.4710    -1.0920 H     1 <1>   0.0800 
@<TRIPOS>BOND
  1   1   2  1   
  2   1   3  1   
  3   2   4  2   
  4   2   5  1   
  5   3   6  2   
  6   3  21  1   
  7   4   6  1   
  8   4  22  1   
  9   5   7  1   
 10   5  23  1   
 11   5  24  1   
 12   6  25  1   
 13   7   8  1   
 14   7   9  1   
 15   7  26  1   
 16   8  10  1   
 17   8  27  1   
 18   8  28  1   
 19   9  11  1   
 20   9  29  1   
 21   9  30  1   
 22  10  12  1   
 23  10  31  1   
 24  10  32  1   
 25  11  13  1   
 26  11  33  1   
 27  11  34  1   
 28  12  13  1   
 29  12  14  1   
 30  12  35  1   
 31  13  36  1   
 32  13  37  1   
 33  14  15  1   
 34  14  38  1   
 35  14  39  1   
 36  15  16  1   
 37  15  40  1   
 38  15  41  1   
 39  16  17  1   
 40  16  18  1   
 41  16  42  1   
 42  17  19  1   
 43  17  43  1   
 44  17  44  1   
 45  18  20  1   
 46  18  45  1   
 47  18  46  1   
 48  19  20  1   
 49  20  47  1   
 50  20  48  1   
@<TRIPOS>SUBSTRUCTURE
  1 ****  12 GROUP 4 **** **** 0

# MOE 2024.06 (io_trps.svl 2023.06)
