@<TRIPOS>MOLECULE
NONAME
53 55 1 0 0 
SMALL
USER_CHARGES


@<TRIPOS>ATOM
  1 O        3.4950    -2.8420     1.5050 O.2   1 <1>  -0.5700 
  2 C        3.1840    -2.2750     0.4770 C.2   1 <1>   0.5440 
  3 N        4.1500    -1.5800    -0.2240 N.am  1 <1>  -0.6600 
  4 C        1.8150    -2.3270     0.0260 C.ar  1 <1>   0.0860 
  5 C        5.5780    -1.6380     0.2130 C.3   1 <1>   0.1400 
  6 C        3.8470    -0.7220    -1.4050 C.3   1 <1>   0.1400 
  7 C        0.8310    -1.4920     0.5390 C.ar  1 <1>   0.1660 
  8 C        1.4120    -3.1950    -0.9800 C.ar  1 <1>   0.1660 
  9 C        5.8580    -0.5840     1.2930 C.3   1 <1>   0.1400 
 10 C        4.4490     0.6880    -1.2960 C.3   1 <1>  -0.1600 
 11 N       -0.3980    -1.4840     0.0720 N.ar  1 <1>  -0.6200 
 12 C        1.0890    -0.5100     1.6710 C.3   1 <1>  -0.0960 
 13 N        0.1880    -3.2000    -1.4590 N.ar  1 <1>  -0.6200 
 14 C        2.3680    -4.1960    -1.6090 C.3   1 <1>  -0.0970 
 15 N        5.8370     0.8200     0.7530 N.am  1 <1>  -0.6600 
 16 C        4.5440     1.2400     0.1340 C.3   1 <1>   0.1400 
 17 C       -0.6490    -2.3420    -0.9010 C.ar  1 <1>   0.4700 
 18 C        6.9610     1.6100     0.8280 C.2   1 <1>   0.5690 
 19 O        8.0090     1.1930     1.2730 O.2   1 <1>  -0.5700 
 20 C        6.9740     3.0890     0.3660 C.3   1 <1>   0.4840 
 21 N        8.0970     3.8830     0.9710 N.4   1 <1>  -0.9590 
 22 C        7.2160     3.2410    -1.1320 C.3   1 <1>  -0.1600 
 23 C        8.4910     4.9670     0.0320 C.3   1 <1>   0.3430 
 24 C        7.8210     4.3400     2.3640 C.3   1 <1>   0.2630 
 25 C        7.8100     4.6390    -1.2940 C.3   1 <1>  -0.1600 
 26 H        5.7810    -2.6130     0.6240 H     1 <1>   0.0800 
 27 H        6.2380    -1.4970    -0.6240 H     1 <1>   0.0800 
 28 H        4.2170    -1.2040    -2.2950 H     1 <1>   0.0800 
 29 H        2.7820    -0.6200    -1.5180 H     1 <1>   0.0800 
 30 H        6.8180    -0.8020     1.7270 H     1 <1>   0.0800 
 31 H        5.1290    -0.6810     2.0790 H     1 <1>   0.0800 
 32 H        3.8260     1.3440    -1.8770 H     1 <1>   0.0800 
 33 H        5.4200     0.6960    -1.7580 H     1 <1>   0.0800 
 34 H        2.0250    -0.6890     2.1660 H     1 <1>   0.0800 
 35 H        0.3070    -0.6000     2.4040 H     1 <1>   0.0800 
 36 H        1.0810     0.4920     1.2860 H     1 <1>   0.0800 
 37 H        3.0920    -4.5450    -0.8950 H     1 <1>   0.0800 
 38 H        2.8770    -3.7420    -2.4380 H     1 <1>   0.0800 
 39 H        1.8200    -5.0500    -1.9680 H     1 <1>   0.0800 
 40 H        3.7200     0.8840     0.7300 H     1 <1>   0.0800 
 41 H        4.4750     2.3120     0.1050 H     1 <1>   0.0800 
 42 H       -1.6550    -2.3430    -1.2860 H     1 <1>   0.1500 
 43 H        6.0390     3.5530     0.6230 H     1 <1>   0.0800 
 44 H        8.8620     3.1840     1.0210 H     1 <1>   0.4500 
 45 H        7.9280     2.5000    -1.4560 H     1 <1>   0.0800 
 46 H        6.3090     3.1190    -1.6980 H     1 <1>   0.0800 
 47 H        8.1540     5.9270     0.3900 H     1 <1>   0.0800 
 48 H        9.5630     4.9890    -0.0840 H     1 <1>   0.0800 
 49 H        6.9880     5.0230     2.3790 H     1 <1>   0.0800 
 50 H        8.6860     4.8390     2.7700 H     1 <1>   0.0800 
 51 H        7.5900     3.4940     2.9930 H     1 <1>   0.0800 
 52 H        7.0310     5.3590    -1.4720 H     1 <1>   0.0800 
 53 H        8.5080     4.6860    -2.1130 H     1 <1>   0.0800 
@<TRIPOS>BOND
  1   1   2  2   
  2   2   3  am  
  3   2   4  1   
  4   3   5  1   
  5   3   6  1   
  6   4   7  ar  
  7   4   8  ar  
  8   5   9  1   
  9   5  26  1   
 10   5  27  1   
 11   6  10  1   
 12   6  28  1   
 13   6  29  1   
 14   7  11  ar  
 15   7  12  1   
 16   8  13  ar  
 17   8  14  1   
 18   9  15  1   
 19   9  30  1   
 20   9  31  1   
 21  10  16  1   
 22  10  32  1   
 23  10  33  1   
 24  11  17  ar  
 25  12  34  1   
 26  12  35  1   
 27  12  36  1   
 28  13  17  ar  
 29  14  37  1   
 30  14  38  1   
 31  14  39  1   
 32  15  16  1   
 33  15  18  am  
 34  16  40  1   
 35  16  41  1   
 36  17  42  1   
 37  18  19  2   
 38  18  20  1   
 39  20  21  1   
 40  20  22  1   
 41  20  43  1   
 42  21  23  1   
 43  21  24  1   
 44  21  44  1   
 45  22  25  1   
 46  22  45  1   
 47  22  46  1   
 48  23  25  1   
 49  23  47  1   
 50  23  48  1   
 51  24  49  1   
 52  24  50  1   
 53  24  51  1   
 54  25  52  1   
 55  25  53  1   
@<TRIPOS>SUBSTRUCTURE
  1 ****  16 GROUP 4 **** **** 0

# MOE 2024.06 (io_trps.svl 2023.06)
