@<TRIPOS>MOLECULE
NONAME
19 19 1 0 0 
SMALL
USER_CHARGES


@<TRIPOS>ATOM
  1 S        5.9760     1.4410    -0.3030 S.o2  1 <1>   1.3330 
  2 O        6.6930     1.9430    -1.4500 O.2   1 <1>  -0.6500 
  3 O        5.2640     2.3290     0.5840 O.2   1 <1>  -0.6500 
  4 N        4.8670     0.3590    -0.9430 N.am  1 <1>  -0.9140 
  5 C        7.1260     0.4870     0.6740 C.3   1 <1>  -0.0550 
  6 C        4.3120    -0.6380    -0.0400 C.3   1 <1>   0.1960 
  7 C        7.4140    -0.8970     0.1040 C.3   1 <1>   0.1100 
  8 C        5.1350    -1.9410    -0.0570 C.3   1 <1>   0.1100 
  9 N        6.4450    -1.8690     0.6110 N.3   1 <1>  -0.9000 
 10 H        5.3220    -0.0830    -1.7380 H     1 <1>   0.4200 
 11 H        6.7630     0.3900     1.6780 H     1 <1>   0.0800 
 12 H        8.0470     1.0350     0.7220 H     1 <1>   0.0800 
 13 H        3.3190    -0.8720    -0.3850 H     1 <1>   0.0800 
 14 H        4.2200    -0.2470     0.9590 H     1 <1>   0.0800 
 15 H        8.3910    -1.2040     0.4370 H     1 <1>   0.0800 
 16 H        7.4260    -0.8880    -0.9740 H     1 <1>   0.0800 
 17 H        5.2710    -2.2640    -1.0760 H     1 <1>   0.0800 
 18 H        4.5590    -2.7060     0.4370 H     1 <1>   0.0800 
 19 H        6.3320    -1.7730     1.6300 H     1 <1>   0.3600 
@<TRIPOS>BOND
  1   1   2  2   
  2   1   3  2   
  3   1   4  am  
  4   1   5  1   
  5   4   6  1   
  6   4  10  1   
  7   5   7  1   
  8   5  11  1   
  9   5  12  1   
 10   6   8  1   
 11   6  13  1   
 12   6  14  1   
 13   7   9  1   
 14   7  15  1   
 15   7  16  1   
 16   8   9  1   
 17   8  17  1   
 18   8  18  1   
 19   9  19  1   
@<TRIPOS>SUBSTRUCTURE
  1 ****   1 GROUP 4 **** **** 0

# MOE 2024.06 (io_trps.svl 2023.06)
