@<TRIPOS>MOLECULE
NONAME
51 53 1 0 0 
SMALL
USER_CHARGES


@<TRIPOS>ATOM
  1 O        3.9170    -2.4640     0.8380 O.2   1 <1>  -0.5700 
  2 C        3.2170    -2.1770    -0.1070 C.2   1 <1>   0.5690 
  3 N        3.7270    -1.3510    -1.0830 N.am  1 <1>  -0.6600 
  4 C        1.7830    -2.7010    -0.1490 C.3   1 <1>   0.2370 
  5 C        5.2050    -1.1120    -1.1540 C.3   1 <1>   0.1400 
  6 C        2.9150    -0.4540    -1.9540 C.3   1 <1>   0.1400 
  7 N        0.9360    -1.7260     0.5730 N.pl3 1 <1>   0.3140 
  8 C        1.6320    -4.1370     0.4090 C.3   1 <1>  -0.1600 
  9 C        5.6730    -0.1260    -0.0680 C.3   1 <1>   0.3430 
 10 C        2.7510     0.9340    -1.3120 C.3   1 <1>  -0.1600 
 11 N        0.1150    -0.8810    -0.0850 N.2   1 <1>  -0.7070 
 12 C        0.8740    -1.5140     1.9060 C.2   1 <1>  -0.3020 
 13 C        0.2010    -4.6840     0.2870 C.3   1 <1>  -0.2400 
 14 N        4.5800     0.8130     0.3530 N.4   1 <1>  -0.9590 
 15 C        4.0310     1.5960    -0.7900 C.3   1 <1>   0.3430 
 16 C       -0.4680    -0.1850     0.8440 C.2   1 <1>   0.1390 
 17 C       -0.0280    -0.5320     2.1140 C.2   1 <1>  -0.1500 
 18 C        5.0190     1.6760     1.4900 C.3   1 <1>   0.5230 
 19 C        5.9690     2.7700     1.0220 C.2   1 <1>  -0.0400 
 20 O        7.1270     2.4360     0.4820 O.3   1 <1>  -0.2800 
 21 C        5.8370     4.1140     1.0580 C.2   1 <1>  -0.1500 
 22 C        7.7570     3.5480     0.1650 C.2   1 <1>  -0.0400 
 23 C        7.0120     4.6240     0.4930 C.2   1 <1>  -0.1500 
 24 C        9.1280     3.4580    -0.4700 C.3   1 <1>  -0.0600 
 25 H        1.4580    -2.7180    -1.1710 H     1 <1>   0.0800 
 26 H        5.4690    -0.7300    -2.1250 H     1 <1>   0.0800 
 27 H        5.7290    -2.0450    -1.0280 H     1 <1>   0.0800 
 28 H        1.9410    -0.8750    -2.1370 H     1 <1>   0.0800 
 29 H        3.3990    -0.3580    -2.9120 H     1 <1>   0.0800 
 30 H        1.9430    -4.1660     1.4390 H     1 <1>   0.0800 
 31 H        2.2940    -4.7850    -0.1390 H     1 <1>   0.0800 
 32 H        6.5290     0.4200    -0.4280 H     1 <1>   0.0800 
 33 H        5.9890    -0.7020     0.7870 H     1 <1>   0.0800 
 34 H        2.0370     0.8790    -0.5110 H     1 <1>   0.0800 
 35 H        2.3190     1.5830    -2.0520 H     1 <1>   0.0800 
 36 H        1.4560    -2.0710     2.6180 H     1 <1>   0.1500 
 37 H       -0.4870    -4.0950     0.8680 H     1 <1>   0.0800 
 38 H        0.1640    -5.6970     0.6480 H     1 <1>   0.0800 
 39 H       -0.1230    -4.6770    -0.7400 H     1 <1>   0.0800 
 40 H        3.8260     0.1920     0.6810 H     1 <1>   0.4500 
 41 H        3.7890     2.5940    -0.4610 H     1 <1>   0.0800 
 42 H        4.7650     1.6770    -1.5750 H     1 <1>   0.0800 
 43 H       -1.2080     0.5730     0.6430 H     1 <1>   0.1500 
 44 H       -0.3580    -0.0990     3.0420 H     1 <1>   0.1500 
 45 H        5.5100     1.0760     2.2390 H     1 <1>   0.0800 
 46 H        4.1580     2.1380     1.9440 H     1 <1>   0.0800 
 47 H        5.0280     4.7190     1.4320 H     1 <1>   0.1500 
 48 H        7.2450     5.6680     0.3670 H     1 <1>   0.1500 
 49 H        9.0700     2.9180    -1.3970 H     1 <1>   0.0800 
 50 H        9.8040     2.9460     0.1920 H     1 <1>   0.0800 
 51 H        9.5130     4.4430    -0.6640 H     1 <1>   0.0800 
@<TRIPOS>BOND
  1   1   2  2   
  2   2   3  am  
  3   2   4  1   
  4   3   5  1   
  5   3   6  1   
  6   4   7  1   
  7   4   8  1   
  8   4  25  1   
  9   5   9  1   
 10   5  26  1   
 11   5  27  1   
 12   6  10  1   
 13   6  28  1   
 14   6  29  1   
 15   7  11  1   
 16   7  12  1   
 17   8  13  1   
 18   8  30  1   
 19   8  31  1   
 20   9  14  1   
 21   9  32  1   
 22   9  33  1   
 23  10  15  1   
 24  10  34  1   
 25  10  35  1   
 26  11  16  2   
 27  12  17  2   
 28  12  36  1   
 29  13  37  1   
 30  13  38  1   
 31  13  39  1   
 32  14  15  1   
 33  14  18  1   
 34  14  40  1   
 35  15  41  1   
 36  15  42  1   
 37  16  17  1   
 38  16  43  1   
 39  17  44  1   
 40  18  19  1   
 41  18  45  1   
 42  18  46  1   
 43  19  20  1   
 44  19  21  2   
 45  20  22  1   
 46  21  23  1   
 47  21  47  1   
 48  22  23  2   
 49  22  24  1   
 50  23  48  1   
 51  24  49  1   
 52  24  50  1   
 53  24  51  1   
@<TRIPOS>SUBSTRUCTURE
  1 ****  14 GROUP 4 **** **** 0

# MOE 2024.06 (io_trps.svl 2023.06)
