@<TRIPOS>MOLECULE
NONAME
35 35 1 0 0 
SMALL
USER_CHARGES


@<TRIPOS>ATOM
  1 S        0.0230    -0.2050    -0.1540 S.o2  1 <1>   1.0900 
  2 O       -0.0770    -0.3630    -1.5870 O.2   1 <1>  -0.6500 
  3 O       -0.8180    -1.0070     0.7050 O.2   1 <1>  -0.6500 
  4 C       -0.2720     1.5120     0.2210 C.3   1 <1>  -0.0550 
  5 C        1.7390    -0.4880     0.3140 C.3   1 <1>  -0.0550 
  6 C        0.4010     2.4170    -0.8030 C.3   1 <1>   0.2090 
  7 C        2.0350    -0.3790     1.8210 C.3   1 <1>  -0.2400 
  8 N        0.5900     3.7540    -0.2020 N.pl3 1 <1>  -0.8690 
  9 C        1.8110     4.0910     0.3730 C.ar  1 <1>   0.4100 
 10 N        2.4640     3.1200     0.9900 N.ar  1 <1>  -0.6200 
 11 C        2.2990     5.4350     0.2670 C.ar  1 <1>   0.4100 
 12 C        3.6140     3.5430     1.5020 C.ar  1 <1>   0.1600 
 13 N        3.4520     5.8250     0.7830 N.ar  1 <1>  -0.6200 
 14 N        1.5480     6.4180    -0.3950 N.pl3 1 <1>  -0.8380 
 15 C        4.0870     4.8390     1.4020 C.ar  1 <1>   0.1600 
 16 C        2.2980     7.4070    -1.2190 C.3   1 <1>   0.1290 
 17 C        0.4780     7.0410     0.4270 C.3   1 <1>   0.1290 
 18 H        0.0940     1.7380     1.2030 H     1 <1>   0.0800 
 19 H       -1.3260     1.7090     0.2050 H     1 <1>   0.0800 
 20 H        2.3750     0.1990    -0.2110 H     1 <1>   0.0800 
 21 H        2.0150    -1.4760    -0.0030 H     1 <1>   0.0800 
 22 H       -0.2100     2.4900    -1.6870 H     1 <1>   0.0800 
 23 H        1.3590     2.0210    -1.0950 H     1 <1>   0.0800 
 24 H        1.8440     0.6170     2.1780 H     1 <1>   0.0800 
 25 H        3.0670    -0.6150     2.0110 H     1 <1>   0.0800 
 26 H        1.4180    -1.0680     2.3710 H     1 <1>   0.0800 
 27 H        0.2970     4.5300    -0.8110 H     1 <1>   0.4000 
 28 H        4.2060     2.8160     2.0280 H     1 <1>   0.1500 
 29 H        5.0340     5.0830     1.8510 H     1 <1>   0.1500 
 30 H        3.0860     6.9100    -1.7580 H     1 <1>   0.0800 
 31 H        2.7350     8.1590    -0.5850 H     1 <1>   0.0800 
 32 H        1.6360     7.8750    -1.9260 H     1 <1>   0.0800 
 33 H       -0.0070     6.2940     1.0320 H     1 <1>   0.0800 
 34 H       -0.2560     7.4990    -0.2120 H     1 <1>   0.0800 
 35 H        0.9040     7.7880     1.0750 H     1 <1>   0.0800 
@<TRIPOS>BOND
  1   1   2  2   
  2   1   3  2   
  3   1   4  1   
  4   1   5  1   
  5   4   6  1   
  6   4  18  1   
  7   4  19  1   
  8   5   7  1   
  9   5  20  1   
 10   5  21  1   
 11   6   8  1   
 12   6  22  1   
 13   6  23  1   
 14   7  24  1   
 15   7  25  1   
 16   7  26  1   
 17   8   9  1   
 18   8  27  1   
 19   9  10  ar  
 20   9  11  ar  
 21  10  12  ar  
 22  11  13  ar  
 23  11  14  1   
 24  12  15  ar  
 25  12  28  1   
 26  13  15  ar  
 27  14  16  1   
 28  14  17  1   
 29  15  29  1   
 30  16  30  1   
 31  16  31  1   
 32  16  32  1   
 33  17  33  1   
 34  17  34  1   
 35  17  35  1   
@<TRIPOS>SUBSTRUCTURE
  1 ****   9 GROUP 4 **** **** 0

# MOE 2024.06 (io_trps.svl 2023.06)
