@<TRIPOS>MOLECULE
NONAME
43 45 1 0 0 
SMALL
USER_CHARGES


@<TRIPOS>ATOM
  1 F        1.0060    -2.0610    -1.1760 F     1 <1>  -0.1900 
  2 C        0.4810    -3.0110    -0.4500 C.ar  1 <1>   0.1900 
  3 C        0.8970    -4.3210    -0.6360 C.ar  1 <1>  -0.1440 
  4 C       -0.4760    -2.6630     0.4820 C.ar  1 <1>  -0.1500 
  5 C        0.3180    -5.3040     0.1510 C.ar  1 <1>  -0.1500 
  6 C        1.9580    -4.6700    -1.6700 C.3   1 <1>  -0.0960 
  7 C       -1.0460    -3.6560     1.2590 C.ar  1 <1>  -0.1500 
  8 C       -0.6540    -4.9800     1.0930 C.ar  1 <1>  -0.1440 
  9 C       -1.2920    -6.0710     1.9310 C.3   1 <1>   0.4870 
 10 N       -2.1040    -6.9230     1.0300 N.4   1 <1>  -0.9590 
 11 C       -3.2090    -6.2130     0.3050 C.3   1 <1>   0.3430 
 12 C       -2.6940    -8.1350     1.6380 C.3   1 <1>   0.3430 
 13 C       -4.3820    -7.2080     0.2500 C.3   1 <1>   0.2000 
 14 C       -3.7600    -8.5570     0.6230 C.3   1 <1>  -0.0800 
 15 O       -5.3330    -6.8710     1.2050 O.3   1 <1>  -0.6800 
 16 C       -3.1870    -9.2490    -0.6460 C.3   1 <1>  -0.0170 
 17 C       -1.8150    -9.8880    -0.4680 C.ar  1 <1>   0.1670 
 18 N       -0.7750    -9.0600    -0.4750 N.ar  1 <1>  -0.6200 
 19 C       -1.7030   -11.2690    -0.3180 C.ar  1 <1>   0.1600 
 20 C        0.3740    -9.7140    -0.3530 C.ar  1 <1>   0.1600 
 21 N       -0.5590   -11.9090    -0.1650 N.ar  1 <1>  -0.6200 
 22 C        0.4770   -11.0910    -0.1990 C.ar  1 <1>   0.1600 
 23 H       -0.7620    -1.6310     0.5930 H     1 <1>   0.1500 
 24 H        0.6320    -6.3260     0.0240 H     1 <1>   0.1500 
 25 H        2.1390    -5.7290    -1.7050 H     1 <1>   0.0800 
 26 H        2.8810    -4.1730    -1.4280 H     1 <1>   0.0800 
 27 H        1.6410    -4.3450    -2.6460 H     1 <1>   0.0800 
 28 H       -1.7910    -3.3820     1.9870 H     1 <1>   0.1500 
 29 H       -1.9130    -5.6350     2.6960 H     1 <1>   0.0800 
 30 H       -0.5210    -6.6580     2.4030 H     1 <1>   0.0800 
 31 H       -1.4550    -7.2900     0.3050 H     1 <1>   0.4500 
 32 H       -3.5100    -5.3140     0.8170 H     1 <1>   0.0800 
 33 H       -2.8820    -5.9600    -0.6910 H     1 <1>   0.0800 
 34 H       -1.9540    -8.9040     1.7960 H     1 <1>   0.0800 
 35 H       -3.1610    -7.8900     2.5780 H     1 <1>   0.0800 
 36 H       -4.8730    -7.2080    -0.7100 H     1 <1>   0.0800 
 37 H       -4.4790    -9.2140     1.0830 H     1 <1>   0.0800 
 38 H       -5.0020    -6.9010     2.1220 H     1 <1>   0.4000 
 39 H       -3.0960    -8.5440    -1.4550 H     1 <1>   0.0800 
 40 H       -3.8890    -9.9930    -0.9810 H     1 <1>   0.0800 
 41 H       -2.5940   -11.8740    -0.3240 H     1 <1>   0.1500 
 42 H        1.2830    -9.1380    -0.3740 H     1 <1>   0.1500 
 43 H        1.4540   -11.5330    -0.1020 H     1 <1>   0.1500 
@<TRIPOS>BOND
  1   1   2  1   
  2   2   3  ar  
  3   2   4  ar  
  4   3   5  ar  
  5   3   6  1   
  6   4   7  ar  
  7   4  23  1   
  8   5   8  ar  
  9   5  24  1   
 10   6  25  1   
 11   6  26  1   
 12   6  27  1   
 13   7   8  ar  
 14   7  28  1   
 15   8   9  1   
 16   9  10  1   
 17   9  29  1   
 18   9  30  1   
 19  10  11  1   
 20  10  12  1   
 21  10  31  1   
 22  11  13  1   
 23  11  32  1   
 24  11  33  1   
 25  12  14  1   
 26  12  34  1   
 27  12  35  1   
 28  13  14  1   
 29  13  15  1   
 30  13  36  1   
 31  14  16  1   
 32  14  37  1   
 33  15  38  1   
 34  16  17  1   
 35  16  39  1   
 36  16  40  1   
 37  17  18  ar  
 38  17  19  ar  
 39  18  20  ar  
 40  19  21  ar  
 41  19  41  1   
 42  20  22  ar  
 43  20  42  1   
 44  21  22  ar  
 45  22  43  1   
@<TRIPOS>SUBSTRUCTURE
  1 ****  10 GROUP 4 **** **** 0

# MOE 2024.06 (io_trps.svl 2023.06)
