@<TRIPOS>MOLECULE
NONAME
59 62 1 0 0 
SMALL
USER_CHARGES


@<TRIPOS>ATOM
  1 O       -0.2790     0.6150    -0.7930 O.2   1 <1>  -0.5700 
  2 C       -0.3060     1.8230    -0.6450 C.2   1 <1>   0.5440 
  3 N        0.8720     2.5370    -0.8110 N.am  1 <1>  -0.6600 
  4 C       -1.5770     2.4380    -0.2870 C.ar  1 <1>   0.0860 
  5 C        1.0030     4.0050    -0.5900 C.3   1 <1>   0.1400 
  6 C        2.0930     1.8870    -1.3730 C.3   1 <1>   0.1400 
  7 C       -2.0820     3.5740    -0.9200 C.ar  1 <1>  -0.1500 
  8 C       -2.3580     1.8810     0.7250 C.ar  1 <1>  -0.1500 
  9 C        2.2640     4.3890     0.2100 C.3   1 <1>  -0.0800 
 10 C        3.3150     2.2130    -0.5110 C.3   1 <1>  -0.1600 
 11 C       -3.2700     4.1600    -0.5160 C.ar  1 <1>   0.0830 
 12 C       -3.5690     2.4340     1.1030 C.ar  1 <1>  -0.1500 
 13 C        2.3690     5.9260     0.2090 C.3   1 <1>  -0.1600 
 14 C        3.5220     3.7260    -0.3750 C.3   1 <1>  -0.1600 
 15 O       -3.6440     5.3220    -1.0950 O.3   1 <1>  -0.3630 
 16 C       -4.0410     3.5800     0.4860 C.ar  1 <1>  -0.1430 
 17 C        3.3850     6.5330     1.1880 C.3   1 <1>   0.1400 
 18 C       -3.2510     6.4730    -0.3790 C.3   1 <1>   0.1200 
 19 C       -5.3790     4.1640     0.9160 C.3   1 <1>  -0.0970 
 20 N        3.6830     7.9670     0.8900 N.am  1 <1>  -0.7300 
 21 C       -3.4530     7.7230    -1.2340 C.3   1 <1>   0.0960 
 22 C        2.9000     9.0480     0.6300 C.2   1 <1>   0.5690 
 23 N       -2.5960     8.7770    -0.6720 N.pl3 1 <1>   0.3140 
 24 O        3.4090    10.1330     0.5200 O.2   1 <1>  -0.5700 
 25 C        1.4050     8.9050     0.4530 C.3   1 <1>  -0.0990 
 26 N       -2.8710     9.3900     0.4840 N.2   1 <1>  -0.4180 
 27 C       -1.3270     9.0090    -1.0030 C.2   1 <1>  -0.3020 
 28 C        0.6000    10.1880     0.2080 C.3   1 <1>   0.0210 
 29 N       -1.8080     9.9970     0.8870 N.2   1 <1>  -0.2270 
 30 C       -0.8400     9.7560    -0.0020 C.2   1 <1>   0.0460 
 31 H        0.1510     4.3760    -0.0520 H     1 <1>   0.0800 
 32 H        1.0300     4.4860    -1.5530 H     1 <1>   0.0800 
 33 H        2.2480     2.2450    -2.3760 H     1 <1>   0.0800 
 34 H        1.9730     0.8180    -1.4210 H     1 <1>   0.0800 
 35 H       -1.5370     4.0120    -1.7350 H     1 <1>   0.1500 
 36 H       -2.0040     0.9910     1.2160 H     1 <1>   0.1500 
 37 H        2.1240     4.0470     1.2220 H     1 <1>   0.0800 
 38 H        4.1870     1.7690    -0.9570 H     1 <1>   0.0800 
 39 H        3.1820     1.7690     0.4610 H     1 <1>   0.0800 
 40 H       -4.1430     1.9640     1.8820 H     1 <1>   0.1500 
 41 H        1.3980     6.2890     0.4840 H     1 <1>   0.0800 
 42 H        2.5990     6.2590    -0.7890 H     1 <1>   0.0800 
 43 H        4.3710     3.9060     0.2610 H     1 <1>   0.0800 
 44 H        3.7360     4.1400    -1.3460 H     1 <1>   0.0800 
 45 H        4.3100     5.9880     1.1250 H     1 <1>   0.0800 
 46 H        3.0200     6.4460     2.1990 H     1 <1>   0.0800 
 47 H       -2.2100     6.3590    -0.1260 H     1 <1>   0.0800 
 48 H       -3.8330     6.5340     0.5230 H     1 <1>   0.0800 
 49 H       -5.8810     4.6130     0.0780 H     1 <1>   0.0800 
 50 H       -5.2290     4.9110     1.6750 H     1 <1>   0.0800 
 51 H       -6.0160     3.3940     1.3130 H     1 <1>   0.0800 
 52 H        4.6720     8.2140     0.9910 H     1 <1>   0.3700 
 53 H       -4.4770     8.0450    -1.2020 H     1 <1>   0.0800 
 54 H       -3.1530     7.5390    -2.2490 H     1 <1>   0.0800 
 55 H        1.0070     8.4150     1.3220 H     1 <1>   0.0800 
 56 H        1.2540     8.2820    -0.4050 H     1 <1>   0.0800 
 57 H       -0.8500     8.6090    -1.8770 H     1 <1>   0.1500 
 58 H        0.9630    10.6980    -0.6660 H     1 <1>   0.0800 
 59 H        0.6770    10.8490     1.0530 H     1 <1>   0.0800 
@<TRIPOS>BOND
  1   1   2  2   
  2   2   3  am  
  3   2   4  1   
  4   3   5  1   
  5   3   6  1   
  6   4   7  ar  
  7   4   8  ar  
  8   5   9  1   
  9   5  31  1   
 10   5  32  1   
 11   6  10  1   
 12   6  33  1   
 13   6  34  1   
 14   7  11  ar  
 15   7  35  1   
 16   8  12  ar  
 17   8  36  1   
 18   9  13  1   
 19   9  14  1   
 20   9  37  1   
 21  10  14  1   
 22  10  38  1   
 23  10  39  1   
 24  11  15  1   
 25  11  16  ar  
 26  12  16  ar  
 27  12  40  1   
 28  13  17  1   
 29  13  41  1   
 30  13  42  1   
 31  14  43  1   
 32  14  44  1   
 33  15  18  1   
 34  16  19  1   
 35  17  20  1   
 36  17  45  1   
 37  17  46  1   
 38  18  21  1   
 39  18  47  1   
 40  18  48  1   
 41  19  49  1   
 42  19  50  1   
 43  19  51  1   
 44  20  22  am  
 45  20  52  1   
 46  21  23  1   
 47  21  53  1   
 48  21  54  1   
 49  22  24  2   
 50  22  25  1   
 51  23  26  1   
 52  23  27  1   
 53  25  28  1   
 54  25  55  1   
 55  25  56  1   
 56  26  29  2   
 57  27  30  2   
 58  27  57  1   
 59  28  30  1   
 60  28  58  1   
 61  28  59  1   
 62  29  30  1   
@<TRIPOS>SUBSTRUCTURE
  1 ****   5 GROUP 4 **** **** 0

# MOE 2024.06 (io_trps.svl 2023.06)
