@<TRIPOS>MOLECULE
Untitled Document
41 43 1 0 0 
SMALL
USER_CHARGES


@<TRIPOS>ATOM
  1 F       -3.5290     6.3090    -1.4950 F     1 <1>  -0.1900 
  2 C       -2.4170     5.8530    -0.9640 C.ar  1 <1>   0.1900 
  3 C       -2.4430     4.6300    -0.2780 C.ar  1 <1>   0.1000 
  4 C       -1.2770     6.5990    -1.1080 C.ar  1 <1>  -0.1500 
  5 N       -3.5900     3.8450    -0.1200 N.pl3 1 <1>  -0.8380 
  6 C       -1.2460     4.2000     0.2630 C.ar  1 <1>  -0.1500 
  7 C       -0.0650     6.1540    -0.5610 C.ar  1 <1>   0.0860 
  8 C       -4.6470     4.4110     0.7720 C.3   1 <1>   0.2090 
  9 C       -4.1090     3.1970    -1.3630 C.3   1 <1>   0.2090 
 10 C       -0.0570     4.9300     0.1440 C.ar  1 <1>   0.1000 
 11 C        1.1480     6.9130    -0.7150 C.2   1 <1>   0.4690 
 12 C       -5.7240     3.3530     1.0910 C.3   1 <1>   0.3430 
 13 C       -5.1890     2.1480    -1.0280 C.3   1 <1>   0.3430 
 14 N        1.1560     4.4850     0.7020 N.pl3 1 <1>  -0.5690 
 15 O        1.1410     7.9120    -1.4260 O.2   1 <1>  -0.5700 
 16 C        2.3200     6.4440    -0.0690 C.2   1 <1>  -0.2360 
 17 N       -6.2800     2.7110    -0.1540 N.4   1 <1>  -0.9060 
 18 C        2.2880     5.2510     0.5880 C.2   1 <1>  -0.0500 
 19 C        1.2850     3.2030     1.4420 C.3   1 <1>   0.2090 
 20 C        3.5160     7.2260    -0.1210 C.2   1 <1>   1.0500 
 21 C        1.4560     2.0540     0.4500 C.3   1 <1>  -0.2400 
 22 O        3.6080     8.3040     0.4930 O.co2 1 <1>  -0.9000 
 23 O        4.5350     6.7570    -0.6620 O.co2 1 <1>  -0.9000 
 24 H       -1.3030     7.5310    -1.6450 H     1 <1>   0.1500 
 25 H       -1.2570     3.2670     0.7860 H     1 <1>   0.1500 
 26 H       -5.1030     5.2650     0.3020 H     1 <1>   0.0800 
 27 H       -4.1920     4.7450     1.6900 H     1 <1>   0.0800 
 28 H       -3.2930     2.7170    -1.8780 H     1 <1>   0.0800 
 29 H       -4.5180     3.9450    -2.0210 H     1 <1>   0.0800 
 30 H       -6.5170     3.8140     1.6550 H     1 <1>   0.0800 
 31 H       -5.2730     2.5970     1.7130 H     1 <1>   0.0800 
 32 H       -4.7090     1.3280    -0.5200 H     1 <1>   0.0800 
 33 H       -5.6090     1.7680    -1.9450 H     1 <1>   0.0800 
 34 H       -6.8000     3.4190    -0.6870 H     1 <1>   0.4500 
 35 H       -6.9430     1.9690     0.1010 H     1 <1>   0.4500 
 36 H        3.1990     4.8890     1.0410 H     1 <1>   0.1500 
 37 H        0.4280     3.0490     2.0720 H     1 <1>   0.0800 
 38 H        2.1480     3.2480     2.0850 H     1 <1>   0.0800 
 39 H        0.6010     1.9810    -0.1970 H     1 <1>   0.0800 
 40 H        1.5700     1.1270     0.9810 H     1 <1>   0.0800 
 41 H        2.3350     2.2190    -0.1480 H     1 <1>   0.0800 
@<TRIPOS>BOND
  1   1   2  1   
  2   2   3  ar  
  3   2   4  ar  
  4   3   5  1   
  5   3   6  ar  
  6   4   7  ar  
  7   4  24  1   
  8   5   8  1   
  9   5   9  1   
 10   6  10  ar  
 11   6  25  1   
 12   7  10  ar  
 13   7  11  1   
 14   8  12  1   
 15   8  26  1   
 16   8  27  1   
 17   9  13  1   
 18   9  28  1   
 19   9  29  1   
 20  10  14  1   
 21  11  15  2   
 22  11  16  1   
 23  12  17  1   
 24  12  30  1   
 25  12  31  1   
 26  13  17  1   
 27  13  32  1   
 28  13  33  1   
 29  14  18  1   
 30  14  19  1   
 31  16  18  2   
 32  16  20  1   
 33  17  34  1   
 34  17  35  1   
 35  18  36  1   
 36  19  21  1   
 37  19  37  1   
 38  19  38  1   
 39  20  22  ar  
 40  20  23  ar  
 41  21  39  1   
 42  21  40  1   
 43  21  41  1   
@<TRIPOS>SUBSTRUCTURE
  1 ****  10 GROUP 4 **** **** 0

# MOE 2024.06 (io_trps.svl 2023.06)
