@<TRIPOS>MOLECULE
NONAME
45 48 1 0 0 
SMALL
USER_CHARGES


@<TRIPOS>ATOM
  1 S       -0.7600    -0.0030    -1.2200 S.3   1 <1>  -0.0800 
  2 C       -1.6200    -1.1840    -0.2560 C.ar  1 <1>   0.0400 
  3 C       -1.3630     1.2710    -0.1660 C.2   1 <1>   0.1980 
  4 C       -2.2710    -0.5090     0.7590 C.ar  1 <1>   0.2270 
  5 C       -1.6790    -2.5530    -0.4220 C.ar  1 <1>  -0.1500 
  6 N       -2.1090     0.8720     0.7820 N.2   1 <1>  -0.5650 
  7 C       -0.9410     2.6840    -0.4910 C.3   1 <1>  -0.0600 
  8 C       -3.0170    -1.2550     1.6590 C.ar  1 <1>  -0.1500 
  9 C       -2.4380    -3.3090     0.4700 C.ar  1 <1>   0.0860 
 10 C       -3.0920    -2.6310     1.5130 C.ar  1 <1>  -0.1500 
 11 C       -2.5320    -4.7490     0.3210 C.2   1 <1>   0.5440 
 12 O       -1.5260    -5.3970     0.1020 O.2   1 <1>  -0.5700 
 13 N       -3.7370    -5.4110     0.4010 N.am  1 <1>  -0.6600 
 14 C       -5.0620    -4.7850     0.1600 C.3   1 <1>   0.1400 
 15 C       -3.8310    -6.8880     0.2780 C.3   1 <1>   0.1400 
 16 C       -5.9280    -5.9130    -0.3980 C.3   1 <1>   0.2000 
 17 C       -5.3250    -7.1950     0.1700 C.3   1 <1>  -0.0800 
 18 O       -7.2500    -5.7860    -0.0050 O.3   1 <1>  -0.6800 
 19 C       -5.6380    -8.4390    -0.6740 C.3   1 <1>   0.0210 
 20 C       -4.9420    -9.6620    -0.1100 C.2   1 <1>   0.1080 
 21 N       -5.2130   -10.1470     1.0620 N.2   1 <1>  -0.7070 
 22 C       -3.9470   -10.3840    -0.7610 C.2   1 <1>  -0.1500 
 23 N       -4.3900   -11.2040     1.1910 N.pl3 1 <1>   0.3000 
 24 C       -3.6120   -11.3670     0.1000 C.2   1 <1>  -0.3320 
 25 C       -2.5790   -12.4690    -0.0540 C.3   1 <1>  -0.0600 
 26 H       -1.1470    -3.0330    -1.2250 H     1 <1>   0.1500 
 27 H       -1.3720     3.3640     0.2210 H     1 <1>   0.0800 
 28 H       -1.2770     2.9480    -1.4760 H     1 <1>   0.0800 
 29 H        0.1290     2.7640    -0.4460 H     1 <1>   0.0800 
 30 H       -3.5220    -0.7460     2.4600 H     1 <1>   0.1500 
 31 H       -3.6610    -3.2060     2.2230 H     1 <1>   0.1500 
 32 H       -5.4600    -4.4310     1.0940 H     1 <1>   0.0800 
 33 H       -4.9850    -3.9770    -0.5460 H     1 <1>   0.0800 
 34 H       -3.3070    -7.2020    -0.6100 H     1 <1>   0.0800 
 35 H       -3.3920    -7.3710     1.1350 H     1 <1>   0.0800 
 36 H       -5.8890    -5.9010    -1.4740 H     1 <1>   0.0800 
 37 H       -5.6870    -7.3510     1.1710 H     1 <1>   0.0800 
 38 H       -7.3410    -5.9870     0.9470 H     1 <1>   0.4000 
 39 H       -5.3250    -8.2870    -1.6910 H     1 <1>   0.0800 
 40 H       -6.6990    -8.6160    -0.6740 H     1 <1>   0.0800 
 41 H       -3.5480   -10.1790    -1.7380 H     1 <1>   0.1500 
 42 H       -4.3840   -11.7920     2.0330 H     1 <1>   0.2700 
 43 H       -2.0900   -12.3850    -1.0080 H     1 <1>   0.0800 
 44 H       -3.0520   -13.4330     0.0060 H     1 <1>   0.0800 
 45 H       -1.8360   -12.3920     0.7190 H     1 <1>   0.0800 
@<TRIPOS>BOND
  1   1   2  1   
  2   1   3  1   
  3   2   4  ar  
  4   2   5  ar  
  5   3   6  2   
  6   3   7  1   
  7   4   6  1   
  8   4   8  ar  
  9   5   9  ar  
 10   5  26  1   
 11   7  27  1   
 12   7  28  1   
 13   7  29  1   
 14   8  10  ar  
 15   8  30  1   
 16   9  10  ar  
 17   9  11  1   
 18  10  31  1   
 19  11  12  2   
 20  11  13  am  
 21  13  14  1   
 22  13  15  1   
 23  14  16  1   
 24  14  32  1   
 25  14  33  1   
 26  15  17  1   
 27  15  34  1   
 28  15  35  1   
 29  16  17  1   
 30  16  18  1   
 31  16  36  1   
 32  17  19  1   
 33  17  37  1   
 34  18  38  1   
 35  19  20  1   
 36  19  39  1   
 37  19  40  1   
 38  20  21  2   
 39  20  22  1   
 40  21  23  1   
 41  22  24  2   
 42  22  41  1   
 43  23  24  1   
 44  23  42  1   
 45  24  25  1   
 46  25  43  1   
 47  25  44  1   
 48  25  45  1   
@<TRIPOS>SUBSTRUCTURE
  1 ****  13 GROUP 4 **** **** 0

# MOE 2024.06 (io_trps.svl 2023.06)
