@<TRIPOS>MOLECULE
NONAME
43 45 1 0 0 
SMALL
USER_CHARGES


@<TRIPOS>ATOM
  1 O        0.1450    -0.2770     0.6690 O.2   1 <1>  -0.5700 
  2 C        1.1230    -0.7930     0.1570 C.2   1 <1>   0.7150 
  3 N        2.0970    -0.0210    -0.4090 N.am  1 <1>  -0.4930 
  4 C        1.2910    -2.2290     0.1490 C.2   1 <1>   0.0550 
  5 C        2.2980     1.3810    -0.4050 C.2   1 <1>   0.0630 
  6 O        2.3910    -2.7560    -0.3780 O.3   1 <1>  -0.2800 
  7 C        0.5090    -3.2350     0.5990 C.2   1 <1>   0.0460 
  8 C        3.5630     1.9610    -0.2570 C.2   1 <1>   0.3720 
  9 C        1.4510     2.4260    -0.5390 C.2   1 <1>  -0.3320 
 10 C        2.1890    -4.0450    -0.2060 C.2   1 <1>   0.2980 
 11 N        1.1000    -4.4010     0.3630 N.2   1 <1>  -0.5650 
 12 C       -0.8440    -3.2230     1.2830 C.3   1 <1>  -0.0590 
 13 N        3.5220     3.2560    -0.2650 N.2   1 <1>  -0.7070 
 14 N        4.7550     1.2230    -0.1130 N.pl3 1 <1>  -0.8210 
 15 N        2.2120     3.5450    -0.4320 N.pl3 1 <1>   0.3140 
 16 C       -0.0520     2.4410    -0.7780 C.3   1 <1>  -0.0600 
 17 C        3.2550    -4.9970    -0.6920 C.3   1 <1>  -0.0600 
 18 C        5.4000     1.4830     1.2040 C.3   1 <1>   0.2090 
 19 C        5.7460     1.5310    -1.1800 C.3   1 <1>   0.2090 
 20 C        1.7530     4.9380    -0.4850 C.3   1 <1>   0.0160 
 21 C        6.7460     2.1290     0.9060 C.3   1 <1>  -0.1600 
 22 C        7.0950     1.6310    -0.4860 C.3   1 <1>  -0.1600 
 23 H        2.9680    -0.5220    -0.5960 H     1 <1>   0.3700 
 24 H       -1.2170    -2.2250     1.4080 H     1 <1>   0.0800 
 25 H       -0.7600    -3.6830     2.2510 H     1 <1>   0.0800 
 26 H       -1.5480    -3.7830     0.6950 H     1 <1>   0.0800 
 27 H       -0.3890     1.4740    -1.1050 H     1 <1>   0.0800 
 28 H       -0.3080     3.1540    -1.5400 H     1 <1>   0.0800 
 29 H       -0.5670     2.6920     0.1320 H     1 <1>   0.0800 
 30 H        3.3920    -4.8750    -1.7500 H     1 <1>   0.0800 
 31 H        2.9610    -6.0100    -0.4890 H     1 <1>   0.0800 
 32 H        4.1800    -4.7910    -0.1870 H     1 <1>   0.0800 
 33 H        5.5440     0.5410     1.7040 H     1 <1>   0.0800 
 34 H        4.7950     2.1210     1.8280 H     1 <1>   0.0800 
 35 H        5.5100     2.4690    -1.6560 H     1 <1>   0.0800 
 36 H        5.7470     0.7530    -1.9240 H     1 <1>   0.0800 
 37 H        0.9390     5.0680     0.2020 H     1 <1>   0.0800 
 38 H        1.4340     5.1650    -1.4840 H     1 <1>   0.0800 
 39 H        2.5650     5.5860    -0.2100 H     1 <1>   0.0800 
 40 H        7.4880     1.8710     1.6400 H     1 <1>   0.0800 
 41 H        6.6170     3.1980     0.8900 H     1 <1>   0.0800 
 42 H        7.7640     2.2940    -1.0050 H     1 <1>   0.0800 
 43 H        7.5350     0.6510    -0.4290 H     1 <1>   0.0800 
@<TRIPOS>BOND
  1   1   2  2   
  2   2   3  am  
  3   2   4  1   
  4   3   5  1   
  5   3  23  1   
  6   4   6  1   
  7   4   7  2   
  8   5   8  1   
  9   5   9  2   
 10   6  10  1   
 11   7  11  1   
 12   7  12  1   
 13   8  13  2   
 14   8  14  1   
 15   9  15  1   
 16   9  16  1   
 17  10  11  2   
 18  10  17  1   
 19  12  24  1   
 20  12  25  1   
 21  12  26  1   
 22  13  15  1   
 23  14  18  1   
 24  14  19  1   
 25  15  20  1   
 26  16  27  1   
 27  16  28  1   
 28  16  29  1   
 29  17  30  1   
 30  17  31  1   
 31  17  32  1   
 32  18  21  1   
 33  18  33  1   
 34  18  34  1   
 35  19  22  1   
 36  19  35  1   
 37  19  36  1   
 38  20  37  1   
 39  20  38  1   
 40  20  39  1   
 41  21  22  1   
 42  21  40  1   
 43  21  41  1   
 44  22  42  1   
 45  22  43  1   
@<TRIPOS>SUBSTRUCTURE
  1 ****   3 GROUP 4 **** **** 0

# MOE 2024.06 (io_trps.svl 2023.06)
