@<TRIPOS>MOLECULE
NONAME
34 34 1 0 0 
SMALL
USER_CHARGES


@<TRIPOS>ATOM
  1 O        0.0710     0.0270     0.2770 O.2   1 <1>  -0.5700 
  2 C       -0.0950    -1.0980    -0.1450 C.2   1 <1>   0.7800 
  3 O        0.9300    -1.9040    -0.4160 O.3   1 <1>  -0.4300 
  4 N       -1.3150    -1.6540    -0.3680 N.am  1 <1>  -0.5470 
  5 C        2.3050    -1.6100    -0.2790 C.3   1 <1>   0.2800 
  6 C       -2.6130    -1.1390    -0.2290 C.ar  1 <1>   0.1170 
  7 C        3.0320    -2.8770    -0.7310 C.3   1 <1>  -0.2400 
  8 C        2.6930    -0.4490    -1.2030 C.3   1 <1>  -0.2400 
  9 C        2.6440    -1.3290     1.1890 C.3   1 <1>  -0.2400 
 10 C       -2.8950     0.2210    -0.2880 C.ar  1 <1>  -0.1500 
 11 C       -3.6650    -2.0260    -0.0390 C.ar  1 <1>  -0.1500 
 12 C       -4.1880     0.6990    -0.1540 C.ar  1 <1>   0.0820 
 13 C       -4.9650    -1.5710     0.0890 C.ar  1 <1>  -0.1500 
 14 O       -4.3240     2.0530    -0.2260 O.3   1 <1>  -0.3630 
 15 C       -5.2370    -0.2140     0.0300 C.ar  1 <1>   0.0820 
 16 C       -5.2720     2.7210     0.5760 C.3   1 <1>   0.0400 
 17 O       -6.5320     0.1640     0.1350 O.3   1 <1>  -0.5330 
 18 H       -1.2450    -2.6270    -0.6500 H     1 <1>   0.3700 
 19 H        2.7870    -3.1050    -1.7530 H     1 <1>   0.0800 
 20 H        2.7550    -3.7090    -0.1090 H     1 <1>   0.0800 
 21 H        4.0960    -2.7420    -0.6600 H     1 <1>   0.0800 
 22 H        2.3780    -0.6490    -2.2100 H     1 <1>   0.0800 
 23 H        3.7600    -0.3190    -1.1990 H     1 <1>   0.0800 
 24 H        2.2550     0.4750    -0.8720 H     1 <1>   0.0800 
 25 H        2.2960    -2.1310     1.8150 H     1 <1>   0.0800 
 26 H        2.2050    -0.4060     1.5200 H     1 <1>   0.0800 
 27 H        3.7080    -1.2410     1.3090 H     1 <1>   0.0800 
 28 H       -2.1050     0.9320    -0.4410 H     1 <1>   0.1500 
 29 H       -3.4670    -3.0810     0.0110 H     1 <1>   0.1500 
 30 H       -5.7590    -2.2800     0.2330 H     1 <1>   0.1500 
 31 H       -4.9750     3.7500     0.6570 H     1 <1>   0.0800 
 32 H       -5.2930     2.2640     1.5500 H     1 <1>   0.0800 
 33 H       -6.2340     2.6560     0.1030 H     1 <1>   0.0800 
 34 H       -7.1370    -0.5940     0.1940 H     1 <1>   0.4500 
@<TRIPOS>BOND
  1   1   2  2   
  2   2   3  1   
  3   2   4  am  
  4   3   5  1   
  5   4   6  1   
  6   4  18  1   
  7   5   7  1   
  8   5   8  1   
  9   5   9  1   
 10   6  10  ar  
 11   6  11  ar  
 12   7  19  1   
 13   7  20  1   
 14   7  21  1   
 15   8  22  1   
 16   8  23  1   
 17   8  24  1   
 18   9  25  1   
 19   9  26  1   
 20   9  27  1   
 21  10  12  ar  
 22  10  28  1   
 23  11  13  ar  
 24  11  29  1   
 25  12  14  1   
 26  12  15  ar  
 27  13  15  ar  
 28  13  30  1   
 29  14  16  1   
 30  15  17  1   
 31  16  31  1   
 32  16  32  1   
 33  16  33  1   
 34  17  34  1   
@<TRIPOS>SUBSTRUCTURE
  1 ****   6 GROUP 4 **** **** 0

# MOE 2024.06 (io_trps.svl 2023.06)
