@<TRIPOS>MOLECULE
NONAME
40 44 1 0 0 
SMALL
USER_CHARGES


@<TRIPOS>ATOM
  1 S        0.3930    -0.2850     1.3990 S.3   1 <1>  -0.0800 
  2 C        0.1500    -2.0060     1.0990 C.ar  1 <1>   0.2970 
  3 C       -1.1190     0.1240     0.5850 C.2   1 <1>  -0.1100 
  4 N        1.0060    -2.9330     1.4700 N.ar  1 <1>  -0.5670 
  5 C       -1.0320    -2.2120     0.4320 C.ar  1 <1>   0.0000 
  6 C       -1.7320    -0.9870     0.1390 C.2   1 <1>  -0.1500 
  7 C        0.6130    -4.1440     1.1250 C.ar  1 <1>   0.4700 
  8 C       -1.3310    -3.5460     0.1530 C.ar  1 <1>   0.4100 
  9 N       -0.4940    -4.5120     0.4910 N.ar  1 <1>  -0.6200 
 10 N       -2.5050    -3.9130    -0.4670 N.pl3 1 <1>  -0.8380 
 11 C       -2.5340    -5.0130    -1.4690 C.3   1 <1>   0.2090 
 12 C       -3.8120    -3.6370     0.1790 C.3   1 <1>   0.2090 
 13 C       -3.0400    -6.2950    -0.8110 C.3   1 <1>  -0.1600 
 14 C       -4.3080    -4.9080     0.8640 C.3   1 <1>  -0.1600 
 15 C       -4.3890    -6.0820    -0.1190 C.3   1 <1>   0.4610 
 16 O       -5.3120    -5.7660    -1.1480 O.3   1 <1>  -0.5600 
 17 C       -4.8260    -7.3640     0.5950 C.2   1 <1>  -0.1810 
 18 C       -6.6880    -5.9230    -0.8920 C.3   1 <1>   0.1200 
 19 C       -6.0130    -7.9280     0.3390 C.2   1 <1>  -0.1400 
 20 C       -4.0640    -8.0850     1.5750 C.2   1 <1>  -0.1500 
 21 C       -7.0400    -7.3950    -0.6220 C.3   1 <1>   0.0200 
 22 S       -6.2570    -9.3900     1.2700 S.3   1 <1>  -0.0800 
 23 C       -4.6860    -9.1890     2.0330 C.2   1 <1>  -0.1100 
 24 H       -1.3770     1.1670     0.5260 H     1 <1>   0.1500 
 25 H       -2.6610    -1.0180    -0.4010 H     1 <1>   0.1500 
 26 H        1.2800    -4.9450     1.3950 H     1 <1>   0.1500 
 27 H       -1.5460    -5.1710    -1.8690 H     1 <1>   0.0800 
 28 H       -3.1840    -4.7340    -2.2810 H     1 <1>   0.0800 
 29 H       -4.5180    -3.3160    -0.5690 H     1 <1>   0.0800 
 30 H       -3.7090    -2.8530     0.9090 H     1 <1>   0.0800 
 31 H       -2.3090    -6.6130    -0.0920 H     1 <1>   0.0800 
 32 H       -3.1340    -7.0730    -1.5450 H     1 <1>   0.0800 
 33 H       -5.2640    -4.7370     1.3200 H     1 <1>   0.0800 
 34 H       -3.6200    -5.1560     1.6500 H     1 <1>   0.0800 
 35 H       -7.2270    -5.5640    -1.7510 H     1 <1>   0.0800 
 36 H       -6.9490    -5.3150    -0.0440 H     1 <1>   0.0800 
 37 H       -3.0930    -7.7440     1.8880 H     1 <1>   0.1500 
 38 H       -7.0150    -7.9590    -1.5370 H     1 <1>   0.0800 
 39 H       -8.0250    -7.4640    -0.1970 H     1 <1>   0.0800 
 40 H       -4.3910    -9.9300     2.7540 H     1 <1>   0.1500 
@<TRIPOS>BOND
  1   1   2  1   
  2   1   3  1   
  3   2   4  ar  
  4   2   5  ar  
  5   3   6  2   
  6   3  24  1   
  7   4   7  ar  
  8   5   6  1   
  9   5   8  ar  
 10   6  25  1   
 11   7   9  ar  
 12   7  26  1   
 13   8   9  ar  
 14   8  10  1   
 15  10  11  1   
 16  10  12  1   
 17  11  13  1   
 18  11  27  1   
 19  11  28  1   
 20  12  14  1   
 21  12  29  1   
 22  12  30  1   
 23  13  15  1   
 24  13  31  1   
 25  13  32  1   
 26  14  15  1   
 27  14  33  1   
 28  14  34  1   
 29  15  16  1   
 30  15  17  1   
 31  16  18  1   
 32  17  19  2   
 33  17  20  1   
 34  18  21  1   
 35  18  35  1   
 36  18  36  1   
 37  19  21  1   
 38  19  22  1   
 39  20  23  2   
 40  20  37  1   
 41  21  38  1   
 42  21  39  1   
 43  22  23  1   
 44  23  40  1   
@<TRIPOS>SUBSTRUCTURE
  1 ****  10 GROUP 4 **** **** 0

# MOE 2024.06 (io_trps.svl 2023.06)
