@<TRIPOS>MOLECULE
NONAME
48 49 1 0 0 
SMALL
USER_CHARGES


@<TRIPOS>ATOM
  1 S       -0.4320     0.3850    -0.5200 S.o2  1 <1>   1.5760 
  2 O       -0.6070     1.8180    -0.5790 O.2   1 <1>  -0.6500 
  3 O       -0.5530    -0.4140    -1.7180 O.2   1 <1>  -0.6500 
  4 N       -1.4720    -0.2410     0.6550 N.am  1 <1>  -0.8490 
  5 N        1.0610     0.0670     0.2060 N.am  1 <1>  -0.8490 
  6 C       -1.4170    -1.7150     0.7740 C.3   1 <1>   0.1960 
  7 C       -2.8660     0.1980     0.4800 C.3   1 <1>   0.1960 
  8 C        2.1500     0.2600    -0.7520 C.3   1 <1>   0.1960 
  9 C        1.2550     0.8790     1.4160 C.3   1 <1>   0.1160 
 10 C       -2.2580    -2.4810    -0.2790 C.3   1 <1>   0.3440 
 11 C       -3.6120    -0.5890    -0.6280 C.3   1 <1>   0.2000 
 12 C        3.4460    -0.3670    -0.2420 C.3   1 <1>  -0.2400 
 13 O       -3.5580    -1.9580    -0.3380 O.3   1 <1>  -0.5600 
 14 C       -2.3260    -3.9630     0.0800 C.ar  1 <1>  -0.1430 
 15 C       -5.0980    -0.1960    -0.7970 C.3   1 <1>  -0.0800 
 16 C       -3.2720    -4.4480     0.9720 C.ar  1 <1>  -0.1500 
 17 C       -1.4160    -4.8460    -0.4830 C.ar  1 <1>  -0.1500 
 18 C       -5.2560     1.2590    -1.2640 C.3   1 <1>  -0.2400 
 19 C       -5.9490    -0.4300     0.4640 C.3   1 <1>  -0.2400 
 20 C       -3.3060    -5.7930     1.2990 C.ar  1 <1>  -0.1500 
 21 C       -1.4490    -6.1910    -0.1580 C.ar  1 <1>  -0.1500 
 22 C       -2.3940    -6.6660     0.7350 C.ar  1 <1>  -0.1500 
 23 H       -0.3960    -2.0520     0.7230 H     1 <1>   0.0800 
 24 H       -1.7860    -1.9880     1.7470 H     1 <1>   0.0800 
 25 H       -3.3840     0.0540     1.4110 H     1 <1>   0.0800 
 26 H       -2.8900     1.2510     0.2630 H     1 <1>   0.0800 
 27 H        1.8990    -0.2260    -1.6810 H     1 <1>   0.0800 
 28 H        2.2880     1.3100    -0.9560 H     1 <1>   0.0800 
 29 H        2.1420     0.5730     1.9410 H     1 <1>   0.0800 
 30 H        0.4220     0.7530     2.0870 H     1 <1>   0.0800 
 31 H        1.3340     1.9230     1.1630 H     1 <1>   0.0800 
 32 H       -1.8230    -2.3860    -1.2570 H     1 <1>   0.0800 
 33 H       -3.1210    -0.4340    -1.5730 H     1 <1>   0.0800 
 34 H        3.2740    -1.3900     0.0430 H     1 <1>   0.0800 
 35 H        3.8440     0.1800     0.5920 H     1 <1>   0.0800 
 36 H        4.1810    -0.3530    -1.0260 H     1 <1>   0.0800 
 37 H       -5.4920    -0.8240    -1.5790 H     1 <1>   0.0800 
 38 H       -3.9890    -3.7760     1.4120 H     1 <1>   0.1500 
 39 H       -0.6760    -4.4910    -1.1800 H     1 <1>   0.1500 
 40 H       -4.9490     1.9510    -0.5000 H     1 <1>   0.0800 
 41 H       -6.2850     1.4590    -1.5040 H     1 <1>   0.0800 
 42 H       -4.6660     1.4350    -2.1470 H     1 <1>   0.0800 
 43 H       -5.6520     0.2230     1.2650 H     1 <1>   0.0800 
 44 H       -5.8530    -1.4490     0.7950 H     1 <1>   0.0800 
 45 H       -6.9870    -0.2470     0.2470 H     1 <1>   0.0800 
 46 H       -4.0450    -6.1580     1.9910 H     1 <1>   0.1500 
 47 H       -0.7390    -6.8690    -0.6000 H     1 <1>   0.1500 
 48 H       -2.4200    -7.7110     0.9880 H     1 <1>   0.1500 
@<TRIPOS>BOND
  1   1   2  2   
  2   1   3  2   
  3   1   4  am  
  4   1   5  am  
  5   4   6  1   
  6   4   7  1   
  7   5   8  1   
  8   5   9  1   
  9   6  10  1   
 10   6  23  1   
 11   6  24  1   
 12   7  11  1   
 13   7  25  1   
 14   7  26  1   
 15   8  12  1   
 16   8  27  1   
 17   8  28  1   
 18   9  29  1   
 19   9  30  1   
 20   9  31  1   
 21  10  13  1   
 22  10  14  1   
 23  10  32  1   
 24  11  13  1   
 25  11  15  1   
 26  11  33  1   
 27  12  34  1   
 28  12  35  1   
 29  12  36  1   
 30  14  16  ar  
 31  14  17  ar  
 32  15  18  1   
 33  15  19  1   
 34  15  37  1   
 35  16  20  ar  
 36  16  38  1   
 37  17  21  ar  
 38  17  39  1   
 39  18  40  1   
 40  18  41  1   
 41  18  42  1   
 42  19  43  1   
 43  19  44  1   
 44  19  45  1   
 45  20  22  ar  
 46  20  46  1   
 47  21  22  ar  
 48  21  47  1   
 49  22  48  1   
@<TRIPOS>SUBSTRUCTURE
  1 ****   6 GROUP 4 **** **** 0

# MOE 2024.06 (io_trps.svl 2023.06)
