@<TRIPOS>MOLECULE
NONAME
56 59 1 0 0 
SMALL
USER_CHARGES


@<TRIPOS>ATOM
  1 O       -0.4020     1.1100     1.4990 O.2   1 <1>  -0.5700 
  2 C       -0.3700     2.0430     0.7070 C.2   1 <1>   0.7160 
  3 N       -1.5890     2.5280     0.2540 N.am  1 <1>  -0.6600 
  4 C        0.9300     2.5710     0.2790 C.2   1 <1>   0.2030 
  5 C       -2.8680     2.1110     0.8990 C.3   1 <1>   0.1400 
  6 C       -1.6940     3.4540    -0.9070 C.3   1 <1>   0.1400 
  7 N        1.1890     3.7670    -0.2410 N.2   1 <1>  -0.7070 
  8 C        2.1300     1.8490     0.3820 C.2   1 <1>  -0.1810 
  9 C       -3.8970     3.2430     0.8400 C.3   1 <1>  -0.1600 
 10 C       -3.0700     3.3300    -1.5600 C.3   1 <1>  -0.1600 
 11 N        2.5140     3.7990    -0.4550 N.pl3 1 <1>   0.3000 
 12 C        3.0990     2.6510    -0.0790 C.2   1 <1>  -0.3320 
 13 C        2.4070     0.4430     0.8950 C.3   1 <1>   0.3010 
 14 C       -4.2050     3.7530    -0.5950 C.3   1 <1>   0.2800 
 15 C        4.5520     2.2270    -0.1270 C.3   1 <1>   0.0200 
 16 O        3.6980     0.0410     0.4970 O.3   1 <1>  -0.5600 
 17 O       -4.1510     5.1600    -0.4900 O.3   1 <1>  -0.5600 
 18 C       -5.6320     3.2850    -1.0660 C.3   1 <1>   0.2000 
 19 C        4.7230     0.9680     0.7480 C.3   1 <1>   0.1200 
 20 C       -4.8160     5.9280    -1.4440 C.3   1 <1>   0.1200 
 21 O       -5.6560     3.0090    -2.4440 O.3   1 <1>  -0.6800 
 22 C       -6.7290     4.3420    -0.7350 C.3   1 <1>   0.3000 
 23 C       -6.3320     5.6900    -1.3750 C.3   1 <1>  -0.1600 
 24 N       -6.7930     4.5880     0.7260 N.am  1 <1>  -0.7300 
 25 C       -8.1240     3.9460    -1.2500 C.3   1 <1>  -0.2400 
 26 C       -7.3010     3.9220     1.7890 C.2   1 <1>   0.5690 
 27 O       -7.0640     4.3240     2.8960 O.2   1 <1>  -0.5700 
 28 C       -8.1280     2.6660     1.6570 C.3   1 <1>  -0.1790 
 29 H       -3.2450     1.2380     0.3940 H     1 <1>   0.0800 
 30 H       -2.6900     1.8500     1.9290 H     1 <1>   0.0800 
 31 H       -1.5340     4.4650    -0.5700 H     1 <1>   0.0800 
 32 H       -0.9360     3.2130    -1.6330 H     1 <1>   0.0800 
 33 H       -3.5170     4.0500     1.4420 H     1 <1>   0.0800 
 34 H       -4.7880     2.8910     1.3210 H     1 <1>   0.0800 
 35 H       -3.2020     2.3040    -1.8570 H     1 <1>   0.0800 
 36 H       -3.0890     3.9200    -2.4560 H     1 <1>   0.0800 
 37 H        2.9900     4.6170    -0.8550 H     1 <1>   0.2700 
 38 H        1.7020    -0.2580     0.4830 H     1 <1>   0.0800 
 39 H        2.3510     0.4130     1.9690 H     1 <1>   0.0800 
 40 H        5.1900     3.0090     0.2430 H     1 <1>   0.0800 
 41 H        4.8340     2.0010    -1.1400 H     1 <1>   0.0800 
 42 H       -5.8780     2.3550    -0.5890 H     1 <1>   0.0800 
 43 H        4.6900     1.2260     1.7930 H     1 <1>   0.0800 
 44 H        5.6620     0.4880     0.5370 H     1 <1>   0.0800 
 45 H       -4.5900     6.9620    -1.2460 H     1 <1>   0.0800 
 46 H       -4.4270     5.6790    -2.4160 H     1 <1>   0.0800 
 47 H       -5.3620     3.7910    -2.9470 H     1 <1>   0.4000 
 48 H       -6.8030     6.5010    -0.8470 H     1 <1>   0.0800 
 49 H       -6.6970     5.7400    -2.3840 H     1 <1>   0.0800 
 50 H       -6.1450     5.3320     1.0010 H     1 <1>   0.3700 
 51 H       -8.1570     3.9920    -2.3240 H     1 <1>   0.0800 
 52 H       -8.8740     4.6130    -0.8630 H     1 <1>   0.0800 
 53 H       -8.3640     2.9350    -0.9840 H     1 <1>   0.0800 
 54 H       -7.6390     1.9610     1.0140 H     1 <1>   0.0800 
 55 H       -9.0990     2.9110     1.2730 H     1 <1>   0.0800 
 56 H       -8.2490     2.2160     2.6250 H     1 <1>   0.0800 
@<TRIPOS>BOND
  1   1   2  2   
  2   2   3  am  
  3   2   4  1   
  4   3   5  1   
  5   3   6  1   
  6   4   7  2   
  7   4   8  1   
  8   5   9  1   
  9   5  29  1   
 10   5  30  1   
 11   6  10  1   
 12   6  31  1   
 13   6  32  1   
 14   7  11  1   
 15   8  12  2   
 16   8  13  1   
 17   9  14  1   
 18   9  33  1   
 19   9  34  1   
 20  10  14  1   
 21  10  35  1   
 22  10  36  1   
 23  11  12  1   
 24  11  37  1   
 25  12  15  1   
 26  13  16  1   
 27  13  38  1   
 28  13  39  1   
 29  14  17  1   
 30  14  18  1   
 31  15  19  1   
 32  15  40  1   
 33  15  41  1   
 34  16  19  1   
 35  17  20  1   
 36  18  21  1   
 37  18  22  1   
 38  18  42  1   
 39  19  43  1   
 40  19  44  1   
 41  20  23  1   
 42  20  45  1   
 43  20  46  1   
 44  21  47  1   
 45  22  23  1   
 46  22  24  1   
 47  22  25  1   
 48  23  48  1   
 49  23  49  1   
 50  24  26  am  
 51  24  50  1   
 52  25  51  1   
 53  25  52  1   
 54  25  53  1   
 55  26  27  2   
 56  26  28  1   
 57  28  54  1   
 58  28  55  1   
 59  28  56  1   
@<TRIPOS>SUBSTRUCTURE
  1 ****   3 GROUP 4 **** **** 0

# MOE 2024.06 (io_trps.svl 2023.06)
