@<TRIPOS>MOLECULE
NONAME
52 54 1 0 0 
SMALL
USER_CHARGES


@<TRIPOS>ATOM
  1 O       -2.8980    -0.8640     0.8900 O.3   1 <1>  -0.5320 
  2 C       -2.5310    -2.1510     0.8290 C.ar  1 <1>   0.0820 
  3 C       -2.5740    -2.8480    -0.3480 C.ar  1 <1>  -0.1500 
  4 C       -2.0990    -2.7700     2.0060 C.ar  1 <1>  -0.1500 
  5 C       -2.1890    -4.2020    -0.3980 C.ar  1 <1>   0.0000 
  6 C       -1.7200    -4.0830     1.9840 C.ar  1 <1>  -0.1500 
  7 C       -1.7590    -4.8340     0.7890 C.ar  1 <1>   0.0000 
  8 C       -2.2130    -4.9530    -1.5890 C.ar  1 <1>  -0.1500 
  9 C       -1.3940    -6.1930     0.7400 C.ar  1 <1>  -0.1500 
 10 C       -1.8570    -6.2720    -1.6060 C.ar  1 <1>  -0.1500 
 11 C       -1.4600    -6.9170    -0.4230 C.ar  1 <1>  -0.1430 
 12 C       -1.1150    -8.4000    -0.4530 C.3   1 <1>   0.4860 
 13 N       -2.3270    -9.2320    -0.1720 N.4   1 <1>  -0.9590 
 14 C       -3.4220    -9.0190    -1.1860 C.3   1 <1>   0.3430 
 15 C       -2.8050    -9.1120     1.2490 C.3   1 <1>   0.3430 
 16 C       -4.7260    -9.7020    -0.7310 C.3   1 <1>   0.2000 
 17 C       -4.1270    -8.3400     1.3580 C.3   1 <1>  -0.1600 
 18 O       -4.4090   -11.0440    -0.4850 O.3   1 <1>  -0.6800 
 19 C       -5.2890    -8.9890     0.5420 C.3   1 <1>   0.0000 
 20 C       -6.0420   -10.0230     1.4310 C.3   1 <1>   0.1200 
 21 C       -6.3070    -7.8850     0.1220 C.3   1 <1>  -0.1600 
 22 O       -6.7130    -9.4200     2.4860 O.3   1 <1>  -0.6800 
 23 C       -5.8570    -6.8620    -0.9430 C.3   1 <1>  -0.1600 
 24 C       -6.9500    -5.8150    -1.1750 C.3   1 <1>  -0.2400 
 25 H       -3.1740    -0.4970     0.0320 H     1 <1>   0.4500 
 26 H       -2.9010    -2.3740    -1.2540 H     1 <1>   0.1500 
 27 H       -2.0740    -2.1890     2.9110 H     1 <1>   0.1500 
 28 H       -1.3840    -4.5590     2.8870 H     1 <1>   0.1500 
 29 H       -2.5190    -4.4580    -2.4940 H     1 <1>   0.1500 
 30 H       -1.0640    -6.6430     1.6590 H     1 <1>   0.1500 
 31 H       -1.8780    -6.8150    -2.5360 H     1 <1>   0.1500 
 32 H       -0.3550    -8.6030     0.2830 H     1 <1>   0.0800 
 33 H       -0.7150    -8.6500    -1.4220 H     1 <1>   0.0800 
 34 H       -2.0780   -10.2250    -0.2830 H     1 <1>   0.4500 
 35 H       -3.6120    -7.9670    -1.3020 H     1 <1>   0.0800 
 36 H       -3.1260    -9.4140    -2.1430 H     1 <1>   0.0800 
 37 H       -2.9650   -10.1030     1.6450 H     1 <1>   0.0800 
 38 H       -2.0540    -8.6340     1.8550 H     1 <1>   0.0800 
 39 H       -5.4510    -9.6840    -1.5270 H     1 <1>   0.0800 
 40 H       -4.3940    -8.2630     2.3950 H     1 <1>   0.0800 
 41 H       -3.9440    -7.3330     1.0340 H     1 <1>   0.0800 
 42 H       -5.2200   -11.5980    -0.4790 H     1 <1>   0.4000 
 43 H       -5.3670   -10.7510     1.8500 H     1 <1>   0.0800 
 44 H       -6.7850   -10.5400     0.8490 H     1 <1>   0.0800 
 45 H       -7.2000    -8.3660    -0.2430 H     1 <1>   0.0800 
 46 H       -6.6010    -7.3340     1.0000 H     1 <1>   0.0800 
 47 H       -6.1040    -9.0130     3.1300 H     1 <1>   0.4000 
 48 H       -4.9660    -6.3450    -0.6330 H     1 <1>   0.0800 
 49 H       -5.6640    -7.3490    -1.8820 H     1 <1>   0.0800 
 50 H       -7.1550    -5.2760    -0.2660 H     1 <1>   0.0800 
 51 H       -7.8590    -6.2820    -1.5110 H     1 <1>   0.0800 
 52 H       -6.6340    -5.1090    -1.9220 H     1 <1>   0.0800 
@<TRIPOS>BOND
  1   1   2  1   
  2   1  25  1   
  3   2   3  ar  
  4   2   4  ar  
  5   3   5  ar  
  6   3  26  1   
  7   4   6  ar  
  8   4  27  1   
  9   5   7  ar  
 10   5   8  ar  
 11   6   7  ar  
 12   6  28  1   
 13   7   9  ar  
 14   8  10  ar  
 15   8  29  1   
 16   9  11  ar  
 17   9  30  1   
 18  10  11  ar  
 19  10  31  1   
 20  11  12  1   
 21  12  13  1   
 22  12  32  1   
 23  12  33  1   
 24  13  14  1   
 25  13  15  1   
 26  13  34  1   
 27  14  16  1   
 28  14  35  1   
 29  14  36  1   
 30  15  17  1   
 31  15  37  1   
 32  15  38  1   
 33  16  18  1   
 34  16  19  1   
 35  16  39  1   
 36  17  19  1   
 37  17  40  1   
 38  17  41  1   
 39  18  42  1   
 40  19  20  1   
 41  19  21  1   
 42  20  22  1   
 43  20  43  1   
 44  20  44  1   
 45  21  23  1   
 46  21  45  1   
 47  21  46  1   
 48  22  47  1   
 49  23  24  1   
 50  23  48  1   
 51  23  49  1   
 52  24  50  1   
 53  24  51  1   
 54  24  52  1   
@<TRIPOS>SUBSTRUCTURE
  1 ****  11 GROUP 4 **** **** 0

# MOE 2024.06 (io_trps.svl 2023.06)
