@<TRIPOS>MOLECULE
NONAME
50 52 1 0 0 
SMALL
USER_CHARGES


@<TRIPOS>ATOM
  1 S        0.1240    -0.3350    -0.9560 S.3   1 <1>  -0.0800 
  2 C       -1.1200    -1.4640    -0.5350 C.2   1 <1>   0.4420 
  3 C       -0.7970     0.8760    -0.1320 C.2   1 <1>   0.1980 
  4 N       -2.0680    -0.9170     0.1330 N.2   1 <1>  -0.3380 
  5 N       -0.9560    -2.7650    -0.9660 N.am  1 <1>  -0.4940 
  6 N       -1.8770     0.4170     0.3600 N.2   1 <1>  -0.3380 
  7 C       -0.2350     2.2840    -0.0930 C.3   1 <1>   0.0200 
  8 C       -1.7370    -3.8490    -0.6850 C.2   1 <1>   0.5690 
  9 C       -1.1580     3.2340     0.6680 C.3   1 <1>   0.1200 
 10 O       -2.6520    -3.8320     0.1010 O.2   1 <1>  -0.5700 
 11 C       -1.4430    -5.1750    -1.3780 C.3   1 <1>  -0.0190 
 12 O       -0.5780     4.4980     0.6570 O.3   1 <1>  -0.5600 
 13 C       -2.7840    -5.8730    -1.6790 C.3   1 <1>   0.3430 
 14 C       -0.5070    -6.0540    -0.5080 C.3   1 <1>  -0.1600 
 15 C       -1.3230     5.4620     1.3220 C.3   1 <1>   0.1200 
 16 N       -3.2890    -6.5020    -0.4290 N.4   1 <1>  -0.9590 
 17 C       -0.9870    -7.5140    -0.4290 C.3   1 <1>  -0.1600 
 18 C       -0.5620     6.7780     1.2230 C.3   1 <1>  -0.2400 
 19 C       -2.4430    -7.6390     0.0550 C.3   1 <1>   0.3430 
 20 C       -4.7410    -6.8310    -0.4750 C.3   1 <1>   0.5230 
 21 C       -5.2370    -7.1780     0.9170 C.2   1 <1>  -0.0400 
 22 O       -4.9410    -8.3580     1.4310 O.3   1 <1>  -0.2800 
 23 C       -5.9760    -6.4560     1.7880 C.2   1 <1>  -0.1500 
 24 C       -5.4810    -8.4160     2.6330 C.2   1 <1>  -0.0100 
 25 C       -6.1350    -7.2700     2.9160 C.2   1 <1>  -0.1500 
 26 H       -0.1350    -2.9110    -1.5470 H     1 <1>   0.3700 
 27 H       -0.1160     2.6400    -1.1000 H     1 <1>   0.0800 
 28 H        0.7250     2.2640     0.3880 H     1 <1>   0.0800 
 29 H       -1.2730     2.9110     1.6890 H     1 <1>   0.0800 
 30 H       -2.1220     3.2880     0.1900 H     1 <1>   0.0800 
 31 H       -0.9680    -4.9720    -2.3210 H     1 <1>   0.0800 
 32 H       -2.6440    -6.6300    -2.4350 H     1 <1>   0.0800 
 33 H       -3.4910    -5.1450    -2.0450 H     1 <1>   0.0800 
 34 H       -0.4690    -5.6620     0.4970 H     1 <1>   0.0800 
 35 H        0.4970    -6.0200    -0.8980 H     1 <1>   0.0800 
 36 H       -1.4380     5.1650     2.3510 H     1 <1>   0.0800 
 37 H       -2.2880     5.5440     0.8510 H     1 <1>   0.0800 
 38 H       -3.2150    -5.7480     0.2840 H     1 <1>   0.4500 
 39 H       -0.3520    -8.0730     0.2370 H     1 <1>   0.0800 
 40 H       -0.9020    -7.9750    -1.3980 H     1 <1>   0.0800 
 41 H        0.4040     6.6810     1.6840 H     1 <1>   0.0800 
 42 H       -1.1090     7.5530     1.7280 H     1 <1>   0.0800 
 43 H       -0.4420     7.0570     0.1920 H     1 <1>   0.0800 
 44 H       -2.8490    -8.5770    -0.2880 H     1 <1>   0.0800 
 45 H       -2.4640    -7.6530     1.1340 H     1 <1>   0.0800 
 46 H       -4.9200    -7.6600    -1.1390 H     1 <1>   0.0800 
 47 H       -5.2920    -5.9770    -0.8330 H     1 <1>   0.0800 
 48 H       -6.3800    -5.4620     1.6880 H     1 <1>   0.1500 
 49 H       -5.3550    -9.3090     3.2220 H     1 <1>   0.1500 
 50 H       -6.6750    -7.0060     3.8090 H     1 <1>   0.1500 
@<TRIPOS>BOND
  1   1   2  1   
  2   1   3  1   
  3   2   4  2   
  4   2   5  1   
  5   3   6  2   
  6   3   7  1   
  7   4   6  1   
  8   5   8  am  
  9   5  26  1   
 10   7   9  1   
 11   7  27  1   
 12   7  28  1   
 13   8  10  2   
 14   8  11  1   
 15   9  12  1   
 16   9  29  1   
 17   9  30  1   
 18  11  13  1   
 19  11  14  1   
 20  11  31  1   
 21  12  15  1   
 22  13  16  1   
 23  13  32  1   
 24  13  33  1   
 25  14  17  1   
 26  14  34  1   
 27  14  35  1   
 28  15  18  1   
 29  15  36  1   
 30  15  37  1   
 31  16  19  1   
 32  16  20  1   
 33  16  38  1   
 34  17  19  1   
 35  17  39  1   
 36  17  40  1   
 37  18  41  1   
 38  18  42  1   
 39  18  43  1   
 40  19  44  1   
 41  19  45  1   
 42  20  21  1   
 43  20  46  1   
 44  20  47  1   
 45  21  22  1   
 46  21  23  2   
 47  22  24  1   
 48  23  25  1   
 49  23  48  1   
 50  24  25  2   
 51  24  49  1   
 52  25  50  1   
@<TRIPOS>SUBSTRUCTURE
  1 ****  10 GROUP 4 **** **** 0

# MOE 2024.06 (io_trps.svl 2023.06)
