@<TRIPOS>MOLECULE
NONAME
27 28 1 0 0 
SMALL
USER_CHARGES


@<TRIPOS>ATOM
  1 N        9.2920     3.6380    -1.6820 N.1   1 <1>  -0.5570 
  2 C        9.2040     2.7710    -0.9430 C.1   1 <1>   0.4840 
  3 C        9.1300     1.6880     0.0040 C.ar  1 <1>   0.3830 
  4 N        8.0380     0.9190     0.0030 N.ar  1 <1>  -0.6200 
  5 C       10.1930     1.4870     0.8770 C.ar  1 <1>  -0.1500 
  6 C        8.0080    -0.0650     0.8870 C.ar  1 <1>   0.4100 
  7 C       10.1550     0.4590     1.7970 C.ar  1 <1>  -0.1500 
  8 N        6.8780    -0.8490     0.8750 N.pl3 1 <1>  -0.8380 
  9 C        9.0300    -0.3280     1.7910 C.ar  1 <1>  -0.1500 
 10 C        6.7160    -1.6740    -0.3630 C.3   1 <1>   0.2090 
 11 C        5.6340    -0.1400     1.3080 C.3   1 <1>   0.2090 
 12 C        5.5010    -2.6180    -0.2630 C.3   1 <1>   0.3430 
 13 C        4.4300    -1.1000     1.3900 C.3   1 <1>   0.3430 
 14 N        4.2430    -1.8860     0.1200 N.4   1 <1>  -0.9060 
 15 H       11.0510     2.1360     0.8370 H     1 <1>   0.1500 
 16 H       10.9670     0.2840     2.4840 H     1 <1>   0.1500 
 17 H        8.9240    -1.1490     2.4760 H     1 <1>   0.1500 
 18 H        7.6090    -2.2580    -0.5150 H     1 <1>   0.0800 
 19 H        6.6040    -1.0260    -1.2160 H     1 <1>   0.0800 
 20 H        5.4160     0.6590     0.6180 H     1 <1>   0.0800 
 21 H        5.8010     0.3040     2.2750 H     1 <1>   0.0800 
 22 H        5.7210    -3.3690     0.4780 H     1 <1>   0.0800 
 23 H        5.3640    -3.1180    -1.2080 H     1 <1>   0.0800 
 24 H        3.5400    -0.5320     1.6070 H     1 <1>   0.0800 
 25 H        4.5970    -1.7770     2.2120 H     1 <1>   0.0800 
 26 H        3.4650    -2.5500     0.2260 H     1 <1>   0.4500 
 27 H        3.9960    -1.2360    -0.6370 H     1 <1>   0.4500 
@<TRIPOS>BOND
  1   1   2  3   
  2   2   3  1   
  3   3   4  ar  
  4   3   5  ar  
  5   4   6  ar  
  6   5   7  ar  
  7   5  15  1   
  8   6   8  1   
  9   6   9  ar  
 10   7   9  ar  
 11   7  16  1   
 12   8  10  1   
 13   8  11  1   
 14   9  17  1   
 15  10  12  1   
 16  10  18  1   
 17  10  19  1   
 18  11  13  1   
 19  11  20  1   
 20  11  21  1   
 21  12  14  1   
 22  12  22  1   
 23  12  23  1   
 24  13  14  1   
 25  13  24  1   
 26  13  25  1   
 27  14  26  1   
 28  14  27  1   
@<TRIPOS>SUBSTRUCTURE
  1 ****   6 GROUP 4 **** **** 0

# MOE 2024.06 (io_trps.svl 2023.06)
