@<TRIPOS>MOLECULE
NONAME
45 46 1 0 0 
SMALL
USER_CHARGES


@<TRIPOS>ATOM
  1 O        0.9020    -0.6550     1.8390 O.2   1 <1>  -0.5700 
  2 C        1.6130    -1.1230     0.9850 C.2   1 <1>   0.5690 
  3 N        2.3130    -0.3750     0.0810 N.am  1 <1>  -0.4940 
  4 C        1.7380    -2.6330     0.9070 C.3   1 <1>  -0.0990 
  5 C        2.2870     1.0290    -0.1070 C.2   1 <1>  -0.0880 
  6 C        0.7800    -3.2260    -0.1400 C.3   1 <1>  -0.1600 
  7 N        3.3870     1.8210    -0.2450 N.pl3 1 <1>   0.3140 
  8 C        1.2120     1.8500    -0.2000 C.2   1 <1>  -0.1810 
  9 C        0.8410    -4.7530    -0.1510 C.3   1 <1>   0.1400 
 10 N        3.0370     3.1170    -0.4440 N.2   1 <1>  -0.7070 
 11 C        4.8090     1.3810    -0.1510 C.3   1 <1>   0.1760 
 12 C        1.7420     3.1180    -0.4050 C.2   1 <1>   0.1390 
 13 C       -0.2650     1.5150    -0.1110 C.3   1 <1>  -0.0590 
 14 N       -0.0870    -5.2600    -1.1810 N.am  1 <1>  -0.7300 
 15 C        5.6280     2.1680     0.8710 C.3   1 <1>  -0.1600 
 16 C        5.5810     1.5640    -1.4600 C.3   1 <1>  -0.1600 
 17 C       -1.2810    -5.8740    -1.0280 C.2   1 <1>   0.5690 
 18 C        7.0820     1.9380     0.4550 C.3   1 <1>  -0.1600 
 19 C        7.0560     1.6600    -1.0540 C.3   1 <1>  -0.1600 
 20 O       -1.8990    -6.2320    -1.9950 O.2   1 <1>  -0.5700 
 21 C       -1.8600    -6.1160     0.3450 C.3   1 <1>  -0.1790 
 22 H        2.8990    -0.8950    -0.5680 H     1 <1>   0.3700 
 23 H        1.5050    -3.0360     1.8770 H     1 <1>   0.0800 
 24 H        2.7540    -2.8950     0.6770 H     1 <1>   0.0800 
 25 H        1.0330    -2.8480    -1.1150 H     1 <1>   0.0800 
 26 H       -0.2250    -2.9170     0.0940 H     1 <1>   0.0800 
 27 H        0.5720    -5.1400     0.8170 H     1 <1>   0.0800 
 28 H        1.8380    -5.0880    -0.3820 H     1 <1>   0.0800 
 29 H        4.8370     0.3440     0.1250 H     1 <1>   0.0800 
 30 H        1.1500     4.0110    -0.5220 H     1 <1>   0.1500 
 31 H       -0.4310     0.4820    -0.3570 H     1 <1>   0.0800 
 32 H       -0.8280     2.1260    -0.7920 H     1 <1>   0.0800 
 33 H       -0.6140     1.6890     0.8910 H     1 <1>   0.0800 
 34 H        0.2010    -5.1310    -2.1540 H     1 <1>   0.3700 
 35 H        5.4390     1.8380     1.8770 H     1 <1>   0.0800 
 36 H        5.4030     3.2190     0.7890 H     1 <1>   0.0800 
 37 H        5.2870     2.4930    -1.9220 H     1 <1>   0.0800 
 38 H        5.4060     0.7540    -2.1440 H     1 <1>   0.0800 
 39 H        7.4750     1.0790     0.9720 H     1 <1>   0.0800 
 40 H        7.6930     2.7930     0.6900 H     1 <1>   0.0800 
 41 H        7.5410     2.4530    -1.5980 H     1 <1>   0.0800 
 42 H        7.5670     0.7350    -1.2650 H     1 <1>   0.0800 
 43 H       -1.9380    -5.1870     0.8770 H     1 <1>   0.0800 
 44 H       -1.2330    -6.7970     0.8880 H     1 <1>   0.0800 
 45 H       -2.8410    -6.5460     0.2510 H     1 <1>   0.0800 
@<TRIPOS>BOND
  1   1   2  2   
  2   2   3  am  
  3   2   4  1   
  4   3   5  1   
  5   3  22  1   
  6   4   6  1   
  7   4  23  1   
  8   4  24  1   
  9   5   7  1   
 10   5   8  2   
 11   6   9  1   
 12   6  25  1   
 13   6  26  1   
 14   7  10  1   
 15   7  11  1   
 16   8  12  1   
 17   8  13  1   
 18   9  14  1   
 19   9  27  1   
 20   9  28  1   
 21  10  12  2   
 22  11  15  1   
 23  11  16  1   
 24  11  29  1   
 25  12  30  1   
 26  13  31  1   
 27  13  32  1   
 28  13  33  1   
 29  14  17  am  
 30  14  34  1   
 31  15  18  1   
 32  15  35  1   
 33  15  36  1   
 34  16  19  1   
 35  16  37  1   
 36  16  38  1   
 37  17  20  2   
 38  17  21  1   
 39  18  19  1   
 40  18  39  1   
 41  18  40  1   
 42  19  41  1   
 43  19  42  1   
 44  21  43  1   
 45  21  44  1   
 46  21  45  1   
@<TRIPOS>SUBSTRUCTURE
  1 ****   3 GROUP 4 **** **** 0

# MOE 2024.06 (io_trps.svl 2023.06)
