@<TRIPOS>MOLECULE
NONAME
38 40 1 0 0 
SMALL
USER_CHARGES


@<TRIPOS>ATOM
  1 O       -1.5620     0.7380    -1.3040 O.2   1 <1>  -0.5700 
  2 C       -1.7020     0.7840    -0.0950 C.2   1 <1>   0.7160 
  3 N       -2.0620    -0.3570     0.5580 N.am  1 <1>  -0.7300 
  4 C       -1.5100     2.0070     0.6660 C.2   1 <1>   0.1410 
  5 C       -2.3420    -1.6730    -0.0560 C.3   1 <1>   0.2200 
  6 N       -1.7270     2.0740     2.0190 N.2   1 <1>  -0.5650 
  7 C       -1.1140     3.2400     0.2610 C.2   1 <1>  -0.0400 
  8 C       -3.8400    -1.9190    -0.0410 C.3   1 <1>  -0.0800 
  9 C       -1.8240    -2.7900     0.8480 C.3   1 <1>   0.1200 
 10 C       -1.4570     3.2920     2.3110 C.2   1 <1>   0.3280 
 11 O       -1.0860     4.0270     1.2940 O.3   1 <1>  -0.2800 
 12 C       -0.7260     3.8170    -1.0880 C.3   1 <1>  -0.0600 
 13 C       -4.0490    -2.4720     1.3700 C.3   1 <1>   0.1200 
 14 C       -4.2600    -2.9250    -1.1300 C.3   1 <1>  -0.0160 
 15 O       -2.8620    -3.1150     1.7270 O.3   1 <1>  -0.5600 
 16 C       -5.7640    -3.1500    -1.1260 C.ar  1 <1>  -0.1440 
 17 C       -6.3320    -4.3000    -0.6160 C.ar  1 <1>  -0.1500 
 18 C       -6.6390    -2.2110    -1.6320 C.ar  1 <1>  -0.1500 
 19 C       -7.7090    -4.4490    -0.6330 C.ar  1 <1>   0.1600 
 20 C       -8.0020    -2.4580    -1.6010 C.ar  1 <1>   0.1600 
 21 N       -8.5580    -3.5540    -1.1120 N.ar  1 <1>  -0.6200 
 22 H       -2.1900    -0.2870     1.5710 H     1 <1>   0.3700 
 23 H       -1.9140    -1.7230    -1.0430 H     1 <1>   0.0800 
 24 H       -4.3880    -1.0040    -0.1840 H     1 <1>   0.0800 
 25 H       -0.9540    -2.4970     1.4100 H     1 <1>   0.0800 
 26 H       -1.6030    -3.6710     0.2710 H     1 <1>   0.0800 
 27 H       -1.5060     3.7470     3.2850 H     1 <1>   0.1500 
 28 H       -0.7770     3.0720    -1.8600 H     1 <1>   0.0800 
 29 H        0.2780     4.1970    -1.0430 H     1 <1>   0.0800 
 30 H       -1.3910     4.6220    -1.3420 H     1 <1>   0.0800 
 31 H       -4.8650    -3.1690     1.4410 H     1 <1>   0.0800 
 32 H       -4.2050    -1.6690     2.0700 H     1 <1>   0.0800 
 33 H       -3.7540    -3.8640    -0.9850 H     1 <1>   0.0800 
 34 H       -3.9720    -2.5460    -2.0950 H     1 <1>   0.0800 
 35 H       -5.7190    -5.0810    -0.2040 H     1 <1>   0.1500 
 36 H       -6.2750    -1.2900    -2.0510 H     1 <1>   0.1500 
 37 H       -8.1350    -5.3520    -0.2300 H     1 <1>   0.1500 
 38 H       -8.6690    -1.7130    -2.0000 H     1 <1>   0.1500 
@<TRIPOS>BOND
  1   1   2  2   
  2   2   3  am  
  3   2   4  1   
  4   3   5  1   
  5   3  22  1   
  6   4   6  1   
  7   4   7  2   
  8   5   8  1   
  9   5   9  1   
 10   5  23  1   
 11   6  10  2   
 12   7  11  1   
 13   7  12  1   
 14   8  13  1   
 15   8  14  1   
 16   8  24  1   
 17   9  15  1   
 18   9  25  1   
 19   9  26  1   
 20  10  11  1   
 21  10  27  1   
 22  12  28  1   
 23  12  29  1   
 24  12  30  1   
 25  13  15  1   
 26  13  31  1   
 27  13  32  1   
 28  14  16  1   
 29  14  33  1   
 30  14  34  1   
 31  16  17  ar  
 32  16  18  ar  
 33  17  19  ar  
 34  17  35  1   
 35  18  20  ar  
 36  18  36  1   
 37  19  21  ar  
 38  19  37  1   
 39  20  21  ar  
 40  20  38  1   
@<TRIPOS>SUBSTRUCTURE
  1 ****   8 GROUP 4 **** **** 0

# MOE 2024.06 (io_trps.svl 2023.06)
