@<TRIPOS>MOLECULE
NONAME
51 53 1 0 0 
SMALL
USER_CHARGES


@<TRIPOS>ATOM
  1 S        0.4770     0.5960    -1.4250 S.o2  1 <1>   1.3330 
  2 O        0.7760    -0.5840    -2.2040 O.2   1 <1>  -0.6500 
  3 O       -0.4150     1.6030    -1.9520 O.2   1 <1>  -0.6500 
  4 N       -0.1500     0.0940     0.0740 N.am  1 <1>  -0.8490 
  5 C        2.0340     1.3700    -0.9890 C.3   1 <1>  -0.0550 
  6 C       -0.9720    -1.1150    -0.0450 C.3   1 <1>   0.1160 
  7 C       -0.9090     1.1410     0.7670 C.3   1 <1>   0.1160 
  8 C        3.0900     0.3970    -0.4200 C.3   1 <1>  -0.0800 
  9 C        4.4900     0.9790    -0.2820 C.3   1 <1>   0.2200 
 10 C        2.7990    -0.1320     0.9920 C.3   1 <1>   0.1200 
 11 N        4.4390     2.3550     0.2720 N.am  1 <1>  -0.7300 
 12 C        5.0630     0.0580     0.7850 C.3   1 <1>   0.1200 
 13 O        4.0140    -0.1040     1.6860 O.3   1 <1>  -0.5600 
 14 C        4.5430     3.4920    -0.4570 C.2   1 <1>   0.5690 
 15 O        4.6400     3.4610    -1.6580 O.2   1 <1>  -0.5700 
 16 C        4.5380     4.8380     0.2380 C.3   1 <1>   0.0690 
 17 C        5.7230     5.7000    -0.1770 C.2   1 <1>   0.1820 
 18 N        5.9690     6.9360     0.3970 N.pl3 1 <1>  -0.6290 
 19 C        6.6850     5.4740    -1.0980 C.2   1 <1>   0.2000 
 20 C        7.0850     7.4360    -0.1920 C.cat 1 <1>   0.7910 
 21 C        5.3180     7.6700     1.3670 C.2   1 <1>   0.2290 
 22 N        7.5270     6.5510    -1.0990 N.pl3 1 <1>  -0.7000 
 23 C        7.6050     8.6980     0.1710 C.2   1 <1>  -0.1290 
 24 C        5.7980     8.8920     1.7370 C.2   1 <1>  -0.1500 
 25 C        6.9580     9.4220     1.1380 C.2   1 <1>  -0.1500 
 26 C        8.8620     9.2420    -0.5000 C.3   1 <1>  -0.1020 
 27 H        2.4390     1.8160    -1.8780 H     1 <1>   0.0800 
 28 H        1.8520     2.1600    -0.2890 H     1 <1>   0.0800 
 29 H       -1.3450    -1.4100     0.9200 H     1 <1>   0.0800 
 30 H       -0.3820    -1.9260    -0.4390 H     1 <1>   0.0800 
 31 H       -1.8030    -0.9390    -0.7090 H     1 <1>   0.0800 
 32 H       -1.2000     0.8000     1.7460 H     1 <1>   0.0800 
 33 H       -1.7960     1.3960     0.2080 H     1 <1>   0.0800 
 34 H       -0.3070     2.0250     0.8790 H     1 <1>   0.0800 
 35 H        3.1540    -0.4540    -1.0770 H     1 <1>   0.0800 
 36 H        5.0510     0.9490    -1.2030 H     1 <1>   0.0800 
 37 H        2.4320    -1.1440     0.9690 H     1 <1>   0.0800 
 38 H        2.1050     0.4930     1.5270 H     1 <1>   0.0800 
 39 H        4.2920     2.3560     1.2870 H     1 <1>   0.3700 
 40 H        5.9180     0.4730     1.2880 H     1 <1>   0.0800 
 41 H        5.3060    -0.9080     0.3760 H     1 <1>   0.0800 
 42 H        3.6250     5.3450    -0.0150 H     1 <1>   0.0800 
 43 H        4.5630     4.6900     1.3010 H     1 <1>   0.0800 
 44 H        6.8240     4.6240    -1.7500 H     1 <1>   0.1500 
 45 H        4.4300     7.2570     1.8170 H     1 <1>   0.1500 
 46 H        8.3480     6.6840    -1.6930 H     1 <1>   0.4500 
 47 H        5.2990     9.4740     2.4940 H     1 <1>   0.1500 
 48 H        7.3090    10.3910     1.4560 H     1 <1>   0.1500 
 49 H        9.6950     8.5820    -0.3270 H     1 <1>   0.0800 
 50 H        9.1170    10.2110    -0.1070 H     1 <1>   0.0800 
 51 H        8.7070     9.3420    -1.5600 H     1 <1>   0.0800 
@<TRIPOS>BOND
  1   1   2  2   
  2   1   3  2   
  3   1   4  am  
  4   1   5  1   
  5   4   6  1   
  6   4   7  1   
  7   5   8  1   
  8   5  27  1   
  9   5  28  1   
 10   6  29  1   
 11   6  30  1   
 12   6  31  1   
 13   7  32  1   
 14   7  33  1   
 15   7  34  1   
 16   8   9  1   
 17   8  10  1   
 18   8  35  1   
 19   9  11  1   
 20   9  12  1   
 21   9  36  1   
 22  10  13  1   
 23  10  37  1   
 24  10  38  1   
 25  11  14  am  
 26  11  39  1   
 27  12  13  1   
 28  12  40  1   
 29  12  41  1   
 30  14  15  2   
 31  14  16  1   
 32  16  17  1   
 33  16  42  1   
 34  16  43  1   
 35  17  18  1   
 36  17  19  2   
 37  18  20  ar  
 38  18  21  1   
 39  19  22  1   
 40  19  44  1   
 41  20  22  ar  
 42  20  23  1   
 43  21  24  2   
 44  21  45  1   
 45  22  46  1   
 46  23  25  2   
 47  23  26  1   
 48  24  25  1   
 49  24  47  1   
 50  25  48  1   
 51  26  49  1   
 52  26  50  1   
 53  26  51  1   
@<TRIPOS>SUBSTRUCTURE
  1 ****  14 GROUP 4 **** **** 0

# MOE 2024.06 (io_trps.svl 2023.06)
