@<TRIPOS>MOLECULE
NONAME
49 52 1 0 0 
SMALL
USER_CHARGES


@<TRIPOS>ATOM
  1 O        2.2000    -0.6660     2.6700 O.2   1 <1>  -0.5700 
  2 C        2.1730    -0.9840     1.4970 C.2   1 <1>   0.6160 
  3 N        2.4520    -0.0210     0.5400 N.am  1 <1>  -0.6600 
  4 C        1.9020    -2.3590     1.1500 C.2   1 <1>  -0.0140 
  5 C        2.8400     1.3560     0.9890 C.3   1 <1>   0.1400 
  6 C        2.7270    -0.3890    -0.8860 C.3   1 <1>   0.1400 
  7 C        0.6530    -2.7230     0.5190 C.ar  1 <1>   0.0280 
  8 C        2.8270    -3.3320     1.3920 C.2   1 <1>  -0.1360 
  9 C        4.3750     1.5930     1.0310 C.3   1 <1>   0.4230 
 10 C        4.1500    -0.0370    -1.3740 C.3   1 <1>  -0.0800 
 11 C        0.4600    -4.0620     0.1330 C.ar  1 <1>   0.1170 
 12 C       -0.3810    -1.8140     0.2690 C.ar  1 <1>  -0.1500 
 13 C        2.6190    -4.6830     1.0180 C.2   1 <1>   0.6160 
 14 N        4.9380     2.1060    -0.2730 N.4   1 <1>  -0.9590 
 15 C        5.2090     0.3780     1.5230 C.3   1 <1>   0.1200 
 16 C        5.3060    -0.7530    -0.6400 C.3   1 <1>   0.1200 
 17 C        4.3460     1.4770    -1.4920 C.3   1 <1>   0.3430 
 18 N        1.4550    -4.9940     0.3930 N.am  1 <1>  -0.5470 
 19 C       -0.7190    -4.4440    -0.4990 C.ar  1 <1>  -0.1500 
 20 C       -1.5490    -2.2000    -0.3560 C.ar  1 <1>  -0.1430 
 21 O        3.4340    -5.5650     1.2090 O.2   1 <1>  -0.5700 
 22 C        4.8600     3.5980    -0.3590 C.3   1 <1>   0.2630 
 23 O        5.1280    -0.7890     0.7410 O.3   1 <1>  -0.5600 
 24 C       -1.7140    -3.5230    -0.7440 C.ar  1 <1>  -0.1500 
 25 C       -2.6630    -1.2030    -0.6210 C.3   1 <1>  -0.0970 
 26 H        2.3640     2.0870     0.3610 H     1 <1>   0.0800 
 27 H        2.4590     1.5270     1.9810 H     1 <1>   0.0800 
 28 H        2.5840    -1.4450    -1.0330 H     1 <1>   0.0800 
 29 H        1.9990     0.1070    -1.5070 H     1 <1>   0.0800 
 30 H        3.7630    -3.1130     1.8710 H     1 <1>   0.1500 
 31 H        4.5320     2.3670     1.7640 H     1 <1>   0.0800 
 32 H        4.1890    -0.3930    -2.3880 H     1 <1>   0.0800 
 33 H       -0.2700    -0.7890     0.5760 H     1 <1>   0.1500 
 34 H        5.9320     1.8380    -0.2590 H     1 <1>   0.4500 
 35 H        4.8660     0.1040     2.5060 H     1 <1>   0.0800 
 36 H        6.2470     0.6460     1.6070 H     1 <1>   0.0800 
 37 H        6.2650    -0.3150    -0.8580 H     1 <1>   0.0800 
 38 H        5.3360    -1.7820    -0.9600 H     1 <1>   0.0800 
 39 H        3.3920     1.9310    -1.7090 H     1 <1>   0.0800 
 40 H        4.9950     1.6750    -2.3300 H     1 <1>   0.0800 
 41 H        1.3400    -5.9780     0.1520 H     1 <1>   0.3700 
 42 H       -0.8550    -5.4690    -0.7950 H     1 <1>   0.1500 
 43 H        3.8310     3.9220    -0.3690 H     1 <1>   0.0800 
 44 H        5.3380     3.9470    -1.2610 H     1 <1>   0.0800 
 45 H        5.3550     4.0500     0.4850 H     1 <1>   0.0800 
 46 H       -2.6230    -3.8300    -1.2330 H     1 <1>   0.1500 
 47 H       -3.5880    -1.5690    -0.2120 H     1 <1>   0.0800 
 48 H       -2.7850    -1.0640    -1.6810 H     1 <1>   0.0800 
 49 H       -2.4470    -0.2520    -0.1710 H     1 <1>   0.0800 
@<TRIPOS>BOND
  1   1   2  2   
  2   2   3  am  
  3   2   4  1   
  4   3   5  1   
  5   3   6  1   
  6   4   7  1   
  7   4   8  2   
  8   5   9  1   
  9   5  26  1   
 10   5  27  1   
 11   6  10  1   
 12   6  28  1   
 13   6  29  1   
 14   7  11  ar  
 15   7  12  ar  
 16   8  13  1   
 17   8  30  1   
 18   9  14  1   
 19   9  15  1   
 20   9  31  1   
 21  10  16  1   
 22  10  17  1   
 23  10  32  1   
 24  11  18  1   
 25  11  19  ar  
 26  12  20  ar  
 27  12  33  1   
 28  13  18  am  
 29  13  21  2   
 30  14  17  1   
 31  14  22  1   
 32  14  34  1   
 33  15  23  1   
 34  15  35  1   
 35  15  36  1   
 36  16  23  1   
 37  16  37  1   
 38  16  38  1   
 39  17  39  1   
 40  17  40  1   
 41  18  41  1   
 42  19  24  ar  
 43  19  42  1   
 44  20  24  ar  
 45  20  25  1   
 46  22  43  1   
 47  22  44  1   
 48  22  45  1   
 49  24  46  1   
 50  25  47  1   
 51  25  48  1   
 52  25  49  1   
@<TRIPOS>SUBSTRUCTURE
  1 ****   2 GROUP 4 **** **** 0

# MOE 2024.06 (io_trps.svl 2023.06)
