@<TRIPOS>MOLECULE
NONAME
42 42 1 0 0 
SMALL
USER_CHARGES


@<TRIPOS>ATOM
  1 O        1.0420     0.0490     2.1370 O.co2 1 <1>  -0.9000 
  2 C        1.5740    -0.2430     1.0590 C.2   1 <1>   0.9060 
  3 O        1.0610    -1.0310     0.2570 O.co2 1 <1>  -0.9000 
  4 C        2.9300     0.3520     0.7330 C.3   1 <1>  -0.1220 
  5 C        2.8820     1.7890     0.2130 C.ar  1 <1>  -0.1440 
  6 C        3.4850     2.1300    -0.9860 C.ar  1 <1>  -0.1500 
  7 C        2.2280     2.7660     0.9440 C.ar  1 <1>  -0.1500 
  8 C        3.4450     3.4350    -1.4440 C.ar  1 <1>  -0.1500 
  9 C        2.1820     4.0700     0.4900 C.ar  1 <1>  -0.1500 
 10 C        2.8000     4.4150    -0.7030 C.ar  1 <1>  -0.1440 
 11 C        2.7740     5.8500    -1.1780 C.3   1 <1>   0.4870 
 12 N        3.6780     6.6630    -0.3030 N.4   1 <1>  -0.9590 
 13 C        3.5320     8.1450    -0.4640 C.3   1 <1>   0.4230 
 14 C        5.0830     6.1840    -0.4660 C.3   1 <1>   0.3430 
 15 C        4.3630     8.8800     0.6050 C.3   1 <1>  -0.1600 
 16 C        2.0530     8.5410    -0.3530 C.3   1 <1>  -0.2400 
 17 C        5.5590     5.6020     0.8590 C.3   1 <1>  -0.2400 
 18 C        4.4070    10.3940     0.3800 C.3   1 <1>   0.1200 
 19 O        5.4030    10.9100     1.1810 O.3   1 <1>  -0.6800 
 20 H        3.3960    -0.2920     0.0130 H     1 <1>   0.0800 
 21 H        3.5150     0.3200     1.6310 H     1 <1>   0.0800 
 22 H        3.9810     1.3690    -1.5640 H     1 <1>   0.1500 
 23 H        1.7430     2.4930     1.8690 H     1 <1>   0.1500 
 24 H        3.9180     3.6640    -2.3830 H     1 <1>   0.1500 
 25 H        1.6510     4.7950     1.0820 H     1 <1>   0.1500 
 26 H        1.7580     6.2000    -1.1110 H     1 <1>   0.0800 
 27 H        3.0910     5.9080    -2.2060 H     1 <1>   0.0800 
 28 H        3.4080     6.4160     0.6560 H     1 <1>   0.4500 
 29 H        3.8970     8.4310    -1.4390 H     1 <1>   0.0800 
 30 H        5.7290     6.9940    -0.7650 H     1 <1>   0.0800 
 31 H        5.1370     5.4200    -1.2260 H     1 <1>   0.0800 
 32 H        5.3820     8.5430     0.5710 H     1 <1>   0.0800 
 33 H        3.9620     8.6810     1.5830 H     1 <1>   0.0800 
 34 H        1.6250     8.1840     0.5660 H     1 <1>   0.0800 
 35 H        1.4820     8.1760    -1.1870 H     1 <1>   0.0800 
 36 H        1.9440     9.6100    -0.3740 H     1 <1>   0.0800 
 37 H        5.5260     6.3340     1.6450 H     1 <1>   0.0800 
 38 H        6.5780     5.2740     0.7540 H     1 <1>   0.0800 
 39 H        4.9690     4.7450     1.1350 H     1 <1>   0.0800 
 40 H        3.4810    10.8820     0.6350 H     1 <1>   0.0800 
 41 H        4.6670    10.6260    -0.6400 H     1 <1>   0.0800 
 42 H        5.1180    10.9850     2.1140 H     1 <1>   0.4000 
@<TRIPOS>BOND
  1   1   2  ar  
  2   2   3  ar  
  3   2   4  1   
  4   4   5  1   
  5   4  20  1   
  6   4  21  1   
  7   5   6  ar  
  8   5   7  ar  
  9   6   8  ar  
 10   6  22  1   
 11   7   9  ar  
 12   7  23  1   
 13   8  10  ar  
 14   8  24  1   
 15   9  10  ar  
 16   9  25  1   
 17  10  11  1   
 18  11  12  1   
 19  11  26  1   
 20  11  27  1   
 21  12  13  1   
 22  12  14  1   
 23  12  28  1   
 24  13  15  1   
 25  13  16  1   
 26  13  29  1   
 27  14  17  1   
 28  14  30  1   
 29  14  31  1   
 30  15  18  1   
 31  15  32  1   
 32  15  33  1   
 33  16  34  1   
 34  16  35  1   
 35  16  36  1   
 36  17  37  1   
 37  17  38  1   
 38  17  39  1   
 39  18  19  1   
 40  18  40  1   
 41  18  41  1   
 42  19  42  1   
@<TRIPOS>SUBSTRUCTURE
  1 ****  10 GROUP 4 **** **** 0

# MOE 2024.06 (io_trps.svl 2023.06)
