@<TRIPOS>MOLECULE
NONAME
48 49 1 0 0 
SMALL
USER_CHARGES


@<TRIPOS>ATOM
  1 O        2.3770    -0.9080     3.1590 O.2   1 <1>  -0.5700 
  2 C        2.6160    -1.3890     2.0750 C.2   1 <1>   0.5690 
  3 N        3.2920    -0.6720     1.1370 N.am  1 <1>  -0.7300 
  4 C        2.1680    -2.8360     1.7220 C.3   1 <1>   0.2510 
  5 C        3.6600     0.7450     1.2770 C.3   1 <1>   0.2840 
  6 N        0.8290    -2.9740     1.0680 N.3   1 <1>  -0.8100 
  7 C        2.1720    -3.7330     2.9690 C.3   1 <1>  -0.2400 
  8 C        3.5300     1.3910    -0.0890 C.ar  1 <1>  -0.1440 
  9 C        0.7470    -4.1890     0.2120 C.3   1 <1>   0.2530 
 10 C        0.3980    -1.7840     0.3100 C.3   1 <1>   0.0300 
 11 C        4.6520     1.6200    -0.8720 C.ar  1 <1>  -0.1500 
 12 C        2.2800     1.7500    -0.5690 C.ar  1 <1>  -0.1500 
 13 C       -0.6810    -4.5850    -0.1660 C.ar  1 <1>   0.1670 
 14 C        4.5240     2.2040    -2.1210 C.ar  1 <1>  -0.1500 
 15 C        2.1510     2.3330    -1.8180 C.ar  1 <1>  -0.1500 
 16 N       -0.8550    -5.0670    -1.3900 N.ar  1 <1>  -0.6200 
 17 C       -1.7070    -4.4450     0.7580 C.ar  1 <1>  -0.1500 
 18 C        3.2730     2.5610    -2.5950 C.ar  1 <1>  -0.1500 
 19 C       -2.0950    -5.4140    -1.6990 C.ar  1 <1>   0.1600 
 20 C       -2.9910    -4.8130     0.4200 C.ar  1 <1>  -0.1500 
 21 C       -3.1870    -5.3140    -0.8500 C.ar  1 <1>  -0.1440 
 22 C       -4.5720    -5.7450    -1.3050 C.3   1 <1>  -0.0170 
 23 C       -5.3240    -4.5690    -1.9320 C.3   1 <1>  -0.2400 
 24 H        3.4160    -1.0400     0.1940 H     1 <1>   0.3700 
 25 H        2.9130    -3.2150     1.0440 H     1 <1>   0.0800 
 26 H        4.6710     0.8190     1.6390 H     1 <1>   0.0800 
 27 H        3.0080     1.2320     1.9830 H     1 <1>   0.0800 
 28 H        1.4000    -3.4130     3.6460 H     1 <1>   0.0800 
 29 H        3.1180    -3.6470     3.4730 H     1 <1>   0.0800 
 30 H        2.0170    -4.7640     2.7170 H     1 <1>   0.0800 
 31 H        1.1820    -5.0290     0.7190 H     1 <1>   0.0800 
 32 H        1.3120    -4.0260    -0.6900 H     1 <1>   0.0800 
 33 H        0.3180    -0.9340     0.9660 H     1 <1>   0.0800 
 34 H       -0.5740    -1.9490    -0.1240 H     1 <1>   0.0800 
 35 H        1.0940    -1.5620    -0.4800 H     1 <1>   0.0800 
 36 H        5.6300     1.3470    -0.5150 H     1 <1>   0.1500 
 37 H        1.4030     1.5750     0.0300 H     1 <1>   0.1500 
 38 H        5.3970     2.3820    -2.7250 H     1 <1>   0.1500 
 39 H        1.1780     2.6110    -2.1850 H     1 <1>   0.1500 
 40 H       -1.4950    -4.0470     1.7340 H     1 <1>   0.1500 
 41 H        3.1740     3.0150    -3.5650 H     1 <1>   0.1500 
 42 H       -2.2490    -5.8020    -2.6900 H     1 <1>   0.1500 
 43 H       -3.8010    -4.7090     1.1210 H     1 <1>   0.1500 
 44 H       -5.1280    -6.1210    -0.4640 H     1 <1>   0.0800 
 45 H       -4.4880    -6.5430    -2.0230 H     1 <1>   0.0800 
 46 H       -5.4300    -3.7720    -1.2160 H     1 <1>   0.0800 
 47 H       -6.3030    -4.8810    -2.2490 H     1 <1>   0.0800 
 48 H       -4.7860    -4.1950    -2.7850 H     1 <1>   0.0800 
@<TRIPOS>BOND
  1   1   2  2   
  2   2   3  am  
  3   2   4  1   
  4   3   5  1   
  5   3  24  1   
  6   4   6  1   
  7   4   7  1   
  8   4  25  1   
  9   5   8  1   
 10   5  26  1   
 11   5  27  1   
 12   6   9  1   
 13   6  10  1   
 14   7  28  1   
 15   7  29  1   
 16   7  30  1   
 17   8  11  ar  
 18   8  12  ar  
 19   9  13  1   
 20   9  31  1   
 21   9  32  1   
 22  10  33  1   
 23  10  34  1   
 24  10  35  1   
 25  11  14  ar  
 26  11  36  1   
 27  12  15  ar  
 28  12  37  1   
 29  13  16  ar  
 30  13  17  ar  
 31  14  18  ar  
 32  14  38  1   
 33  15  18  ar  
 34  15  39  1   
 35  16  19  ar  
 36  17  20  ar  
 37  17  40  1   
 38  18  41  1   
 39  19  21  ar  
 40  19  42  1   
 41  20  21  ar  
 42  20  43  1   
 43  21  22  1   
 44  22  23  1   
 45  22  44  1   
 46  22  45  1   
 47  23  46  1   
 48  23  47  1   
 49  23  48  1   
@<TRIPOS>SUBSTRUCTURE
  1 ****  10 GROUP 4 **** **** 0

# MOE 2024.06 (io_trps.svl 2023.06)
