@<TRIPOS>MOLECULE
NONAME
46 49 1 0 0 
SMALL
USER_CHARGES


@<TRIPOS>ATOM
  1 O       -0.7280    -0.0330     1.1280 O.2   1 <1>  -0.5700 
  2 C       -1.5370     0.7820     0.7230 C.2   1 <1>   0.5440 
  3 N       -2.7090     0.3310     0.1420 N.am  1 <1>  -0.6600 
  4 C       -1.2520     2.1940     0.8830 C.ar  1 <1>   0.0860 
  5 C       -3.8990     1.2210    -0.0160 C.3   1 <1>   0.2200 
  6 C       -2.8630    -1.1190    -0.1840 C.3   1 <1>   0.0600 
  7 C       -1.2440     3.0610    -0.2100 C.ar  1 <1>  -0.1500 
  8 C       -0.9890     2.7340     2.1440 C.ar  1 <1>  -0.1500 
  9 C       -5.1830     0.6790     0.6080 C.3   1 <1>  -0.1600 
 10 C       -4.2710     1.4790    -1.4730 C.3   1 <1>  -0.1600 
 11 C       -1.0220     4.4140    -0.0470 C.ar  1 <1>   0.0830 
 12 C       -0.7630     4.0880     2.3180 C.ar  1 <1>  -0.1500 
 13 C       -6.2970     1.4860    -0.0720 C.3   1 <1>  -0.0800 
 14 C       -5.7170     1.9880    -1.4080 C.3   1 <1>  -0.0800 
 15 O       -1.0310     5.2160    -1.1420 O.3   1 <1>  -0.3630 
 16 C       -0.7920     4.9370     1.2260 C.ar  1 <1>   0.0830 
 17 C       -6.7120     2.7360     0.7170 C.3   1 <1>  -0.1600 
 18 C       -5.8170     3.5210    -1.3770 C.3   1 <1>  -0.1600 
 19 C       -0.4660     6.5050    -0.9920 C.3   1 <1>   0.1200 
 20 O       -0.5990     6.2630     1.4160 O.3   1 <1>  -0.3620 
 21 C       -6.8850     3.8180    -0.3370 C.3   1 <1>   0.2000 
 22 C       -0.9080     7.1290     0.3390 C.3   1 <1>   0.1200 
 23 O       -6.6730     5.0600     0.2180 O.3   1 <1>  -0.6800 
 24 H       -3.7100     2.1740     0.4480 H     1 <1>   0.0800 
 25 H       -3.5090    -1.2570    -1.0310 H     1 <1>   0.0800 
 26 H       -3.2740    -1.6360     0.6650 H     1 <1>   0.0800 
 27 H       -1.9040    -1.5510    -0.4160 H     1 <1>   0.0800 
 28 H       -1.4090     2.6710    -1.1970 H     1 <1>   0.1500 
 29 H       -0.9650     2.0720     2.9930 H     1 <1>   0.1500 
 30 H       -5.3210    -0.3560     0.3580 H     1 <1>   0.0800 
 31 H       -5.1850     0.7900     1.6770 H     1 <1>   0.0800 
 32 H       -3.6100     2.1850    -1.9410 H     1 <1>   0.0800 
 33 H       -4.2540     0.5600    -2.0290 H     1 <1>   0.0800 
 34 H       -0.5660     4.4920     3.2950 H     1 <1>   0.1500 
 35 H       -7.1610     0.8670    -0.2510 H     1 <1>   0.0800 
 36 H       -6.2940     1.6030    -2.2330 H     1 <1>   0.0800 
 37 H       -5.9330     3.0190     1.4030 H     1 <1>   0.0800 
 38 H       -7.6260     2.5730     1.2590 H     1 <1>   0.0800 
 39 H       -6.0910     3.9150    -2.3390 H     1 <1>   0.0800 
 40 H       -4.8790     3.9490    -1.0680 H     1 <1>   0.0800 
 41 H        0.6050     6.4050    -1.0210 H     1 <1>   0.0800 
 42 H       -0.7870     7.1070    -1.8230 H     1 <1>   0.0800 
 43 H       -7.8710     3.7870    -0.7700 H     1 <1>   0.0800 
 44 H       -1.9710     7.2950     0.3390 H     1 <1>   0.0800 
 45 H       -0.4050     8.0630     0.5100 H     1 <1>   0.0800 
 46 H       -5.7800     5.1000     0.6080 H     1 <1>   0.4000 
@<TRIPOS>BOND
  1   1   2  2   
  2   2   3  am  
  3   2   4  1   
  4   3   5  1   
  5   3   6  1   
  6   4   7  ar  
  7   4   8  ar  
  8   5   9  1   
  9   5  10  1   
 10   5  24  1   
 11   6  25  1   
 12   6  26  1   
 13   6  27  1   
 14   7  11  ar  
 15   7  28  1   
 16   8  12  ar  
 17   8  29  1   
 18   9  13  1   
 19   9  30  1   
 20   9  31  1   
 21  10  14  1   
 22  10  32  1   
 23  10  33  1   
 24  11  15  1   
 25  11  16  ar  
 26  12  16  ar  
 27  12  34  1   
 28  13  14  1   
 29  13  17  1   
 30  13  35  1   
 31  14  18  1   
 32  14  36  1   
 33  15  19  1   
 34  16  20  1   
 35  17  21  1   
 36  17  37  1   
 37  17  38  1   
 38  18  21  1   
 39  18  39  1   
 40  18  40  1   
 41  19  22  1   
 42  19  41  1   
 43  19  42  1   
 44  20  22  1   
 45  21  23  1   
 46  21  43  1   
 47  22  44  1   
 48  22  45  1   
 49  23  46  1   
@<TRIPOS>SUBSTRUCTURE
  1 ****   7 GROUP 4 **** **** 0

# MOE 2024.06 (io_trps.svl 2023.06)
