@<TRIPOS>MOLECULE
NONAME
44 47 1 0 0 
SMALL
USER_CHARGES


@<TRIPOS>ATOM
  1 F       -1.8280    -1.3860     1.7820 F     1 <1>  -0.3400 
  2 C       -1.3610    -1.7180     0.5800 C.3   1 <1>   1.2010 
  3 F       -0.0360    -1.7680     0.7040 F     1 <1>  -0.3400 
  4 F       -1.6100    -0.6710    -0.2040 F     1 <1>  -0.3400 
  5 C       -1.9660    -3.0530     0.0440 C.2   1 <1>   0.3350 
  6 N       -2.6380    -3.1780    -1.0420 N.2   1 <1>  -0.4100 
  7 N       -1.8310    -4.2230     0.6850 N.2   1 <1>  -0.5650 
  8 O       -2.9790    -4.4240    -1.1580 O.3   1 <1>  -0.0190 
  9 C       -2.4760    -4.9980    -0.0950 C.2   1 <1>   0.2980 
 10 C       -2.6780    -6.5010     0.0910 C.3   1 <1>   0.2900 
 11 N       -4.0600    -6.8810     0.4720 N.3   1 <1>  -0.8100 
 12 C       -5.0690    -6.5930    -0.5580 C.3   1 <1>   0.1100 
 13 C       -4.1770    -8.3180     0.7780 C.3   1 <1>   0.1100 
 14 C       -6.2360    -7.5050    -0.2040 C.3   1 <1>   0.2000 
 15 C       -5.5440    -8.7900     0.2450 C.3   1 <1>  -0.0800 
 16 O       -6.8730    -6.9620     0.8950 O.3   1 <1>  -0.6800 
 17 C       -5.4050    -9.7760    -0.9310 C.3   1 <1>  -0.0170 
 18 C       -4.6820   -11.0510    -0.5260 C.ar  1 <1>   0.1670 
 19 N       -3.4380   -11.1730    -0.8770 N.ar  1 <1>  -0.6200 
 20 C       -5.3840   -12.0240     0.2030 C.ar  1 <1>  -0.1500 
 21 C       -2.7880   -12.3080    -0.5130 C.ar  1 <1>   0.3100 
 22 C       -4.7560   -13.1700     0.5830 C.ar  1 <1>  -0.1500 
 23 C       -3.4080   -13.3400     0.2240 C.ar  1 <1>   0.0000 
 24 C       -1.4420   -12.4660    -0.8810 C.ar  1 <1>  -0.1500 
 25 C       -2.6590   -14.4840     0.5660 C.ar  1 <1>  -0.1500 
 26 C       -0.7310   -13.5860    -0.5390 C.ar  1 <1>  -0.1500 
 27 C       -1.3480   -14.6060     0.1930 C.ar  1 <1>  -0.1500 
 28 H       -2.0090    -6.8260     0.8700 H     1 <1>   0.0800 
 29 H       -2.3970    -7.0070    -0.8160 H     1 <1>   0.0800 
 30 H       -5.3600    -5.5560    -0.5530 H     1 <1>   0.0800 
 31 H       -4.6910    -6.8550    -1.5320 H     1 <1>   0.0800 
 32 H       -3.3730    -8.8720     0.3220 H     1 <1>   0.0800 
 33 H       -4.1230    -8.4580     1.8440 H     1 <1>   0.0800 
 34 H       -6.9540    -7.6330    -0.9950 H     1 <1>   0.0800 
 35 H       -6.1060    -9.2700     1.0270 H     1 <1>   0.0800 
 36 H       -6.1650    -6.6570     1.5030 H     1 <1>   0.4000 
 37 H       -4.8680    -9.3130    -1.7400 H     1 <1>   0.0800 
 38 H       -6.3810   -10.0360    -1.3000 H     1 <1>   0.0800 
 39 H       -6.4150   -11.8510     0.4550 H     1 <1>   0.1500 
 40 H       -5.2600   -13.9380     1.1420 H     1 <1>   0.1500 
 41 H       -0.9860   -11.6730    -1.4440 H     1 <1>   0.1500 
 42 H       -3.1400   -15.2650     1.1280 H     1 <1>   0.1500 
 43 H        0.3000   -13.6960    -0.8270 H     1 <1>   0.1500 
 44 H       -0.7780   -15.4810     0.4550 H     1 <1>   0.1500 
@<TRIPOS>BOND
  1   1   2  1   
  2   2   3  1   
  3   2   4  1   
  4   2   5  1   
  5   5   6  2   
  6   5   7  1   
  7   6   8  1   
  8   7   9  2   
  9   8   9  1   
 10   9  10  1   
 11  10  11  1   
 12  10  28  1   
 13  10  29  1   
 14  11  12  1   
 15  11  13  1   
 16  12  14  1   
 17  12  30  1   
 18  12  31  1   
 19  13  15  1   
 20  13  32  1   
 21  13  33  1   
 22  14  15  1   
 23  14  16  1   
 24  14  34  1   
 25  15  17  1   
 26  15  35  1   
 27  16  36  1   
 28  17  18  1   
 29  17  37  1   
 30  17  38  1   
 31  18  19  ar  
 32  18  20  ar  
 33  19  21  ar  
 34  20  22  ar  
 35  20  39  1   
 36  21  23  ar  
 37  21  24  ar  
 38  22  23  ar  
 39  22  40  1   
 40  23  25  ar  
 41  24  26  ar  
 42  24  41  1   
 43  25  27  ar  
 44  25  42  1   
 45  26  27  ar  
 46  26  43  1   
 47  27  44  1   
@<TRIPOS>SUBSTRUCTURE
  1 ****  13 GROUP 4 **** **** 0

# MOE 2024.06 (io_trps.svl 2023.06)
