@<TRIPOS>MOLECULE
NONAME
45 48 1 0 0 
SMALL
USER_CHARGES


@<TRIPOS>ATOM
  1 O       -1.4630    -2.4520    -1.6230 O.2   1 <1>  -0.5700 
  2 C       -2.0690    -3.2280    -0.9310 C.2   1 <1>   0.5690 
  3 N       -3.3950    -3.3830    -0.9270 N.am  1 <1>  -0.7300 
  4 C       -1.4340    -4.1150     0.1030 C.3   1 <1>  -0.0990 
  5 C       -3.9060    -4.2500     0.1340 C.3   1 <1>   0.2200 
  6 C       -2.6260    -4.8740     0.7230 C.3   1 <1>  -0.1600 
  7 C       -4.7030    -3.4100     1.1550 C.3   1 <1>   0.1100 
  8 N       -5.7410    -2.5640     0.5040 N.3   1 <1>  -0.8100 
  9 C       -5.7770    -1.2180     1.1010 C.3   1 <1>   0.2530 
 10 C       -7.0850    -3.2060     0.5140 C.3   1 <1>   0.2900 
 11 C       -6.7060    -0.2990     0.3220 C.ar  1 <1>  -0.1440 
 12 C       -7.1140    -4.5610    -0.1820 C.2   1 <1>   0.2980 
 13 C       -7.7620     0.3620     0.9190 C.ar  1 <1>  -0.1500 
 14 C       -6.5390    -0.0820    -1.0310 C.ar  1 <1>  -0.1500 
 15 O       -7.0890    -4.5940    -1.4890 O.3   1 <1>  -0.0190 
 16 N       -7.1450    -5.6930     0.3930 N.2   1 <1>  -0.5650 
 17 C       -8.5760     1.1820     0.1540 C.ar  1 <1>   0.1600 
 18 C       -7.4100     0.7570    -1.7040 C.ar  1 <1>   0.1600 
 19 N       -7.1030    -5.8600    -1.7730 N.2   1 <1>  -0.4100 
 20 C       -7.1340    -6.5130    -0.6650 C.2   1 <1>   0.5150 
 21 N       -8.4270     1.3930    -1.1430 N.ar  1 <1>  -0.6200 
 22 C       -7.1400    -7.9560    -0.5520 C.2   1 <1>   0.1410 
 23 O       -7.1300    -8.5590     0.6340 O.3   1 <1>  -0.2800 
 24 C       -7.1490    -8.9110    -1.5220 C.2   1 <1>  -0.1500 
 25 C       -7.1330    -9.8620     0.4440 C.2   1 <1>  -0.0100 
 26 C       -7.1440   -10.1480    -0.8740 C.2   1 <1>  -0.1500 
 27 H       -4.0350    -2.7370    -1.3930 H     1 <1>   0.3700 
 28 H       -0.7330    -4.7830    -0.3630 H     1 <1>   0.0800 
 29 H       -0.9340    -3.5050     0.8320 H     1 <1>   0.0800 
 30 H       -4.5240    -5.0190    -0.2930 H     1 <1>   0.0800 
 31 H       -2.6120    -4.8250     1.7980 H     1 <1>   0.0800 
 32 H       -2.5840    -5.9100     0.4350 H     1 <1>   0.0800 
 33 H       -3.9960    -2.7850     1.6740 H     1 <1>   0.0800 
 34 H       -5.1510    -4.0610     1.8880 H     1 <1>   0.0800 
 35 H       -6.0900    -1.2810     2.1300 H     1 <1>   0.0800 
 36 H       -4.7880    -0.7910     1.0760 H     1 <1>   0.0800 
 37 H       -7.4130    -3.3370     1.5310 H     1 <1>   0.0800 
 38 H       -7.7990    -2.5740     0.0160 H     1 <1>   0.0800 
 39 H       -7.9600     0.2520     1.9690 H     1 <1>   0.1500 
 40 H       -5.7380    -0.5640    -1.5630 H     1 <1>   0.1500 
 41 H       -9.3940     1.6910     0.6350 H     1 <1>   0.1500 
 42 H       -7.2630     0.9130    -2.7600 H     1 <1>   0.1500 
 43 H       -7.1570    -8.7590    -2.5870 H     1 <1>   0.1500 
 44 H       -7.1270   -10.5130     1.3010 H     1 <1>   0.1500 
 45 H       -7.1490   -11.1100    -1.3550 H     1 <1>   0.1500 
@<TRIPOS>BOND
  1   1   2  2   
  2   2   3  am  
  3   2   4  1   
  4   3   5  1   
  5   3  27  1   
  6   4   6  1   
  7   4  28  1   
  8   4  29  1   
  9   5   6  1   
 10   5   7  1   
 11   5  30  1   
 12   6  31  1   
 13   6  32  1   
 14   7   8  1   
 15   7  33  1   
 16   7  34  1   
 17   8   9  1   
 18   8  10  1   
 19   9  11  1   
 20   9  35  1   
 21   9  36  1   
 22  10  12  1   
 23  10  37  1   
 24  10  38  1   
 25  11  13  ar  
 26  11  14  ar  
 27  12  15  1   
 28  12  16  2   
 29  13  17  ar  
 30  13  39  1   
 31  14  18  ar  
 32  14  40  1   
 33  15  19  1   
 34  16  20  1   
 35  17  21  ar  
 36  17  41  1   
 37  18  21  ar  
 38  18  42  1   
 39  19  20  2   
 40  20  22  1   
 41  22  23  1   
 42  22  24  2   
 43  23  25  1   
 44  24  26  1   
 45  24  43  1   
 46  25  26  2   
 47  25  44  1   
 48  26  45  1   
@<TRIPOS>SUBSTRUCTURE
  1 ****  12 GROUP 4 **** **** 0

# MOE 2024.06 (io_trps.svl 2023.06)
