@<TRIPOS>MOLECULE
NONAME
51 53 1 0 0 
SMALL
USER_CHARGES


@<TRIPOS>ATOM
  1 F       -0.0200    -0.4830    -2.2400 F     1 <1>  -0.1900 
  2 C        0.9580    -0.8050    -1.4370 C.ar  1 <1>   0.1900 
  3 C        0.7370    -1.7820    -0.4830 C.ar  1 <1>  -0.1440 
  4 C        2.1670    -0.1480    -1.5660 C.ar  1 <1>  -0.1500 
  5 C        1.7970    -2.0760     0.3560 C.ar  1 <1>   0.1900 
  6 C       -0.5940    -2.4920    -0.3690 C.3   1 <1>   0.4860 
  7 C        3.2100    -0.4700    -0.7100 C.ar  1 <1>   0.0820 
  8 F        1.6240    -2.9810     1.2830 F     1 <1>  -0.1900 
  9 C        3.0260    -1.4470     0.2660 C.ar  1 <1>  -0.1500 
 10 N       -1.2880    -2.0680     0.8790 N.4   1 <1>  -0.9590 
 11 O        4.3680     0.2080    -0.8840 O.3   1 <1>  -0.3620 
 12 C       -2.4650    -2.9640     1.1250 C.3   1 <1>   0.3430 
 13 C       -1.6260    -0.6020     0.8610 C.3   1 <1>   0.3430 
 14 C        5.5140    -0.0680    -0.1080 C.3   1 <1>   0.0400 
 15 C       -3.5350    -2.2360     1.9270 C.3   1 <1>  -0.1600 
 16 C       -2.9980    -0.3940     0.2410 C.3   1 <1>  -0.1600 
 17 C       -4.0910    -1.0400     1.1220 C.3   1 <1>   0.2800 
 18 O       -4.4040    -0.0650     2.0830 O.3   1 <1>  -0.5600 
 19 C       -5.3360    -1.4770     0.2940 C.3   1 <1>   0.2000 
 20 C       -5.7150     0.4310     2.1570 C.3   1 <1>   0.1200 
 21 O       -4.9830    -2.3800    -0.7180 O.3   1 <1>  -0.6800 
 22 C       -6.1760    -0.2810    -0.2390 C.3   1 <1>   0.2800 
 23 C       -6.1690     0.8860     0.7670 C.3   1 <1>  -0.1600 
 24 O       -7.4740    -0.7400    -0.3400 O.3   1 <1>  -0.6800 
 25 C       -5.8160     0.2150    -1.6470 C.3   1 <1>  -0.2400 
 26 H        2.3040     0.6060    -2.3200 H     1 <1>   0.1500 
 27 H       -0.4190    -3.5560    -0.3470 H     1 <1>   0.0800 
 28 H       -1.2090    -2.2700    -1.2270 H     1 <1>   0.0800 
 29 H        3.8060    -1.7250     0.9500 H     1 <1>   0.1500 
 30 H       -0.6130    -2.2120     1.6440 H     1 <1>   0.4500 
 31 H       -2.8980    -3.2660     0.1840 H     1 <1>   0.0800 
 32 H       -2.1500    -3.8520     1.6500 H     1 <1>   0.0800 
 33 H       -1.6520    -0.2230     1.8710 H     1 <1>   0.0800 
 34 H       -0.8820    -0.0440     0.3160 H     1 <1>   0.0800 
 35 H        6.3070     0.5780    -0.4420 H     1 <1>   0.0800 
 36 H        5.7980    -1.0960    -0.2540 H     1 <1>   0.0800 
 37 H        5.2960     0.1310     0.9260 H     1 <1>   0.0800 
 38 H       -3.1100    -1.9070     2.8590 H     1 <1>   0.0800 
 39 H       -4.3250    -2.9260     2.1610 H     1 <1>   0.0800 
 40 H       -2.9900    -0.8130    -0.7490 H     1 <1>   0.0800 
 41 H       -3.1870     0.6590     0.1380 H     1 <1>   0.0800 
 42 H       -5.9730    -2.0290     0.9650 H     1 <1>   0.0800 
 43 H       -6.3580    -0.3390     2.5510 H     1 <1>   0.0800 
 44 H       -5.7120     1.2600     2.8440 H     1 <1>   0.0800 
 45 H       -5.8010    -2.6020    -1.2150 H     1 <1>   0.4000 
 46 H       -5.4850     1.6500     0.4440 H     1 <1>   0.0800 
 47 H       -7.1420     1.3410     0.8330 H     1 <1>   0.0800 
 48 H       -8.0410    -0.0480    -0.7300 H     1 <1>   0.4000 
 49 H       -4.8020     0.5620    -1.6800 H     1 <1>   0.0800 
 50 H       -6.4510     1.0350    -1.9330 H     1 <1>   0.0800 
 51 H       -5.9230    -0.5720    -2.3720 H     1 <1>   0.0800 
@<TRIPOS>BOND
  1   1   2  1   
  2   2   3  ar  
  3   2   4  ar  
  4   3   5  ar  
  5   3   6  1   
  6   4   7  ar  
  7   4  26  1   
  8   5   8  1   
  9   5   9  ar  
 10   6  10  1   
 11   6  27  1   
 12   6  28  1   
 13   7   9  ar  
 14   7  11  1   
 15   9  29  1   
 16  10  12  1   
 17  10  13  1   
 18  10  30  1   
 19  11  14  1   
 20  12  15  1   
 21  12  31  1   
 22  12  32  1   
 23  13  16  1   
 24  13  33  1   
 25  13  34  1   
 26  14  35  1   
 27  14  36  1   
 28  14  37  1   
 29  15  17  1   
 30  15  38  1   
 31  15  39  1   
 32  16  17  1   
 33  16  40  1   
 34  16  41  1   
 35  17  18  1   
 36  17  19  1   
 37  18  20  1   
 38  19  21  1   
 39  19  22  1   
 40  19  42  1   
 41  20  23  1   
 42  20  43  1   
 43  20  44  1   
 44  21  45  1   
 45  22  23  1   
 46  22  24  1   
 47  22  25  1   
 48  23  46  1   
 49  23  47  1   
 50  24  48  1   
 51  25  49  1   
 52  25  50  1   
 53  25  51  1   
@<TRIPOS>SUBSTRUCTURE
  1 ****  13 GROUP 4 **** **** 0

# MOE 2024.06 (io_trps.svl 2023.06)
