@<TRIPOS>MOLECULE
NONAME
38 41 1 0 0 
SMALL
USER_CHARGES


@<TRIPOS>ATOM
  1 F        0.4700    -0.3220    -0.4990 F     1 <1>  -0.1900 
  2 C        0.8840    -1.5510    -0.3190 C.ar  1 <1>   0.1900 
  3 C        0.1380    -2.5870    -0.8200 C.ar  1 <1>  -0.1500 
  4 C        2.0780    -1.7420     0.3830 C.ar  1 <1>  -0.1500 
  5 C        0.6060    -3.8890    -0.6110 C.ar  1 <1>   0.0000 
  6 C        2.5360    -3.0230     0.5900 C.ar  1 <1>  -0.1500 
  7 C        1.7910    -4.1030     0.0910 C.ar  1 <1>  -0.1520 
  8 C        0.1240    -5.1570    -0.9710 C.2   1 <1>  -0.1500 
  9 N        2.0090    -5.4600     0.1580 N.pl3 1 <1>   0.0480 
 10 C        0.9840    -6.1060    -0.4990 C.2   1 <1>  -0.2370 
 11 C        3.1110    -6.1290     0.8790 C.3   1 <1>   0.0160 
 12 C        0.9160    -7.5420    -0.6230 C.2   1 <1>   0.7150 
 13 O        1.9020    -8.1560    -0.9930 O.2   1 <1>  -0.5700 
 14 N       -0.2280    -8.2220    -0.3220 N.am  1 <1>  -0.6600 
 15 C       -1.3490    -7.6470     0.4730 C.3   1 <1>   0.2350 
 16 C       -0.2840    -9.7100    -0.2810 C.3   1 <1>   0.2350 
 17 C       -2.3470    -8.7750     0.6490 C.3   1 <1>  -0.2420 
 18 C       -1.6880   -10.0520     0.1850 C.3   1 <1>  -0.2420 
 19 C       -3.2970    -8.4690     1.8090 C.2   1 <1>   0.9470 
 20 C       -2.8850    -9.5100    -0.5520 C.3   1 <1>  -0.2000 
 21 C       -1.7430   -11.4770     0.7430 C.2   1 <1>   0.9470 
 22 O       -4.5140    -8.3760     1.5910 O.co2 1 <1>  -0.9000 
 23 O       -2.8180    -8.1430     2.9040 O.co2 1 <1>  -0.9000 
 24 O       -0.9200   -11.8150     1.6050 O.co2 1 <1>  -0.9000 
 25 O       -2.4940   -12.3090     0.2160 O.co2 1 <1>  -0.9000 
 26 H       -0.7760    -2.4170    -1.3560 H     1 <1>   0.1500 
 27 H        2.6150    -0.8860     0.7470 H     1 <1>   0.1500 
 28 H        3.4520    -3.1980     1.1240 H     1 <1>   0.1500 
 29 H       -0.7780    -5.3240    -1.5330 H     1 <1>   0.1500 
 30 H        2.7140    -6.9480     1.4530 H     1 <1>   0.0800 
 31 H        3.5960    -5.4370     1.5410 H     1 <1>   0.0800 
 32 H        3.8180    -6.5080     0.1650 H     1 <1>   0.0800 
 33 H       -0.9790    -7.3230     1.4320 H     1 <1>   0.0800 
 34 H       -1.8130    -6.8230    -0.0360 H     1 <1>   0.0800 
 35 H       -0.0890   -10.1280    -1.2520 H     1 <1>   0.0800 
 36 H        0.4450   -10.0750     0.4230 H     1 <1>   0.0800 
 37 H       -2.7590    -9.0920    -1.5320 H     1 <1>   0.1000 
 38 H       -3.8200   -10.0350    -0.4430 H     1 <1>   0.1000 
@<TRIPOS>BOND
  1   1   2  1   
  2   2   3  ar  
  3   2   4  ar  
  4   3   5  ar  
  5   3  26  1   
  6   4   6  ar  
  7   4  27  1   
  8   5   7  ar  
  9   5   8  1   
 10   6   7  ar  
 11   6  28  1   
 12   7   9  1   
 13   8  10  2   
 14   8  29  1   
 15   9  10  1   
 16   9  11  1   
 17  10  12  1   
 18  11  30  1   
 19  11  31  1   
 20  11  32  1   
 21  12  13  2   
 22  12  14  am  
 23  14  15  1   
 24  14  16  1   
 25  15  17  1   
 26  15  33  1   
 27  15  34  1   
 28  16  18  1   
 29  16  35  1   
 30  16  36  1   
 31  17  18  1   
 32  17  19  1   
 33  17  20  1   
 34  18  20  1   
 35  18  21  1   
 36  19  22  ar  
 37  19  23  ar  
 38  20  37  1   
 39  20  38  1   
 40  21  24  ar  
 41  21  25  ar  
@<TRIPOS>SUBSTRUCTURE
  1 ****  15 GROUP 4 **** **** 0

# MOE 2024.06 (io_trps.svl 2023.06)
