@<TRIPOS>MOLECULE
NONAME
47 49 1 0 0 
SMALL
USER_CHARGES


@<TRIPOS>ATOM
  1 S       -0.2390    -0.6390    -0.9180 S.o2  1 <1>   1.4470 
  2 O       -1.0320    -1.8390    -1.0810 O.2   1 <1>  -0.6500 
  3 O       -0.0400     0.2490    -2.0440 O.2   1 <1>  -0.6500 
  4 N       -0.9010     0.2540     0.3650 N.am  1 <1>  -0.8490 
  5 C        1.3790    -1.1230    -0.2490 C.ar  1 <1>  -0.0090 
  6 C       -2.3150     0.0210     0.7140 C.3   1 <1>   0.1960 
  7 C       -0.4880     1.6560     0.4650 C.3   1 <1>   0.1960 
  8 C        1.4770    -1.8200     0.9480 C.ar  1 <1>  -0.1500 
  9 C        2.5620    -0.8120    -0.9080 C.ar  1 <1>  -0.1500 
 10 C       -3.3320     0.9360    -0.0280 C.3   1 <1>   0.0000 
 11 C       -1.4230     2.5860    -0.3190 C.3   1 <1>  -0.1600 
 12 C        2.7060    -2.1910     1.4660 C.ar  1 <1>  -0.1500 
 13 C        3.7910    -1.1830    -0.3900 C.ar  1 <1>  -0.1500 
 14 C       -4.7680     0.7410     0.5060 C.3   1 <1>   0.2000 
 15 C       -2.8860     2.4060     0.1090 C.3   1 <1>  -0.1600 
 16 C       -3.5230     0.5290    -1.5000 C.3   1 <1>  -0.1600 
 17 C        3.8880    -1.8810     0.8060 C.ar  1 <1>  -0.0090 
 18 O       -4.8300     0.5430     1.8750 O.3   1 <1>  -0.6800 
 19 C       -5.3520    -0.4690    -0.2270 C.3   1 <1>  -0.1600 
 20 C       -4.4790    -0.6650    -1.4720 C.3   1 <1>  -0.1600 
 21 S        5.4940    -2.4010     1.4640 S.o2  1 <1>   1.2040 
 22 O        6.5320    -1.5550     0.9210 O.2   1 <1>  -0.6500 
 23 O        5.3870    -2.5930     2.8920 O.2   1 <1>  -0.6500 
 24 C        5.6900    -4.0120     0.7290 C.3   1 <1>  -0.1350 
 25 H       -2.5720    -1.0150     0.5730 H     1 <1>   0.0800 
 26 H       -2.4000     0.2170     1.7690 H     1 <1>   0.0800 
 27 H       -0.5080     1.9420     1.5030 H     1 <1>   0.0800 
 28 H        0.5250     1.7700     0.1150 H     1 <1>   0.0800 
 29 H        0.5750    -2.0720     1.4820 H     1 <1>   0.1500 
 30 H        2.5200    -0.2700    -1.8390 H     1 <1>   0.1500 
 31 H       -1.1250     3.6040    -0.1460 H     1 <1>   0.0800 
 32 H       -1.3200     2.3980    -1.3730 H     1 <1>   0.0800 
 33 H        2.7460    -2.7260     2.4010 H     1 <1>   0.1500 
 34 H        4.6900    -0.9210    -0.9250 H     1 <1>   0.1500 
 35 H       -5.3560     1.6140     0.2760 H     1 <1>   0.0800 
 36 H       -3.5180     3.0480    -0.4800 H     1 <1>   0.0800 
 37 H       -2.9870     2.7060     1.1390 H     1 <1>   0.0800 
 38 H       -4.0010     1.3320    -2.0350 H     1 <1>   0.0800 
 39 H       -2.6120     0.2950    -2.0140 H     1 <1>   0.0800 
 40 H       -4.6030    -0.3800     2.0900 H     1 <1>   0.4000 
 41 H       -5.3220    -1.3580     0.3780 H     1 <1>   0.0800 
 42 H       -6.3700    -0.2650    -0.5100 H     1 <1>   0.0800 
 43 H       -3.9120    -1.5770    -1.3810 H     1 <1>   0.0800 
 44 H       -5.0680    -0.7150    -2.3720 H     1 <1>   0.0800 
 45 H        5.6910    -3.9390    -0.3410 H     1 <1>   0.0800 
 46 H        4.8930    -4.6630     1.0330 H     1 <1>   0.0800 
 47 H        6.6210    -4.4450     1.0410 H     1 <1>   0.0800 
@<TRIPOS>BOND
  1   1   2  2   
  2   1   3  2   
  3   1   4  am  
  4   1   5  1   
  5   4   6  1   
  6   4   7  1   
  7   5   8  ar  
  8   5   9  ar  
  9   6  10  1   
 10   6  25  1   
 11   6  26  1   
 12   7  11  1   
 13   7  27  1   
 14   7  28  1   
 15   8  12  ar  
 16   8  29  1   
 17   9  13  ar  
 18   9  30  1   
 19  10  14  1   
 20  10  15  1   
 21  10  16  1   
 22  11  15  1   
 23  11  31  1   
 24  11  32  1   
 25  12  17  ar  
 26  12  33  1   
 27  13  17  ar  
 28  13  34  1   
 29  14  18  1   
 30  14  19  1   
 31  14  35  1   
 32  15  36  1   
 33  15  37  1   
 34  16  20  1   
 35  16  38  1   
 36  16  39  1   
 37  17  21  1   
 38  18  40  1   
 39  19  20  1   
 40  19  41  1   
 41  19  42  1   
 42  20  43  1   
 43  20  44  1   
 44  21  22  2   
 45  21  23  2   
 46  21  24  1   
 47  24  45  1   
 48  24  46  1   
 49  24  47  1   
@<TRIPOS>SUBSTRUCTURE
  1 ****   1 GROUP 4 **** **** 0

# MOE 2024.06 (io_trps.svl 2023.06)
