@<TRIPOS>MOLECULE
NONAME
56 57 1 0 0 
SMALL
USER_CHARGES


@<TRIPOS>ATOM
  1 O       -0.4330     0.3240     0.3090 O.2   1 <1>  -0.5700 
  2 C       -1.5410     0.7670     0.5240 C.2   1 <1>   0.5440 
  3 N       -2.5520    -0.0910     0.9060 N.am  1 <1>  -0.6600 
  4 C       -1.7980     2.1790     0.3340 C.ar  1 <1>   0.0860 
  5 C       -2.3370    -1.5710     0.8810 C.3   1 <1>   0.3200 
  6 C       -3.9170     0.3950     1.2810 C.3   1 <1>   0.1400 
  7 C       -1.9990     2.6990    -0.9400 C.ar  1 <1>  -0.1500 
  8 C       -1.8860     3.0610     1.4070 C.ar  1 <1>  -0.1500 
  9 C       -3.4680    -2.2040     0.0960 C.2   1 <1>  -0.3320 
 10 C       -4.7810     0.6080     0.0210 C.3   1 <1>   0.3430 
 11 C       -2.3130     4.0320    -1.1300 C.ar  1 <1>  -0.1500 
 12 C       -2.2030     4.3940     1.2190 C.ar  1 <1>  -0.1500 
 13 N       -4.4100    -3.0170     0.6140 N.pl3 1 <1>   0.0330 
 14 C       -3.7650    -2.0640    -1.2140 C.2   1 <1>   0.0770 
 15 N       -5.8630     1.6330     0.1920 N.4   1 <1>  -0.9590 
 16 C       -2.4330     4.9070    -0.0550 C.ar  1 <1>  -0.1430 
 17 C       -5.2510    -3.2760    -0.4110 C.2   1 <1>   0.0060 
 18 N       -4.9080    -2.7030    -1.5170 N.2   1 <1>  -0.5650 
 19 C       -6.8270     1.5170    -0.9470 C.3   1 <1>   0.2630 
 20 C       -5.3040     3.0230     0.2570 C.3   1 <1>   0.2630 
 21 C       -2.7810     6.3890    -0.3180 C.3   1 <1>   0.1430 
 22 C       -6.4670    -4.1670    -0.2690 C.3   1 <1>  -0.0600 
 23 C       -2.8910     7.2230     0.9690 C.3   1 <1>  -0.2400 
 24 C       -1.6850     7.0230    -1.1880 C.3   1 <1>  -0.2400 
 25 C       -4.1290     6.4860    -1.0480 C.3   1 <1>  -0.2400 
 26 H       -2.3100    -1.9470     1.8900 H     1 <1>   0.0800 
 27 H       -1.4010    -1.8200     0.4090 H     1 <1>   0.0800 
 28 H       -3.8220     1.3120     1.8310 H     1 <1>   0.0800 
 29 H       -4.3900    -0.3240     1.9260 H     1 <1>   0.0800 
 30 H       -1.8950     2.0470    -1.7900 H     1 <1>   0.1500 
 31 H       -1.6950     2.6930     2.4010 H     1 <1>   0.1500 
 32 H       -5.2260    -0.3380    -0.2460 H     1 <1>   0.0800 
 33 H       -4.1390     0.9080    -0.7900 H     1 <1>   0.0800 
 34 H       -2.4500     4.3870    -2.1360 H     1 <1>   0.1500 
 35 H       -2.2500     5.0220     2.0910 H     1 <1>   0.1500 
 36 H       -4.4770    -3.3900     1.5660 H     1 <1>   0.2700 
 37 H       -3.2170    -1.5120    -1.9610 H     1 <1>   0.1500 
 38 H       -6.3760     1.4320     1.0640 H     1 <1>   0.4500 
 39 H       -6.3290     1.7230    -1.8810 H     1 <1>   0.0800 
 40 H       -7.6380     2.2170    -0.8260 H     1 <1>   0.0800 
 41 H       -7.2360     0.5200    -0.9910 H     1 <1>   0.0800 
 42 H       -4.7660     3.2540    -0.6480 H     1 <1>   0.0800 
 43 H       -4.6250     3.1230     1.0880 H     1 <1>   0.0800 
 44 H       -6.0980     3.7420     0.3770 H     1 <1>   0.0800 
 45 H       -7.1360    -3.7750     0.4740 H     1 <1>   0.0800 
 46 H       -6.1650    -5.1600     0.0120 H     1 <1>   0.0800 
 47 H       -6.9880    -4.2240    -1.2090 H     1 <1>   0.0800 
 48 H       -1.9540     7.2290     1.4980 H     1 <1>   0.0800 
 49 H       -3.6570     6.8330     1.6150 H     1 <1>   0.0800 
 50 H       -3.1420     8.2440     0.7380 H     1 <1>   0.0800 
 51 H       -0.7300     6.9320    -0.7020 H     1 <1>   0.0800 
 52 H       -1.8850     8.0670    -1.3510 H     1 <1>   0.0800 
 53 H       -1.6200     6.5440    -2.1470 H     1 <1>   0.0800 
 54 H       -4.9070     6.0450    -0.4530 H     1 <1>   0.0800 
 55 H       -4.0950     5.9870    -1.9990 H     1 <1>   0.0800 
 56 H       -4.3840     7.5160    -1.2270 H     1 <1>   0.0800 
@<TRIPOS>BOND
  1   1   2  2   
  2   2   3  am  
  3   2   4  1   
  4   3   5  1   
  5   3   6  1   
  6   4   7  ar  
  7   4   8  ar  
  8   5   9  1   
  9   5  26  1   
 10   5  27  1   
 11   6  10  1   
 12   6  28  1   
 13   6  29  1   
 14   7  11  ar  
 15   7  30  1   
 16   8  12  ar  
 17   8  31  1   
 18   9  13  1   
 19   9  14  2   
 20  10  15  1   
 21  10  32  1   
 22  10  33  1   
 23  11  16  ar  
 24  11  34  1   
 25  12  16  ar  
 26  12  35  1   
 27  13  17  1   
 28  13  36  1   
 29  14  18  1   
 30  14  37  1   
 31  15  19  1   
 32  15  20  1   
 33  15  38  1   
 34  16  21  1   
 35  17  18  2   
 36  17  22  1   
 37  19  39  1   
 38  19  40  1   
 39  19  41  1   
 40  20  42  1   
 41  20  43  1   
 42  20  44  1   
 43  21  23  1   
 44  21  24  1   
 45  21  25  1   
 46  22  45  1   
 47  22  46  1   
 48  22  47  1   
 49  23  48  1   
 50  23  49  1   
 51  23  50  1   
 52  24  51  1   
 53  24  52  1   
 54  24  53  1   
 55  25  54  1   
 56  25  55  1   
 57  25  56  1   
@<TRIPOS>SUBSTRUCTURE
  1 ****  10 GROUP 4 **** **** 0

# MOE 2024.06 (io_trps.svl 2023.06)
