@<TRIPOS>MOLECULE
NONAME
54 57 1 0 0 
SMALL
USER_CHARGES


@<TRIPOS>ATOM
  1 N       -0.9210     0.1330    -0.1910 N.ar  1 <1>  -0.6200 
  2 C        0.3450     0.4080    -0.4550 C.ar  1 <1>   0.7710 
  3 C       -1.7470     1.1370     0.0260 C.ar  1 <1>   0.4100 
  4 N        0.8000     1.6700    -0.4890 N.ar  1 <1>  -0.1790 
  5 N        1.2160    -0.6110    -0.7070 N.pl3 1 <1>  -0.8380 
  6 N       -3.0480     0.8080     0.2240 N.pl3 1 <1>  -0.8380 
  7 C       -1.3040     2.4830     0.0520 C.ar  1 <1>  -0.1430 
  8 C        0.0030     2.7310    -0.2280 C.ar  1 <1>   0.2180 
  9 C        0.7280    -2.0200    -0.8760 C.3   1 <1>   0.1290 
 10 C        2.7090    -0.5200    -0.7910 C.3   1 <1>   0.1290 
 11 C       -3.4390    -0.2820     1.1610 C.3   1 <1>   0.2090 
 12 C       -4.1240     1.2400    -0.7100 C.3   1 <1>   0.2090 
 13 C       -2.2630     3.6210     0.4150 C.3   1 <1>  -0.0170 
 14 C        0.6280     4.1240    -0.2430 C.3   1 <1>  -0.0170 
 15 C       -3.9540    -1.5070     0.3880 C.3   1 <1>  -0.0800 
 16 C       -4.6440     0.0320    -1.4940 C.3   1 <1>  -0.1600 
 17 C       -1.5250     4.9040     0.8170 C.3   1 <1>  -0.1600 
 18 C       -0.4260     5.2380    -0.1970 C.3   1 <1>  -0.1600 
 19 C       -5.0950    -1.1070    -0.5690 C.3   1 <1>  -0.1600 
 20 C       -4.3880    -2.5960     1.3860 C.3   1 <1>   0.0960 
 21 N       -4.8390    -3.8260     0.7020 N.pl3 1 <1>   0.0480 
 22 C       -4.0850    -4.7390     0.0500 C.2   1 <1>   0.0360 
 23 C       -6.0980    -4.2910     0.6000 C.2   1 <1>  -0.3020 
 24 N       -4.7600    -5.7230    -0.4480 N.2   1 <1>  -0.5650 
 25 C       -6.0300    -5.4430    -0.1020 C.2   1 <1>   0.0770 
 26 H        1.7750     1.7700    -0.7310 H     1 <1>   0.4570 
 27 H       -0.3060    -2.0460    -1.1810 H     1 <1>   0.0800 
 28 H        0.8260    -2.5550     0.0530 H     1 <1>   0.0800 
 29 H        1.3030    -2.5260    -1.6330 H     1 <1>   0.0800 
 30 H        3.0840     0.3740    -0.3250 H     1 <1>   0.0800 
 31 H        3.0200    -0.5440    -1.8230 H     1 <1>   0.0800 
 32 H        3.1530    -1.3610    -0.2840 H     1 <1>   0.0800 
 33 H       -4.2090     0.0880     1.8170 H     1 <1>   0.0800 
 34 H       -2.5920    -0.5600     1.7650 H     1 <1>   0.0800 
 35 H       -3.7440     1.9670    -1.4060 H     1 <1>   0.0800 
 36 H       -4.9250     1.6880    -0.1480 H     1 <1>   0.0800 
 37 H       -2.8990     3.3180     1.2290 H     1 <1>   0.0800 
 38 H       -2.8910     3.8350    -0.4320 H     1 <1>   0.0800 
 39 H        1.2290     4.2550    -1.1270 H     1 <1>   0.0800 
 40 H        1.2710     4.2200     0.6160 H     1 <1>   0.0800 
 41 H       -3.1290    -1.8880    -0.1900 H     1 <1>   0.0800 
 42 H       -3.8610    -0.3200    -2.1430 H     1 <1>   0.0800 
 43 H       -5.4680     0.3400    -2.1140 H     1 <1>   0.0800 
 44 H       -1.0910     4.7800     1.7960 H     1 <1>   0.0800 
 45 H       -2.2290     5.7180     0.8740 H     1 <1>   0.0800 
 46 H       -0.8700     5.3580    -1.1710 H     1 <1>   0.0800 
 47 H        0.0430     6.1720     0.0660 H     1 <1>   0.0800 
 48 H       -5.9530    -0.7870    -0.0020 H     1 <1>   0.0800 
 49 H       -5.3890    -1.9490    -1.1730 H     1 <1>   0.0800 
 50 H       -5.1930    -2.2340     2.0000 H     1 <1>   0.0800 
 51 H       -3.5640    -2.8540     2.0280 H     1 <1>   0.0800 
 52 H       -3.0180    -4.6380    -0.0380 H     1 <1>   0.1500 
 53 H       -6.9530    -3.7940     1.0190 H     1 <1>   0.1500 
 54 H       -6.8410    -6.0950    -0.3820 H     1 <1>   0.1500 
@<TRIPOS>BOND
  1   1   2  ar  
  2   1   3  ar  
  3   2   4  ar  
  4   2   5  1   
  5   3   6  1   
  6   3   7  ar  
  7   4   8  ar  
  8   4  26  1   
  9   5   9  1   
 10   5  10  1   
 11   6  11  1   
 12   6  12  1   
 13   7   8  ar  
 14   7  13  1   
 15   8  14  1   
 16   9  27  1   
 17   9  28  1   
 18   9  29  1   
 19  10  30  1   
 20  10  31  1   
 21  10  32  1   
 22  11  15  1   
 23  11  33  1   
 24  11  34  1   
 25  12  16  1   
 26  12  35  1   
 27  12  36  1   
 28  13  17  1   
 29  13  37  1   
 30  13  38  1   
 31  14  18  1   
 32  14  39  1   
 33  14  40  1   
 34  15  19  1   
 35  15  20  1   
 36  15  41  1   
 37  16  19  1   
 38  16  42  1   
 39  16  43  1   
 40  17  18  1   
 41  17  44  1   
 42  17  45  1   
 43  18  46  1   
 44  18  47  1   
 45  19  48  1   
 46  19  49  1   
 47  20  21  1   
 48  20  50  1   
 49  20  51  1   
 50  21  22  1   
 51  21  23  1   
 52  22  24  2   
 53  22  52  1   
 54  23  25  2   
 55  23  53  1   
 56  24  25  1   
 57  25  54  1   
@<TRIPOS>SUBSTRUCTURE
  1 ****   6 GROUP 4 **** **** 0

# MOE 2024.06 (io_trps.svl 2023.06)
