@<TRIPOS>MOLECULE
NONAME
45 46 1 0 0 
SMALL
USER_CHARGES


@<TRIPOS>ATOM
  1 S       -2.1900    -0.3780    -0.7590 S.3   1 <1>  -0.0800 
  2 C       -1.2090    -1.6400    -0.0850 C.2   1 <1>   0.4420 
  3 C       -1.1510     0.7500     0.0390 C.2   1 <1>   0.1980 
  4 N       -0.2490    -1.1750     0.6310 N.2   1 <1>  -0.3380 
  5 N       -1.5680    -2.9330    -0.3900 N.am  1 <1>  -0.4940 
  6 N       -0.2220     0.1890     0.6970 N.2   1 <1>  -0.3380 
  7 C       -1.4290     2.2280    -0.1120 C.3   1 <1>   0.0200 
  8 C       -1.0520    -4.1250     0.0460 C.2   1 <1>   0.5690 
  9 C       -0.4010     3.0100     0.7140 C.3   1 <1>   0.3430 
 10 O       -0.1380    -4.1980     0.8300 O.2   1 <1>  -0.5700 
 11 C       -1.6690    -5.4050    -0.5150 C.3   1 <1>   0.2370 
 12 N       -0.6270     4.4940     0.6860 N.4   1 <1>  -0.9590 
 13 N       -3.1420    -5.2060    -0.5680 N.pl3 1 <1>   0.3140 
 14 C       -1.2370    -6.7150     0.1790 C.3   1 <1>  -0.2400 
 15 C       -0.3490     5.0930    -0.6600 C.3   1 <1>   0.2630 
 16 C        0.2340     5.1490     1.7210 C.3   1 <1>   0.2630 
 17 N       -3.6570    -4.5980    -1.6610 N.2   1 <1>  -0.7070 
 18 C       -4.1070    -5.3910     0.3710 C.2   1 <1>  -0.3320 
 19 C       -4.9200    -4.4620    -1.4170 C.2   1 <1>   0.1080 
 20 C       -5.2620    -4.9350    -0.1590 C.2   1 <1>  -0.1500 
 21 C       -3.9320    -5.9710     1.7650 C.3   1 <1>  -0.0600 
 22 C       -5.8800    -3.8470    -2.4080 C.3   1 <1>  -0.0590 
 23 H       -2.3930    -3.0380    -0.9970 H     1 <1>   0.3700 
 24 H       -2.4230     2.4290     0.2440 H     1 <1>   0.0800 
 25 H       -1.3580     2.4830    -1.1530 H     1 <1>   0.0800 
 26 H        0.5890     2.7830     0.3500 H     1 <1>   0.0800 
 27 H       -0.4560     2.6590     1.7330 H     1 <1>   0.0800 
 28 H       -1.3410    -5.4760    -1.5350 H     1 <1>   0.0800 
 29 H       -1.6110     4.6820     0.9370 H     1 <1>   0.4500 
 30 H       -1.3480    -6.6440     1.2450 H     1 <1>   0.0800 
 31 H       -0.1950    -6.8930    -0.0210 H     1 <1>   0.0800 
 32 H       -1.8040    -7.5470    -0.1980 H     1 <1>   0.0800 
 33 H        0.6700     4.9000    -0.9530 H     1 <1>   0.0800 
 34 H       -0.5020     6.1600    -0.6330 H     1 <1>   0.0800 
 35 H       -1.0080     4.6750    -1.4040 H     1 <1>   0.0800 
 36 H        1.2770     4.9770     1.5060 H     1 <1>   0.0800 
 37 H        0.0150     4.7500     2.6990 H     1 <1>   0.0800 
 38 H        0.0570     6.2130     1.7390 H     1 <1>   0.0800 
 39 H       -6.2450    -4.9200     0.2770 H     1 <1>   0.1500 
 40 H       -3.1660    -5.4390     2.3010 H     1 <1>   0.0800 
 41 H       -3.6720    -7.0130     1.7090 H     1 <1>   0.0800 
 42 H       -4.8500    -5.8850     2.3190 H     1 <1>   0.0800 
 43 H       -5.5750    -2.8420    -2.6320 H     1 <1>   0.0800 
 44 H       -6.8760    -3.8320    -2.0070 H     1 <1>   0.0800 
 45 H       -5.8750    -4.4240    -3.3150 H     1 <1>   0.0800 
@<TRIPOS>BOND
  1   1   2  1   
  2   1   3  1   
  3   2   4  2   
  4   2   5  1   
  5   3   6  2   
  6   3   7  1   
  7   4   6  1   
  8   5   8  am  
  9   5  23  1   
 10   7   9  1   
 11   7  24  1   
 12   7  25  1   
 13   8  10  2   
 14   8  11  1   
 15   9  12  1   
 16   9  26  1   
 17   9  27  1   
 18  11  13  1   
 19  11  14  1   
 20  11  28  1   
 21  12  15  1   
 22  12  16  1   
 23  12  29  1   
 24  13  17  1   
 25  13  18  1   
 26  14  30  1   
 27  14  31  1   
 28  14  32  1   
 29  15  33  1   
 30  15  34  1   
 31  15  35  1   
 32  16  36  1   
 33  16  37  1   
 34  16  38  1   
 35  17  19  2   
 36  18  20  2   
 37  18  21  1   
 38  19  20  1   
 39  19  22  1   
 40  20  39  1   
 41  21  40  1   
 42  21  41  1   
 43  21  42  1   
 44  22  43  1   
 45  22  44  1   
 46  22  45  1   
@<TRIPOS>SUBSTRUCTURE
  1 ****   2 GROUP 4 **** **** 0

# MOE 2024.06 (io_trps.svl 2023.06)
