@<TRIPOS>MOLECULE
NONAME
42 43 1 0 0 
SMALL
USER_CHARGES


@<TRIPOS>ATOM
  1 O       -2.9230    -1.0070    -0.1020 O.3   1 <1>  -0.6800 
  2 C       -2.0670    -1.2590     0.9670 C.3   1 <1>   0.2800 
  3 C       -2.7780    -2.2250     1.9610 C.3   1 <1>   0.2090 
  4 C       -1.8040     0.1020     1.6630 C.3   1 <1>  -0.0220 
  5 C       -0.7830    -1.9140     0.3960 C.3   1 <1>  -0.0220 
  6 N       -3.0700    -3.6070     1.4450 N.pl3 1 <1>  -0.8690 
  7 C       -1.7280     1.3070     0.7260 C.2   1 <1>  -0.2880 
  8 C       -0.0410    -1.0910    -0.6480 C.2   1 <1>  -0.2880 
  9 C       -4.0470    -4.0300     0.6090 C.ar  1 <1>   0.7710 
 10 C       -2.6660     2.2530     0.6330 C.2   1 <1>  -0.3000 
 11 C       -0.0810    -1.3130    -1.9650 C.2   1 <1>  -0.3000 
 12 N       -4.5710    -3.1600    -0.2980 N.ar  1 <1>  -0.1790 
 13 N       -4.4330    -5.2690     0.7130 N.ar  1 <1>  -0.5670 
 14 C       -5.5410    -3.4880    -1.1570 C.ar  1 <1>   0.4610 
 15 C       -5.4230    -5.6440    -0.1370 C.ar  1 <1>   0.1050 
 16 N       -6.0090    -2.5850    -2.0350 N.pl3 1 <1>  -0.9000 
 17 C       -5.9990    -4.8070    -1.0650 C.ar  1 <1>   0.0000 
 18 N       -6.0380    -6.8460    -0.2650 N.pl3 1 <1>   0.3140 
 19 C       -6.9570    -5.6110    -1.7010 C.2   1 <1>   0.1390 
 20 N       -6.9860    -6.8130    -1.2340 N.2   1 <1>  -0.7070 
 21 C       -5.7820    -8.0730     0.5040 C.3   1 <1>   0.0160 
 22 H       -2.5400    -0.2260    -0.5720 H     1 <1>   0.4000 
 23 H       -3.6970    -1.7720     2.2940 H     1 <1>   0.0800 
 24 H       -2.1510    -2.3260     2.8310 H     1 <1>   0.0800 
 25 H       -0.8990     0.0460     2.2420 H     1 <1>   0.0800 
 26 H       -2.5980     0.2890     2.3650 H     1 <1>   0.0800 
 27 H       -1.0420    -2.8580    -0.0480 H     1 <1>   0.0800 
 28 H       -0.1040    -2.1310     1.2020 H     1 <1>   0.0800 
 29 H       -2.7020    -4.3590     2.0400 H     1 <1>   0.4000 
 30 H       -0.8300     1.3490     0.1330 H     1 <1>   0.1500 
 31 H        0.5530    -0.3000    -0.2220 H     1 <1>   0.1500 
 32 H       -2.5960     3.1030    -0.0260 H     1 <1>   0.1500 
 33 H       -3.5790     2.2720     1.2040 H     1 <1>   0.1500 
 34 H        0.4610    -0.7250    -2.6870 H     1 <1>   0.1500 
 35 H       -0.6480    -2.0970    -2.4370 H     1 <1>   0.1500 
 36 H       -4.1150    -2.2470    -0.3210 H     1 <1>   0.4570 
 37 H       -6.7510    -2.8040    -2.7120 H     1 <1>   0.4000 
 38 H       -5.6870    -1.6140    -2.1260 H     1 <1>   0.4000 
 39 H       -7.6020    -5.2700    -2.4940 H     1 <1>   0.1500 
 40 H       -4.9220    -7.9380     1.1330 H     1 <1>   0.0800 
 41 H       -5.6070    -8.8830    -0.1800 H     1 <1>   0.0800 
 42 H       -6.6430    -8.2950     1.1060 H     1 <1>   0.0800 
@<TRIPOS>BOND
  1   1   2  1   
  2   1  22  1   
  3   2   3  1   
  4   2   4  1   
  5   2   5  1   
  6   3   6  1   
  7   3  23  1   
  8   3  24  1   
  9   4   7  1   
 10   4  25  1   
 11   4  26  1   
 12   5   8  1   
 13   5  27  1   
 14   5  28  1   
 15   6   9  1   
 16   6  29  1   
 17   7  10  2   
 18   7  30  1   
 19   8  11  2   
 20   8  31  1   
 21   9  12  ar  
 22   9  13  ar  
 23  10  32  1   
 24  10  33  1   
 25  11  34  1   
 26  11  35  1   
 27  12  14  ar  
 28  12  36  1   
 29  13  15  ar  
 30  14  16  1   
 31  14  17  ar  
 32  15  17  ar  
 33  15  18  1   
 34  16  37  1   
 35  16  38  1   
 36  17  19  1   
 37  18  20  1   
 38  18  21  1   
 39  19  20  2   
 40  19  39  1   
 41  21  40  1   
 42  21  41  1   
 43  21  42  1   
@<TRIPOS>SUBSTRUCTURE
  1 ****  12 GROUP 4 **** **** 0

# MOE 2024.06 (io_trps.svl 2023.06)
