@<TRIPOS>MOLECULE
NONAME
42 43 1 0 0 
SMALL
USER_CHARGES


@<TRIPOS>ATOM
  1 CL       2.9580     2.2690    -2.3230 Cl    1 <1>  -0.1770 
  2 C        2.9350     0.7520    -1.4530 C.ar  1 <1>   0.1770 
  3 C        3.7360     0.5630    -0.3260 C.ar  1 <1>   0.0830 
  4 C        2.1110    -0.2550    -1.9180 C.ar  1 <1>  -0.1500 
  5 O        4.5510     1.5330     0.1450 O.3   1 <1>  -0.3630 
  6 C        3.7240    -0.6610     0.3310 C.ar  1 <1>  -0.1500 
  7 C        2.1130    -1.4570    -1.2360 C.ar  1 <1>   0.1900 
  8 C        3.9520     2.6210     0.8370 C.3   1 <1>   0.2610 
  9 C        2.9040    -1.6820    -0.1230 C.ar  1 <1>  -0.1500 
 10 F        1.3390    -2.4200    -1.6610 F     1 <1>  -0.1900 
 11 C        4.2630     3.9930     0.2000 C.2   1 <1>   0.5690 
 12 C        4.3890     2.5370     2.3050 C.3   1 <1>  -0.2400 
 13 O        3.3520     4.7920     0.2160 O.2   1 <1>  -0.5700 
 14 N        5.4880     4.3500    -0.3210 N.am  1 <1>  -0.6600 
 15 C        5.6800     5.6940    -0.9530 C.3   1 <1>   0.3200 
 16 C        6.7190     3.5100    -0.3000 C.3   1 <1>   0.1400 
 17 C        6.5740     6.5840    -0.1000 C.2   1 <1>   0.0060 
 18 C        6.9250     2.8450    -1.6600 C.3   1 <1>  -0.2400 
 19 N        7.8050     6.8590    -0.4040 N.2   1 <1>  -0.5650 
 20 N        6.1570     7.1680     1.0520 N.pl3 1 <1>   0.0480 
 21 C        8.2140     7.6580     0.5980 C.2   1 <1>   0.0770 
 22 C        7.2240     7.8560     1.4930 C.2   1 <1>  -0.3020 
 23 C        4.8390     7.0950     1.7080 C.3   1 <1>   0.0160 
 24 H        1.4900    -0.1110    -2.7830 H     1 <1>   0.1500 
 25 H        4.3550    -0.8070     1.1910 H     1 <1>   0.1500 
 26 H        2.8850     2.4890     0.7940 H     1 <1>   0.0800 
 27 H        2.8760    -2.6360     0.3730 H     1 <1>   0.1500 
 28 H        5.4510     2.6670     2.3940 H     1 <1>   0.0800 
 29 H        4.1050     1.5880     2.7220 H     1 <1>   0.0800 
 30 H        3.9040     3.3150     2.8670 H     1 <1>   0.0800 
 31 H        4.7360     6.1840    -1.1140 H     1 <1>   0.0800 
 32 H        6.1360     5.5690    -1.9190 H     1 <1>   0.0800 
 33 H        6.6500     2.7570     0.4630 H     1 <1>   0.0800 
 34 H        7.5740     4.1220    -0.0640 H     1 <1>   0.0800 
 35 H        6.0590     2.2710    -1.9350 H     1 <1>   0.0800 
 36 H        7.7700     2.1830    -1.6100 H     1 <1>   0.0800 
 37 H        7.1210     3.5810    -2.4180 H     1 <1>   0.0800 
 38 H        9.2160     8.0540     0.6220 H     1 <1>   0.1500 
 39 H        7.2250     8.4370     2.3970 H     1 <1>   0.1500 
 40 H        4.0640     7.2350     0.9770 H     1 <1>   0.0800 
 41 H        4.7650     7.8610     2.4570 H     1 <1>   0.0800 
 42 H        4.7260     6.1300     2.1670 H     1 <1>   0.0800 
@<TRIPOS>BOND
  1   1   2  1   
  2   2   3  ar  
  3   2   4  ar  
  4   3   5  1   
  5   3   6  ar  
  6   4   7  ar  
  7   4  24  1   
  8   5   8  1   
  9   6   9  ar  
 10   6  25  1   
 11   7   9  ar  
 12   7  10  1   
 13   8  11  1   
 14   8  12  1   
 15   8  26  1   
 16   9  27  1   
 17  11  13  2   
 18  11  14  am  
 19  12  28  1   
 20  12  29  1   
 21  12  30  1   
 22  14  15  1   
 23  14  16  1   
 24  15  17  1   
 25  15  31  1   
 26  15  32  1   
 27  16  18  1   
 28  16  33  1   
 29  16  34  1   
 30  17  19  2   
 31  17  20  1   
 32  18  35  1   
 33  18  36  1   
 34  18  37  1   
 35  19  21  1   
 36  20  22  1   
 37  20  23  1   
 38  21  22  2   
 39  21  38  1   
 40  22  39  1   
 41  23  40  1   
 42  23  41  1   
 43  23  42  1   
@<TRIPOS>SUBSTRUCTURE
  1 ****  11 GROUP 4 **** **** 0

# MOE 2024.06 (io_trps.svl 2023.06)
