@<TRIPOS>MOLECULE
NONAME
53 55 1 0 0 
SMALL
USER_CHARGES


@<TRIPOS>ATOM
  1 S       -1.2380    -0.4660     1.2270 S.o2  1 <1>   1.3330 
  2 O       -1.9190    -1.4560     2.0300 O.2   1 <1>  -0.6500 
  3 O       -0.6080    -0.8540    -0.0100 O.2   1 <1>  -0.6500 
  4 N       -2.4220     0.7400     0.8650 N.am  1 <1>  -0.6930 
  5 C       -0.0890     0.4200     2.2570 C.3   1 <1>  -0.1350 
  6 C       -2.0860     1.8640     0.1240 C.ar  1 <1>   0.1990 
  7 C       -3.8400     0.2700     0.7760 C.3   1 <1>   0.2570 
  8 C       -2.0430     3.1090     0.7380 C.ar  1 <1>  -0.1500 
  9 C       -1.7920     1.7730    -1.2310 C.ar  1 <1>  -0.1500 
 10 C       -4.0980    -0.7600    -0.3310 C.2   1 <1>   0.5690 
 11 C       -1.7060     4.2460     0.0230 C.ar  1 <1>  -0.1440 
 12 C       -1.4550     2.9030    -1.9530 C.ar  1 <1>  -0.1500 
 13 O       -4.6960    -0.4180    -1.3240 O.2   1 <1>  -0.5700 
 14 N       -3.6710    -2.0400    -0.1750 N.am  1 <1>  -0.7300 
 15 C       -1.4110     4.1370    -1.3270 C.ar  1 <1>  -0.1500 
 16 C       -1.6600     5.6060     0.6950 C.3   1 <1>  -0.0970 
 17 C       -3.6520    -3.0650    -1.2420 C.3   1 <1>   0.2200 
 18 C       -4.6450    -4.1800    -0.9590 C.3   1 <1>  -0.0800 
 19 C       -2.3340    -3.8280    -1.1810 C.3   1 <1>   0.1200 
 20 C       -3.8630    -5.0950    -0.0140 C.3   1 <1>   0.1200 
 21 C       -6.0160    -3.7340    -0.4180 C.3   1 <1>  -0.0170 
 22 O       -2.5070    -4.8190    -0.2110 O.3   1 <1>  -0.5600 
 23 C       -6.9470    -4.9250    -0.2500 C.ar  1 <1>  -0.1430 
 24 C       -7.1140    -5.5600     0.9640 C.ar  1 <1>  -0.1500 
 25 C       -7.6730    -5.4330    -1.3090 C.ar  1 <1>  -0.1500 
 26 C       -7.9710    -6.6440     1.0570 C.ar  1 <1>   0.1600 
 27 C       -8.5040    -6.5230    -1.1080 C.ar  1 <1>   0.1600 
 28 N       -8.6690    -7.1420     0.0490 N.ar  1 <1>  -0.6200 
 29 H       -0.5900     0.8110     3.1200 H     1 <1>   0.0800 
 30 H        0.3460     1.2330     1.7090 H     1 <1>   0.0800 
 31 H        0.6960    -0.2360     2.5790 H     1 <1>   0.0800 
 32 H       -4.1290    -0.1600     1.7180 H     1 <1>   0.0800 
 33 H       -4.4770     1.1170     0.5960 H     1 <1>   0.0800 
 34 H       -2.2800     3.1760     1.7830 H     1 <1>   0.1500 
 35 H       -1.8290     0.8140    -1.7170 H     1 <1>   0.1500 
 36 H       -1.2290     2.8220    -3.0020 H     1 <1>   0.1500 
 37 H       -3.1160    -2.2930     0.6580 H     1 <1>   0.3700 
 38 H       -1.1490     5.0120    -1.8960 H     1 <1>   0.1500 
 39 H       -0.6870     6.0460     0.5660 H     1 <1>   0.0800 
 40 H       -1.8610     5.5240     1.7480 H     1 <1>   0.0800 
 41 H       -2.3960     6.2550     0.2550 H     1 <1>   0.0800 
 42 H       -3.8070    -2.6080    -2.2060 H     1 <1>   0.0800 
 43 H       -4.8030    -4.7220    -1.8740 H     1 <1>   0.0800 
 44 H       -1.5000    -3.2010    -0.9150 H     1 <1>   0.0800 
 45 H       -2.1370    -4.3190    -2.1170 H     1 <1>   0.0800 
 46 H       -4.0450    -6.1370    -0.2180 H     1 <1>   0.0800 
 47 H       -4.0870    -4.8800     1.0160 H     1 <1>   0.0800 
 48 H       -6.4550    -3.0280    -1.1010 H     1 <1>   0.0800 
 49 H       -5.9030    -3.2370     0.5300 H     1 <1>   0.0800 
 50 H       -6.5880    -5.2230     1.8380 H     1 <1>   0.1500 
 51 H       -7.6000    -4.9910    -2.2860 H     1 <1>   0.1500 
 52 H       -8.0880    -7.1270     2.0120 H     1 <1>   0.1500 
 53 H       -9.0620    -6.9050    -1.9450 H     1 <1>   0.1500 
@<TRIPOS>BOND
  1   1   2  2   
  2   1   3  2   
  3   1   4  am  
  4   1   5  1   
  5   4   6  1   
  6   4   7  1   
  7   5  29  1   
  8   5  30  1   
  9   5  31  1   
 10   6   8  ar  
 11   6   9  ar  
 12   7  10  1   
 13   7  32  1   
 14   7  33  1   
 15   8  11  ar  
 16   8  34  1   
 17   9  12  ar  
 18   9  35  1   
 19  10  13  2   
 20  10  14  am  
 21  11  15  ar  
 22  11  16  1   
 23  12  15  ar  
 24  12  36  1   
 25  14  17  1   
 26  14  37  1   
 27  15  38  1   
 28  16  39  1   
 29  16  40  1   
 30  16  41  1   
 31  17  18  1   
 32  17  19  1   
 33  17  42  1   
 34  18  20  1   
 35  18  21  1   
 36  18  43  1   
 37  19  22  1   
 38  19  44  1   
 39  19  45  1   
 40  20  22  1   
 41  20  46  1   
 42  20  47  1   
 43  21  23  1   
 44  21  48  1   
 45  21  49  1   
 46  23  24  ar  
 47  23  25  ar  
 48  24  26  ar  
 49  24  50  1   
 50  25  27  ar  
 51  25  51  1   
 52  26  28  ar  
 53  26  52  1   
 54  27  28  ar  
 55  27  53  1   
@<TRIPOS>SUBSTRUCTURE
  1 ****  14 GROUP 4 **** **** 0

# MOE 2024.06 (io_trps.svl 2023.06)
