@<TRIPOS>MOLECULE
NONAME
53 55 1 0 0 
SMALL
USER_CHARGES


@<TRIPOS>ATOM
  1 O        1.7260    -0.5070     1.8740 O.co2 1 <1>  -0.9000 
  2 C        1.6000     0.5820     1.2910 C.2   1 <1>   0.9060 
  3 O        0.9570     1.5070     1.7820 O.co2 1 <1>  -0.9000 
  4 C        2.2800     0.7750    -0.0780 C.3   1 <1>  -0.1060 
  5 C        3.5370    -0.1170    -0.1380 C.3   1 <1>   0.4230 
  6 C        2.7320     2.2470    -0.2670 C.3   1 <1>  -0.1600 
  7 C        1.3160     0.4000    -1.2280 C.3   1 <1>  -0.1600 
  8 N        3.1380    -1.5700    -0.0700 N.4   1 <1>  -0.9590 
  9 C        4.5710     0.3290     0.9360 C.3   1 <1>   0.2090 
 10 C        3.7480     2.6720     0.7980 C.3   1 <1>   0.2090 
 11 C        0.9950    -1.1020    -1.2210 C.3   1 <1>  -0.1600 
 12 C        2.2580    -1.9640    -1.2010 C.3   1 <1>   0.3430 
 13 C        4.2260    -2.5550     0.1660 C.3   1 <1>   0.2630 
 14 N        4.9540     1.7710     0.7370 N.pl3 1 <1>  -0.8380 
 15 C        6.2120     2.2510     0.5790 C.ar  1 <1>   0.4100 
 16 N        6.3400     3.4870     0.0760 N.ar  1 <1>  -0.6200 
 17 C        7.3650     1.5250     0.9150 C.ar  1 <1>  -0.1500 
 18 C        7.5260     3.9860    -0.0930 C.ar  1 <1>   0.5280 
 19 C        8.5990     2.0740     0.7240 C.ar  1 <1>   0.2180 
 20 N        8.6570     3.3180     0.2100 N.ar  1 <1>  -0.1790 
 21 C        7.6440     5.3940    -0.6610 C.3   1 <1>  -0.0170 
 22 C        9.8920     1.3550     1.0690 C.3   1 <1>  -0.0970 
 23 C        8.1190     6.4100     0.3910 C.3   1 <1>  -0.1600 
 24 C        8.2120     7.8190    -0.2030 C.3   1 <1>  -0.2400 
 25 H        4.0050     0.0480    -1.0920 H     1 <1>   0.0800 
 26 H        1.8760     2.8960    -0.1940 H     1 <1>   0.0800 
 27 H        3.1700     2.3950    -1.2380 H     1 <1>   0.0800 
 28 H        0.4010     0.9610    -1.1210 H     1 <1>   0.0800 
 29 H        1.7540     0.6620    -2.1750 H     1 <1>   0.0800 
 30 H        2.5140    -1.5540     0.7830 H     1 <1>   0.4500 
 31 H        5.4370    -0.2940     0.8520 H     1 <1>   0.0800 
 32 H        4.1580     0.2100     1.9250 H     1 <1>   0.0800 
 33 H        3.3030     2.6050     1.7780 H     1 <1>   0.0800 
 34 H        4.0080     3.7040     0.6440 H     1 <1>   0.0800 
 35 H        0.4130    -1.3470    -2.0920 H     1 <1>   0.0800 
 36 H        0.3930    -1.3410    -0.3600 H     1 <1>   0.0800 
 37 H        2.7890    -1.8460    -2.1310 H     1 <1>   0.0800 
 38 H        1.9740    -2.9990    -1.0980 H     1 <1>   0.0800 
 39 H        4.9330    -2.5340    -0.6450 H     1 <1>   0.0800 
 40 H        3.8120    -3.5470     0.2450 H     1 <1>   0.0800 
 41 H        4.7350    -2.3310     1.0890 H     1 <1>   0.0800 
 42 H        7.2700     0.5470     1.3420 H     1 <1>   0.1500 
 43 H        9.5540     3.7780     0.0530 H     1 <1>   0.4570 
 44 H        8.3160     5.3870    -1.5000 H     1 <1>   0.0800 
 45 H        6.6780     5.6990    -1.0280 H     1 <1>   0.0800 
 46 H        9.6870     0.3780     1.4690 H     1 <1>   0.0800 
 47 H       10.4440     1.9080     1.8090 H     1 <1>   0.0800 
 48 H       10.5040     1.2360     0.1920 H     1 <1>   0.0800 
 49 H        7.4210     6.4260     1.2130 H     1 <1>   0.0800 
 50 H        9.0840     6.1350     0.7800 H     1 <1>   0.0800 
 51 H        7.2520     8.1430    -0.5670 H     1 <1>   0.0800 
 52 H        8.9170     7.8500    -1.0150 H     1 <1>   0.0800 
 53 H        8.5350     8.5170     0.5510 H     1 <1>   0.0800 
@<TRIPOS>BOND
  1   1   2  ar  
  2   2   3  ar  
  3   2   4  1   
  4   4   5  1   
  5   4   6  1   
  6   4   7  1   
  7   5   8  1   
  8   5   9  1   
  9   5  25  1   
 10   6  10  1   
 11   6  26  1   
 12   6  27  1   
 13   7  11  1   
 14   7  28  1   
 15   7  29  1   
 16   8  12  1   
 17   8  13  1   
 18   8  30  1   
 19   9  14  1   
 20   9  31  1   
 21   9  32  1   
 22  10  14  1   
 23  10  33  1   
 24  10  34  1   
 25  11  12  1   
 26  11  35  1   
 27  11  36  1   
 28  12  37  1   
 29  12  38  1   
 30  13  39  1   
 31  13  40  1   
 32  13  41  1   
 33  14  15  1   
 34  15  16  ar  
 35  15  17  ar  
 36  16  18  ar  
 37  17  19  ar  
 38  17  42  1   
 39  18  20  ar  
 40  18  21  1   
 41  19  20  ar  
 42  19  22  1   
 43  20  43  1   
 44  21  23  1   
 45  21  44  1   
 46  21  45  1   
 47  22  46  1   
 48  22  47  1   
 49  22  48  1   
 50  23  24  1   
 51  23  49  1   
 52  23  50  1   
 53  24  51  1   
 54  24  52  1   
 55  24  53  1   
@<TRIPOS>SUBSTRUCTURE
  1 ****  14 GROUP 4 **** **** 0

# MOE 2024.06 (io_trps.svl 2023.06)
