@<TRIPOS>MOLECULE
NONAME
48 49 1 0 0 
SMALL
USER_CHARGES


@<TRIPOS>ATOM
  1 S        1.1330     0.4190    -1.9610 S.o2  1 <1>   1.3330 
  2 O        0.6950     1.1510    -3.1280 O.2   1 <1>  -0.6500 
  3 O        1.4210    -0.9940    -2.0690 O.2   1 <1>  -0.6500 
  4 N       -0.0650     0.6130    -0.7720 N.am  1 <1>  -0.8490 
  5 C        2.5700     1.2270    -1.2540 C.3   1 <1>  -0.0550 
  6 C       -1.0920    -0.4300    -0.8490 C.3   1 <1>   0.1160 
  7 C       -0.7020     1.9350    -0.8010 C.3   1 <1>   0.1160 
  8 C        3.1990     0.4760    -0.0600 C.3   1 <1>  -0.0800 
  9 C        4.4930     1.0780     0.4670 C.3   1 <1>   0.2200 
 10 C        2.3290     0.3930     1.2000 C.3   1 <1>   0.1200 
 11 N        4.3800     2.5520     0.5810 N.am  1 <1>  -0.7300 
 12 C        4.5190     0.4850     1.8680 C.3   1 <1>   0.1200 
 13 O        3.1920     0.5180     2.2960 O.3   1 <1>  -0.5600 
 14 C        4.8500     3.4580    -0.3260 C.2   1 <1>   0.5440 
 15 O        5.3600     3.0300    -1.3430 O.2   1 <1>  -0.5700 
 16 C        4.6980     4.8840    -0.0990 C.ar  1 <1>   0.0860 
 17 C        4.6130     5.7720    -1.1710 C.ar  1 <1>  -0.1500 
 18 C        4.6240     5.4230     1.1880 C.ar  1 <1>  -0.1500 
 19 C        4.4440     7.1320    -0.9830 C.ar  1 <1>  -0.1440 
 20 C        4.4550     6.7790     1.4070 C.ar  1 <1>  -0.1440 
 21 C        4.3620     7.6310     0.3110 C.ar  1 <1>   0.0820 
 22 C        4.3530     8.0600    -2.1870 C.3   1 <1>  -0.0970 
 23 C        4.3780     7.3060     2.8350 C.3   1 <1>  -0.0970 
 24 O        4.1950     8.9470     0.5020 O.3   1 <1>  -0.5330 
 25 H        3.3180     1.3120    -2.0190 H     1 <1>   0.0800 
 26 H        2.3050     2.2230    -0.9610 H     1 <1>   0.0800 
 27 H       -1.8300    -0.2880    -0.0790 H     1 <1>   0.0800 
 28 H       -0.6440    -1.4000    -0.7100 H     1 <1>   0.0800 
 29 H       -1.5750    -0.4090    -1.8130 H     1 <1>   0.0800 
 30 H       -1.3860     2.0350     0.0240 H     1 <1>   0.0800 
 31 H       -1.2430     2.0740    -1.7240 H     1 <1>   0.0800 
 32 H        0.0410     2.7100    -0.7190 H     1 <1>   0.0800 
 33 H        3.4110    -0.5330    -0.3720 H     1 <1>   0.0800 
 34 H        5.3560     0.8030    -0.1160 H     1 <1>   0.0800 
 35 H        1.8080    -0.5470     1.2660 H     1 <1>   0.0800 
 36 H        1.6230     1.2030     1.2530 H     1 <1>   0.0800 
 37 H        3.8340     2.8610     1.3870 H     1 <1>   0.3700 
 38 H        5.1370     1.0440     2.5490 H     1 <1>   0.0800 
 39 H        4.8350    -0.5430     1.8430 H     1 <1>   0.0800 
 40 H        4.6820     5.3750    -2.1690 H     1 <1>   0.1500 
 41 H        4.7080     4.7620     2.0310 H     1 <1>   0.1500 
 42 H        4.4060     7.5100    -3.1090 H     1 <1>   0.0800 
 43 H        5.1620     8.7670    -2.1610 H     1 <1>   0.0800 
 44 H        3.4240     8.6000    -2.1610 H     1 <1>   0.0800 
 45 H        4.4710     6.5060     3.5480 H     1 <1>   0.0800 
 46 H        3.4340     7.7930     2.9990 H     1 <1>   0.0800 
 47 H        5.1760     8.0050     3.0130 H     1 <1>   0.0800 
 48 H        4.1670     9.1920     1.4420 H     1 <1>   0.4500 
@<TRIPOS>BOND
  1   1   2  2   
  2   1   3  2   
  3   1   4  am  
  4   1   5  1   
  5   4   6  1   
  6   4   7  1   
  7   5   8  1   
  8   5  25  1   
  9   5  26  1   
 10   6  27  1   
 11   6  28  1   
 12   6  29  1   
 13   7  30  1   
 14   7  31  1   
 15   7  32  1   
 16   8   9  1   
 17   8  10  1   
 18   8  33  1   
 19   9  11  1   
 20   9  12  1   
 21   9  34  1   
 22  10  13  1   
 23  10  35  1   
 24  10  36  1   
 25  11  14  am  
 26  11  37  1   
 27  12  13  1   
 28  12  38  1   
 29  12  39  1   
 30  14  15  2   
 31  14  16  1   
 32  16  17  ar  
 33  16  18  ar  
 34  17  19  ar  
 35  17  40  1   
 36  18  20  ar  
 37  18  41  1   
 38  19  21  ar  
 39  19  22  1   
 40  20  21  ar  
 41  20  23  1   
 42  21  24  1   
 43  22  42  1   
 44  22  43  1   
 45  22  44  1   
 46  23  45  1   
 47  23  46  1   
 48  23  47  1   
 49  24  48  1   
@<TRIPOS>SUBSTRUCTURE
  1 ****  11 GROUP 4 **** **** 0

# MOE 2024.06 (io_trps.svl 2023.06)
