@<TRIPOS>MOLECULE
NONAME
50 54 1 0 0 
SMALL
USER_CHARGES


@<TRIPOS>ATOM
  1 O        1.1850    -0.5330     0.9920 O.3   1 <1>  -0.5600 
  2 C        2.1010    -1.2010     0.1550 C.3   1 <1>   0.4240 
  3 C       -0.1700    -0.6510     0.6900 C.3   1 <1>   0.1200 
  4 C        1.5740    -2.5910    -0.2700 C.ar  1 <1>  -0.1440 
  5 C        3.3780    -1.3480     0.9940 C.3   1 <1>  -0.1600 
  6 C        2.3720    -0.3120    -1.0710 C.3   1 <1>  -0.1600 
  7 C       -0.5940    -2.1010     0.8980 C.3   1 <1>  -0.0160 
  8 C        0.2990    -3.0180     0.0860 C.ar  1 <1>  -0.1440 
  9 C        2.3700    -3.4430    -1.0290 C.ar  1 <1>  -0.1500 
 10 C        3.9680     0.0120     1.3620 C.3   1 <1>   0.2090 
 11 C        2.9890     1.0290    -0.6750 C.3   1 <1>   0.2090 
 12 C       -0.1620    -4.2690    -0.2950 C.ar  1 <1>  -0.1500 
 13 C        1.9100    -4.6900    -1.4120 C.ar  1 <1>  -0.1500 
 14 N        4.2260     0.7730     0.1120 N.pl3 1 <1>  -0.8380 
 15 C        0.6450    -5.1140    -1.0480 C.ar  1 <1>   0.0820 
 16 C        5.2900     1.6600     0.0490 C.ar  1 <1>   0.4100 
 17 O        0.2710    -6.3510    -1.4620 O.3   1 <1>  -0.3630 
 18 N        5.0370     2.8940    -0.2870 N.ar  1 <1>  -0.6200 
 19 C        6.6100     1.2120     0.3480 C.ar  1 <1>   0.1600 
 20 C       -0.9890    -6.8870    -1.1260 C.3   1 <1>   0.0400 
 21 C        6.1240     3.7050    -0.3030 C.ar  1 <1>   0.3100 
 22 N        7.6740     1.9510     0.3480 N.ar  1 <1>  -0.6200 
 23 C        7.4290     3.2460     0.0120 C.ar  1 <1>   0.3100 
 24 C        5.9560     5.0560    -0.6440 C.ar  1 <1>  -0.1500 
 25 C        8.4950     4.1550    -0.0270 C.ar  1 <1>  -0.1500 
 26 C        7.0160     5.9250    -0.6760 C.ar  1 <1>  -0.1500 
 27 C        8.3000     5.4710    -0.3640 C.ar  1 <1>  -0.1500 
 28 H       -0.3370    -0.3390    -0.3260 H     1 <1>   0.0800 
 29 H       -0.7130    -0.0010     1.3530 H     1 <1>   0.0800 
 30 H        4.1210    -1.8980     0.4500 H     1 <1>   0.0800 
 31 H        3.1510    -1.9020     1.8860 H     1 <1>   0.0800 
 32 H        1.4670    -0.1520    -1.6240 H     1 <1>   0.0800 
 33 H        3.0600    -0.8070    -1.7290 H     1 <1>   0.0800 
 34 H       -1.6190    -2.2160     0.5970 H     1 <1>   0.0800 
 35 H       -0.5170    -2.3500     1.9420 H     1 <1>   0.0800 
 36 H        3.3580    -3.1450    -1.3310 H     1 <1>   0.1500 
 37 H        4.8770    -0.1210     1.9220 H     1 <1>   0.0800 
 38 H        3.2750     0.5630     1.9760 H     1 <1>   0.0800 
 39 H        2.2980     1.6020    -0.0800 H     1 <1>   0.0800 
 40 H        3.2250     1.5930    -1.5620 H     1 <1>   0.0800 
 41 H       -1.1470    -4.5710     0.0010 H     1 <1>   0.1500 
 42 H        2.5310    -5.3430    -1.9980 H     1 <1>   0.1500 
 43 H        6.7130     0.1710     0.5840 H     1 <1>   0.1500 
 44 H       -1.0570    -7.8720    -1.5510 H     1 <1>   0.0800 
 45 H       -1.7570    -6.2570    -1.5390 H     1 <1>   0.0800 
 46 H       -1.0700    -6.9440    -0.0550 H     1 <1>   0.0800 
 47 H        4.9620     5.3880    -0.8810 H     1 <1>   0.1500 
 48 H        9.4750     3.7860     0.2160 H     1 <1>   0.1500 
 49 H        6.8720     6.9600    -0.9390 H     1 <1>   0.1500 
 50 H        9.1260     6.1610    -0.3910 H     1 <1>   0.1500 
@<TRIPOS>BOND
  1   1   2  1   
  2   1   3  1   
  3   2   4  1   
  4   2   5  1   
  5   2   6  1   
  6   3   7  1   
  7   3  28  1   
  8   3  29  1   
  9   4   8  ar  
 10   4   9  ar  
 11   5  10  1   
 12   5  30  1   
 13   5  31  1   
 14   6  11  1   
 15   6  32  1   
 16   6  33  1   
 17   7   8  1   
 18   7  34  1   
 19   7  35  1   
 20   8  12  ar  
 21   9  13  ar  
 22   9  36  1   
 23  10  14  1   
 24  10  37  1   
 25  10  38  1   
 26  11  14  1   
 27  11  39  1   
 28  11  40  1   
 29  12  15  ar  
 30  12  41  1   
 31  13  15  ar  
 32  13  42  1   
 33  14  16  1   
 34  15  17  1   
 35  16  18  ar  
 36  16  19  ar  
 37  17  20  1   
 38  18  21  ar  
 39  19  22  ar  
 40  19  43  1   
 41  20  44  1   
 42  20  45  1   
 43  20  46  1   
 44  21  23  ar  
 45  21  24  ar  
 46  22  23  ar  
 47  23  25  ar  
 48  24  26  ar  
 49  24  47  1   
 50  25  27  ar  
 51  25  48  1   
 52  26  27  ar  
 53  26  49  1   
 54  27  50  1   
@<TRIPOS>SUBSTRUCTURE
  1 ****  14 GROUP 4 **** **** 0

# MOE 2024.06 (io_trps.svl 2023.06)
