@<TRIPOS>MOLECULE
NONAME
48 49 1 0 0 
SMALL
USER_CHARGES


@<TRIPOS>ATOM
  1 F        1.4650     1.5300    -1.7520 F     1 <1>  -0.1900 
  2 C        2.1460     1.6410    -0.6430 C.ar  1 <1>   0.1900 
  3 C        2.5970     0.5030     0.0060 C.ar  1 <1>  -0.1440 
  4 C        2.3870     2.9160    -0.1720 C.ar  1 <1>  -0.1500 
  5 C        3.3190     0.6850     1.1840 C.ar  1 <1>  -0.1500 
  6 C        2.2960    -0.8770    -0.5760 C.3   1 <1>   1.1640 
  7 C        3.1130     3.0820     0.9970 C.ar  1 <1>  -0.1440 
  8 C        3.5720     1.9590     1.6700 C.ar  1 <1>  -0.1500 
  9 F        2.8070    -1.0420    -1.7900 F     1 <1>  -0.3400 
 10 F        2.7980    -1.8610     0.1620 F     1 <1>  -0.3400 
 11 F        0.9960    -1.1220    -0.6710 F     1 <1>  -0.3400 
 12 C        3.4050     4.4810     1.5210 C.3   1 <1>   0.2540 
 13 N        4.1330     5.2700     0.5080 N.3   1 <1>  -0.8100 
 14 C        4.2890     6.6790     0.9160 C.3   1 <1>   0.1100 
 15 C        5.4310     4.6640     0.1400 C.3   1 <1>   0.1100 
 16 C        4.9890     7.4840    -0.2030 C.3   1 <1>   0.4230 
 17 C        6.1940     5.5120    -0.9070 C.3   1 <1>   0.3430 
 18 N        6.3830     6.9570    -0.4880 N.4   1 <1>  -0.9590 
 19 C        4.9040     8.9980     0.0360 C.3   1 <1>  -0.1600 
 20 C        7.4100     7.1800     0.5910 C.3   1 <1>   0.4230 
 21 C        5.3090     9.8270    -1.1950 C.3   1 <1>  -0.2400 
 22 C        8.1660     8.4820     0.3100 C.3   1 <1>  -0.2400 
 23 C        8.4750     6.0750     0.6540 C.3   1 <1>  -0.2400 
 24 H        2.0170     3.7670    -0.7160 H     1 <1>   0.1500 
 25 H        3.6910    -0.1640     1.7350 H     1 <1>   0.1500 
 26 H        4.1330     2.0660     2.5840 H     1 <1>   0.1500 
 27 H        3.9800     4.4270     2.4300 H     1 <1>   0.0800 
 28 H        2.4680     4.9630     1.7450 H     1 <1>   0.0800 
 29 H        4.8430     6.7500     1.8360 H     1 <1>   0.0800 
 30 H        3.3100     7.0960     1.0830 H     1 <1>   0.0800 
 31 H        5.2620     3.6890    -0.2860 H     1 <1>   0.0800 
 32 H        6.0250     4.5290     1.0250 H     1 <1>   0.0800 
 33 H        4.3970     7.3040    -1.0860 H     1 <1>   0.0800 
 34 H        5.6230     5.4840    -1.8200 H     1 <1>   0.0800 
 35 H        7.1450     5.0530    -1.1170 H     1 <1>   0.0800 
 36 H        6.7210     7.4680    -1.3090 H     1 <1>   0.4500 
 37 H        5.4570     9.2830     0.9110 H     1 <1>   0.0800 
 38 H        3.8750     9.2380     0.2460 H     1 <1>   0.0800 
 39 H        6.9240     7.2450     1.5520 H     1 <1>   0.0800 
 40 H        6.3220     9.6390    -1.5010 H     1 <1>   0.0800 
 41 H        5.2180    10.8760    -0.9720 H     1 <1>   0.0800 
 42 H        4.6580     9.6090    -2.0250 H     1 <1>   0.0800 
 43 H        8.6000     8.4730    -0.6740 H     1 <1>   0.0800 
 44 H        8.9690     8.5960     1.0180 H     1 <1>   0.0800 
 45 H        7.5540     9.3520     0.4220 H     1 <1>   0.0800 
 46 H        8.9650     5.9500    -0.2950 H     1 <1>   0.0800 
 47 H        8.0730     5.1380     0.9860 H     1 <1>   0.0800 
 48 H        9.2290     6.3420     1.3740 H     1 <1>   0.0800 
@<TRIPOS>BOND
  1   1   2  1   
  2   2   3  ar  
  3   2   4  ar  
  4   3   5  ar  
  5   3   6  1   
  6   4   7  ar  
  7   4  24  1   
  8   5   8  ar  
  9   5  25  1   
 10   6   9  1   
 11   6  10  1   
 12   6  11  1   
 13   7   8  ar  
 14   7  12  1   
 15   8  26  1   
 16  12  13  1   
 17  12  27  1   
 18  12  28  1   
 19  13  14  1   
 20  13  15  1   
 21  14  16  1   
 22  14  29  1   
 23  14  30  1   
 24  15  17  1   
 25  15  31  1   
 26  15  32  1   
 27  16  18  1   
 28  16  19  1   
 29  16  33  1   
 30  17  18  1   
 31  17  34  1   
 32  17  35  1   
 33  18  20  1   
 34  18  36  1   
 35  19  21  1   
 36  19  37  1   
 37  19  38  1   
 38  20  22  1   
 39  20  23  1   
 40  20  39  1   
 41  21  40  1   
 42  21  41  1   
 43  21  42  1   
 44  22  43  1   
 45  22  44  1   
 46  22  45  1   
 47  23  46  1   
 48  23  47  1   
 49  23  48  1   
@<TRIPOS>SUBSTRUCTURE
  1 ****  15 GROUP 4 **** **** 0

# MOE 2024.06 (io_trps.svl 2023.06)
