@<TRIPOS>MOLECULE
NONAME
53 54 1 0 0 
SMALL
USER_CHARGES


@<TRIPOS>ATOM
  1 S       -0.5370     0.2270     0.3880 S.o2  1 <1>   1.3330 
  2 O        0.0070     1.3740    -0.2900 O.2   1 <1>  -0.6500 
  3 O       -0.5950     0.1750     1.8250 O.2   1 <1>  -0.6500 
  4 N        0.5020    -0.9990    -0.0010 N.am  1 <1>  -0.9780 
  5 C       -2.1040    -0.2560    -0.3500 C.3   1 <1>  -0.0550 
  6 C       -2.6520    -1.6030     0.1570 C.3   1 <1>  -0.1600 
  7 C       -4.0140    -1.9430    -0.4790 C.3   1 <1>  -0.0990 
  8 C       -4.5960    -3.2820    -0.0340 C.2   1 <1>   0.5690 
  9 O       -3.9520    -3.9720     0.7210 O.2   1 <1>  -0.5700 
 10 N       -5.8260    -3.6820    -0.4860 N.am  1 <1>  -0.6600 
 11 C       -6.3680    -5.0320    -0.1330 C.3   1 <1>   0.1400 
 12 C       -6.7560    -2.8550    -1.3040 C.3   1 <1>   0.1400 
 13 C       -7.3870    -4.9690     1.0150 C.3   1 <1>   0.1400 
 14 C       -7.6330    -1.9520    -0.4260 C.3   1 <1>  -0.1600 
 15 N       -8.4960    -3.9980     0.7400 N.am  1 <1>  -0.6600 
 16 C       -8.1110    -2.5690     0.8970 C.3   1 <1>   0.1400 
 17 C       -9.7270    -4.3530     0.2260 C.2   1 <1>   0.7160 
 18 O      -10.4110    -3.4960    -0.3030 O.2   1 <1>  -0.5700 
 19 C      -10.2140    -5.7080     0.2800 C.2   1 <1>  -0.0860 
 20 C      -10.2530    -6.5310     1.4060 C.2   1 <1>   0.1390 
 21 C      -10.7570    -6.4920    -0.6920 C.2   1 <1>  -0.3020 
 22 N      -10.7390    -7.7060     1.1610 N.2   1 <1>  -0.7070 
 23 N      -11.0640    -7.6810    -0.1490 N.pl3 1 <1>   0.3140 
 24 C      -11.6880    -8.8350    -0.8590 C.3   1 <1>   0.1760 
 25 C      -13.0460    -9.1860    -0.2350 C.3   1 <1>  -0.2400 
 26 C      -10.7500   -10.0500    -0.8480 C.3   1 <1>  -0.2400 
 27 H        0.6780    -1.4570     0.8920 H     1 <1>   0.4200 
 28 H        1.3640    -0.5150    -0.2400 H     1 <1>   0.4200 
 29 H       -1.9790    -0.3110    -1.4140 H     1 <1>   0.0800 
 30 H       -2.8250     0.5110    -0.1460 H     1 <1>   0.0800 
 31 H       -2.7590    -1.5660     1.2290 H     1 <1>   0.0800 
 32 H       -1.9480    -2.3850    -0.0750 H     1 <1>   0.0800 
 33 H       -3.9040    -1.9700    -1.5470 H     1 <1>   0.0800 
 34 H       -4.7140    -1.1690    -0.2280 H     1 <1>   0.0800 
 35 H       -5.5630    -5.6850     0.1570 H     1 <1>   0.0800 
 36 H       -6.8340    -5.4720    -0.9970 H     1 <1>   0.0800 
 37 H       -7.3970    -3.5080    -1.8720 H     1 <1>   0.0800 
 38 H       -6.2070    -2.2580    -2.0120 H     1 <1>   0.0800 
 39 H       -6.8750    -4.6820     1.9180 H     1 <1>   0.0800 
 40 H       -7.7730    -5.9580     1.1720 H     1 <1>   0.0800 
 41 H       -8.4970    -1.6650    -0.9990 H     1 <1>   0.0800 
 42 H       -7.1030    -1.0450    -0.2030 H     1 <1>   0.0800 
 43 H       -8.9540    -2.0110     1.2690 H     1 <1>   0.0800 
 44 H       -7.3240    -2.4950     1.6290 H     1 <1>   0.0800 
 45 H       -9.9150    -6.2250     2.3820 H     1 <1>   0.1500 
 46 H      -10.9350    -6.2440    -1.7220 H     1 <1>   0.1500 
 47 H      -11.8500    -8.5370    -1.8800 H     1 <1>   0.0800 
 48 H      -12.9170    -9.4970     0.7880 H     1 <1>   0.0800 
 49 H      -13.5110    -9.9870    -0.7810 H     1 <1>   0.0800 
 50 H      -13.6970    -8.3310    -0.2610 H     1 <1>   0.0800 
 51 H      -10.5730   -10.3750     0.1620 H     1 <1>   0.0800 
 52 H       -9.8100    -9.7960    -1.3050 H     1 <1>   0.0800 
 53 H      -11.1890   -10.8630    -1.3980 H     1 <1>   0.0800 
@<TRIPOS>BOND
  1   1   2  2   
  2   1   3  2   
  3   1   4  am  
  4   1   5  1   
  5   4  27  1   
  6   4  28  1   
  7   5   6  1   
  8   5  29  1   
  9   5  30  1   
 10   6   7  1   
 11   6  31  1   
 12   6  32  1   
 13   7   8  1   
 14   7  33  1   
 15   7  34  1   
 16   8   9  2   
 17   8  10  am  
 18  10  11  1   
 19  10  12  1   
 20  11  13  1   
 21  11  35  1   
 22  11  36  1   
 23  12  14  1   
 24  12  37  1   
 25  12  38  1   
 26  13  15  1   
 27  13  39  1   
 28  13  40  1   
 29  14  16  1   
 30  14  41  1   
 31  14  42  1   
 32  15  16  1   
 33  15  17  am  
 34  16  43  1   
 35  16  44  1   
 36  17  18  2   
 37  17  19  1   
 38  19  20  1   
 39  19  21  2   
 40  20  22  2   
 41  20  45  1   
 42  21  23  1   
 43  21  46  1   
 44  22  23  1   
 45  23  24  1   
 46  24  25  1   
 47  24  26  1   
 48  24  47  1   
 49  25  48  1   
 50  25  49  1   
 51  25  50  1   
 52  26  51  1   
 53  26  52  1   
 54  26  53  1   
@<TRIPOS>SUBSTRUCTURE
  1 ****  11 GROUP 4 **** **** 0

# MOE 2024.06 (io_trps.svl 2023.06)
