@<TRIPOS>MOLECULE
NONAME
39 40 1 0 0 
SMALL
USER_CHARGES


@<TRIPOS>ATOM
  1 CL      -0.2800    -0.7340    -1.0000 Cl    1 <1>  -0.1770 
  2 C       -1.7430    -1.2420    -0.1920 C.ar  1 <1>   0.1770 
  3 C       -2.6290    -0.3030     0.3150 C.ar  1 <1>  -0.1440 
  4 C       -1.9830    -2.5990    -0.0790 C.ar  1 <1>  -0.1500 
  5 C       -3.7760    -0.7540     0.9490 C.ar  1 <1>  -0.1500 
  6 C       -2.3540     1.1890     0.1880 C.3   1 <1>  -0.0960 
  7 C       -3.1390    -3.0430     0.5470 C.ar  1 <1>  -0.1430 
  8 C       -4.0280    -2.1120     1.0650 C.ar  1 <1>  -0.1500 
  9 C       -3.4290    -4.5280     0.6610 C.3   1 <1>   0.4870 
 10 N       -3.8020    -5.0450    -0.6880 N.4   1 <1>  -0.9590 
 11 C       -3.8070    -6.5500    -0.6800 C.3   1 <1>   0.3430 
 12 C       -5.0760    -4.4430    -1.1860 C.3   1 <1>   0.3430 
 13 C       -5.2110    -7.1700    -0.7660 C.3   1 <1>  -0.0800 
 14 C       -6.2970    -4.9110    -0.3770 C.3   1 <1>  -0.1600 
 15 C       -6.2180    -6.3770     0.0780 C.3   1 <1>   0.2000 
 16 C       -5.1580    -8.6470    -0.3570 C.3   1 <1>   0.1200 
 17 O       -5.7950    -6.3970     1.3970 O.3   1 <1>  -0.6800 
 18 O       -4.1580    -9.2570    -1.0960 O.3   1 <1>  -0.6800 
 19 H       -1.2560    -3.2810    -0.4820 H     1 <1>   0.1500 
 20 H       -4.4780    -0.0470     1.3590 H     1 <1>   0.1500 
 21 H       -3.1420     1.7680     0.6340 H     1 <1>   0.0800 
 22 H       -2.2750     1.4620    -0.8490 H     1 <1>   0.0800 
 23 H       -1.4300     1.4350     0.6810 H     1 <1>   0.0800 
 24 H       -4.9250    -2.4290     1.5700 H     1 <1>   0.1500 
 25 H       -4.2280    -4.6960     1.3630 H     1 <1>   0.0800 
 26 H       -2.5500    -5.0360     1.0230 H     1 <1>   0.0800 
 27 H       -3.0500    -4.7350    -1.3150 H     1 <1>   0.4500 
 28 H       -3.2240    -6.9250    -1.5060 H     1 <1>   0.0800 
 29 H       -3.3400    -6.9040     0.2250 H     1 <1>   0.0800 
 30 H       -5.0160    -3.3660    -1.1650 H     1 <1>   0.0800 
 31 H       -5.2150    -4.7400    -2.2130 H     1 <1>   0.0800 
 32 H       -5.5360    -7.1430    -1.7910 H     1 <1>   0.0800 
 33 H       -7.1540    -4.8010    -1.0170 H     1 <1>   0.0800 
 34 H       -6.4580    -4.2590     0.4630 H     1 <1>   0.0800 
 35 H       -7.1910    -6.8400     0.0390 H     1 <1>   0.0800 
 36 H       -6.0920    -9.1410    -0.5680 H     1 <1>   0.0800 
 37 H       -4.9190    -8.7600     0.6880 H     1 <1>   0.0800 
 38 H       -6.5510    -6.2380     2.0020 H     1 <1>   0.4000 
 39 H       -4.1430   -10.2240    -0.9320 H     1 <1>   0.4000 
@<TRIPOS>BOND
  1   1   2  1   
  2   2   3  ar  
  3   2   4  ar  
  4   3   5  ar  
  5   3   6  1   
  6   4   7  ar  
  7   4  19  1   
  8   5   8  ar  
  9   5  20  1   
 10   6  21  1   
 11   6  22  1   
 12   6  23  1   
 13   7   8  ar  
 14   7   9  1   
 15   8  24  1   
 16   9  10  1   
 17   9  25  1   
 18   9  26  1   
 19  10  11  1   
 20  10  12  1   
 21  10  27  1   
 22  11  13  1   
 23  11  28  1   
 24  11  29  1   
 25  12  14  1   
 26  12  30  1   
 27  12  31  1   
 28  13  15  1   
 29  13  16  1   
 30  13  32  1   
 31  14  15  1   
 32  14  33  1   
 33  14  34  1   
 34  15  17  1   
 35  15  35  1   
 36  16  18  1   
 37  16  36  1   
 38  16  37  1   
 39  17  38  1   
 40  18  39  1   
@<TRIPOS>SUBSTRUCTURE
  1 ****   9 GROUP 4 **** **** 0

# MOE 2024.06 (io_trps.svl 2023.06)
