@<TRIPOS>MOLECULE
NONAME
44 46 1 0 0 
SMALL
USER_CHARGES


@<TRIPOS>ATOM
  1 O       -0.3410     0.0890     0.2590 O.2   1 <1>  -0.5700 
  2 C       -1.3720     0.6660     0.0080 C.2   1 <1>   0.5690 
  3 N       -2.5130    -0.0190    -0.3060 N.am  1 <1>  -0.6600 
  4 C       -1.4060     2.1860     0.0430 C.3   1 <1>  -0.0990 
  5 C       -3.8470     0.5680    -0.5830 C.3   1 <1>   0.1400 
  6 C       -2.5710    -1.4990    -0.3500 C.3   1 <1>   0.1400 
  7 C       -0.0430     2.8330     0.3280 C.3   1 <1>  -0.0170 
  8 C       -4.7680    -0.6310    -0.8200 C.3   1 <1>   0.2000 
  9 C       -4.0560    -1.8360    -0.2070 C.3   1 <1>  -0.0800 
 10 C       -0.1760     4.3470     0.3350 C.ar  1 <1>  -0.1440 
 11 O       -6.0010    -0.4540    -0.2140 O.3   1 <1>  -0.6800 
 12 C       -4.4710    -3.1640    -0.8660 C.3   1 <1>  -0.0170 
 13 C       -0.0110     5.0700    -0.8360 C.ar  1 <1>  -0.1500 
 14 C       -0.4700     5.0180     1.5120 C.ar  1 <1>  -0.1500 
 15 C       -3.7810    -4.3560    -0.2230 C.ar  1 <1>   0.1670 
 16 C       -0.1400     6.4480    -0.8320 C.ar  1 <1>  -0.1500 
 17 C       -0.6000     6.3960     1.5180 C.ar  1 <1>  -0.1500 
 18 N       -2.5540    -4.6240    -0.6400 N.ar  1 <1>  -0.6200 
 19 C       -4.4410    -5.1000     0.7530 C.ar  1 <1>   0.1600 
 20 C       -0.4360     7.1120     0.3460 C.ar  1 <1>  -0.1500 
 21 C       -2.0350    -5.6700    -0.0190 C.ar  1 <1>   0.1600 
 22 N       -3.9250    -6.1470     1.3750 N.ar  1 <1>  -0.6200 
 23 C       -2.6980    -6.4070     0.9550 C.ar  1 <1>   0.1600 
 24 H       -1.7630     2.5420    -0.9060 H     1 <1>   0.0800 
 25 H       -2.1010     2.4930     0.8020 H     1 <1>   0.0800 
 26 H       -4.1710     1.1420     0.2680 H     1 <1>   0.0800 
 27 H       -3.8060     1.1910    -1.4600 H     1 <1>   0.0800 
 28 H       -2.1870    -1.8370    -1.2980 H     1 <1>   0.0800 
 29 H       -1.9860    -1.9360     0.4430 H     1 <1>   0.0800 
 30 H        0.6670     2.5320    -0.4230 H     1 <1>   0.0800 
 31 H        0.3290     2.4940     1.2790 H     1 <1>   0.0800 
 32 H       -4.9250    -0.7640    -1.8770 H     1 <1>   0.0800 
 33 H       -4.2680    -1.8800     0.8470 H     1 <1>   0.0800 
 34 H       -5.8940    -0.3380     0.7500 H     1 <1>   0.4000 
 35 H       -4.2290    -3.1450    -1.9150 H     1 <1>   0.0800 
 36 H       -5.5370    -3.2800    -0.7850 H     1 <1>   0.0800 
 37 H        0.2200     4.5620    -1.7560 H     1 <1>   0.1500 
 38 H       -0.5990     4.4690     2.4290 H     1 <1>   0.1500 
 39 H       -0.0110     7.0030    -1.7440 H     1 <1>   0.1500 
 40 H       -0.8280     6.9100     2.4350 H     1 <1>   0.1500 
 41 H       -5.4390    -4.8160     1.0340 H     1 <1>   0.1500 
 42 H       -0.5370     8.1830     0.3500 H     1 <1>   0.1500 
 43 H       -1.0370    -5.9600    -0.2950 H     1 <1>   0.1500 
 44 H       -2.1920    -7.2430     1.4040 H     1 <1>   0.1500 
@<TRIPOS>BOND
  1   1   2  2   
  2   2   3  am  
  3   2   4  1   
  4   3   5  1   
  5   3   6  1   
  6   4   7  1   
  7   4  24  1   
  8   4  25  1   
  9   5   8  1   
 10   5  26  1   
 11   5  27  1   
 12   6   9  1   
 13   6  28  1   
 14   6  29  1   
 15   7  10  1   
 16   7  30  1   
 17   7  31  1   
 18   8   9  1   
 19   8  11  1   
 20   8  32  1   
 21   9  12  1   
 22   9  33  1   
 23  10  13  ar  
 24  10  14  ar  
 25  11  34  1   
 26  12  15  1   
 27  12  35  1   
 28  12  36  1   
 29  13  16  ar  
 30  13  37  1   
 31  14  17  ar  
 32  14  38  1   
 33  15  18  ar  
 34  15  19  ar  
 35  16  20  ar  
 36  16  39  1   
 37  17  20  ar  
 38  17  40  1   
 39  18  21  ar  
 40  19  22  ar  
 41  19  41  1   
 42  20  42  1   
 43  21  23  ar  
 44  21  43  1   
 45  22  23  ar  
 46  23  44  1   
@<TRIPOS>SUBSTRUCTURE
  1 ****   3 GROUP 4 **** **** 0

# MOE 2024.06 (io_trps.svl 2023.06)
