@<TRIPOS>MOLECULE
NONAME
49 52 1 0 0 
SMALL
USER_CHARGES


@<TRIPOS>ATOM
  1 S        0.6540    -0.2980    -0.8110 S.3   1 <1>  -0.0800 
  2 C        1.0460    -1.6360     0.2370 C.2   1 <1>  -0.1400 
  3 C        1.0940     0.8020     0.4750 C.2   1 <1>   0.1980 
  4 C        1.4660    -1.1490     1.4160 C.2   1 <1>   0.0460 
  5 C        0.8830    -3.0330    -0.3100 C.3   1 <1>   0.5230 
  6 N        1.4800     0.2260     1.5390 N.2   1 <1>  -0.5650 
  7 C        0.9750     2.2840     0.2050 C.3   1 <1>  -0.0600 
  8 C        1.9290    -1.9210     2.6340 C.3   1 <1>  -0.0590 
  9 N       -0.5120    -3.4930    -0.0790 N.4   1 <1>  -0.9590 
 10 C       -1.5750    -2.7060    -0.7670 C.3   1 <1>   0.3430 
 11 C       -0.7630    -4.9260    -0.4120 C.3   1 <1>   0.3430 
 12 C       -2.7900    -3.6310    -0.7340 C.3   1 <1>   0.2000 
 13 C       -2.1630    -4.9930    -1.0430 C.3   1 <1>  -0.0800 
 14 O       -3.2850    -3.6330     0.5670 O.3   1 <1>  -0.6800 
 15 C       -2.9790    -6.2370    -0.6370 C.3   1 <1>  -0.0160 
 16 C       -2.1510    -7.4980    -0.8630 C.ar  1 <1>  -0.1440 
 17 C       -1.3740    -8.1110     0.1520 C.ar  1 <1>   0.0000 
 18 C       -2.1270    -8.0640    -2.1050 C.ar  1 <1>  -0.1500 
 19 C       -0.5860    -9.2310    -0.2150 C.ar  1 <1>   0.3100 
 20 C       -1.3240    -7.6880     1.5030 C.ar  1 <1>  -0.1500 
 21 C       -1.3290    -9.1860    -2.3550 C.ar  1 <1>   0.1600 
 22 N       -0.5730    -9.7470    -1.4680 N.ar  1 <1>  -0.6200 
 23 C        0.2260    -9.8420     0.7530 C.ar  1 <1>  -0.1500 
 24 C       -0.5240    -8.3090     2.4230 C.ar  1 <1>  -0.1500 
 25 C        0.2660    -9.3960     2.0460 C.ar  1 <1>  -0.1500 
 26 H        1.5670    -3.6900     0.2020 H     1 <1>   0.0800 
 27 H        1.1200    -3.0460    -1.3620 H     1 <1>   0.0800 
 28 H        1.2800     2.8360     1.0760 H     1 <1>   0.0800 
 29 H       -0.0430     2.5350    -0.0290 H     1 <1>   0.0800 
 30 H        1.6080     2.5570    -0.6190 H     1 <1>   0.0800 
 31 H        1.8930    -2.9810     2.4660 H     1 <1>   0.0800 
 32 H        1.3040    -1.6770     3.4740 H     1 <1>   0.0800 
 33 H        2.9400    -1.6400     2.8720 H     1 <1>   0.0800 
 34 H       -0.7250    -3.3750     0.9230 H     1 <1>   0.4500 
 35 H       -1.7770    -1.7740    -0.2630 H     1 <1>   0.0800 
 36 H       -1.2910    -2.5120    -1.7880 H     1 <1>   0.0800 
 37 H       -0.0300    -5.3050    -1.1070 H     1 <1>   0.0800 
 38 H       -0.7260    -5.5160     0.4870 H     1 <1>   0.0800 
 39 H       -3.5690    -3.3310    -1.4160 H     1 <1>   0.0800 
 40 H       -2.0120    -5.0450    -2.1080 H     1 <1>   0.0800 
 41 H       -4.2140    -3.9460     0.5960 H     1 <1>   0.4000 
 42 H       -3.8670    -6.2860    -1.2440 H     1 <1>   0.0800 
 43 H       -3.3140    -6.1840     0.3810 H     1 <1>   0.0800 
 44 H       -2.7060    -7.6710    -2.9210 H     1 <1>   0.1500 
 45 H       -1.9300    -6.8680     1.8350 H     1 <1>   0.1500 
 46 H       -1.3390    -9.6040    -3.3480 H     1 <1>   0.1500 
 47 H        0.8180   -10.6830     0.4420 H     1 <1>   0.1500 
 48 H       -0.4960    -7.9790     3.4490 H     1 <1>   0.1500 
 49 H        0.8920    -9.8780     2.7780 H     1 <1>   0.1500 
@<TRIPOS>BOND
  1   1   2  1   
  2   1   3  1   
  3   2   4  2   
  4   2   5  1   
  5   3   6  2   
  6   3   7  1   
  7   4   6  1   
  8   4   8  1   
  9   5   9  1   
 10   5  26  1   
 11   5  27  1   
 12   7  28  1   
 13   7  29  1   
 14   7  30  1   
 15   8  31  1   
 16   8  32  1   
 17   8  33  1   
 18   9  10  1   
 19   9  11  1   
 20   9  34  1   
 21  10  12  1   
 22  10  35  1   
 23  10  36  1   
 24  11  13  1   
 25  11  37  1   
 26  11  38  1   
 27  12  13  1   
 28  12  14  1   
 29  12  39  1   
 30  13  15  1   
 31  13  40  1   
 32  14  41  1   
 33  15  16  1   
 34  15  42  1   
 35  15  43  1   
 36  16  17  ar  
 37  16  18  ar  
 38  17  19  ar  
 39  17  20  ar  
 40  18  21  ar  
 41  18  44  1   
 42  19  22  ar  
 43  19  23  ar  
 44  20  24  ar  
 45  20  45  1   
 46  21  22  ar  
 47  21  46  1   
 48  23  25  ar  
 49  23  47  1   
 50  24  25  ar  
 51  24  48  1   
 52  25  49  1   
@<TRIPOS>SUBSTRUCTURE
  1 ****  11 GROUP 4 **** **** 0

# MOE 2024.06 (io_trps.svl 2023.06)
