@<TRIPOS>MOLECULE
NONAME
38 41 1 0 0 
SMALL
USER_CHARGES


@<TRIPOS>ATOM
  1 S       -0.2540     0.3480    -1.9160 S.3   1 <1>  -0.0800 
  2 C       -1.2190     1.0640    -0.6350 C.2   1 <1>  -0.1400 
  3 C       -1.4820    -0.8790    -2.1980 C.2   1 <1>  -0.1100 
  4 C       -2.3720     0.4000    -0.4820 C.2   1 <1>  -0.1810 
  5 C       -0.7590     2.2790     0.1640 C.3   1 <1>   0.4600 
  6 C       -2.5280    -0.7140    -1.3650 C.2   1 <1>  -0.1500 
  7 C       -3.3640     0.8610     0.5620 C.3   1 <1>   0.0210 
  8 O       -1.6840     2.5080     1.2110 O.3   1 <1>  -0.5600 
  9 C       -0.6790     3.5350    -0.7130 C.3   1 <1>  -0.1600 
 10 C        0.5930     2.0150     0.8330 C.3   1 <1>  -0.1600 
 11 C       -3.0550     2.3230     0.9390 C.3   1 <1>   0.1200 
 12 C       -0.1840     4.7480     0.0770 C.3   1 <1>   0.1400 
 13 C        1.0800     3.2350     1.6160 C.3   1 <1>   0.1400 
 14 N        1.1200     4.4230     0.7170 N.am  1 <1>  -0.6600 
 15 C        2.3110     5.0330     0.3810 C.2   1 <1>   0.7160 
 16 O        3.3500     4.4180     0.5310 O.2   1 <1>  -0.5700 
 17 C        2.3630     6.3740    -0.1520 C.2   1 <1>  -0.0860 
 18 C        3.2370     6.8760    -1.0650 C.2   1 <1>  -0.0100 
 19 C        1.5430     7.4770     0.1740 C.2   1 <1>  -0.1500 
 20 O        2.9990     8.1410    -1.3160 O.3   1 <1>  -0.2800 
 21 C        1.9810     8.5130    -0.5700 C.2   1 <1>  -0.0100 
 22 H       -1.2870    -1.6040    -2.9670 H     1 <1>   0.1500 
 23 H       -3.4080    -1.3330    -1.3330 H     1 <1>   0.1500 
 24 H       -3.2930     0.2350     1.4330 H     1 <1>   0.0800 
 25 H       -4.3650     0.7960     0.1750 H     1 <1>   0.0800 
 26 H       -1.6370     3.7430    -1.1500 H     1 <1>   0.0800 
 27 H        0.0040     3.3540    -1.5230 H     1 <1>   0.0800 
 28 H        1.3290     1.7740     0.0880 H     1 <1>   0.0800 
 29 H        0.5050     1.1680     1.4890 H     1 <1>   0.0800 
 30 H       -3.6040     2.6020     1.8200 H     1 <1>   0.0800 
 31 H       -3.3350     2.9820     0.1360 H     1 <1>   0.0800 
 32 H       -0.8980     5.0080     0.8410 H     1 <1>   0.0800 
 33 H       -0.0860     5.5820    -0.5950 H     1 <1>   0.0800 
 34 H        2.0540     3.0360     2.0300 H     1 <1>   0.0800 
 35 H        0.4090     3.4360     2.4340 H     1 <1>   0.0800 
 36 H        4.0490     6.3820    -1.5690 H     1 <1>   0.1500 
 37 H        0.7400     7.4580     0.8880 H     1 <1>   0.1500 
 38 H        1.6400     9.5320    -0.6290 H     1 <1>   0.1500 
@<TRIPOS>BOND
  1   1   2  1   
  2   1   3  1   
  3   2   4  2   
  4   2   5  1   
  5   3   6  2   
  6   3  22  1   
  7   4   6  1   
  8   4   7  1   
  9   5   8  1   
 10   5   9  1   
 11   5  10  1   
 12   6  23  1   
 13   7  11  1   
 14   7  24  1   
 15   7  25  1   
 16   8  11  1   
 17   9  12  1   
 18   9  26  1   
 19   9  27  1   
 20  10  13  1   
 21  10  28  1   
 22  10  29  1   
 23  11  30  1   
 24  11  31  1   
 25  12  14  1   
 26  12  32  1   
 27  12  33  1   
 28  13  14  1   
 29  13  34  1   
 30  13  35  1   
 31  14  15  am  
 32  15  16  2   
 33  15  17  1   
 34  17  18  2   
 35  17  19  1   
 36  18  20  1   
 37  18  36  1   
 38  19  21  2   
 39  19  37  1   
 40  20  21  1   
 41  21  38  1   
@<TRIPOS>SUBSTRUCTURE
  1 ****   9 GROUP 4 **** **** 0

# MOE 2024.06 (io_trps.svl 2023.06)
