@<TRIPOS>MOLECULE
NONAME
51 53 1 0 0 
SMALL
USER_CHARGES


@<TRIPOS>ATOM
  1 O       -0.3020     0.0550     0.7230 O.3   1 <1>  -0.6800 
  2 C        0.7310    -0.2080    -0.1690 C.3   1 <1>   0.2000 
  3 C        1.3490    -1.5520     0.2180 C.3   1 <1>  -0.0800 
  4 C        1.8580     0.8070     0.0870 C.3   1 <1>   0.3430 
  5 C        2.1980    -1.1420     1.4230 C.3   1 <1>   0.3430 
  6 C        2.1710    -2.1480    -0.9580 C.3   1 <1>   0.0210 
  7 N        2.8350     0.1210     0.9890 N.4   1 <1>  -0.9590 
  8 C        3.6090    -2.5090    -0.6190 C.2   1 <1>   0.1080 
  9 C        3.3650     0.9690     2.0770 C.3   1 <1>   0.4860 
 10 N        4.5550    -1.6250    -0.4940 N.2   1 <1>  -0.7070 
 11 C        4.0690    -3.8050    -0.4210 C.2   1 <1>  -0.1500 
 12 C        4.0350     2.1800     1.4570 C.ar  1 <1>  -0.1430 
 13 N        5.6660    -2.3550    -0.2410 N.pl3 1 <1>   0.3000 
 14 C        5.3890    -3.6730    -0.1780 C.2   1 <1>  -0.3320 
 15 C        3.5060     3.4460     1.6530 C.ar  1 <1>  -0.1500 
 16 C        5.1740     2.0330     0.6800 C.ar  1 <1>  -0.1500 
 17 C        6.4240    -4.7490     0.0990 C.3   1 <1>  -0.0600 
 18 C        4.1070     4.5500     1.0730 C.ar  1 <1>  -0.1500 
 19 C        5.7710     3.1390     0.1030 C.ar  1 <1>  -0.1500 
 20 C        5.2430     4.4080     0.2920 C.ar  1 <1>  -0.1430 
 21 C        5.8930     5.6380    -0.3390 C.3   1 <1>   0.0630 
 22 C        5.8860     5.5380    -1.8680 C.3   1 <1>  -0.2400 
 23 C        7.3190     5.8320     0.1850 C.3   1 <1>  -0.2400 
 24 H       -1.1190    -0.4280     0.4770 H     1 <1>   0.4000 
 25 H        0.3420    -0.1570    -1.1730 H     1 <1>   0.0800 
 26 H        0.6000    -2.2640     0.5160 H     1 <1>   0.0800 
 27 H        1.4560     1.6980     0.5400 H     1 <1>   0.0800 
 28 H        2.3480     1.0680    -0.8370 H     1 <1>   0.0800 
 29 H        2.9300    -1.8910     1.6810 H     1 <1>   0.0800 
 30 H        1.5530    -0.9560     2.2670 H     1 <1>   0.0800 
 31 H        2.2080    -1.4610    -1.7860 H     1 <1>   0.0800 
 32 H        1.6720    -3.0310    -1.3200 H     1 <1>   0.0800 
 33 H        3.6370    -0.1820     0.3940 H     1 <1>   0.4500 
 34 H        2.5630     1.2840     2.7240 H     1 <1>   0.0800 
 35 H        4.0850     0.4180     2.6600 H     1 <1>   0.0800 
 36 H        3.4850    -4.7080    -0.4660 H     1 <1>   0.1500 
 37 H        6.6000    -1.9380    -0.1310 H     1 <1>   0.2700 
 38 H        2.6260     3.5910     2.2550 H     1 <1>   0.1500 
 39 H        5.6090     1.0620     0.5140 H     1 <1>   0.1500 
 40 H        5.9610    -5.7200     0.0920 H     1 <1>   0.0800 
 41 H        6.8780    -4.5940     1.0620 H     1 <1>   0.0800 
 42 H        7.1900    -4.7330    -0.6570 H     1 <1>   0.0800 
 43 H        3.6840     5.5260     1.2360 H     1 <1>   0.1500 
 44 H        6.6540     3.0090    -0.4980 H     1 <1>   0.1500 
 45 H        5.3230     6.5100    -0.0660 H     1 <1>   0.0800 
 46 H        6.4810     4.7080    -2.2030 H     1 <1>   0.0800 
 47 H        6.2800     6.4400    -2.3010 H     1 <1>   0.0800 
 48 H        4.8790     5.4030    -2.2210 H     1 <1>   0.0800 
 49 H        7.9510     5.0120    -0.1040 H     1 <1>   0.0800 
 50 H        7.3080     5.8940     1.2590 H     1 <1>   0.0800 
 51 H        7.7380     6.7420    -0.2050 H     1 <1>   0.0800 
@<TRIPOS>BOND
  1   1   2  1   
  2   1  24  1   
  3   2   3  1   
  4   2   4  1   
  5   2  25  1   
  6   3   5  1   
  7   3   6  1   
  8   3  26  1   
  9   4   7  1   
 10   4  27  1   
 11   4  28  1   
 12   5   7  1   
 13   5  29  1   
 14   5  30  1   
 15   6   8  1   
 16   6  31  1   
 17   6  32  1   
 18   7   9  1   
 19   7  33  1   
 20   8  10  2   
 21   8  11  1   
 22   9  12  1   
 23   9  34  1   
 24   9  35  1   
 25  10  13  1   
 26  11  14  2   
 27  11  36  1   
 28  12  15  ar  
 29  12  16  ar  
 30  13  14  1   
 31  13  37  1   
 32  14  17  1   
 33  15  18  ar  
 34  15  38  1   
 35  16  19  ar  
 36  16  39  1   
 37  17  40  1   
 38  17  41  1   
 39  17  42  1   
 40  18  20  ar  
 41  18  43  1   
 42  19  20  ar  
 43  19  44  1   
 44  20  21  1   
 45  21  22  1   
 46  21  23  1   
 47  21  45  1   
 48  22  46  1   
 49  22  47  1   
 50  22  48  1   
 51  23  49  1   
 52  23  50  1   
 53  23  51  1   
@<TRIPOS>SUBSTRUCTURE
  1 ****   7 GROUP 4 **** **** 0

# MOE 2024.06 (io_trps.svl 2023.06)
