@<TRIPOS>MOLECULE
NONAME
46 49 1 0 0 
SMALL
USER_CHARGES


@<TRIPOS>ATOM
  1 O        1.6690    -1.0460     0.9910 O.2   1 <1>  -0.5700 
  2 C        0.9270    -1.9860     0.7570 C.2   1 <1>   0.5440 
  3 N       -0.2380    -1.7110     0.0640 N.am  1 <1>  -0.6600 
  4 C        1.2970    -3.3190     1.2380 C.ar  1 <1>   0.3960 
  5 C       -1.3710    -2.6420    -0.1340 C.3   1 <1>   0.1400 
  6 C       -0.5460    -0.3780    -0.4950 C.3   1 <1>   0.1400 
  7 N        0.9440    -4.4260     0.5630 N.ar  1 <1>  -0.6200 
  8 C        2.0380    -3.4020     2.4220 C.ar  1 <1>   0.1600 
  9 C       -2.5090    -1.7740    -0.6570 C.3   1 <1>  -0.1600 
 10 C       -1.8160    -0.5830    -1.3130 C.3   1 <1>  -0.1600 
 11 C        1.3720    -5.5510     1.1050 C.ar  1 <1>   0.4100 
 12 N        2.4600    -4.5220     2.9960 N.ar  1 <1>  -0.6200 
 13 N        1.0320    -6.7190     0.4450 N.pl3 1 <1>  -0.8380 
 14 C        2.1140    -5.5820     2.2950 C.ar  1 <1>   0.1600 
 15 C       -0.0970    -7.5300     1.0000 C.3   1 <1>   0.3530 
 16 C        1.1040    -6.7310    -1.0470 C.3   1 <1>   0.1290 
 17 C       -1.4640    -7.0150     0.5520 C.ar  1 <1>   0.1670 
 18 N       -2.0970    -7.6470    -0.3920 N.ar  1 <1>  -0.6200 
 19 C       -1.9780    -5.8670     1.1940 C.ar  1 <1>   0.1600 
 20 C       -3.2970    -7.1000    -0.7230 C.ar  1 <1>   0.3100 
 21 N       -3.1220    -5.3210     0.9220 N.ar  1 <1>  -0.6200 
 22 C       -3.8060    -5.9490    -0.0700 C.ar  1 <1>   0.3100 
 23 C       -4.0600    -7.6870    -1.7440 C.ar  1 <1>  -0.1500 
 24 C       -5.0510    -5.4410    -0.4700 C.ar  1 <1>  -0.1500 
 25 C       -5.2740    -7.1690    -2.1160 C.ar  1 <1>  -0.1500 
 26 C       -5.7750    -6.0340    -1.4720 C.ar  1 <1>  -0.1500 
 27 H       -1.6400    -3.1160     0.7930 H     1 <1>   0.0800 
 28 H       -1.1000    -3.3870    -0.8630 H     1 <1>   0.0800 
 29 H        0.2680    -0.0200    -1.1030 H     1 <1>   0.0800 
 30 H       -0.7210     0.3100     0.3150 H     1 <1>   0.0800 
 31 H        2.2940    -2.4820     2.9190 H     1 <1>   0.1500 
 32 H       -3.1030    -1.4410     0.1760 H     1 <1>   0.0800 
 33 H       -3.1380    -2.3160    -1.3410 H     1 <1>   0.0800 
 34 H       -1.5420    -0.8310    -2.3240 H     1 <1>   0.0800 
 35 H       -2.4320     0.2990    -1.3220 H     1 <1>   0.0800 
 36 H        2.4250    -6.5440     2.6570 H     1 <1>   0.1500 
 37 H       -0.0520    -7.5220     2.0740 H     1 <1>   0.0800 
 38 H        0.0160    -8.5510     0.6780 H     1 <1>   0.0800 
 39 H        1.9790    -6.1960    -1.3750 H     1 <1>   0.0800 
 40 H        0.2330    -6.2560    -1.4660 H     1 <1>   0.0800 
 41 H        1.1610    -7.7440    -1.4070 H     1 <1>   0.0800 
 42 H       -1.3730    -5.4150     1.9600 H     1 <1>   0.1500 
 43 H       -3.6600    -8.5600    -2.2270 H     1 <1>   0.1500 
 44 H       -5.4210    -4.5690     0.0380 H     1 <1>   0.1500 
 45 H       -5.8510    -7.6260    -2.9010 H     1 <1>   0.1500 
 46 H       -6.7310    -5.6370    -1.7710 H     1 <1>   0.1500 
@<TRIPOS>BOND
  1   1   2  2   
  2   2   3  am  
  3   2   4  1   
  4   3   5  1   
  5   3   6  1   
  6   4   7  ar  
  7   4   8  ar  
  8   5   9  1   
  9   5  27  1   
 10   5  28  1   
 11   6  10  1   
 12   6  29  1   
 13   6  30  1   
 14   7  11  ar  
 15   8  12  ar  
 16   8  31  1   
 17   9  10  1   
 18   9  32  1   
 19   9  33  1   
 20  10  34  1   
 21  10  35  1   
 22  11  13  1   
 23  11  14  ar  
 24  12  14  ar  
 25  13  15  1   
 26  13  16  1   
 27  14  36  1   
 28  15  17  1   
 29  15  37  1   
 30  15  38  1   
 31  16  39  1   
 32  16  40  1   
 33  16  41  1   
 34  17  18  ar  
 35  17  19  ar  
 36  18  20  ar  
 37  19  21  ar  
 38  19  42  1   
 39  20  22  ar  
 40  20  23  ar  
 41  21  22  ar  
 42  22  24  ar  
 43  23  25  ar  
 44  23  43  1   
 45  24  26  ar  
 46  24  44  1   
 47  25  26  ar  
 48  25  45  1   
 49  26  46  1   
@<TRIPOS>SUBSTRUCTURE
  1 ****  19 GROUP 4 **** **** 0

# MOE 2024.06 (io_trps.svl 2023.06)
