@<TRIPOS>MOLECULE
NONAME
52 54 1 0 0 
SMALL
USER_CHARGES


@<TRIPOS>ATOM
  1 S        0.6840    -0.6390     2.0310 S.o2  1 <1>   1.4470 
  2 O        0.3270     0.2750     3.0890 O.2   1 <1>  -0.6500 
  3 O        1.5050    -1.7790     2.3730 O.2   1 <1>  -0.6500 
  4 N       -0.7710    -1.3520     1.5860 N.am  1 <1>  -0.9140 
  5 C        1.2570     0.2640     0.5300 C.ar  1 <1>  -0.0090 
  6 C       -0.6490    -2.4310     0.6080 C.3   1 <1>   0.2760 
  7 C        2.5890     0.1660     0.0870 C.ar  1 <1>  -0.1430 
  8 C        0.3710     1.0620    -0.2180 C.ar  1 <1>  -0.1430 
  9 C       -1.9670    -2.6960    -0.1350 C.3   1 <1>  -0.0800 
 10 C       -0.3090    -3.7900     1.2450 C.3   1 <1>   0.1200 
 11 C        2.9790     0.7310    -1.1240 C.ar  1 <1>  -0.1430 
 12 C        3.6480    -0.5510     0.9330 C.3   1 <1>  -0.0970 
 13 C        0.7700     1.6240    -1.4270 C.ar  1 <1>  -0.1430 
 14 C       -1.0560     1.3550     0.2620 C.3   1 <1>  -0.0970 
 15 C       -1.9750    -4.2220    -0.2170 C.3   1 <1>   0.1200 
 16 C       -3.2420    -2.1790     0.5710 C.3   1 <1>  -0.0170 
 17 O       -1.3770    -4.6380     0.9610 O.3   1 <1>  -0.5600 
 18 C        2.0630     1.4440    -1.8680 C.ar  1 <1>  -0.1500 
 19 C        4.3890     0.6070    -1.6930 C.3   1 <1>  -0.0970 
 20 C       -0.1630     2.4450    -2.3130 C.3   1 <1>  -0.0970 
 21 C       -4.4980    -2.4970    -0.2250 C.ar  1 <1>  -0.1430 
 22 C       -4.8240    -1.8100    -1.3760 C.ar  1 <1>  -0.1500 
 23 C       -5.3780    -3.4870     0.1640 C.ar  1 <1>  -0.1500 
 24 C       -5.9770    -2.1400    -2.0670 C.ar  1 <1>   0.1600 
 25 C       -6.5060    -3.7390    -0.5990 C.ar  1 <1>   0.1600 
 26 N       -6.8250    -3.0900    -1.7070 N.ar  1 <1>  -0.6200 
 27 H       -1.1190    -1.7570     2.4520 H     1 <1>   0.4200 
 28 H        0.1140    -2.1840    -0.1130 H     1 <1>   0.0800 
 29 H       -1.9200    -2.2840    -1.1260 H     1 <1>   0.0800 
 30 H       -0.1890    -3.7390     2.3120 H     1 <1>   0.0800 
 31 H        0.5760    -4.2080     0.7970 H     1 <1>   0.0800 
 32 H        4.6470    -0.2450     0.6930 H     1 <1>   0.0800 
 33 H        3.5790    -1.6140     0.7910 H     1 <1>   0.0800 
 34 H        3.5200    -0.3230     1.9750 H     1 <1>   0.0800 
 35 H       -1.3640     2.3460    -0.0140 H     1 <1>   0.0800 
 36 H       -1.1450     1.3170     1.3300 H     1 <1>   0.0800 
 37 H       -1.7400     0.6500    -0.1710 H     1 <1>   0.0800 
 38 H       -1.3720    -4.5700    -1.0390 H     1 <1>   0.0800 
 39 H       -2.9580    -4.6520    -0.2870 H     1 <1>   0.0800 
 40 H       -3.1900    -1.1110     0.6910 H     1 <1>   0.0800 
 41 H       -3.3150    -2.6130     1.5540 H     1 <1>   0.0800 
 42 H        2.3660     1.8770    -2.8050 H     1 <1>   0.1500 
 43 H        4.4300     0.9460    -2.7130 H     1 <1>   0.0800 
 44 H        4.7100    -0.4190    -1.6770 H     1 <1>   0.0800 
 45 H        5.0720     1.2030    -1.1150 H     1 <1>   0.0800 
 46 H        0.2640     2.5990    -3.2880 H     1 <1>   0.0800 
 47 H       -0.3360     3.4090    -1.8680 H     1 <1>   0.0800 
 48 H       -1.1020     1.9400    -2.4430 H     1 <1>   0.0800 
 49 H       -4.1920    -1.0210    -1.7420 H     1 <1>   0.1500 
 50 H       -5.1970    -4.0660     1.0520 H     1 <1>   0.1500 
 51 H       -6.2170    -1.5940    -2.9640 H     1 <1>   0.1500 
 52 H       -7.1810    -4.5150    -0.2820 H     1 <1>   0.1500 
@<TRIPOS>BOND
  1   1   2  2   
  2   1   3  2   
  3   1   4  am  
  4   1   5  1   
  5   4   6  1   
  6   4  27  1   
  7   5   7  ar  
  8   5   8  ar  
  9   6   9  1   
 10   6  10  1   
 11   6  28  1   
 12   7  11  ar  
 13   7  12  1   
 14   8  13  ar  
 15   8  14  1   
 16   9  15  1   
 17   9  16  1   
 18   9  29  1   
 19  10  17  1   
 20  10  30  1   
 21  10  31  1   
 22  11  18  ar  
 23  11  19  1   
 24  12  32  1   
 25  12  33  1   
 26  12  34  1   
 27  13  18  ar  
 28  13  20  1   
 29  14  35  1   
 30  14  36  1   
 31  14  37  1   
 32  15  17  1   
 33  15  38  1   
 34  15  39  1   
 35  16  21  1   
 36  16  40  1   
 37  16  41  1   
 38  18  42  1   
 39  19  43  1   
 40  19  44  1   
 41  19  45  1   
 42  20  46  1   
 43  20  47  1   
 44  20  48  1   
 45  21  22  ar  
 46  21  23  ar  
 47  22  24  ar  
 48  22  49  1   
 49  23  25  ar  
 50  23  50  1   
 51  24  26  ar  
 52  24  51  1   
 53  25  26  ar  
 54  25  52  1   
@<TRIPOS>SUBSTRUCTURE
  1 ****   6 GROUP 4 **** **** 0

# MOE 2024.06 (io_trps.svl 2023.06)
