@<TRIPOS>MOLECULE
NONAME
45 48 1 0 0 
SMALL
USER_CHARGES


@<TRIPOS>ATOM
  1 S       -1.2030     0.0630     0.6510 S.3   1 <1>  -0.0800 
  2 C       -1.8030    -1.5140     1.1290 C.2   1 <1>  -0.1100 
  3 C       -1.6300    -0.2340    -1.0230 C.2   1 <1>  -0.1100 
  4 C       -2.2980    -2.1820     0.0680 C.2   1 <1>  -0.1810 
  5 C       -2.1890    -1.4500    -1.1630 C.2   1 <1>  -0.1500 
  6 C       -2.9100    -3.5650     0.1220 C.3   1 <1>   0.5240 
  7 N       -4.3280    -3.4180     0.5410 N.4   1 <1>  -0.9590 
  8 C       -4.8810    -4.7270     1.0410 C.3   1 <1>   0.3430 
  9 C       -5.1620    -2.8410    -0.5570 C.3   1 <1>   0.3430 
 10 C       -6.2190    -4.5950     1.7980 C.3   1 <1>   0.1400 
 11 C       -6.1750    -1.8280    -0.0130 C.3   1 <1>  -0.1600 
 12 N       -7.2250    -3.8090     1.0240 N.am  1 <1>  -0.6600 
 13 C       -7.0670    -2.3350     1.1260 C.3   1 <1>   0.1400 
 14 C       -8.2280    -4.3720     0.2470 C.2   1 <1>   0.7150 
 15 O       -9.1090    -3.6390    -0.1580 O.2   1 <1>  -0.5700 
 16 C       -8.2440    -5.7690    -0.1430 C.2   1 <1>   0.0550 
 17 O       -7.1130    -6.4940    -0.2190 O.3   1 <1>  -0.2800 
 18 C       -9.2940    -6.5430    -0.5150 C.2   1 <1>  -0.1500 
 19 C       -7.4330    -7.7220    -0.6240 C.ar  1 <1>   0.1400 
 20 C       -8.7970    -7.8180    -0.8270 C.ar  1 <1>   0.0000 
 21 C       -6.5820    -8.8000    -0.8340 C.ar  1 <1>  -0.1500 
 22 C       -9.3440    -9.0280    -1.2550 C.ar  1 <1>  -0.1500 
 23 C       -7.1300    -9.9940    -1.2570 C.ar  1 <1>  -0.1500 
 24 C       -8.5090   -10.1050    -1.4670 C.ar  1 <1>  -0.1500 
 25 H       -1.7130    -1.7600     2.1740 H     1 <1>   0.1500 
 26 H       -1.4070     0.5450    -1.7320 H     1 <1>   0.1500 
 27 H       -2.5200    -1.8560    -2.1050 H     1 <1>   0.1500 
 28 H       -2.3730    -4.1530     0.8490 H     1 <1>   0.0800 
 29 H       -2.8380    -4.0530    -0.8370 H     1 <1>   0.0800 
 30 H       -4.3240    -2.7310     1.3040 H     1 <1>   0.4500 
 31 H       -4.1690    -5.1900     1.7050 H     1 <1>   0.0800 
 32 H       -5.0240    -5.3960     0.2080 H     1 <1>   0.0800 
 33 H       -5.6870    -3.6320    -1.0690 H     1 <1>   0.0800 
 34 H       -4.5390    -2.3390    -1.2790 H     1 <1>   0.0800 
 35 H       -6.0490    -4.1200     2.7490 H     1 <1>   0.0800 
 36 H       -6.6070    -5.5760     2.0140 H     1 <1>   0.0800 
 37 H       -6.8180    -1.5470    -0.8290 H     1 <1>   0.0800 
 38 H       -5.6700    -0.9310     0.2970 H     1 <1>   0.0800 
 39 H       -8.0300    -1.8490     1.0810 H     1 <1>   0.0800 
 40 H       -6.6320    -2.0830     2.0770 H     1 <1>   0.0800 
 41 H      -10.3300    -6.2610    -0.5760 H     1 <1>   0.1500 
 42 H       -5.5260    -8.6970    -0.6690 H     1 <1>   0.1500 
 43 H      -10.4050    -9.1040    -1.4150 H     1 <1>   0.1500 
 44 H       -6.5010   -10.8510    -1.4300 H     1 <1>   0.1500 
 45 H       -8.9150   -11.0460    -1.7980 H     1 <1>   0.1500 
@<TRIPOS>BOND
  1   1   2  1   
  2   1   3  1   
  3   2   4  2   
  4   2  25  1   
  5   3   5  2   
  6   3  26  1   
  7   4   5  1   
  8   4   6  1   
  9   5  27  1   
 10   6   7  1   
 11   6  28  1   
 12   6  29  1   
 13   7   8  1   
 14   7   9  1   
 15   7  30  1   
 16   8  10  1   
 17   8  31  1   
 18   8  32  1   
 19   9  11  1   
 20   9  33  1   
 21   9  34  1   
 22  10  12  1   
 23  10  35  1   
 24  10  36  1   
 25  11  13  1   
 26  11  37  1   
 27  11  38  1   
 28  12  13  1   
 29  12  14  am  
 30  13  39  1   
 31  13  40  1   
 32  14  15  2   
 33  14  16  1   
 34  16  17  1   
 35  16  18  2   
 36  17  19  1   
 37  18  20  1   
 38  18  41  1   
 39  19  20  ar  
 40  19  21  ar  
 41  20  22  ar  
 42  21  23  ar  
 43  21  42  1   
 44  22  24  ar  
 45  22  43  1   
 46  23  24  ar  
 47  23  44  1   
 48  24  45  1   
@<TRIPOS>SUBSTRUCTURE
  1 ****   8 GROUP 4 **** **** 0

# MOE 2024.06 (io_trps.svl 2023.06)
