@<TRIPOS>MOLECULE
NONAME
48 50 1 0 0 
SMALL
USER_CHARGES


@<TRIPOS>ATOM
  1 O        1.1000     0.7350     0.5930 O.2   1 <1>  -0.5700 
  2 C        1.4830     0.0050    -0.3230 C.2   1 <1>   0.5690 
  3 N        1.9150     0.5470    -1.4910 N.am  1 <1>  -0.7300 
  4 C        1.5390    -1.5420    -0.1800 C.3   1 <1>   0.2810 
  5 C        2.0310     2.0000    -1.7560 C.3   1 <1>   0.3200 
  6 N        2.8550    -2.0700    -0.5710 N.am  1 <1>  -0.7300 
  7 C        1.1890    -2.0420     1.2350 C.3   1 <1>   0.0200 
  8 C        3.2570     2.5520    -1.0540 C.2   1 <1>   0.0060 
  9 C        3.1280    -3.2310    -1.1520 C.2   1 <1>   0.5690 
 10 C       -0.2810    -1.9380     1.5710 C.2   1 <1>  -0.3320 
 11 N        4.3110     2.9940    -1.6450 N.2   1 <1>  -0.5650 
 12 N        3.3220     2.6070     0.2980 N.pl3 1 <1>   0.0330 
 13 O        4.2890    -3.5120    -1.3800 O.2   1 <1>  -0.5700 
 14 C        2.0130    -4.1890    -1.5390 C.3   1 <1>  -0.1790 
 15 N       -0.9890    -0.7730     1.7830 N.pl3 1 <1>   0.0330 
 16 C       -1.1680    -2.9760     1.6850 C.2   1 <1>   0.0770 
 17 C        5.1440     3.3690    -0.6260 C.ar  1 <1>   0.2270 
 18 C        4.5350     3.1320     0.5930 C.ar  1 <1>  -0.1520 
 19 C       -2.2680    -1.1060     2.0180 C.2   1 <1>   0.0360 
 20 N       -2.4250    -2.4370     1.9660 N.2   1 <1>  -0.5650 
 21 C        6.4330     3.9160    -0.6760 C.ar  1 <1>  -0.1440 
 22 C        5.1760     3.4260     1.7950 C.ar  1 <1>  -0.1500 
 23 C        7.0730     4.2220     0.5150 C.ar  1 <1>  -0.1440 
 24 C        7.0660     4.1500    -2.0440 C.3   1 <1>  -0.0970 
 25 C        6.4380     3.9690     1.7410 C.ar  1 <1>  -0.1500 
 26 C        8.4650     4.8370     0.5480 C.3   1 <1>  -0.0970 
 27 H        2.4260    -0.0420    -2.1550 H     1 <1>   0.3700 
 28 H        0.7840    -1.9350    -0.8630 H     1 <1>   0.0800 
 29 H        2.1170     2.1680    -2.8150 H     1 <1>   0.0800 
 30 H        1.1510     2.5080    -1.4000 H     1 <1>   0.0800 
 31 H        3.6740    -1.5170    -0.3600 H     1 <1>   0.3700 
 32 H        1.7690    -1.4810     1.9690 H     1 <1>   0.0800 
 33 H        1.4810    -3.0890     1.3270 H     1 <1>   0.0800 
 34 H        2.6080     2.2560     0.9470 H     1 <1>   0.2700 
 35 H        1.4370    -4.4650    -0.6580 H     1 <1>   0.0800 
 36 H        2.4530    -5.0870    -1.9720 H     1 <1>   0.0800 
 37 H        1.3650    -3.7190    -2.2760 H     1 <1>   0.0800 
 38 H       -0.6100     0.1660     1.7360 H     1 <1>   0.2700 
 39 H       -0.9470    -4.0300     1.5740 H     1 <1>   0.1500 
 40 H       -3.0650    -0.4030     2.2160 H     1 <1>   0.1500 
 41 H        4.6890     3.2330     2.7340 H     1 <1>   0.1500 
 42 H        8.1350     4.0680    -2.0020 H     1 <1>   0.0800 
 43 H        6.7990     5.1270    -2.4010 H     1 <1>   0.0800 
 44 H        6.7100     3.4200    -2.7480 H     1 <1>   0.0800 
 45 H        6.9480     4.2060     2.6580 H     1 <1>   0.1500 
 46 H        8.6930     5.2240     1.5240 H     1 <1>   0.0800 
 47 H        8.5310     5.6480    -0.1540 H     1 <1>   0.0800 
 48 H        9.1970     4.0910     0.2950 H     1 <1>   0.0800 
@<TRIPOS>BOND
  1   1   2  2   
  2   2   3  am  
  3   2   4  1   
  4   3   5  1   
  5   3  27  1   
  6   4   6  1   
  7   4   7  1   
  8   4  28  1   
  9   5   8  1   
 10   5  29  1   
 11   5  30  1   
 12   6   9  am  
 13   6  31  1   
 14   7  10  1   
 15   7  32  1   
 16   7  33  1   
 17   8  11  2   
 18   8  12  1   
 19   9  13  2   
 20   9  14  1   
 21  10  15  1   
 22  10  16  2   
 23  11  17  1   
 24  12  18  1   
 25  12  34  1   
 26  14  35  1   
 27  14  36  1   
 28  14  37  1   
 29  15  19  1   
 30  15  38  1   
 31  16  20  1   
 32  16  39  1   
 33  17  18  ar  
 34  17  21  ar  
 35  18  22  ar  
 36  19  20  2   
 37  19  40  1   
 38  21  23  ar  
 39  21  24  1   
 40  22  25  ar  
 41  22  41  1   
 42  23  25  ar  
 43  23  26  1   
 44  24  42  1   
 45  24  43  1   
 46  24  44  1   
 47  25  45  1   
 48  26  46  1   
 49  26  47  1   
 50  26  48  1   
@<TRIPOS>SUBSTRUCTURE
  1 ****   2 GROUP 4 **** **** 0

# MOE 2024.06 (io_trps.svl 2023.06)
