@<TRIPOS>MOLECULE
NONAME
45 46 1 0 0 
SMALL
USER_CHARGES


@<TRIPOS>ATOM
  1 O        0.9510     2.3290    -0.4560 O.2   1 <1>  -0.5700 
  2 C       -0.1950     2.1960    -0.0930 C.2   1 <1>   0.5690 
  3 N       -1.2240     2.9060    -0.6600 N.am  1 <1>  -0.6600 
  4 C       -0.4570     1.2270     1.0490 C.3   1 <1>  -0.0990 
  5 C       -2.6540     2.7520    -0.2730 C.3   1 <1>   0.1400 
  6 C       -0.9680     3.8220    -1.7970 C.3   1 <1>   0.1400 
  7 C       -1.9320     0.8260     1.1910 C.3   1 <1>  -0.1600 
  8 C       -2.8110     2.0750     1.0920 C.3   1 <1>  -0.1600 
  9 C       -0.6030     5.2060    -1.2590 C.3   1 <1>  -0.1600 
 10 C       -0.1570     6.1450    -2.3920 C.3   1 <1>  -0.0990 
 11 C        0.2510     7.5120    -1.8780 C.2   1 <1>   0.5690 
 12 O       -0.4500     8.4590    -2.1430 O.2   1 <1>  -0.5700 
 13 N        1.3950     7.6000    -1.1440 N.am  1 <1>  -0.4930 
 14 C        2.0000     8.7490    -0.5760 C.2   1 <1>   0.0630 
 15 C        1.6150    10.0880    -0.6540 C.2   1 <1>   0.1390 
 16 C        3.1160     8.7630     0.1810 C.2   1 <1>  -0.3020 
 17 N        2.4220    10.8730    -0.0040 N.2   1 <1>  -0.7070 
 18 N        3.3570    10.0510     0.5180 N.pl3 1 <1>   0.3140 
 19 C        4.4940    10.5320     1.3560 C.3   1 <1>   0.1760 
 20 C        3.9770    11.2030     2.6370 C.3   1 <1>  -0.2400 
 21 C        5.3860    11.4940     0.5570 C.3   1 <1>  -0.2400 
 22 H       -0.1280     1.7020     1.9540 H     1 <1>   0.0800 
 23 H        0.1430     0.3480     0.9020 H     1 <1>   0.0800 
 24 H       -3.1470     2.1590    -1.0240 H     1 <1>   0.0800 
 25 H       -3.1250     3.7200    -0.2440 H     1 <1>   0.0800 
 26 H       -1.8380     3.8800    -2.4300 H     1 <1>   0.0800 
 27 H       -0.1540     3.4340    -2.3870 H     1 <1>   0.0800 
 28 H       -2.0870     0.3320     2.1350 H     1 <1>   0.0800 
 29 H       -2.1940     0.1390     0.4040 H     1 <1>   0.0800 
 30 H       -3.8430     1.8070     1.2360 H     1 <1>   0.0800 
 31 H       -2.5440     2.7730     1.8670 H     1 <1>   0.0800 
 32 H        0.1990     5.0990    -0.5490 H     1 <1>   0.0800 
 33 H       -1.4520     5.6330    -0.7530 H     1 <1>   0.0800 
 34 H       -0.9630     6.2700    -3.0930 H     1 <1>   0.0800 
 35 H        0.6750     5.7160    -2.9200 H     1 <1>   0.0800 
 36 H        1.8820     6.7250    -0.9600 H     1 <1>   0.3700 
 37 H        0.7490    10.4360    -1.1920 H     1 <1>   0.1500 
 38 H        3.7410     7.9490     0.4940 H     1 <1>   0.1500 
 39 H        5.0780     9.6740     1.6320 H     1 <1>   0.0800 
 40 H        3.3910    12.0720     2.3920 H     1 <1>   0.0800 
 41 H        4.8010    11.5090     3.2550 H     1 <1>   0.0800 
 42 H        3.3670    10.5150     3.1940 H     1 <1>   0.0800 
 43 H        4.8280    12.3690     0.2710 H     1 <1>   0.0800 
 44 H        5.7530    11.0080    -0.3290 H     1 <1>   0.0800 
 45 H        6.2260    11.8020     1.1520 H     1 <1>   0.0800 
@<TRIPOS>BOND
  1   1   2  2   
  2   2   3  am  
  3   2   4  1   
  4   3   5  1   
  5   3   6  1   
  6   4   7  1   
  7   4  22  1   
  8   4  23  1   
  9   5   8  1   
 10   5  24  1   
 11   5  25  1   
 12   6   9  1   
 13   6  26  1   
 14   6  27  1   
 15   7   8  1   
 16   7  28  1   
 17   7  29  1   
 18   8  30  1   
 19   8  31  1   
 20   9  10  1   
 21   9  32  1   
 22   9  33  1   
 23  10  11  1   
 24  10  34  1   
 25  10  35  1   
 26  11  12  2   
 27  11  13  am  
 28  13  14  1   
 29  13  36  1   
 30  14  15  1   
 31  14  16  2   
 32  15  17  2   
 33  15  37  1   
 34  16  18  1   
 35  16  38  1   
 36  17  18  1   
 37  18  19  1   
 38  19  20  1   
 39  19  21  1   
 40  19  39  1   
 41  20  40  1   
 42  20  41  1   
 43  20  42  1   
 44  21  43  1   
 45  21  44  1   
 46  21  45  1   
@<TRIPOS>SUBSTRUCTURE
  1 ****  13 GROUP 4 **** **** 0

# MOE 2024.06 (io_trps.svl 2023.06)
