@<TRIPOS>MOLECULE
NONAME
52 53 1 0 0 
SMALL
USER_CHARGES


@<TRIPOS>ATOM
  1 S        0.2260     0.3440     0.7070 S.o2  1 <1>   1.3330 
  2 O        0.6420     1.3410     1.6680 O.2   1 <1>  -0.6500 
  3 O       -0.9050    -0.5060     0.9770 O.2   1 <1>  -0.6500 
  4 N        1.6020    -0.6640     0.4140 N.am  1 <1>  -0.6930 
  5 C        0.0130     1.1460    -0.8680 C.3   1 <1>  -0.1350 
  6 C        1.5380    -1.6710    -0.5470 C.ar  1 <1>   0.1990 
  7 C        2.8950    -0.2420     1.0450 C.3   1 <1>   0.3370 
  8 C        0.7530    -2.7980    -0.3300 C.ar  1 <1>  -0.1500 
  9 C        2.2380    -1.5720    -1.7460 C.ar  1 <1>  -0.1500 
 10 C        3.5160     0.9960     0.3560 C.2   1 <1>   0.5690 
 11 C        3.8670    -1.4290     1.1580 C.3   1 <1>  -0.2400 
 12 C        0.6710    -3.8000    -1.2790 C.ar  1 <1>  -0.1500 
 13 C        2.1610    -2.5720    -2.6970 C.ar  1 <1>  -0.1500 
 14 O        4.3090     0.8470    -0.5460 O.2   1 <1>  -0.5700 
 15 N        3.1120     2.2360     0.7780 N.am  1 <1>  -0.4940 
 16 C        1.3760    -3.6890    -2.4650 C.ar  1 <1>  -0.1500 
 17 C        3.3770     3.5240     0.2530 C.2   1 <1>  -0.0880 
 18 N        4.5350     4.0050    -0.2890 N.pl3 1 <1>   0.3140 
 19 C        2.4830     4.5380     0.2030 C.2   1 <1>  -0.1500 
 20 N        4.3750     5.2890    -0.7000 N.2   1 <1>  -0.7070 
 21 C        5.8480     3.3170    -0.3830 C.3   1 <1>   0.0960 
 22 C        3.1560     5.5930    -0.3980 C.2   1 <1>   0.1080 
 23 C        7.0430     4.2660    -0.1900 C.3   1 <1>  -0.1600 
 24 C        2.5710     6.9560    -0.6850 C.3   1 <1>  -0.0590 
 25 C        8.3700     3.4960    -0.2040 C.3   1 <1>  -0.1600 
 26 C        9.5570     4.4450    -0.0170 C.3   1 <1>  -0.2400 
 27 H       -0.8080     1.8340    -0.8220 H     1 <1>   0.0800 
 28 H       -0.1950     0.4180    -1.6280 H     1 <1>   0.0800 
 29 H        0.9000     1.6840    -1.1390 H     1 <1>   0.0800 
 30 H        2.6760     0.0440     2.0590 H     1 <1>   0.0800 
 31 H        0.2020    -2.8840     0.5900 H     1 <1>   0.1500 
 32 H        2.8490    -0.7090    -1.9380 H     1 <1>   0.1500 
 33 H        4.2060    -1.7470     0.1890 H     1 <1>   0.0800 
 34 H        3.3910    -2.2530     1.6590 H     1 <1>   0.0800 
 35 H        4.7290    -1.1350     1.7280 H     1 <1>   0.0800 
 36 H        0.0580    -4.6660    -1.0950 H     1 <1>   0.1500 
 37 H        2.7110    -2.4830    -3.6190 H     1 <1>   0.1500 
 38 H        2.3180     2.2120     1.4370 H     1 <1>   0.3700 
 39 H        1.3140    -4.4690    -3.2040 H     1 <1>   0.1500 
 40 H        1.4650     4.5490     0.5440 H     1 <1>   0.1500 
 41 H        5.9040     2.8420    -1.3440 H     1 <1>   0.0800 
 42 H        5.8830     2.5590     0.3760 H     1 <1>   0.0800 
 43 H        6.9360     4.7820     0.7480 H     1 <1>   0.0800 
 44 H        7.0470     4.9960    -0.9820 H     1 <1>   0.0800 
 45 H        1.5570     7.0130    -0.3380 H     1 <1>   0.0800 
 46 H        2.5950     7.1380    -1.7430 H     1 <1>   0.0800 
 47 H        3.1580     7.7070    -0.1890 H     1 <1>   0.0800 
 48 H        8.4770     2.9770    -1.1420 H     1 <1>   0.0800 
 49 H        8.3750     2.7640     0.5860 H     1 <1>   0.0800 
 50 H        9.5840     5.1730    -0.8080 H     1 <1>   0.0800 
 51 H       10.4780     3.8900    -0.0310 H     1 <1>   0.0800 
 52 H        9.4820     4.9600     0.9250 H     1 <1>   0.0800 
@<TRIPOS>BOND
  1   1   2  2   
  2   1   3  2   
  3   1   4  am  
  4   1   5  1   
  5   4   6  1   
  6   4   7  1   
  7   5  27  1   
  8   5  28  1   
  9   5  29  1   
 10   6   8  ar  
 11   6   9  ar  
 12   7  10  1   
 13   7  11  1   
 14   7  30  1   
 15   8  12  ar  
 16   8  31  1   
 17   9  13  ar  
 18   9  32  1   
 19  10  14  2   
 20  10  15  am  
 21  11  33  1   
 22  11  34  1   
 23  11  35  1   
 24  12  16  ar  
 25  12  36  1   
 26  13  16  ar  
 27  13  37  1   
 28  15  17  1   
 29  15  38  1   
 30  16  39  1   
 31  17  18  1   
 32  17  19  2   
 33  18  20  1   
 34  18  21  1   
 35  19  22  1   
 36  19  40  1   
 37  20  22  2   
 38  21  23  1   
 39  21  41  1   
 40  21  42  1   
 41  22  24  1   
 42  23  25  1   
 43  23  43  1   
 44  23  44  1   
 45  24  45  1   
 46  24  46  1   
 47  24  47  1   
 48  25  26  1   
 49  25  48  1   
 50  25  49  1   
 51  26  50  1   
 52  26  51  1   
 53  26  52  1   
@<TRIPOS>SUBSTRUCTURE
  1 ****  10 GROUP 4 **** **** 0

# MOE 2024.06 (io_trps.svl 2023.06)
