@<TRIPOS>MOLECULE
NONAME
41 43 1 0 0 
SMALL
USER_CHARGES


@<TRIPOS>ATOM
  1 O       -0.4450     0.1680     0.5020 O.2   1 <1>  -0.5700 
  2 C       -1.4980     0.8080     0.4370 C.2   1 <1>   0.5440 
  3 N       -2.6460     0.0400     0.3160 N.am  1 <1>  -0.6600 
  4 C       -1.4550     2.2520     0.3390 C.ar  1 <1>   0.0860 
  5 C       -3.9960     0.5840     0.0540 C.3   1 <1>   0.1400 
  6 C       -2.6570    -1.4380     0.2970 C.3   1 <1>   0.1400 
  7 C       -2.3700     3.1440     0.9730 C.ar  1 <1>  -0.1710 
  8 C       -0.4550     2.8560    -0.4510 C.ar  1 <1>   0.0820 
  9 C       -4.7620    -0.5920    -0.5410 C.3   1 <1>   0.2000 
 10 C       -4.1210    -1.8340     0.0800 C.3   1 <1>  -0.0800 
 11 O       -3.2500     2.7660     1.7800 O.3   1 <1>  -0.8290 
 12 C       -2.2970     4.5230     0.7220 C.ar  1 <1>  -0.1500 
 13 O        0.5060     2.0950    -1.0090 O.3   1 <1>  -0.5320 
 14 C       -0.3960     4.2140    -0.6810 C.ar  1 <1>  -0.1500 
 15 O       -6.1120    -0.5410    -0.2310 O.3   1 <1>  -0.6800 
 16 C       -4.3040    -3.0870    -0.7880 C.3   1 <1>   0.0210 
 17 C       -1.3340     5.0550    -0.0940 C.ar  1 <1>  -0.1500 
 18 C       -3.6150    -4.2950    -0.1830 C.2   1 <1>   0.1080 
 19 N       -4.1440    -5.0100     0.7610 N.2   1 <1>  -0.7070 
 20 C       -2.3630    -4.7700    -0.5610 C.2   1 <1>  -0.1500 
 21 N       -3.2350    -5.9690     1.0130 N.pl3 1 <1>   0.3000 
 22 C       -2.1460    -5.8460     0.2250 C.2   1 <1>  -0.3320 
 23 C       -0.9480    -6.7750     0.2720 C.3   1 <1>  -0.0600 
 24 H       -4.4340     0.8800     0.9910 H     1 <1>   0.0800 
 25 H       -3.9520     1.4250    -0.6150 H     1 <1>   0.0800 
 26 H       -2.0340    -1.7780    -0.5130 H     1 <1>   0.0800 
 27 H       -2.2780    -1.8270     1.2270 H     1 <1>   0.0800 
 28 H       -4.6560    -0.5890    -1.6120 H     1 <1>   0.0800 
 29 H       -4.5490    -2.0100     1.0510 H     1 <1>   0.0800 
 30 H       -3.0290     5.1420     1.2070 H     1 <1>   0.1500 
 31 H        0.4460     1.1850    -0.6170 H     1 <1>   0.4500 
 32 H        0.3770     4.6180    -1.3070 H     1 <1>   0.1500 
 33 H       -6.2110    -0.3200     0.7170 H     1 <1>   0.4000 
 34 H       -3.9110    -2.9130    -1.7730 H     1 <1>   0.0800 
 35 H       -5.3530    -3.3020    -0.8830 H     1 <1>   0.0800 
 36 H       -1.2950     6.1130    -0.2730 H     1 <1>   0.1500 
 37 H       -1.7280    -4.3480    -1.3190 H     1 <1>   0.1500 
 38 H       -3.3880    -6.6920     1.7260 H     1 <1>   0.2700 
 39 H       -0.2110    -6.4660    -0.4480 H     1 <1>   0.0800 
 40 H       -1.2490    -7.7820     0.0430 H     1 <1>   0.0800 
 41 H       -0.5000    -6.7560     1.2500 H     1 <1>   0.0800 
@<TRIPOS>BOND
  1   1   2  2   
  2   2   3  am  
  3   2   4  1   
  4   3   5  1   
  5   3   6  1   
  6   4   7  ar  
  7   4   8  ar  
  8   5   9  1   
  9   5  24  1   
 10   5  25  1   
 11   6  10  1   
 12   6  26  1   
 13   6  27  1   
 14   7  11  1   
 15   7  12  ar  
 16   8  13  1   
 17   8  14  ar  
 18   9  10  1   
 19   9  15  1   
 20   9  28  1   
 21  10  16  1   
 22  10  29  1   
 23  12  17  ar  
 24  12  30  1   
 25  13  31  1   
 26  14  17  ar  
 27  14  32  1   
 28  15  33  1   
 29  16  18  1   
 30  16  34  1   
 31  16  35  1   
 32  17  36  1   
 33  18  19  2   
 34  18  20  1   
 35  19  21  1   
 36  20  22  2   
 37  20  37  1   
 38  21  22  1   
 39  21  38  1   
 40  22  23  1   
 41  23  39  1   
 42  23  40  1   
 43  23  41  1   
@<TRIPOS>SUBSTRUCTURE
  1 ****   3 GROUP 4 **** **** 0

# MOE 2024.06 (io_trps.svl 2023.06)
