@<TRIPOS>MOLECULE
NONAME
39 41 1 0 0 
SMALL
USER_CHARGES


@<TRIPOS>ATOM
  1 S       -0.1760     0.1840    -0.6280 S.3   1 <1>  -0.0800 
  2 C       -1.3500    -0.7550     0.3010 C.2   1 <1>  -0.0450 
  3 C       -0.6530     1.6850     0.1340 C.2   1 <1>  -0.1400 
  4 C       -1.4250    -2.1790     0.0710 C.2   1 <1>   0.7150 
  5 C       -2.0200     0.0940     1.1250 C.2   1 <1>  -0.1500 
  6 C       -1.6320     1.4620     1.0290 C.2   1 <1>  -0.1500 
  7 C        0.0670     2.9450    -0.2990 C.3   1 <1>  -0.0600 
  8 O       -0.4440    -2.8020    -0.2940 O.2   1 <1>  -0.5700 
  9 N       -2.6010    -2.8770     0.2530 N.am  1 <1>  -0.6600 
 10 C       -3.9540    -2.2710     0.1720 C.3   1 <1>   0.1400 
 11 C       -2.6750    -4.3430     0.0340 C.3   1 <1>   0.1400 
 12 C       -4.8570    -3.3920    -0.3400 C.3   1 <1>   0.2000 
 13 C       -4.1640    -4.6910     0.0670 C.3   1 <1>  -0.0800 
 14 O       -6.1210    -3.3270     0.2240 O.3   1 <1>  -0.6800 
 15 C       -4.5400    -5.8770    -0.8340 C.3   1 <1>  -0.0170 
 16 C       -3.8200    -7.1430    -0.3980 C.ar  1 <1>  -0.1430 
 17 C       -2.6440    -7.5610    -0.9890 C.ar  1 <1>  -0.1500 
 18 C       -4.3080    -7.9410     0.6170 C.ar  1 <1>  -0.1500 
 19 C       -2.0280    -8.7190    -0.5440 C.ar  1 <1>   0.1600 
 20 C       -3.6150    -9.0820     0.9850 C.ar  1 <1>   0.1600 
 21 N       -2.4850    -9.4890     0.4290 N.ar  1 <1>  -0.6200 
 22 H       -2.7840    -0.2030     1.8200 H     1 <1>   0.1500 
 23 H       -2.1020     2.2160     1.6360 H     1 <1>   0.1500 
 24 H       -0.3120     3.7940     0.2400 H     1 <1>   0.0800 
 25 H       -0.0790     3.1050    -1.3520 H     1 <1>   0.0800 
 26 H        1.1200     2.8490    -0.1020 H     1 <1>   0.0800 
 27 H       -4.2580    -1.9580     1.1550 H     1 <1>   0.0800 
 28 H       -3.9610    -1.4360    -0.5060 H     1 <1>   0.0800 
 29 H       -2.2480    -4.5740    -0.9270 H     1 <1>   0.0800 
 30 H       -2.1290    -4.8700     0.7990 H     1 <1>   0.0800 
 31 H       -4.9570    -3.3180    -1.4100 H     1 <1>   0.0800 
 32 H       -4.4120    -4.9250     1.0880 H     1 <1>   0.0800 
 33 H       -6.0720    -3.4410     1.1930 H     1 <1>   0.4000 
 34 H       -4.2940    -5.6550    -1.8580 H     1 <1>   0.0800 
 35 H       -5.6030    -6.0380    -0.7860 H     1 <1>   0.0800 
 36 H       -2.1980    -6.9990    -1.7890 H     1 <1>   0.1500 
 37 H       -5.2200    -7.6870     1.1250 H     1 <1>   0.1500 
 38 H       -1.1100    -9.0280    -1.0150 H     1 <1>   0.1500 
 39 H       -4.0110    -9.6930     1.7780 H     1 <1>   0.1500 
@<TRIPOS>BOND
  1   1   2  1   
  2   1   3  1   
  3   2   4  1   
  4   2   5  2   
  5   3   6  2   
  6   3   7  1   
  7   4   8  2   
  8   4   9  am  
  9   5   6  1   
 10   5  22  1   
 11   6  23  1   
 12   7  24  1   
 13   7  25  1   
 14   7  26  1   
 15   9  10  1   
 16   9  11  1   
 17  10  12  1   
 18  10  27  1   
 19  10  28  1   
 20  11  13  1   
 21  11  29  1   
 22  11  30  1   
 23  12  13  1   
 24  12  14  1   
 25  12  31  1   
 26  13  15  1   
 27  13  32  1   
 28  14  33  1   
 29  15  16  1   
 30  15  34  1   
 31  15  35  1   
 32  16  17  ar  
 33  16  18  ar  
 34  17  19  ar  
 35  17  36  1   
 36  18  20  ar  
 37  18  37  1   
 38  19  21  ar  
 39  19  38  1   
 40  20  21  ar  
 41  20  39  1   
@<TRIPOS>SUBSTRUCTURE
  1 ****  11 GROUP 4 **** **** 0

# MOE 2024.06 (io_trps.svl 2023.06)
