@<TRIPOS>MOLECULE
NONAME
46 47 1 0 0 
SMALL
USER_CHARGES


@<TRIPOS>ATOM
  1 S        0.3200     0.0660    -0.3920 S.o2  1 <1>   1.3330 
  2 O        0.0340     1.3970    -0.8770 O.2   1 <1>  -0.6500 
  3 O       -0.2390    -0.3740     0.8670 O.2   1 <1>  -0.6500 
  4 N       -0.1470    -1.0490    -1.5850 N.am  1 <1>  -0.8490 
  5 C        2.1040    -0.1160    -0.3630 C.3   1 <1>  -0.0550 
  6 C       -0.3110    -2.4150    -1.0720 C.3   1 <1>   0.1160 
  7 C       -1.3630    -0.6330    -2.2890 C.3   1 <1>   0.1160 
  8 C        2.7950     0.8160     0.6530 C.3   1 <1>  -0.0800 
  9 C        4.3000     0.8520     0.4460 C.3   1 <1>   0.2890 
 10 C        2.6840     0.2710     2.0820 C.3   1 <1>   0.1200 
 11 N        4.8410     2.0880     1.0700 N.pl3 1 <1>  -0.8690 
 12 C        4.7470    -0.3580     1.2590 C.3   1 <1>   0.1200 
 13 O        3.8520    -0.4590     2.3270 O.3   1 <1>  -0.5600 
 14 C        5.3940     3.1460     0.4510 C.ar  1 <1>   0.4100 
 15 N        5.4990     3.1290    -0.8630 N.ar  1 <1>  -0.6200 
 16 C        5.8400     4.2340     1.2220 C.ar  1 <1>  -0.1500 
 17 C        6.0460     4.1820    -1.4370 C.ar  1 <1>   0.7710 
 18 C        6.3970     5.3020     0.6010 C.ar  1 <1>   0.2180 
 19 N        6.4890     5.2490    -0.7490 N.ar  1 <1>  -0.1790 
 20 N        6.1510     4.1460    -2.7710 N.pl3 1 <1>  -0.8690 
 21 C        6.9110     6.5310     1.3310 C.3   1 <1>  -0.0970 
 22 C        6.6960     5.0990    -3.7800 C.3   1 <1>   0.1290 
 23 H        2.3570    -1.1360    -0.1490 H     1 <1>   0.0800 
 24 H        2.4700     0.1130    -1.3450 H     1 <1>   0.0800 
 25 H       -0.5130    -3.0920    -1.8840 H     1 <1>   0.0800 
 26 H       -1.1260    -2.4570    -0.3680 H     1 <1>   0.0800 
 27 H        0.5890    -2.7370    -0.5770 H     1 <1>   0.0800 
 28 H       -1.6230    -1.3530    -3.0460 H     1 <1>   0.0800 
 29 H       -1.2040     0.3170    -2.7710 H     1 <1>   0.0800 
 30 H       -2.1830    -0.5350    -1.5950 H     1 <1>   0.0800 
 31 H        2.3710     1.8030     0.5710 H     1 <1>   0.0800 
 32 H        4.5930     0.7780    -0.5880 H     1 <1>   0.0800 
 33 H        1.8350    -0.3720     2.2350 H     1 <1>   0.0800 
 34 H        2.6490     1.0760     2.7960 H     1 <1>   0.0800 
 35 H        4.7700     2.0510     2.0930 H     1 <1>   0.4000 
 36 H        5.7500    -0.2570     1.6350 H     1 <1>   0.0800 
 37 H        4.6650    -1.2590     0.6780 H     1 <1>   0.0800 
 38 H        5.7240     4.1840     2.2890 H     1 <1>   0.1500 
 39 H        6.8890     5.9980    -1.2990 H     1 <1>   0.4570 
 40 H        5.7700     3.2830    -3.1810 H     1 <1>   0.4000 
 41 H        6.7700     6.4240     2.3930 H     1 <1>   0.0800 
 42 H        6.3790     7.4100     1.0110 H     1 <1>   0.0800 
 43 H        7.9620     6.6680     1.1460 H     1 <1>   0.0800 
 44 H        7.0910     5.9860    -3.3190 H     1 <1>   0.0800 
 45 H        5.9160     5.3850    -4.4670 H     1 <1>   0.0800 
 46 H        7.4830     4.6210    -4.3400 H     1 <1>   0.0800 
@<TRIPOS>BOND
  1   1   2  2   
  2   1   3  2   
  3   1   4  am  
  4   1   5  1   
  5   4   6  1   
  6   4   7  1   
  7   5   8  1   
  8   5  23  1   
  9   5  24  1   
 10   6  25  1   
 11   6  26  1   
 12   6  27  1   
 13   7  28  1   
 14   7  29  1   
 15   7  30  1   
 16   8   9  1   
 17   8  10  1   
 18   8  31  1   
 19   9  11  1   
 20   9  12  1   
 21   9  32  1   
 22  10  13  1   
 23  10  33  1   
 24  10  34  1   
 25  11  14  1   
 26  11  35  1   
 27  12  13  1   
 28  12  36  1   
 29  12  37  1   
 30  14  15  ar  
 31  14  16  ar  
 32  15  17  ar  
 33  16  18  ar  
 34  16  38  1   
 35  17  19  ar  
 36  17  20  1   
 37  18  19  ar  
 38  18  21  1   
 39  19  39  1   
 40  20  22  1   
 41  20  40  1   
 42  21  41  1   
 43  21  42  1   
 44  21  43  1   
 45  22  44  1   
 46  22  45  1   
 47  22  46  1   
@<TRIPOS>SUBSTRUCTURE
  1 ****   9 GROUP 4 **** **** 0

# MOE 2024.06 (io_trps.svl 2023.06)
