@<TRIPOS>MOLECULE
NONAME
52 55 1 0 0 
SMALL
USER_CHARGES


@<TRIPOS>ATOM
  1 O        0.6870    -1.1410     1.1210 O.3   1 <1>  -0.5600 
  2 C        0.9790    -2.0140     0.0720 C.3   1 <1>   0.2000 
  3 C       -0.6740    -0.9620     1.3690 C.3   1 <1>   0.0400 
  4 C        2.4400    -1.8320    -0.3680 C.3   1 <1>   0.0000 
  5 C        0.8500    -3.4760     0.5240 C.3   1 <1>  -0.1600 
  6 C        3.3050    -1.5140     0.8710 C.3   1 <1>   0.3430 
  7 C        2.5930    -0.7070    -1.4110 C.3   1 <1>  -0.1600 
  8 C        2.7880    -3.2160    -0.9390 C.3   1 <1>  -0.1600 
  9 C        2.0780    -4.2140    -0.0250 C.3   1 <1>  -0.1600 
 10 N        4.7350    -1.2840     0.4990 N.4   1 <1>  -0.9590 
 11 C        4.0720    -0.4250    -1.7220 C.3   1 <1>  -0.1600 
 12 C        4.8770    -0.1430    -0.4520 C.3   1 <1>   0.3430 
 13 C        5.5700    -1.1130     1.7100 C.3   1 <1>   0.5230 
 14 C        7.0210    -1.0460     1.3020 C.2   1 <1>  -0.3320 
 15 N        7.6610    -2.0670     0.6770 N.pl3 1 <1>   0.5930 
 16 C        7.9100    -0.0410     1.4600 C.2   1 <1>  -0.1500 
 17 N        8.9330    -1.7100     0.4030 N.2   1 <1>  -0.7070 
 18 C        7.0600    -3.2680     0.2100 C.ar  1 <1>  -0.0230 
 19 C        9.0800    -0.5170     0.8820 C.2   1 <1>   0.1390 
 20 C        6.5300    -4.1980     1.1010 C.ar  1 <1>  -0.1500 
 21 C        6.9570    -3.5110    -1.1550 C.ar  1 <1>  -0.1500 
 22 C        5.8840    -5.3280     0.6340 C.ar  1 <1>  -0.1500 
 23 C        6.3140    -4.6430    -1.6220 C.ar  1 <1>  -0.1500 
 24 C        5.7710    -5.5490    -0.7280 C.ar  1 <1>  -0.1500 
 25 H        0.3180    -1.8180    -0.7570 H     1 <1>   0.0800 
 26 H       -0.7800    -0.2740     2.1890 H     1 <1>   0.0800 
 27 H       -1.1220    -1.9050     1.6310 H     1 <1>   0.0800 
 28 H       -1.1460    -0.5510     0.4920 H     1 <1>   0.0800 
 29 H        0.8240    -3.5520     1.5970 H     1 <1>   0.0800 
 30 H       -0.0510    -3.9010     0.1180 H     1 <1>   0.0800 
 31 H        3.2260    -2.3300     1.5700 H     1 <1>   0.0800 
 32 H        2.9120    -0.6300     1.3490 H     1 <1>   0.0800 
 33 H        2.0720    -0.9640    -2.3190 H     1 <1>   0.0800 
 34 H        2.1390     0.1910    -1.0250 H     1 <1>   0.0800 
 35 H        2.3770    -3.3110    -1.9300 H     1 <1>   0.0800 
 36 H        3.8430    -3.4090    -0.9940 H     1 <1>   0.0800 
 37 H        2.7250    -4.4970     0.7880 H     1 <1>   0.0800 
 38 H        1.7970    -5.1050    -0.5630 H     1 <1>   0.0800 
 39 H        5.0570    -2.1340     0.0140 H     1 <1>   0.4500 
 40 H        4.1380     0.4300    -2.3730 H     1 <1>   0.0800 
 41 H        4.5080    -1.2580    -2.2450 H     1 <1>   0.0800 
 42 H        4.5140     0.7620     0.0090 H     1 <1>   0.0800 
 43 H        5.9150     0.0000    -0.7110 H     1 <1>   0.0800 
 44 H        5.2920    -0.2070     2.2240 H     1 <1>   0.0800 
 45 H        5.4210    -1.9440     2.3810 H     1 <1>   0.0800 
 46 H        7.7950     0.9280     1.9170 H     1 <1>   0.1500 
 47 H       10.0070     0.0350     0.8280 H     1 <1>   0.1500 
 48 H        6.6320    -4.0510     2.1630 H     1 <1>   0.1500 
 49 H        7.3940    -2.8180    -1.8560 H     1 <1>   0.1500 
 50 H        5.4770    -6.0470     1.3260 H     1 <1>   0.1500 
 51 H        6.2430    -4.8280    -2.6810 H     1 <1>   0.1500 
 52 H        5.2740    -6.4330    -1.0910 H     1 <1>   0.1500 
@<TRIPOS>BOND
  1   1   2  1   
  2   1   3  1   
  3   2   4  1   
  4   2   5  1   
  5   2  25  1   
  6   3  26  1   
  7   3  27  1   
  8   3  28  1   
  9   4   6  1   
 10   4   7  1   
 11   4   8  1   
 12   5   9  1   
 13   5  29  1   
 14   5  30  1   
 15   6  10  1   
 16   6  31  1   
 17   6  32  1   
 18   7  11  1   
 19   7  33  1   
 20   7  34  1   
 21   8   9  1   
 22   8  35  1   
 23   8  36  1   
 24   9  37  1   
 25   9  38  1   
 26  10  12  1   
 27  10  13  1   
 28  10  39  1   
 29  11  12  1   
 30  11  40  1   
 31  11  41  1   
 32  12  42  1   
 33  12  43  1   
 34  13  14  1   
 35  13  44  1   
 36  13  45  1   
 37  14  15  1   
 38  14  16  2   
 39  15  17  1   
 40  15  18  1   
 41  16  19  1   
 42  16  46  1   
 43  17  19  2   
 44  18  20  ar  
 45  18  21  ar  
 46  19  47  1   
 47  20  22  ar  
 48  20  48  1   
 49  21  23  ar  
 50  21  49  1   
 51  22  24  ar  
 52  22  50  1   
 53  23  24  ar  
 54  23  51  1   
 55  24  52  1   
@<TRIPOS>SUBSTRUCTURE
  1 ****  10 GROUP 4 **** **** 0

# MOE 2024.06 (io_trps.svl 2023.06)
