@<TRIPOS>MOLECULE
NONAME
49 51 1 0 0 
SMALL
USER_CHARGES


@<TRIPOS>ATOM
  1 N        0.7850     1.7350    -0.0040 N.2   1 <1>  -0.7070 
  2 N        0.0110     2.4590     0.8230 N.pl3 1 <1>   0.3140 
  3 C        0.0490     0.7270    -0.3510 C.2   1 <1>   0.1080 
  4 C       -1.2090     1.8970     0.9790 C.2   1 <1>  -0.3320 
  5 C        0.5340     3.7070     1.4050 C.3   1 <1>   0.0960 
  6 C       -1.2120     0.7740     0.2310 C.2   1 <1>  -0.1500 
  7 C        0.5400    -0.3550    -1.2820 C.3   1 <1>  -0.0590 
  8 C       -2.3370     2.4450     1.8380 C.3   1 <1>  -0.0600 
  9 C        0.7440     4.7530     0.2960 C.3   1 <1>  -0.1600 
 10 C        1.6680     5.8740     0.7600 C.3   1 <1>   0.3430 
 11 N        2.1020     6.6860    -0.4150 N.4   1 <1>  -0.9590 
 12 C        3.3320     7.4730    -0.0590 C.3   1 <1>   0.3430 
 13 C        0.9890     7.5580    -0.9210 C.3   1 <1>   0.2630 
 14 C        4.0190     8.1030    -1.2760 C.3   1 <1>   0.0960 
 15 N        5.2570     8.7360    -0.8080 N.pl3 1 <1>   0.0480 
 16 C        5.3410     9.8400    -0.0200 C.ar  1 <1>  -0.1520 
 17 C        6.4980     8.1830    -0.7920 C.2   1 <1>   0.0360 
 18 C        6.6490     9.8740     0.4280 C.ar  1 <1>   0.2270 
 19 C        4.4240    10.8250     0.3630 C.ar  1 <1>  -0.1500 
 20 N        7.3500     8.8200    -0.0710 N.2   1 <1>  -0.5650 
 21 C        7.0710    10.8910     1.2810 C.ar  1 <1>  -0.1500 
 22 C        4.8500    11.8260     1.2070 C.ar  1 <1>  -0.1500 
 23 C        6.1720    11.8600     1.6680 C.ar  1 <1>  -0.1500 
 24 H        1.4690     3.4630     1.8760 H     1 <1>   0.0800 
 25 H       -0.1470     4.0670     2.1540 H     1 <1>   0.0800 
 26 H       -1.9980     0.0530     0.0950 H     1 <1>   0.1500 
 27 H        0.8100     0.0780    -2.2270 H     1 <1>   0.0800 
 28 H       -0.2260    -1.0920    -1.4380 H     1 <1>   0.0800 
 29 H        1.4040    -0.8300    -0.8560 H     1 <1>   0.0800 
 30 H       -2.6240     3.4240     1.5000 H     1 <1>   0.0800 
 31 H       -2.0290     2.4990     2.8670 H     1 <1>   0.0800 
 32 H       -3.1940     1.7990     1.7750 H     1 <1>   0.0800 
 33 H       -0.2140     5.1410     0.0010 H     1 <1>   0.0800 
 34 H        1.2000     4.2650    -0.5490 H     1 <1>   0.0800 
 35 H        2.5350     5.4300     1.2250 H     1 <1>   0.0800 
 36 H        1.1730     6.4940     1.4910 H     1 <1>   0.0800 
 37 H        2.3500     6.0090    -1.1560 H     1 <1>   0.4500 
 38 H        4.0420     6.8180     0.4220 H     1 <1>   0.0800 
 39 H        3.0740     8.2510     0.6420 H     1 <1>   0.0800 
 40 H        0.6890     8.2630    -0.1620 H     1 <1>   0.0800 
 41 H        0.1340     6.9590    -1.1890 H     1 <1>   0.0800 
 42 H        1.3030     8.1050    -1.7950 H     1 <1>   0.0800 
 43 H        3.4010     8.8560    -1.7280 H     1 <1>   0.0800 
 44 H        4.2700     7.3520    -2.0040 H     1 <1>   0.0800 
 45 H        6.7320     7.2820    -1.3330 H     1 <1>   0.1500 
 46 H        3.4120    10.8140     0.0020 H     1 <1>   0.1500 
 47 H        8.0920    10.8940     1.6150 H     1 <1>   0.1500 
 48 H        4.1720    12.6020     1.5210 H     1 <1>   0.1500 
 49 H        6.4810    12.6540     2.3260 H     1 <1>   0.1500 
@<TRIPOS>BOND
  1   1   2  1   
  2   1   3  2   
  3   2   4  1   
  4   2   5  1   
  5   3   6  1   
  6   3   7  1   
  7   4   6  2   
  8   4   8  1   
  9   5   9  1   
 10   5  24  1   
 11   5  25  1   
 12   6  26  1   
 13   7  27  1   
 14   7  28  1   
 15   7  29  1   
 16   8  30  1   
 17   8  31  1   
 18   8  32  1   
 19   9  10  1   
 20   9  33  1   
 21   9  34  1   
 22  10  11  1   
 23  10  35  1   
 24  10  36  1   
 25  11  12  1   
 26  11  13  1   
 27  11  37  1   
 28  12  14  1   
 29  12  38  1   
 30  12  39  1   
 31  13  40  1   
 32  13  41  1   
 33  13  42  1   
 34  14  15  1   
 35  14  43  1   
 36  14  44  1   
 37  15  16  1   
 38  15  17  1   
 39  16  18  ar  
 40  16  19  ar  
 41  17  20  2   
 42  17  45  1   
 43  18  20  1   
 44  18  21  ar  
 45  19  22  ar  
 46  19  46  1   
 47  21  23  ar  
 48  21  47  1   
 49  22  23  ar  
 50  22  48  1   
 51  23  49  1   
@<TRIPOS>SUBSTRUCTURE
  1 ****  11 GROUP 4 **** **** 0

# MOE 2024.06 (io_trps.svl 2023.06)
