@<TRIPOS>MOLECULE
NONAME
33 34 1 0 0 
SMALL
USER_CHARGES


@<TRIPOS>ATOM
  1 F       -0.3810     1.8600     2.2010 F     1 <1>  -0.1900 
  2 C       -1.3430     1.7790     1.3100 C.ar  1 <1>   0.1900 
  3 C       -1.6370     2.8850     0.5220 C.ar  1 <1>   0.1000 
  4 C       -2.0350     0.5910     1.1780 C.ar  1 <1>   0.1600 
  5 N       -0.9600     4.0970     0.6260 N.pl3 1 <1>  -0.8690 
  6 C       -2.6740     2.6830    -0.3750 C.ar  1 <1>  -0.1500 
  7 N       -3.0240     0.4000     0.3090 N.ar  1 <1>  -0.6200 
  8 C       -0.3830     4.7260    -0.5650 C.3   1 <1>   0.4270 
  9 C       -3.3150     1.4570    -0.4400 C.ar  1 <1>   0.1600 
 10 C        1.0890     4.9970    -0.2680 C.2   1 <1>  -0.2760 
 11 C       -1.1650     5.9950    -0.8850 C.3   1 <1>  -0.2400 
 12 C        2.0730     4.3540    -0.9110 C.2   1 <1>  -0.2880 
 13 C        1.3800     6.0470     0.8080 C.3   1 <1>  -0.0220 
 14 C        3.5580     4.5850    -0.6790 C.3   1 <1>  -0.0220 
 15 C        2.8300     5.9700     1.3080 C.3   1 <1>  -0.1600 
 16 C        3.8100     5.8620     0.1340 C.3   1 <1>  -0.1600 
 17 H       -1.7650    -0.2350     1.8120 H     1 <1>   0.1500 
 18 H       -0.2240     4.0760     1.3410 H     1 <1>   0.4000 
 19 H       -2.9860     3.4840    -1.0160 H     1 <1>   0.1500 
 20 H       -0.4530     4.0470    -1.3990 H     1 <1>   0.0800 
 21 H       -4.1170     1.3360    -1.1490 H     1 <1>   0.1500 
 22 H       -1.2010     6.6460    -0.0320 H     1 <1>   0.0800 
 23 H       -2.1680     5.7440    -1.1720 H     1 <1>   0.0800 
 24 H       -0.6940     6.5110    -1.7000 H     1 <1>   0.0800 
 25 H        1.8880     3.5990    -1.6560 H     1 <1>   0.1500 
 26 H        0.7230     5.9200     1.6510 H     1 <1>   0.0800 
 27 H        1.2010     7.0250     0.3970 H     1 <1>   0.0800 
 28 H        4.0650     4.6640    -1.6250 H     1 <1>   0.0800 
 29 H        3.9600     3.7360    -0.1540 H     1 <1>   0.0800 
 30 H        2.9390     5.1040     1.9380 H     1 <1>   0.0800 
 31 H        3.0540     6.8410     1.8970 H     1 <1>   0.0800 
 32 H        3.6840     6.7180    -0.5070 H     1 <1>   0.0800 
 33 H        4.8230     5.8650     0.4960 H     1 <1>   0.0800 
@<TRIPOS>BOND
  1   1   2  1   
  2   2   3  ar  
  3   2   4  ar  
  4   3   5  1   
  5   3   6  ar  
  6   4   7  ar  
  7   4  17  1   
  8   5   8  1   
  9   5  18  1   
 10   6   9  ar  
 11   6  19  1   
 12   7   9  ar  
 13   8  10  1   
 14   8  11  1   
 15   8  20  1   
 16   9  21  1   
 17  10  12  2   
 18  10  13  1   
 19  11  22  1   
 20  11  23  1   
 21  11  24  1   
 22  12  14  1   
 23  12  25  1   
 24  13  15  1   
 25  13  26  1   
 26  13  27  1   
 27  14  16  1   
 28  14  28  1   
 29  14  29  1   
 30  15  16  1   
 31  15  30  1   
 32  15  31  1   
 33  16  32  1   
 34  16  33  1   
@<TRIPOS>SUBSTRUCTURE
  1 ****   5 GROUP 4 **** **** 0

# MOE 2024.06 (io_trps.svl 2023.06)
