@<TRIPOS>MOLECULE
NONAME
54 57 1 0 0 
SMALL
USER_CHARGES


@<TRIPOS>ATOM
  1 O        2.7390    -0.3660    -2.5670 O.3   1 <1>  -0.5130 
  2 C        2.1480    -1.3960    -1.9040 C.2   1 <1>  -0.0890 
  3 N        1.9060    -1.4290    -0.5650 N.pl3 1 <1>   0.5930 
  4 C        1.6960    -2.5420    -2.4390 C.2   1 <1>  -0.1500 
  5 N        1.2850    -2.5920    -0.2420 N.2   1 <1>  -0.7070 
  6 C        2.2420    -0.4230     0.3780 C.ar  1 <1>  -0.0230 
  7 C        1.1660    -3.2770    -1.3680 C.2   1 <1>   0.2030 
  8 C        1.2470     0.2490     1.0810 C.ar  1 <1>  -0.1500 
  9 C        3.5730    -0.0850     0.6080 C.ar  1 <1>  -0.1500 
 10 C        0.5910    -4.6120    -1.5340 C.2   1 <1>   0.7160 
 11 C        1.5740     1.2430     1.9860 C.ar  1 <1>  -0.1500 
 12 C        3.8990     0.9080     1.5140 C.ar  1 <1>  -0.1500 
 13 O        0.4510    -5.0840    -2.6490 O.2   1 <1>  -0.5700 
 14 N        0.1630    -5.4080    -0.4800 N.am  1 <1>  -0.6600 
 15 C        2.9000     1.5740     2.2020 C.ar  1 <1>  -0.1500 
 16 C       -0.5390    -4.8800     0.7300 C.3   1 <1>   0.1400 
 17 C        0.1030    -6.8930    -0.6170 C.3   1 <1>   0.1400 
 18 C       -1.9980    -5.3880     0.8000 C.3   1 <1>   0.4230 
 19 C       -1.3570    -7.3730    -0.5930 C.3   1 <1>   0.3430 
 20 N       -2.0970    -6.8980     0.6400 N.4   1 <1>  -0.9590 
 21 C       -2.8730    -4.6660    -0.2520 C.3   1 <1>   0.1200 
 22 C       -3.5480    -7.3000     0.6550 C.3   1 <1>   0.4230 
 23 O       -4.1960    -5.1170    -0.1730 O.3   1 <1>  -0.5600 
 24 C       -4.3690    -6.4910    -0.3790 C.3   1 <1>   0.1200 
 25 C       -3.6910    -8.8200     0.4750 C.3   1 <1>  -0.1600 
 26 C       -5.0910    -9.3260     0.8580 C.3   1 <1>  -0.1600 
 27 C       -5.1680   -10.8510     0.7450 C.3   1 <1>  -0.2400 
 28 H        2.9400     0.4130    -2.0070 H     1 <1>   0.4500 
 29 H        1.7260    -2.8530    -3.4690 H     1 <1>   0.1500 
 30 H        0.2140    -0.0060     0.9190 H     1 <1>   0.1500 
 31 H        4.3570    -0.6040     0.0830 H     1 <1>   0.1500 
 32 H        0.7980     1.7590     2.5250 H     1 <1>   0.1500 
 33 H        4.9310     1.1620     1.6870 H     1 <1>   0.1500 
 34 H        3.1550     2.3470     2.9080 H     1 <1>   0.1500 
 35 H       -0.0020    -5.1870     1.6100 H     1 <1>   0.0800 
 36 H       -0.5610    -3.8070     0.7290 H     1 <1>   0.0800 
 37 H        0.5660    -7.2080    -1.5370 H     1 <1>   0.0800 
 38 H        0.6530    -7.3470     0.1890 H     1 <1>   0.0800 
 39 H       -2.3880    -5.1130     1.7660 H     1 <1>   0.0800 
 40 H       -1.3660    -8.4500    -0.6360 H     1 <1>   0.0800 
 41 H       -1.8460    -7.0040    -1.4790 H     1 <1>   0.0800 
 42 H       -1.6480    -7.3230     1.4590 H     1 <1>   0.4500 
 43 H       -2.5080    -4.8290    -1.2510 H     1 <1>   0.0800 
 44 H       -2.8810    -3.6070    -0.0630 H     1 <1>   0.0800 
 45 H       -3.9510    -7.0570     1.6260 H     1 <1>   0.0800 
 46 H       -5.4190    -6.6960    -0.2670 H     1 <1>   0.0800 
 47 H       -4.0830    -6.7300    -1.3880 H     1 <1>   0.0800 
 48 H       -3.4970    -9.0960    -0.5470 H     1 <1>   0.0800 
 49 H       -2.9760    -9.3180     1.1080 H     1 <1>   0.0800 
 50 H       -5.3240    -9.0420     1.8710 H     1 <1>   0.0800 
 51 H       -5.8390    -8.8990     0.2110 H     1 <1>   0.0800 
 52 H       -4.4610   -11.3210     1.4060 H     1 <1>   0.0800 
 53 H       -4.9680   -11.1710    -0.2630 H     1 <1>   0.0800 
 54 H       -6.1540   -11.1890     1.0140 H     1 <1>   0.0800 
@<TRIPOS>BOND
  1   1   2  1   
  2   1  28  1   
  3   2   3  1   
  4   2   4  2   
  5   3   5  1   
  6   3   6  1   
  7   4   7  1   
  8   4  29  1   
  9   5   7  2   
 10   6   8  ar  
 11   6   9  ar  
 12   7  10  1   
 13   8  11  ar  
 14   8  30  1   
 15   9  12  ar  
 16   9  31  1   
 17  10  13  2   
 18  10  14  am  
 19  11  15  ar  
 20  11  32  1   
 21  12  15  ar  
 22  12  33  1   
 23  14  16  1   
 24  14  17  1   
 25  15  34  1   
 26  16  18  1   
 27  16  35  1   
 28  16  36  1   
 29  17  19  1   
 30  17  37  1   
 31  17  38  1   
 32  18  20  1   
 33  18  21  1   
 34  18  39  1   
 35  19  20  1   
 36  19  40  1   
 37  19  41  1   
 38  20  22  1   
 39  20  42  1   
 40  21  23  1   
 41  21  43  1   
 42  21  44  1   
 43  22  24  1   
 44  22  25  1   
 45  22  45  1   
 46  23  24  1   
 47  24  46  1   
 48  24  47  1   
 49  25  26  1   
 50  25  48  1   
 51  25  49  1   
 52  26  27  1   
 53  26  50  1   
 54  26  51  1   
 55  27  52  1   
 56  27  53  1   
 57  27  54  1   
@<TRIPOS>SUBSTRUCTURE
  1 ****  16 GROUP 4 **** **** 0

# MOE 2024.06 (io_trps.svl 2023.06)
