@<TRIPOS>MOLECULE
NONAME
42 43 1 0 0 
SMALL
USER_CHARGES


@<TRIPOS>ATOM
  1 O       -0.4560     0.1950     2.2920 O.2   1 <1>  -0.5700 
  2 C       -1.1140     0.8480     1.5160 C.2   1 <1>   0.5690 
  3 N       -2.1160     0.2740     0.7790 N.am  1 <1>  -0.6600 
  4 C       -0.7910     2.3420     1.3940 C.3   1 <1>   0.2010 
  5 C       -2.9470     0.9210    -0.2710 C.3   1 <1>   0.1400 
  6 C       -2.5190    -1.1410     0.9390 C.3   1 <1>   0.1400 
  7 N       -0.4750     2.7840    -0.0030 N.am  1 <1>  -0.7300 
  8 C       -4.0010    -0.1200    -0.6670 C.3   1 <1>   0.2000 
  9 C       -3.3470    -1.4580    -0.3080 C.3   1 <1>  -0.0800 
 10 C       -1.0480     3.7700    -0.7230 C.2   1 <1>   0.5690 
 11 O       -5.1480     0.0490     0.1170 O.3   1 <1>  -0.5600 
 12 C       -4.3360    -2.6210    -0.1110 C.3   1 <1>   0.0200 
 13 O       -0.8870     3.8140    -1.9130 O.2   1 <1>  -0.5700 
 14 C       -1.9170     4.8100    -0.0600 C.3   1 <1>  -0.1790 
 15 C       -6.0830     0.9500    -0.3880 C.3   1 <1>   0.0400 
 16 C       -3.6520    -3.9660     0.0710 C.2   1 <1>  -0.0400 
 17 O       -4.3880    -5.0130     0.3340 O.3   1 <1>  -0.0190 
 18 C       -2.3720    -4.3720     0.0200 C.2   1 <1>  -0.1500 
 19 N       -3.6730    -6.0930     0.4630 N.2   1 <1>  -0.4100 
 20 C       -2.4540    -5.7370     0.2800 C.2   1 <1>   0.1080 
 21 C       -1.2730    -6.6800     0.3410 C.3   1 <1>  -0.0590 
 22 H        0.0590     2.5540     2.0190 H     1 <1>   0.0800 
 23 H       -1.6270     2.8940     1.7800 H     1 <1>   0.0800 
 24 H       -3.3990     1.8260     0.0920 H     1 <1>   0.0800 
 25 H       -2.3250     1.1390    -1.1210 H     1 <1>   0.0800 
 26 H       -1.6560    -1.7780     1.0280 H     1 <1>   0.0800 
 27 H       -3.1220    -1.2300     1.8270 H     1 <1>   0.0800 
 28 H        0.1450     2.1580    -0.5250 H     1 <1>   0.3700 
 29 H       -4.2680    -0.0690    -1.7090 H     1 <1>   0.0800 
 30 H       -2.6660    -1.7120    -1.1010 H     1 <1>   0.0800 
 31 H       -4.9840    -2.6860    -0.9670 H     1 <1>   0.0800 
 32 H       -4.9540    -2.4320     0.7500 H     1 <1>   0.0800 
 33 H       -1.4140     5.2150     0.7980 H     1 <1>   0.0800 
 34 H       -2.8490     4.3710     0.2390 H     1 <1>   0.0800 
 35 H       -2.1140     5.6080    -0.7520 H     1 <1>   0.0800 
 36 H       -6.9000     1.0080     0.3100 H     1 <1>   0.0800 
 37 H       -6.4460     0.5920    -1.3360 H     1 <1>   0.0800 
 38 H       -5.6310     1.9200    -0.4960 H     1 <1>   0.0800 
 39 H       -1.4720    -3.8200    -0.1730 H     1 <1>   0.1500 
 40 H       -0.7590    -6.6830    -0.6020 H     1 <1>   0.0800 
 41 H       -1.6120    -7.6770     0.5570 H     1 <1>   0.0800 
 42 H       -0.5970    -6.3670     1.1150 H     1 <1>   0.0800 
@<TRIPOS>BOND
  1   1   2  2   
  2   2   3  am  
  3   2   4  1   
  4   3   5  1   
  5   3   6  1   
  6   4   7  1   
  7   4  22  1   
  8   4  23  1   
  9   5   8  1   
 10   5  24  1   
 11   5  25  1   
 12   6   9  1   
 13   6  26  1   
 14   6  27  1   
 15   7  10  am  
 16   7  28  1   
 17   8   9  1   
 18   8  11  1   
 19   8  29  1   
 20   9  12  1   
 21   9  30  1   
 22  10  13  2   
 23  10  14  1   
 24  11  15  1   
 25  12  16  1   
 26  12  31  1   
 27  12  32  1   
 28  14  33  1   
 29  14  34  1   
 30  14  35  1   
 31  15  36  1   
 32  15  37  1   
 33  15  38  1   
 34  16  17  1   
 35  16  18  2   
 36  17  19  1   
 37  18  20  1   
 38  18  39  1   
 39  19  20  2   
 40  20  21  1   
 41  21  40  1   
 42  21  41  1   
 43  21  42  1   
@<TRIPOS>SUBSTRUCTURE
  1 ****   6 GROUP 4 **** **** 0

# MOE 2024.06 (io_trps.svl 2023.06)
