@<TRIPOS>MOLECULE
NONAME
40 43 1 0 0 
SMALL
USER_CHARGES


@<TRIPOS>ATOM
  1 CL      -1.0210     0.4270     2.2560 Cl    1 <1>  -0.1770 
  2 C       -2.5440     0.8750     1.5230 C.ar  1 <1>   0.1770 
  3 C       -3.4660    -0.1010     1.1840 C.ar  1 <1>   0.1600 
  4 C       -2.8140     2.2050     1.2860 C.ar  1 <1>  -0.1500 
  5 N       -4.6470     0.1390     0.6250 N.ar  1 <1>  -0.6200 
  6 C       -4.0350     2.4530     0.7080 C.ar  1 <1>   0.1900 
  7 C       -4.9390     1.4200     0.3850 C.ar  1 <1>   0.4100 
  8 F       -4.3380     3.7050     0.4550 F     1 <1>  -0.1900 
  9 N       -6.1810     1.6690    -0.1950 N.pl3 1 <1>  -0.8380 
 10 C       -7.1900     2.4230     0.6130 C.3   1 <1>   0.2090 
 11 C       -6.8030     0.6230    -1.0520 C.3   1 <1>   0.2090 
 12 C       -8.1910     3.1480    -0.3090 C.3   1 <1>   0.1440 
 13 C       -7.8080     1.2700    -2.0110 C.3   1 <1>  -0.1600 
 14 C       -9.2630     3.8540     0.5030 C.ar  1 <1>   0.1660 
 15 C       -8.8490     2.1340    -1.2720 C.3   1 <1>  -0.1600 
 16 C       -7.5300     4.3260    -1.0760 C.3   1 <1>  -0.1600 
 17 N       -9.9500     3.3210     1.4860 N.ar  1 <1>  -0.6200 
 18 C       -9.4460     5.1390     0.0830 C.ar  1 <1>  -0.1440 
 19 C       -8.5320     5.4940    -1.0620 C.3   1 <1>  -0.0170 
 20 C      -10.8290     4.1450     2.0370 C.ar  1 <1>   0.7200 
 21 C      -10.3960     5.8960     0.7260 C.ar  1 <1>   0.1600 
 22 N      -11.1060     5.4010     1.7150 N.ar  1 <1>  -0.6200 
 23 N      -11.5530     3.6340     3.0340 N.pl3 1 <1>  -0.9000 
 24 H       -3.2170    -1.1280     1.3830 H     1 <1>   0.1500 
 25 H       -2.1210     2.9870     1.5340 H     1 <1>   0.1500 
 26 H       -6.7050     3.1350     1.2570 H     1 <1>   0.0800 
 27 H       -7.7230     1.7280     1.2390 H     1 <1>   0.0800 
 28 H       -7.2980    -0.1000    -0.4250 H     1 <1>   0.0800 
 29 H       -6.0400     0.1130    -1.6160 H     1 <1>   0.0800 
 30 H       -8.3110     0.4960    -2.5630 H     1 <1>   0.0800 
 31 H       -7.2630     1.8660    -2.7210 H     1 <1>   0.0800 
 32 H       -9.4720     2.6480    -1.9820 H     1 <1>   0.0800 
 33 H       -9.4850     1.4820    -0.6970 H     1 <1>   0.0800 
 34 H       -7.2400     4.0640    -2.0770 H     1 <1>   0.0800 
 35 H       -6.6460     4.6390    -0.5490 H     1 <1>   0.0800 
 36 H       -9.0940     5.5220    -1.9800 H     1 <1>   0.0800 
 37 H       -8.0370     6.4360    -0.9040 H     1 <1>   0.0800 
 38 H      -10.5750     6.9140     0.4270 H     1 <1>   0.1500 
 39 H      -12.4140     4.1320     3.2390 H     1 <1>   0.4000 
 40 H      -11.5850     2.6200     3.0690 H     1 <1>   0.4000 
@<TRIPOS>BOND
  1   1   2  1   
  2   2   3  ar  
  3   2   4  ar  
  4   3   5  ar  
  5   3  24  1   
  6   4   6  ar  
  7   4  25  1   
  8   5   7  ar  
  9   6   7  ar  
 10   6   8  1   
 11   7   9  1   
 12   9  10  1   
 13   9  11  1   
 14  10  12  1   
 15  10  26  1   
 16  10  27  1   
 17  11  13  1   
 18  11  28  1   
 19  11  29  1   
 20  12  14  1   
 21  12  15  1   
 22  12  16  1   
 23  13  15  1   
 24  13  30  1   
 25  13  31  1   
 26  14  17  ar  
 27  14  18  ar  
 28  15  32  1   
 29  15  33  1   
 30  16  19  1   
 31  16  34  1   
 32  16  35  1   
 33  17  20  ar  
 34  18  19  1   
 35  18  21  ar  
 36  19  36  1   
 37  19  37  1   
 38  20  22  ar  
 39  20  23  1   
 40  21  22  ar  
 41  21  38  1   
 42  23  39  1   
 43  23  40  1   
@<TRIPOS>SUBSTRUCTURE
  1 ****  10 GROUP 4 **** **** 0

# MOE 2024.06 (io_trps.svl 2023.06)
