@<TRIPOS>MOLECULE
NONAME
48 51 1 0 0 
SMALL
USER_CHARGES


@<TRIPOS>ATOM
  1 S       -0.1140     0.4630     1.9300 S.o2  1 <1>   1.5000 
  2 O        0.1790     1.7300     2.5650 O.2   1 <1>  -0.6500 
  3 O       -0.8130    -0.5550     2.6850 O.2   1 <1>  -0.6500 
  4 N       -1.0650     0.7980     0.5670 N.am  1 <1>  -0.8490 
  5 C        1.4040    -0.2350     1.2360 C.2   1 <1>  -0.0220 
  6 C       -2.2370     1.6200     0.8940 C.3   1 <1>   0.1960 
  7 C       -1.4690    -0.4110    -0.1730 C.3   1 <1>   0.1960 
  8 S        2.2170     0.6530    -0.0510 S.3   1 <1>  -0.0800 
  9 C        2.1010    -1.3580     1.5080 C.2   1 <1>  -0.1500 
 10 C       -2.8150     2.2650    -0.3880 C.3   1 <1>   0.1440 
 11 C       -2.5870    -0.1370    -1.2000 C.3   1 <1>  -0.1600 
 12 C        3.4870    -0.5520    -0.1770 C.2   1 <1>  -0.1400 
 13 C        3.2750    -1.5400     0.7120 C.2   1 <1>  -0.1500 
 14 C       -4.2620     2.6320    -0.1070 C.ar  1 <1>   0.1660 
 15 C       -2.6500     1.3400    -1.6210 C.3   1 <1>  -0.1600 
 16 C       -2.1730     3.6520    -0.6530 C.3   1 <1>  -0.1600 
 17 C        4.5640    -0.2900    -1.2150 C.3   1 <1>   0.0200 
 18 N       -5.2680     1.7870    -0.0470 N.ar  1 <1>  -0.6200 
 19 C       -4.4070     3.9710     0.1010 C.ar  1 <1>  -0.1430 
 20 C       -3.0940     4.7030    -0.0090 C.3   1 <1>  -0.0170 
 21 C        5.6210    -1.3980    -1.2440 C.3   1 <1>  -0.2400 
 22 C       -6.4390     2.3480     0.2210 C.ar  1 <1>   0.4760 
 23 C       -5.6660     4.4440     0.3760 C.ar  1 <1>   0.1600 
 24 N       -6.7000     3.6300     0.4380 N.ar  1 <1>  -0.6200 
 25 C       -7.6190     1.4110     0.2970 C.3   1 <1>  -0.0970 
 26 H       -1.9780     2.3990     1.5910 H     1 <1>   0.0800 
 27 H       -2.9830     1.0000     1.3650 H     1 <1>   0.0800 
 28 H       -1.8140    -1.1730     0.5080 H     1 <1>   0.0800 
 29 H       -0.6050    -0.7970    -0.6890 H     1 <1>   0.0800 
 30 H        1.8270    -2.0810     2.2570 H     1 <1>   0.1500 
 31 H       -3.5320    -0.4140    -0.7640 H     1 <1>   0.0800 
 32 H       -2.4420    -0.7630    -2.0620 H     1 <1>   0.0800 
 33 H        3.9010    -2.4040     0.8500 H     1 <1>   0.1500 
 34 H       -1.7260     1.5730    -2.1220 H     1 <1>   0.0800 
 35 H       -3.4550     1.4990    -2.3170 H     1 <1>   0.0800 
 36 H       -2.1520     3.8400    -1.7130 H     1 <1>   0.0800 
 37 H       -1.1660     3.7110    -0.2790 H     1 <1>   0.0800 
 38 H        5.0400     0.6500    -0.9950 H     1 <1>   0.0800 
 39 H        4.1040    -0.2110    -2.1850 H     1 <1>   0.0800 
 40 H       -3.1760     5.5860    -0.6190 H     1 <1>   0.0800 
 41 H       -2.7410     4.9670     0.9730 H     1 <1>   0.0800 
 42 H        6.1050    -1.4750    -0.2870 H     1 <1>   0.0800 
 43 H        6.3640    -1.1770    -1.9890 H     1 <1>   0.0800 
 44 H        5.1640    -2.3420    -1.4830 H     1 <1>   0.0800 
 45 H       -5.8310     5.4940     0.5470 H     1 <1>   0.1500 
 46 H       -7.4560     0.5590    -0.3360 H     1 <1>   0.0800 
 47 H       -8.5120     1.9160    -0.0220 H     1 <1>   0.0800 
 48 H       -7.7430     1.0800     1.3100 H     1 <1>   0.0800 
@<TRIPOS>BOND
  1   1   2  2   
  2   1   3  2   
  3   1   4  am  
  4   1   5  1   
  5   4   6  1   
  6   4   7  1   
  7   5   8  1   
  8   5   9  2   
  9   6  10  1   
 10   6  26  1   
 11   6  27  1   
 12   7  11  1   
 13   7  28  1   
 14   7  29  1   
 15   8  12  1   
 16   9  13  1   
 17   9  30  1   
 18  10  14  1   
 19  10  15  1   
 20  10  16  1   
 21  11  15  1   
 22  11  31  1   
 23  11  32  1   
 24  12  13  2   
 25  12  17  1   
 26  13  33  1   
 27  14  18  ar  
 28  14  19  ar  
 29  15  34  1   
 30  15  35  1   
 31  16  20  1   
 32  16  36  1   
 33  16  37  1   
 34  17  21  1   
 35  17  38  1   
 36  17  39  1   
 37  18  22  ar  
 38  19  20  1   
 39  19  23  ar  
 40  20  40  1   
 41  20  41  1   
 42  21  42  1   
 43  21  43  1   
 44  21  44  1   
 45  22  24  ar  
 46  22  25  1   
 47  23  24  ar  
 48  23  45  1   
 49  25  46  1   
 50  25  47  1   
 51  25  48  1   
@<TRIPOS>SUBSTRUCTURE
  1 ****   4 GROUP 4 **** **** 0

# MOE 2024.06 (io_trps.svl 2023.06)
