@<TRIPOS>MOLECULE
NONAME
44 46 1 0 0 
SMALL
USER_CHARGES


@<TRIPOS>ATOM
  1 O       -0.2480    -0.0370    -1.3420 O.2   1 <1>  -0.5700 
  2 C       -1.2410     0.6230    -1.1620 C.2   1 <1>   0.5690 
  3 N       -2.4650     0.0470    -0.9570 N.am  1 <1>  -0.6600 
  4 C       -1.0860     2.1310    -1.1480 C.3   1 <1>  -0.0990 
  5 C       -3.7410     0.7440    -0.6610 C.3   1 <1>   0.1400 
  6 C       -2.6570    -1.4220    -0.9220 C.3   1 <1>   0.1400 
  7 C       -0.7130     2.6270     0.2530 C.3   1 <1>  -0.0170 
  8 C       -4.7490    -0.3660    -0.3580 C.3   1 <1>   0.2000 
  9 C       -3.9280    -1.6280    -0.0960 C.3   1 <1>  -0.0800 
 10 C       -0.6180     4.1440     0.2730 C.ar  1 <1>  -0.1440 
 11 O       -5.5120    -0.0620     0.7590 O.3   1 <1>  -0.6800 
 12 C       -4.6980    -2.9160    -0.4350 C.3   1 <1>  -0.0170 
 13 C        0.5650     4.7830    -0.0730 C.ar  1 <1>   0.1600 
 14 C       -1.7070     4.9120     0.6330 C.ar  1 <1>  -0.1500 
 15 C       -3.8710    -4.1580    -0.1520 C.ar  1 <1>   0.1670 
 16 N        0.7420     6.0940    -0.0900 N.ar  1 <1>  -0.6200 
 17 C       -1.5390     6.2800     0.6210 C.ar  1 <1>  -0.1500 
 18 N       -3.0330    -4.5350    -1.1050 N.ar  1 <1>  -0.6200 
 19 C       -4.0210    -4.8230     1.0570 C.ar  1 <1>  -0.1500 
 20 C       -0.3140     6.8110     0.2580 C.ar  1 <1>   0.1600 
 21 C       -2.3130    -5.6140    -0.8430 C.ar  1 <1>   0.1600 
 22 C       -3.2650    -5.9470     1.3160 C.ar  1 <1>  -0.1500 
 23 C       -2.3880    -6.3450     0.3300 C.ar  1 <1>  -0.1500 
 24 H       -0.3060     2.3970    -1.8390 H     1 <1>   0.0800 
 25 H       -1.9880     2.6050    -1.4840 H     1 <1>   0.0800 
 26 H       -3.6130     1.3920     0.1880 H     1 <1>   0.0800 
 27 H       -4.0580     1.3110    -1.5190 H     1 <1>   0.0800 
 28 H       -2.7880    -1.7850    -1.9270 H     1 <1>   0.0800 
 29 H       -1.8100    -1.9190    -0.4770 H     1 <1>   0.0800 
 30 H        0.2310     2.1980     0.5440 H     1 <1>   0.0800 
 31 H       -1.4490     2.3000     0.9650 H     1 <1>   0.0800 
 32 H       -5.4120    -0.4940    -1.1970 H     1 <1>   0.0800 
 33 H       -3.6280    -1.6570     0.9370 H     1 <1>   0.0800 
 34 H       -4.9460    -0.0160     1.5530 H     1 <1>   0.4000 
 35 H       -4.9800    -2.9150    -1.4730 H     1 <1>   0.0800 
 36 H       -5.6030    -2.9490     0.1450 H     1 <1>   0.0800 
 37 H        1.4130     4.1820    -0.3540 H     1 <1>   0.1500 
 38 H       -2.6480     4.4720     0.9110 H     1 <1>   0.1500 
 39 H       -2.3490     6.9330     0.8920 H     1 <1>   0.1500 
 40 H       -4.7210    -4.4670     1.7900 H     1 <1>   0.1500 
 41 H       -0.1950     7.8810     0.2530 H     1 <1>   0.1500 
 42 H       -1.6240    -5.9340    -1.6060 H     1 <1>   0.1500 
 43 H       -3.3560    -6.4870     2.2420 H     1 <1>   0.1500 
 44 H       -1.7680    -7.2110     0.4670 H     1 <1>   0.1500 
@<TRIPOS>BOND
  1   1   2  2   
  2   2   3  am  
  3   2   4  1   
  4   3   5  1   
  5   3   6  1   
  6   4   7  1   
  7   4  24  1   
  8   4  25  1   
  9   5   8  1   
 10   5  26  1   
 11   5  27  1   
 12   6   9  1   
 13   6  28  1   
 14   6  29  1   
 15   7  10  1   
 16   7  30  1   
 17   7  31  1   
 18   8   9  1   
 19   8  11  1   
 20   8  32  1   
 21   9  12  1   
 22   9  33  1   
 23  10  13  ar  
 24  10  14  ar  
 25  11  34  1   
 26  12  15  1   
 27  12  35  1   
 28  12  36  1   
 29  13  16  ar  
 30  13  37  1   
 31  14  17  ar  
 32  14  38  1   
 33  15  18  ar  
 34  15  19  ar  
 35  16  20  ar  
 36  17  20  ar  
 37  17  39  1   
 38  18  21  ar  
 39  19  22  ar  
 40  19  40  1   
 41  20  41  1   
 42  21  23  ar  
 43  21  42  1   
 44  22  23  ar  
 45  22  43  1   
 46  23  44  1   
@<TRIPOS>SUBSTRUCTURE
  1 ****   3 GROUP 4 **** **** 0

# MOE 2024.06 (io_trps.svl 2023.06)
