@<TRIPOS>MOLECULE
NONAME
45 46 1 0 0 
SMALL
USER_CHARGES


@<TRIPOS>ATOM
  1 N       -0.5170    -0.3580     1.2070 N.ar  1 <1>  -0.6200 
  2 C       -1.4830     0.2440     0.5350 C.ar  1 <1>   0.4100 
  3 C       -0.8290    -1.5350     1.7120 C.ar  1 <1>   0.4700 
  4 N       -1.2130     1.4730    -0.0330 N.pl3 1 <1>  -0.8380 
  5 C       -2.7150    -0.3440     0.3900 C.ar  1 <1>  -0.1500 
  6 N       -1.9680    -2.1950     1.6280 N.ar  1 <1>  -0.6200 
  7 C       -0.3110     2.4190     0.6750 C.3   1 <1>   0.2090 
  8 C       -1.2130     1.5730    -1.5170 C.3   1 <1>   0.1290 
  9 C       -2.9130    -1.5810     0.9520 C.ar  1 <1>   0.4100 
 10 C       -0.9010     3.8250     0.6150 C.3   1 <1>  -0.2400 
 11 N       -4.0890    -2.2620     0.8660 N.pl3 1 <1>  -0.8690 
 12 C       -4.7780    -2.5840    -0.3880 C.3   1 <1>   0.4700 
 13 C       -5.5880    -3.8480    -0.1420 C.2   1 <1>  -0.1810 
 14 C       -3.8000    -2.8110    -1.5410 C.3   1 <1>  -0.2400 
 15 C       -6.9450    -3.9940    -0.4250 C.2   1 <1>   0.1080 
 16 C       -5.2180    -5.0500     0.3700 C.2   1 <1>  -0.3320 
 17 N       -7.3870    -5.1720    -0.1230 N.2   1 <1>  -0.7070 
 18 C       -7.8530    -2.9380    -1.0140 C.3   1 <1>  -0.0590 
 19 N       -6.3260    -5.8250     0.3710 N.pl3 1 <1>   0.3140 
 20 C       -3.8620    -5.5350     0.8680 C.3   1 <1>  -0.0600 
 21 C       -6.4440    -7.2140     0.8320 C.3   1 <1>   0.0160 
 22 H       -0.0470    -2.0250     2.2670 H     1 <1>   0.1500 
 23 H       -3.4980     0.1570    -0.1370 H     1 <1>   0.1500 
 24 H        0.6670     2.3970     0.2260 H     1 <1>   0.0800 
 25 H       -0.2130     2.1260     1.7070 H     1 <1>   0.0800 
 26 H       -1.6020     0.6700    -1.9540 H     1 <1>   0.0800 
 27 H       -0.2100     1.7220    -1.8760 H     1 <1>   0.0800 
 28 H       -1.8270     2.4010    -1.8250 H     1 <1>   0.0800 
 29 H       -0.9430     4.1770    -0.3990 H     1 <1>   0.0800 
 30 H       -0.2850     4.4970     1.1840 H     1 <1>   0.0800 
 31 H       -1.8890     3.8230     1.0380 H     1 <1>   0.0800 
 32 H       -4.0910    -3.0980     1.4540 H     1 <1>   0.4000 
 33 H       -5.4380    -1.7700    -0.6320 H     1 <1>   0.0800 
 34 H       -3.0710    -3.5540    -1.2770 H     1 <1>   0.0800 
 35 H       -3.3030    -1.8980    -1.8070 H     1 <1>   0.0800 
 36 H       -4.3420    -3.1600    -2.4010 H     1 <1>   0.0800 
 37 H       -7.4700    -2.6100    -1.9610 H     1 <1>   0.0800 
 38 H       -7.9230    -2.1030    -0.3420 H     1 <1>   0.0800 
 39 H       -8.8370    -3.3470    -1.1610 H     1 <1>   0.0800 
 40 H       -3.1050    -4.7840     0.7390 H     1 <1>   0.0800 
 41 H       -3.5590    -6.4090     0.3210 H     1 <1>   0.0800 
 42 H       -3.9180    -5.7790     1.9140 H     1 <1>   0.0800 
 43 H       -5.8170    -7.8400     0.2270 H     1 <1>   0.0800 
 44 H       -7.4670    -7.5290     0.7370 H     1 <1>   0.0800 
 45 H       -6.1430    -7.2700     1.8600 H     1 <1>   0.0800 
@<TRIPOS>BOND
  1   1   2  ar  
  2   1   3  ar  
  3   2   4  1   
  4   2   5  ar  
  5   3   6  ar  
  6   3  22  1   
  7   4   7  1   
  8   4   8  1   
  9   5   9  ar  
 10   5  23  1   
 11   6   9  ar  
 12   7  10  1   
 13   7  24  1   
 14   7  25  1   
 15   8  26  1   
 16   8  27  1   
 17   8  28  1   
 18   9  11  1   
 19  10  29  1   
 20  10  30  1   
 21  10  31  1   
 22  11  12  1   
 23  11  32  1   
 24  12  13  1   
 25  12  14  1   
 26  12  33  1   
 27  13  15  1   
 28  13  16  2   
 29  14  34  1   
 30  14  35  1   
 31  14  36  1   
 32  15  17  2   
 33  15  18  1   
 34  16  19  1   
 35  16  20  1   
 36  17  19  1   
 37  18  37  1   
 38  18  38  1   
 39  18  39  1   
 40  19  21  1   
 41  20  40  1   
 42  20  41  1   
 43  20  42  1   
 44  21  43  1   
 45  21  44  1   
 46  21  45  1   
@<TRIPOS>SUBSTRUCTURE
  1 ****  11 GROUP 4 **** **** 0

# MOE 2024.06 (io_trps.svl 2023.06)
