@<TRIPOS>MOLECULE
NONAME
48 50 1 0 0 
SMALL
USER_CHARGES


@<TRIPOS>ATOM
  1 O        3.6490     2.0180     2.8230 O.2   1 <1>  -0.5700 
  2 C        3.2900     2.0670     1.6690 C.2   1 <1>   0.6900 
  3 N        2.8910     0.9460     1.0150 N.am  1 <1>  -0.4900 
  4 N        3.2900     3.2430     0.9760 N.am  1 <1>  -0.5390 
  5 C        2.5340     0.9520    -0.3010 C.2   1 <1>   0.6160 
  6 C        2.9480     3.3290    -0.3640 C.2   1 <1>  -0.0290 
  7 O        2.2090    -0.0910    -0.8250 O.2   1 <1>  -0.5700 
  8 C        2.5720     2.1950    -1.0000 C.2   1 <1>  -0.1360 
  9 C        3.0370     4.7070    -1.0100 C.3   1 <1>   0.2480 
 10 N        4.3060     5.3620    -0.6460 N.3   1 <1>  -0.8100 
 11 C        5.4930     4.6740    -1.2250 C.3   1 <1>   0.1100 
 12 C        4.2730     6.8050    -0.9580 C.3   1 <1>   0.1100 
 13 C        6.4530     4.1400    -0.1430 C.3   1 <1>   0.2000 
 14 C        5.4020     7.5570    -0.2520 C.3   1 <1>   0.1200 
 15 O        7.0890     5.1740     0.5390 O.3   1 <1>  -0.5600 
 16 C        7.6040     3.3140    -0.6990 C.3   1 <1>  -0.1600 
 17 O        5.2190     8.9420    -0.4570 O.3   1 <1>  -0.3630 
 18 C        8.2220     4.6850     1.1780 C.3   1 <1>   0.1200 
 19 C        8.6950     3.4950     0.3460 C.3   1 <1>  -0.1600 
 20 C        6.0840     9.8380     0.0810 C.ar  1 <1>   0.0830 
 21 C        7.1960     9.4820     0.8410 C.ar  1 <1>  -0.1500 
 22 C        5.8210    11.1780    -0.1550 C.ar  1 <1>  -0.1500 
 23 C        8.0270    10.4630     1.3530 C.ar  1 <1>  -0.1500 
 24 C        6.6530    12.1580     0.3580 C.ar  1 <1>  -0.1500 
 25 C        7.7570    11.8000     1.1130 C.ar  1 <1>  -0.1500 
 26 H        2.8780     0.0690     1.5210 H     1 <1>   0.3700 
 27 H        3.6810     4.0650     1.4480 H     1 <1>   0.3700 
 28 H        2.2910     2.1650    -2.0350 H     1 <1>   0.1500 
 29 H        2.2150     5.2980    -0.6430 H     1 <1>   0.0800 
 30 H        2.9490     4.6340    -2.0810 H     1 <1>   0.0800 
 31 H        6.0380     5.3330    -1.8800 H     1 <1>   0.0800 
 32 H        5.1730     3.8370    -1.8210 H     1 <1>   0.0800 
 33 H        3.3420     7.2190    -0.6110 H     1 <1>   0.0800 
 34 H        4.3450     6.9550    -2.0220 H     1 <1>   0.0800 
 35 H        5.9100     3.5580     0.5810 H     1 <1>   0.0800 
 36 H        6.3570     7.2830    -0.6610 H     1 <1>   0.0800 
 37 H        5.3720     7.3610     0.8050 H     1 <1>   0.0800 
 38 H        7.9260     3.7220    -1.6420 H     1 <1>   0.0800 
 39 H        7.3260     2.2840    -0.8320 H     1 <1>   0.0800 
 40 H        7.9400     4.3800     2.1720 H     1 <1>   0.0800 
 41 H        8.9560     5.4710     1.2250 H     1 <1>   0.0800 
 42 H        9.6480     3.6980    -0.1100 H     1 <1>   0.0800 
 43 H        8.7830     2.6260     0.9740 H     1 <1>   0.0800 
 44 H        7.4290     8.4530     1.0420 H     1 <1>   0.1500 
 45 H        4.9620    11.4460    -0.7420 H     1 <1>   0.1500 
 46 H        8.8860    10.1870     1.9400 H     1 <1>   0.1500 
 47 H        6.4410    13.1960     0.1710 H     1 <1>   0.1500 
 48 H        8.4040    12.5600     1.5130 H     1 <1>   0.1500 
@<TRIPOS>BOND
  1   1   2  2   
  2   2   3  am  
  3   2   4  am  
  4   3   5  am  
  5   3  26  1   
  6   4   6  1   
  7   4  27  1   
  8   5   7  2   
  9   5   8  1   
 10   6   8  2   
 11   6   9  1   
 12   8  28  1   
 13   9  10  1   
 14   9  29  1   
 15   9  30  1   
 16  10  11  1   
 17  10  12  1   
 18  11  13  1   
 19  11  31  1   
 20  11  32  1   
 21  12  14  1   
 22  12  33  1   
 23  12  34  1   
 24  13  15  1   
 25  13  16  1   
 26  13  35  1   
 27  14  17  1   
 28  14  36  1   
 29  14  37  1   
 30  15  18  1   
 31  16  19  1   
 32  16  38  1   
 33  16  39  1   
 34  17  20  1   
 35  18  19  1   
 36  18  40  1   
 37  18  41  1   
 38  19  42  1   
 39  19  43  1   
 40  20  21  ar  
 41  20  22  ar  
 42  21  23  ar  
 43  21  44  1   
 44  22  24  ar  
 45  22  45  1   
 46  23  25  ar  
 47  23  46  1   
 48  24  25  ar  
 49  24  47  1   
 50  25  48  1   
@<TRIPOS>SUBSTRUCTURE
  1 ****  10 GROUP 4 **** **** 0

# MOE 2024.06 (io_trps.svl 2023.06)
