@<TRIPOS>MOLECULE
NONAME
52 53 1 0 0 
SMALL
USER_CHARGES


@<TRIPOS>ATOM
  1 O        2.9310    -0.2130    -2.5250 O.2   1 <1>  -0.5700 
  2 C        2.2670    -0.8070    -1.7080 C.2   1 <1>   0.5690 
  3 N        1.7400    -0.2330    -0.5890 N.am  1 <1>  -0.5470 
  4 C        1.9610    -2.2920    -1.9130 C.3   1 <1>   0.1710 
  5 C        1.7540     1.0930    -0.1110 C.ar  1 <1>   0.1170 
  6 N        0.7230    -2.7340    -1.2020 N.3   1 <1>  -0.8100 
  7 C        2.8930     1.9180    -0.1270 C.ar  1 <1>   0.1170 
  8 C        0.5730     1.5890     0.4250 C.ar  1 <1>  -0.1500 
  9 C        0.7090    -4.1900    -1.0080 C.3   1 <1>   0.1100 
 10 C       -0.4870    -2.2750    -1.9070 C.3   1 <1>   0.1100 
 11 N        4.1200     1.4520    -0.6270 N.am  1 <1>  -0.5470 
 12 C        2.7950     3.2170     0.3560 C.ar  1 <1>  -0.1500 
 13 C        0.4950     2.8790     0.9190 C.ar  1 <1>  -0.1500 
 14 C       -0.4890    -4.5820    -0.1400 C.3   1 <1>  -0.1600 
 15 C       -1.7200    -2.5920    -1.0630 C.3   1 <1>  -0.1600 
 16 C        5.3560     1.4080    -0.0690 C.2   1 <1>   0.5690 
 17 C        1.6090     3.6970     0.8800 C.ar  1 <1>  -0.1500 
 18 C       -1.7990    -4.0870    -0.7620 C.3   1 <1>   0.2000 
 19 O        6.2790     0.9120    -0.6610 O.2   1 <1>  -0.5700 
 20 C        5.6010     1.9560     1.3170 C.3   1 <1>  -0.1790 
 21 O       -2.8450    -4.2710     0.1370 O.3   1 <1>  -0.5600 
 22 C       -3.4030    -5.5500     0.1500 C.3   1 <1>   0.1200 
 23 C       -4.5360    -5.5700     1.1700 C.3   1 <1>   0.1200 
 24 O       -5.0940    -6.8470     1.1830 O.3   1 <1>  -0.5600 
 25 C       -6.1430    -6.9900     2.0850 C.3   1 <1>   0.0400 
 26 H        1.1120    -0.8880    -0.1080 H     1 <1>   0.3700 
 27 H        2.8070    -2.8380    -1.5360 H     1 <1>   0.0800 
 28 H        1.8780    -2.4940    -2.9660 H     1 <1>   0.0800 
 29 H       -0.3000     0.9620     0.4530 H     1 <1>   0.1500 
 30 H        1.6140    -4.4980    -0.5120 H     1 <1>   0.0800 
 31 H        0.6550    -4.6890    -1.9620 H     1 <1>   0.0800 
 32 H       -0.5610    -2.7610    -2.8670 H     1 <1>   0.0800 
 33 H       -0.4400    -1.2110    -2.0720 H     1 <1>   0.0800 
 34 H        4.0370     0.9030    -1.4950 H     1 <1>   0.3700 
 35 H        3.6540     3.8620     0.3170 H     1 <1>   0.1500 
 36 H       -0.4300     3.2460     1.3280 H     1 <1>   0.1500 
 37 H       -0.3660    -4.1460     0.8360 H     1 <1>   0.0800 
 38 H       -0.5070    -5.6510    -0.0390 H     1 <1>   0.0800 
 39 H       -2.6040    -2.2870    -1.5920 H     1 <1>   0.0800 
 40 H       -1.6640    -2.0390    -0.1420 H     1 <1>   0.0800 
 41 H        1.5510     4.7050     1.2540 H     1 <1>   0.1500 
 42 H       -2.0130    -4.6220    -1.6730 H     1 <1>   0.0800 
 43 H        4.7780     1.7170     1.9630 H     1 <1>   0.0800 
 44 H        5.7260     3.0210     1.2670 H     1 <1>   0.0800 
 45 H        6.4960     1.5210     1.7220 H     1 <1>   0.0800 
 46 H       -2.6480    -6.2620     0.4300 H     1 <1>   0.0800 
 47 H       -3.7870    -5.7710    -0.8310 H     1 <1>   0.0800 
 48 H       -5.2980    -4.8620     0.8910 H     1 <1>   0.0800 
 49 H       -4.1540    -5.3490     2.1510 H     1 <1>   0.0800 
 50 H       -6.5040    -8.0010     2.0220 H     1 <1>   0.0800 
 51 H       -6.9320    -6.3060     1.8240 H     1 <1>   0.0800 
 52 H       -5.7850    -6.7940     3.0810 H     1 <1>   0.0800 
@<TRIPOS>BOND
  1   1   2  2   
  2   2   3  am  
  3   2   4  1   
  4   3   5  1   
  5   3  26  1   
  6   4   6  1   
  7   4  27  1   
  8   4  28  1   
  9   5   7  ar  
 10   5   8  ar  
 11   6   9  1   
 12   6  10  1   
 13   7  11  1   
 14   7  12  ar  
 15   8  13  ar  
 16   8  29  1   
 17   9  14  1   
 18   9  30  1   
 19   9  31  1   
 20  10  15  1   
 21  10  32  1   
 22  10  33  1   
 23  11  16  am  
 24  11  34  1   
 25  12  17  ar  
 26  12  35  1   
 27  13  17  ar  
 28  13  36  1   
 29  14  18  1   
 30  14  37  1   
 31  14  38  1   
 32  15  18  1   
 33  15  39  1   
 34  15  40  1   
 35  16  19  2   
 36  16  20  1   
 37  17  41  1   
 38  18  21  1   
 39  18  42  1   
 40  20  43  1   
 41  20  44  1   
 42  20  45  1   
 43  21  22  1   
 44  22  23  1   
 45  22  46  1   
 46  22  47  1   
 47  23  24  1   
 48  23  48  1   
 49  23  49  1   
 50  24  25  1   
 51  25  50  1   
 52  25  51  1   
 53  25  52  1   
@<TRIPOS>SUBSTRUCTURE
  1 ****   3 GROUP 4 **** **** 0

# MOE 2024.06 (io_trps.svl 2023.06)
