@<TRIPOS>MOLECULE
NONAME
45 47 1 0 0 
SMALL
USER_CHARGES


@<TRIPOS>ATOM
  1 O       -0.4910     0.2780    -1.1930 O.2   1 <1>  -0.5700 
  2 C       -1.1850     0.5550    -0.2330 C.2   1 <1>   0.7160 
  3 N       -1.8470    -0.4670     0.4190 N.am  1 <1>  -0.6600 
  4 C       -1.2680     1.9170     0.1940 C.2   1 <1>  -0.0860 
  5 C       -2.0920    -1.7820    -0.2710 C.3   1 <1>   0.2010 
  6 C       -2.5510    -0.2730     1.7180 C.3   1 <1>   0.0600 
  7 C       -2.4360     2.6770     0.3310 C.2   1 <1>   0.3720 
  8 C       -0.2780     2.7840     0.5410 C.2   1 <1>   0.0870 
  9 C       -3.5430    -1.9650    -0.7260 C.2   1 <1>   0.5690 
 10 N       -2.1620     3.8670     0.7390 N.2   1 <1>  -0.4100 
 11 N       -3.7440     2.2310     0.0780 N.pl3 1 <1>  -0.8210 
 12 O       -0.8630     3.9120     0.8530 O.3   1 <1>  -0.0190 
 13 C        1.1590     2.6700     0.6270 C.ar  1 <1>   0.0530 
 14 O       -3.9010    -1.5470    -1.7970 O.2   1 <1>  -0.5700 
 15 N       -4.4340    -2.5980     0.0670 N.am  1 <1>  -0.8000 
 16 C       -4.0110     1.8020    -1.3350 C.3   1 <1>   0.2090 
 17 C       -4.8400     3.1300     0.5590 C.3   1 <1>   0.2090 
 18 C        1.8030     1.4420     0.7920 C.ar  1 <1>  -0.1500 
 19 C        1.9680     3.8070     0.5570 C.ar  1 <1>  -0.1500 
 20 C       -5.4340     1.2350    -1.4840 C.3   1 <1>   0.1200 
 21 C       -6.2230     2.4960     0.3270 C.3   1 <1>   0.1200 
 22 C        3.1800     1.3520     0.8780 C.ar  1 <1>  -0.1500 
 23 C        3.3450     3.7240     0.6440 C.ar  1 <1>  -0.1500 
 24 O       -6.3940     2.1460    -1.0180 O.3   1 <1>  -0.5600 
 25 C        3.9560     2.4940     0.8050 C.ar  1 <1>  -0.1500 
 26 H       -1.8270    -2.5810     0.3960 H     1 <1>   0.0800 
 27 H       -1.4650    -1.8730    -1.1400 H     1 <1>   0.0800 
 28 H       -2.1450     0.5700     2.2490 H     1 <1>   0.0800 
 29 H       -2.4360    -1.1480     2.3340 H     1 <1>   0.0800 
 30 H       -3.5980    -0.0960     1.5400 H     1 <1>   0.0800 
 31 H       -5.3920    -2.7200    -0.2670 H     1 <1>   0.3700 
 32 H       -4.2220    -2.9890     0.9840 H     1 <1>   0.3700 
 33 H       -3.3090     1.0470    -1.6380 H     1 <1>   0.0800 
 34 H       -3.8950     2.6450    -1.9950 H     1 <1>   0.0800 
 35 H       -4.7920     4.0720     0.0380 H     1 <1>   0.0800 
 36 H       -4.7090     3.3230     1.6090 H     1 <1>   0.0800 
 37 H        1.2260     0.5390     0.8560 H     1 <1>   0.1500 
 38 H        1.5110     4.7720     0.4290 H     1 <1>   0.1500 
 39 H       -5.5300     0.3200    -0.9280 H     1 <1>   0.0800 
 40 H       -5.6440     1.0310    -2.5180 H     1 <1>   0.0800 
 41 H       -6.9980     3.1940     0.5840 H     1 <1>   0.0800 
 42 H       -6.3350     1.6120     0.9300 H     1 <1>   0.0800 
 43 H        3.6490     0.3910     1.0010 H     1 <1>   0.1500 
 44 H        3.9430     4.6170     0.5860 H     1 <1>   0.1500 
 45 H        5.0280     2.4260     0.8710 H     1 <1>   0.1500 
@<TRIPOS>BOND
  1   1   2  2   
  2   2   3  am  
  3   2   4  1   
  4   3   5  1   
  5   3   6  1   
  6   4   7  1   
  7   4   8  2   
  8   5   9  1   
  9   5  26  1   
 10   5  27  1   
 11   6  28  1   
 12   6  29  1   
 13   6  30  1   
 14   7  10  2   
 15   7  11  1   
 16   8  12  1   
 17   8  13  1   
 18   9  14  2   
 19   9  15  am  
 20  10  12  1   
 21  11  16  1   
 22  11  17  1   
 23  13  18  ar  
 24  13  19  ar  
 25  15  31  1   
 26  15  32  1   
 27  16  20  1   
 28  16  33  1   
 29  16  34  1   
 30  17  21  1   
 31  17  35  1   
 32  17  36  1   
 33  18  22  ar  
 34  18  37  1   
 35  19  23  ar  
 36  19  38  1   
 37  20  24  1   
 38  20  39  1   
 39  20  40  1   
 40  21  24  1   
 41  21  41  1   
 42  21  42  1   
 43  22  25  ar  
 44  22  43  1   
 45  23  25  ar  
 46  23  44  1   
 47  25  45  1   
@<TRIPOS>SUBSTRUCTURE
  1 ****   4 GROUP 4 **** **** 0

# MOE 2024.06 (io_trps.svl 2023.06)
