@<TRIPOS>MOLECULE
NONAME
57 61 1 0 0 
SMALL
USER_CHARGES


@<TRIPOS>ATOM
  1 O        0.2360     0.4400     0.0290 O.2   1 <1>  -0.5700 
  2 C       -0.4360     1.3010     0.5680 C.2   1 <1>   0.7160 
  3 N       -1.8070     1.1440     0.6350 N.am  1 <1>  -0.6600 
  4 C        0.2070     2.4850     1.0820 C.2   1 <1>  -0.0860 
  5 C       -2.7480     2.2520     0.9970 C.3   1 <1>   0.1400 
  6 C       -2.4920    -0.0520     0.0700 C.3   1 <1>   0.1400 
  7 C        0.9840     3.4270     0.4730 C.2   1 <1>  -0.3320 
  8 C        0.1380     2.9320     2.4020 C.2   1 <1>   0.1390 
  9 C       -3.5480     2.7150    -0.2350 C.3   1 <1>   0.1440 
 10 C       -3.2960     0.3540    -1.1730 C.3   1 <1>  -0.1600 
 11 N        1.3070     4.3480     1.4010 N.pl3 1 <1>   0.3140 
 12 C        1.4310     3.4610    -0.9810 C.3   1 <1>  -0.0600 
 13 N        0.7730     4.0430     2.5960 N.2   1 <1>  -0.7070 
 14 C       -4.5010     3.8090     0.2090 C.ar  1 <1>   0.1660 
 15 C       -4.2710     1.5080    -0.8730 C.3   1 <1>  -0.1600 
 16 C       -2.6470     3.4650    -1.2530 C.3   1 <1>  -0.1600 
 17 C        2.1310     5.5640     1.2300 C.3   1 <1>   0.0960 
 18 N       -5.6100     3.6270     0.8840 N.ar  1 <1>  -0.6200 
 19 C       -4.0530     5.0400    -0.1620 C.ar  1 <1>  -0.1440 
 20 C       -2.7450     4.9600    -0.9080 C.3   1 <1>  -0.0170 
 21 C        1.2760     6.7530     0.7720 C.3   1 <1>  -0.2400 
 22 C       -6.3020     4.7350     1.1820 C.ar  1 <1>   0.6200 
 23 C       -4.8150     6.1250     0.1840 C.ar  1 <1>   0.1600 
 24 N       -5.9370     5.9830     0.8510 N.ar  1 <1>  -0.6200 
 25 C       -7.5450     4.5700     1.9250 C.ar  1 <1>   0.0000 
 26 C       -7.7490     3.4850     2.7830 C.ar  1 <1>  -0.1500 
 27 C       -8.5930     5.4890     1.8150 C.ar  1 <1>  -0.1500 
 28 C       -8.9280     3.3250     3.4890 C.ar  1 <1>  -0.1500 
 29 C       -9.7740     5.3360     2.5180 C.ar  1 <1>  -0.1500 
 30 C       -9.9450     4.2520     3.3580 C.ar  1 <1>  -0.1500 
 31 H       -2.2290     3.0950     1.4120 H     1 <1>   0.0800 
 32 H       -3.4320     1.8930     1.7470 H     1 <1>   0.0800 
 33 H       -3.1530    -0.4600     0.8160 H     1 <1>   0.0800 
 34 H       -1.7800    -0.8170    -0.1910 H     1 <1>   0.0800 
 35 H       -0.3940     2.4110     3.1810 H     1 <1>   0.1500 
 36 H       -3.8470    -0.4980    -1.5290 H     1 <1>   0.0800 
 37 H       -2.6090     0.6410    -1.9490 H     1 <1>   0.0800 
 38 H        1.0500     2.6060    -1.5120 H     1 <1>   0.0800 
 39 H        2.5050     3.4360    -1.0380 H     1 <1>   0.0800 
 40 H        1.0730     4.3510    -1.4650 H     1 <1>   0.0800 
 41 H       -4.7770     1.8110    -1.7730 H     1 <1>   0.0800 
 42 H       -5.0220     1.1530    -0.1880 H     1 <1>   0.0800 
 43 H       -3.0420     3.3270    -2.2440 H     1 <1>   0.0800 
 44 H       -1.6290     3.1200    -1.2480 H     1 <1>   0.0800 
 45 H        2.9050     5.3590     0.5140 H     1 <1>   0.0800 
 46 H        2.5930     5.7880     2.1740 H     1 <1>   0.0800 
 47 H       -2.7470     5.5730    -1.7930 H     1 <1>   0.0800 
 48 H       -1.9380     5.2520    -0.2580 H     1 <1>   0.0800 
 49 H        0.8170     6.5440    -0.1770 H     1 <1>   0.0800 
 50 H        1.8930     7.6270     0.6720 H     1 <1>   0.0800 
 51 H        0.5110     6.9550     1.5020 H     1 <1>   0.0800 
 52 H       -4.5020     7.1200    -0.0860 H     1 <1>   0.1500 
 53 H       -6.9700     2.7530     2.9000 H     1 <1>   0.1500 
 54 H       -8.4800     6.3400     1.1650 H     1 <1>   0.1500 
 55 H       -9.0540     2.4780     4.1410 H     1 <1>   0.1500 
 56 H      -10.5610     6.0620     2.4110 H     1 <1>   0.1500 
 57 H      -10.8630     4.1300     3.9060 H     1 <1>   0.1500 
@<TRIPOS>BOND
  1   1   2  2   
  2   2   3  am  
  3   2   4  1   
  4   3   5  1   
  5   3   6  1   
  6   4   7  2   
  7   4   8  1   
  8   5   9  1   
  9   5  31  1   
 10   5  32  1   
 11   6  10  1   
 12   6  33  1   
 13   6  34  1   
 14   7  11  1   
 15   7  12  1   
 16   8  13  2   
 17   8  35  1   
 18   9  14  1   
 19   9  15  1   
 20   9  16  1   
 21  10  15  1   
 22  10  36  1   
 23  10  37  1   
 24  11  13  1   
 25  11  17  1   
 26  12  38  1   
 27  12  39  1   
 28  12  40  1   
 29  14  18  ar  
 30  14  19  ar  
 31  15  41  1   
 32  15  42  1   
 33  16  20  1   
 34  16  43  1   
 35  16  44  1   
 36  17  21  1   
 37  17  45  1   
 38  17  46  1   
 39  18  22  ar  
 40  19  20  1   
 41  19  23  ar  
 42  20  47  1   
 43  20  48  1   
 44  21  49  1   
 45  21  50  1   
 46  21  51  1   
 47  22  24  ar  
 48  22  25  1   
 49  23  24  ar  
 50  23  52  1   
 51  25  26  ar  
 52  25  27  ar  
 53  26  28  ar  
 54  26  53  1   
 55  27  29  ar  
 56  27  54  1   
 57  28  30  ar  
 58  28  55  1   
 59  29  30  ar  
 60  29  56  1   
 61  30  57  1   
@<TRIPOS>SUBSTRUCTURE
  1 ****  14 GROUP 4 **** **** 0

# MOE 2024.06 (io_trps.svl 2023.06)
