@<TRIPOS>MOLECULE
NONAME
44 46 1 0 0 
SMALL
USER_CHARGES


@<TRIPOS>ATOM
  1 O       -0.3710     1.2630     1.4380 O.2   1 <1>  -0.5700 
  2 C       -0.1250     2.3970     1.0580 C.2   1 <1>   0.5440 
  3 N       -1.1970     3.2270     0.7670 N.am  1 <1>  -0.6600 
  4 C        1.2770     2.7850     0.9020 C.ar  1 <1>   0.3960 
  5 C       -2.5890     2.9100     1.2190 C.3   1 <1>   0.1400 
  6 C       -1.1040     4.4790    -0.0340 C.3   1 <1>   0.1400 
  7 N        1.7090     4.0170     1.2270 N.ar  1 <1>  -0.6200 
  8 C        2.1660     1.8220     0.4120 C.ar  1 <1>   0.1600 
  9 C       -3.5500     2.7710     0.0130 C.3   1 <1>   0.0000 
 10 C       -2.0380     4.3940    -1.2470 C.3   1 <1>  -0.1600 
 11 C        3.0030     4.1870     1.0310 C.ar  1 <1>   0.1600 
 12 N        3.4620     1.9960     0.2050 N.ar  1 <1>  -0.6200 
 13 C       -4.9880     2.4750     0.4740 C.3   1 <1>   0.2000 
 14 C       -3.4820     4.0530    -0.8430 C.3   1 <1>  -0.1600 
 15 C       -3.2180     1.5040    -0.7960 C.3   1 <1>  -0.1600 
 16 C        3.8600     3.2100     0.5330 C.ar  1 <1>   0.1670 
 17 O       -5.3300     3.2250     1.6020 O.3   1 <1>  -0.5600 
 18 C       -5.0300     0.9720     0.7670 C.3   1 <1>  -0.1600 
 19 C       -3.8830     0.3500    -0.0420 C.3   1 <1>  -0.1600 
 20 C        5.3350     3.4980     0.3370 C.3   1 <1>  -0.0970 
 21 C       -6.6890     3.2510     1.9010 C.3   1 <1>   0.0400 
 22 H       -2.6020     2.0120     1.8110 H     1 <1>   0.0800 
 23 H       -2.9240     3.7120     1.8540 H     1 <1>   0.0800 
 24 H       -1.3840     5.3110     0.5890 H     1 <1>   0.0800 
 25 H       -0.1010     4.6440    -0.3830 H     1 <1>   0.0800 
 26 H        1.7660     0.8500     0.1800 H     1 <1>   0.1500 
 27 H       -2.0240     5.3360    -1.7660 H     1 <1>   0.0800 
 28 H       -1.6610     3.6460    -1.9230 H     1 <1>   0.0800 
 29 H        3.4090     5.1520     1.2780 H     1 <1>   0.1500 
 30 H       -5.6700     2.7120    -0.3260 H     1 <1>   0.0800 
 31 H       -4.0880     3.9460    -1.7260 H     1 <1>   0.0800 
 32 H       -3.8840     4.8710    -0.2690 H     1 <1>   0.0800 
 33 H       -3.6550     1.5760    -1.7770 H     1 <1>   0.0800 
 34 H       -2.1590     1.3440    -0.9050 H     1 <1>   0.0800 
 35 H       -4.8660     0.7920     1.8160 H     1 <1>   0.0800 
 36 H       -5.9760     0.5560     0.4720 H     1 <1>   0.0800 
 37 H       -3.1700    -0.0980     0.6310 H     1 <1>   0.0800 
 38 H       -4.2380    -0.4050    -0.7220 H     1 <1>   0.0800 
 39 H        5.5780     4.5040     0.6260 H     1 <1>   0.0800 
 40 H        5.5940     3.3600    -0.6970 H     1 <1>   0.0800 
 41 H        5.9150     2.8150     0.9310 H     1 <1>   0.0800 
 42 H       -6.8270     3.8710     2.7690 H     1 <1>   0.0800 
 43 H       -7.0290     2.2530     2.1140 H     1 <1>   0.0800 
 44 H       -7.2290     3.6680     1.0690 H     1 <1>   0.0800 
@<TRIPOS>BOND
  1   1   2  2   
  2   2   3  am  
  3   2   4  1   
  4   3   5  1   
  5   3   6  1   
  6   4   7  ar  
  7   4   8  ar  
  8   5   9  1   
  9   5  22  1   
 10   5  23  1   
 11   6  10  1   
 12   6  24  1   
 13   6  25  1   
 14   7  11  ar  
 15   8  12  ar  
 16   8  26  1   
 17   9  13  1   
 18   9  14  1   
 19   9  15  1   
 20  10  14  1   
 21  10  27  1   
 22  10  28  1   
 23  11  16  ar  
 24  11  29  1   
 25  12  16  ar  
 26  13  17  1   
 27  13  18  1   
 28  13  30  1   
 29  14  31  1   
 30  14  32  1   
 31  15  19  1   
 32  15  33  1   
 33  15  34  1   
 34  16  20  1   
 35  17  21  1   
 36  18  19  1   
 37  18  35  1   
 38  18  36  1   
 39  19  37  1   
 40  19  38  1   
 41  20  39  1   
 42  20  40  1   
 43  20  41  1   
 44  21  42  1   
 45  21  43  1   
 46  21  44  1   
@<TRIPOS>SUBSTRUCTURE
  1 ****   3 GROUP 4 **** **** 0

# MOE 2024.06 (io_trps.svl 2023.06)
