@<TRIPOS>MOLECULE
NONAME
52 55 1 0 0 
SMALL
USER_CHARGES


@<TRIPOS>ATOM
  1 CL      -0.7890     1.2320    -0.0180 Cl    1 <1>  -0.1770 
  2 C       -2.0030    -0.0330    -0.0220 C.ar  1 <1>   0.1770 
  3 C       -3.3440     0.2330     0.2380 C.ar  1 <1>   0.1660 
  4 C       -1.5890    -1.3220    -0.2850 C.ar  1 <1>  -0.1500 
  5 N       -4.2830    -0.7020     0.2550 N.ar  1 <1>  -0.6200 
  6 C       -3.8360     1.6390     0.5320 C.3   1 <1>  -0.0960 
  7 C       -2.5670    -2.2890    -0.2700 C.ar  1 <1>  -0.1500 
  8 C       -3.8900    -1.9460     0.0000 C.ar  1 <1>   0.4100 
  9 N       -4.8550    -2.9340    -0.0040 N.pl3 1 <1>  -0.8380 
 10 C       -6.0060    -2.7920     0.9250 C.3   1 <1>   0.2090 
 11 C       -5.2630    -3.4570    -1.3300 C.3   1 <1>   0.2090 
 12 C       -6.6290    -4.1680     1.1550 C.3   1 <1>  -0.1600 
 13 C       -5.8680    -4.8490    -1.1470 C.3   1 <1>  -0.1600 
 14 C       -7.0510    -4.8270    -0.1700 C.3   1 <1>   0.4240 
 15 O       -8.0210    -4.0080    -0.7840 O.3   1 <1>  -0.5600 
 16 C       -7.5850    -6.2570     0.0640 C.ar  1 <1>  -0.1430 
 17 C       -9.3420    -4.1480    -0.3650 C.3   1 <1>   0.1200 
 18 C       -8.9020    -6.5930    -0.2200 C.ar  1 <1>  -0.1430 
 19 C       -6.7520    -7.2440     0.5750 C.ar  1 <1>  -0.1500 
 20 C       -9.8390    -5.5340    -0.7660 C.3   1 <1>  -0.0170 
 21 C       -9.3650    -7.8820    -0.0040 C.ar  1 <1>  -0.1500 
 22 C       -7.1940    -8.5390     0.7910 C.ar  1 <1>   0.0830 
 23 C       -8.5280    -8.8700     0.5090 C.ar  1 <1>   0.0830 
 24 O       -6.2470    -9.3890     1.2810 O.3   1 <1>  -0.3630 
 25 O       -8.9880   -10.1330     0.7550 O.3   1 <1>  -0.3630 
 26 C       -6.2620   -10.7630     0.9640 C.3   1 <1>   0.0400 
 27 C      -10.3520   -10.4730     0.6410 C.3   1 <1>   0.0400 
 28 H       -0.5580    -1.5460    -0.4870 H     1 <1>   0.1500 
 29 H       -3.1800     2.3840     0.1260 H     1 <1>   0.0800 
 30 H       -3.9110     1.7760     1.5950 H     1 <1>   0.0800 
 31 H       -4.8100     1.7790     0.0980 H     1 <1>   0.0800 
 32 H       -2.3310    -3.3190    -0.4590 H     1 <1>   0.1500 
 33 H       -6.7290    -2.1160     0.5000 H     1 <1>   0.0800 
 34 H       -5.6660    -2.3820     1.8620 H     1 <1>   0.0800 
 35 H       -4.4110    -3.5110    -1.9860 H     1 <1>   0.0800 
 36 H       -5.9870    -2.7900    -1.7700 H     1 <1>   0.0800 
 37 H       -7.4690    -4.0870     1.8170 H     1 <1>   0.0800 
 38 H       -5.8980    -4.7820     1.6450 H     1 <1>   0.0800 
 39 H       -5.0960    -5.5000    -0.7840 H     1 <1>   0.0800 
 40 H       -6.2000    -5.2320    -2.0940 H     1 <1>   0.0800 
 41 H       -9.9240    -3.3840    -0.8500 H     1 <1>   0.0800 
 42 H       -9.3950    -4.0090     0.7000 H     1 <1>   0.0800 
 43 H       -5.7290    -7.0230     0.8160 H     1 <1>   0.1500 
 44 H       -9.8780    -5.6030    -1.8380 H     1 <1>   0.0800 
 45 H      -10.8320    -5.6780    -0.3800 H     1 <1>   0.0800 
 46 H      -10.3880    -8.0960    -0.2420 H     1 <1>   0.1500 
 47 H       -5.2770   -11.1570     1.1370 H     1 <1>   0.0800 
 48 H       -6.5320   -10.8830    -0.0700 H     1 <1>   0.0800 
 49 H       -6.9690   -11.2590     1.6040 H     1 <1>   0.0800 
 50 H      -10.4670   -11.4960     0.9490 H     1 <1>   0.0800 
 51 H      -10.6540   -10.3660    -0.3860 H     1 <1>   0.0800 
 52 H      -10.9270    -9.8310     1.2840 H     1 <1>   0.0800 
@<TRIPOS>BOND
  1   1   2  1   
  2   2   3  ar  
  3   2   4  ar  
  4   3   5  ar  
  5   3   6  1   
  6   4   7  ar  
  7   4  28  1   
  8   5   8  ar  
  9   6  29  1   
 10   6  30  1   
 11   6  31  1   
 12   7   8  ar  
 13   7  32  1   
 14   8   9  1   
 15   9  10  1   
 16   9  11  1   
 17  10  12  1   
 18  10  33  1   
 19  10  34  1   
 20  11  13  1   
 21  11  35  1   
 22  11  36  1   
 23  12  14  1   
 24  12  37  1   
 25  12  38  1   
 26  13  14  1   
 27  13  39  1   
 28  13  40  1   
 29  14  15  1   
 30  14  16  1   
 31  15  17  1   
 32  16  18  ar  
 33  16  19  ar  
 34  17  20  1   
 35  17  41  1   
 36  17  42  1   
 37  18  20  1   
 38  18  21  ar  
 39  19  22  ar  
 40  19  43  1   
 41  20  44  1   
 42  20  45  1   
 43  21  23  ar  
 44  21  46  1   
 45  22  23  ar  
 46  22  24  1   
 47  23  25  1   
 48  24  26  1   
 49  25  27  1   
 50  26  47  1   
 51  26  48  1   
 52  26  49  1   
 53  27  50  1   
 54  27  51  1   
 55  27  52  1   
@<TRIPOS>SUBSTRUCTURE
  1 ****  14 GROUP 4 **** **** 0

# MOE 2024.06 (io_trps.svl 2023.06)
