@<TRIPOS>MOLECULE
NONAME
56 59 1 0 0 
SMALL
USER_CHARGES


@<TRIPOS>ATOM
  1 F       -1.3340    -0.6760     0.2580 F     1 <1>  -0.1900 
  2 C       -2.3790    -1.4370     0.0740 C.ar  1 <1>   0.1900 
  3 C       -3.5180    -1.1960     0.8180 C.ar  1 <1>  -0.1500 
  4 C       -2.3070    -2.4540    -0.8580 C.ar  1 <1>  -0.1500 
  5 C       -4.6220    -2.0080     0.6160 C.ar  1 <1>  -0.1500 
  6 C       -3.4190    -3.2580    -1.0490 C.ar  1 <1>  -0.1500 
  7 C       -4.5790    -3.0390    -0.3150 C.ar  1 <1>  -0.1430 
  8 C       -5.8030    -3.9220    -0.5310 C.3   1 <1>   0.2540 
  9 N       -6.2880    -4.4930     0.7420 N.3   1 <1>  -0.8100 
 10 C       -7.6110    -5.1510     0.5590 C.3   1 <1>   0.1710 
 11 C       -5.2950    -5.3860     1.3570 C.3   1 <1>   0.0300 
 12 C       -7.6440    -6.3380    -0.4150 C.2   1 <1>   0.5690 
 13 O       -7.9130    -6.1460    -1.5770 O.2   1 <1>  -0.5700 
 14 N       -7.3850    -7.5870     0.0510 N.am  1 <1>  -0.7300 
 15 C       -7.3350    -8.8170    -0.7740 C.3   1 <1>   0.2200 
 16 C       -8.5740    -9.6800    -0.5620 C.3   1 <1>  -0.0800 
 17 C       -6.2630    -9.7330    -0.2050 C.3   1 <1>   0.1200 
 18 C       -8.2330   -10.4410     0.7270 C.3   1 <1>   0.1200 
 19 C       -9.9090    -8.9070    -0.5210 C.3   1 <1>  -0.0170 
 20 O       -6.8520   -10.3180     0.9160 O.3   1 <1>  -0.5600 
 21 C      -11.1890    -9.7450    -0.4220 C.ar  1 <1>  -0.1430 
 22 C      -12.4310    -9.0980    -0.2030 C.ar  1 <1>   0.0000 
 23 C      -11.2140   -11.1070    -0.5390 C.ar  1 <1>  -0.1500 
 24 C      -13.5900    -9.9050    -0.0850 C.ar  1 <1>   0.3100 
 25 C      -12.5940    -7.6960    -0.1010 C.ar  1 <1>  -0.1500 
 26 C      -12.4190   -11.8090    -0.4170 C.ar  1 <1>   0.1600 
 27 N      -13.5670   -11.2560    -0.1930 N.ar  1 <1>  -0.6200 
 28 C      -14.8300    -9.2880     0.1490 C.ar  1 <1>  -0.1500 
 29 C      -13.8170    -7.1260     0.1240 C.ar  1 <1>  -0.1500 
 30 C      -14.9520    -7.9300     0.2540 C.ar  1 <1>  -0.1500 
 31 H       -3.5380    -0.3970     1.5350 H     1 <1>   0.1500 
 32 H       -1.4020    -2.6090    -1.4170 H     1 <1>   0.1500 
 33 H       -5.5210    -1.8460     1.1870 H     1 <1>   0.1500 
 34 H       -3.3770    -4.0550    -1.7720 H     1 <1>   0.1500 
 35 H       -5.5690    -4.7140    -1.2230 H     1 <1>   0.0800 
 36 H       -6.5800    -3.3200    -0.9710 H     1 <1>   0.0800 
 37 H       -7.9660    -5.4830     1.5170 H     1 <1>   0.0800 
 38 H       -8.3110    -4.4160     0.2040 H     1 <1>   0.0800 
 39 H       -4.4030    -4.8330     1.6010 H     1 <1>   0.0800 
 40 H       -5.0320    -6.1860     0.6860 H     1 <1>   0.0800 
 41 H       -5.6870    -5.8010     2.2700 H     1 <1>   0.0800 
 42 H       -7.1700    -7.7450     1.0390 H     1 <1>   0.3700 
 43 H       -7.1650    -8.5760    -1.8100 H     1 <1>   0.0800 
 44 H       -8.6100   -10.3850    -1.3730 H     1 <1>   0.0800 
 45 H       -5.3700    -9.2060     0.0840 H     1 <1>   0.0800 
 46 H       -6.0180   -10.5180    -0.9000 H     1 <1>   0.0800 
 47 H       -8.4800   -11.4860     0.6590 H     1 <1>   0.0800 
 48 H       -8.7200   -10.0090     1.5850 H     1 <1>   0.0800 
 49 H       -9.9750    -8.2980    -1.4070 H     1 <1>   0.0800 
 50 H       -9.8880    -8.2450     0.3260 H     1 <1>   0.0800 
 51 H      -10.3360   -11.6920    -0.7260 H     1 <1>   0.1500 
 52 H      -11.7400    -7.0530    -0.2070 H     1 <1>   0.1500 
 53 H      -12.3880   -12.8810    -0.5130 H     1 <1>   0.1500 
 54 H      -15.6880    -9.9280     0.2420 H     1 <1>   0.1500 
 55 H      -13.9240    -6.0570     0.2000 H     1 <1>   0.1500 
 56 H      -15.9090    -7.4710     0.4330 H     1 <1>   0.1500 
@<TRIPOS>BOND
  1   1   2  1   
  2   2   3  ar  
  3   2   4  ar  
  4   3   5  ar  
  5   3  31  1   
  6   4   6  ar  
  7   4  32  1   
  8   5   7  ar  
  9   5  33  1   
 10   6   7  ar  
 11   6  34  1   
 12   7   8  1   
 13   8   9  1   
 14   8  35  1   
 15   8  36  1   
 16   9  10  1   
 17   9  11  1   
 18  10  12  1   
 19  10  37  1   
 20  10  38  1   
 21  11  39  1   
 22  11  40  1   
 23  11  41  1   
 24  12  13  2   
 25  12  14  am  
 26  14  15  1   
 27  14  42  1   
 28  15  16  1   
 29  15  17  1   
 30  15  43  1   
 31  16  18  1   
 32  16  19  1   
 33  16  44  1   
 34  17  20  1   
 35  17  45  1   
 36  17  46  1   
 37  18  20  1   
 38  18  47  1   
 39  18  48  1   
 40  19  21  1   
 41  19  49  1   
 42  19  50  1   
 43  21  22  ar  
 44  21  23  ar  
 45  22  24  ar  
 46  22  25  ar  
 47  23  26  ar  
 48  23  51  1   
 49  24  27  ar  
 50  24  28  ar  
 51  25  29  ar  
 52  25  52  1   
 53  26  27  ar  
 54  26  53  1   
 55  28  30  ar  
 56  28  54  1   
 57  29  30  ar  
 58  29  55  1   
 59  30  56  1   
@<TRIPOS>SUBSTRUCTURE
  1 ****  12 GROUP 4 **** **** 0

# MOE 2024.06 (io_trps.svl 2023.06)
