@<TRIPOS>MOLECULE
NONAME
62 65 1 0 0 
SMALL
USER_CHARGES


@<TRIPOS>ATOM
  1 O       -0.5520     0.5530    -0.8180 O.3   1 <1>  -0.5600 
  2 C       -0.4650     1.4990    -1.8300 C.3   1 <1>   0.1200 
  3 C       -1.8710     0.5260    -0.3550 C.3   1 <1>   0.1200 
  4 C       -1.2270     2.6720    -1.2240 C.3   1 <1>   0.4230 
  5 C       -2.4440     1.9160    -0.6840 C.3   1 <1>  -0.0800 
  6 N       -0.4140     3.2040    -0.0870 N.4   1 <1>  -0.9060 
  7 C       -3.2300     2.5620     0.4780 C.3   1 <1>  -0.0170 
  8 C        0.7920     3.9880    -0.4430 C.3   1 <1>   0.4230 
  9 C       -4.4530     1.7220     0.8250 C.ar  1 <1>  -0.1440 
 10 C        1.6840     4.1020     0.7930 C.3   1 <1>  -0.1600 
 11 C        0.4000     5.3790    -0.9480 C.3   1 <1>  -0.1600 
 12 C       -5.6330     1.7360     0.0400 C.ar  1 <1>   0.0000 
 13 C       -4.4380     0.9110     1.9230 C.ar  1 <1>  -0.1500 
 14 C        2.9160     4.9610     0.5050 C.3   1 <1>   0.3430 
 15 C        1.6400     6.2340    -1.2190 C.3   1 <1>   0.3430 
 16 C       -6.6920     0.8800     0.4310 C.ar  1 <1>   0.3100 
 17 C       -5.8280     2.5450    -1.1050 C.ar  1 <1>  -0.1500 
 18 C       -5.5470     0.1140     2.2290 C.ar  1 <1>   0.1600 
 19 N        2.4940     6.3030     0.0010 N.4   1 <1>  -0.9590 
 20 N       -6.6310     0.0800     1.5240 N.ar  1 <1>  -0.6200 
 21 C       -7.8660     0.8520    -0.3380 C.ar  1 <1>  -0.1500 
 22 C       -6.9870     2.4960    -1.8310 C.ar  1 <1>  -0.1500 
 23 C        3.6810     7.1810    -0.2610 C.3   1 <1>   0.3430 
 24 C       -8.0190     1.6370    -1.4470 C.ar  1 <1>  -0.1500 
 25 C        4.3870     7.5980     1.0430 C.3   1 <1>  -0.0800 
 26 C        3.4300     8.2410     2.0620 C.3   1 <1>  -0.2400 
 27 C        5.5120     8.5870     0.7140 C.3   1 <1>  -0.2400 
 28 H        0.5670     1.7010    -2.0520 H     1 <1>   0.0800 
 29 H       -0.9570     1.1100    -2.7070 H     1 <1>   0.0800 
 30 H       -2.4060    -0.2560    -0.8710 H     1 <1>   0.0800 
 31 H       -1.8550     0.3120     0.7000 H     1 <1>   0.0800 
 32 H       -1.4870     3.4340    -1.9400 H     1 <1>   0.0800 
 33 H       -3.1270     1.7780    -1.5050 H     1 <1>   0.0800 
 34 H       -1.0140     3.7160     0.5660 H     1 <1>   0.4500 
 35 H       -0.1160     2.3370     0.3950 H     1 <1>   0.4500 
 36 H       -3.5450     3.5580     0.2200 H     1 <1>   0.0800 
 37 H       -2.6120     2.6370     1.3550 H     1 <1>   0.0800 
 38 H        1.3430     3.4720    -1.2150 H     1 <1>   0.0800 
 39 H        1.1450     4.5360     1.6180 H     1 <1>   0.0800 
 40 H        2.0220     3.1240     1.0880 H     1 <1>   0.0800 
 41 H       -0.1520     5.2960    -1.8680 H     1 <1>   0.0800 
 42 H       -0.2200     5.8860    -0.2290 H     1 <1>   0.0800 
 43 H       -3.5900     0.8490     2.5810 H     1 <1>   0.1500 
 44 H        3.5390     4.4760    -0.2300 H     1 <1>   0.0800 
 45 H        3.4940     5.0720     1.4090 H     1 <1>   0.0800 
 46 H        1.3370     7.2290    -1.5100 H     1 <1>   0.0800 
 47 H        2.2060     5.8090    -2.0340 H     1 <1>   0.0800 
 48 H       -5.0600     3.2220    -1.4190 H     1 <1>   0.1500 
 49 H       -5.4960    -0.5120     3.1040 H     1 <1>   0.1500 
 50 H        1.9730     6.7880     0.7470 H     1 <1>   0.4500 
 51 H       -8.6480     0.1870    -0.0210 H     1 <1>   0.1500 
 52 H       -7.1260     3.1150    -2.7010 H     1 <1>   0.1500 
 53 H        4.3840     6.6780    -0.9070 H     1 <1>   0.0800 
 54 H        3.3560     8.0790    -0.7640 H     1 <1>   0.0800 
 55 H       -8.9260     1.6050    -2.0270 H     1 <1>   0.1500 
 56 H        4.8480     6.7350     1.4920 H     1 <1>   0.0800 
 57 H        2.9220     9.0880     1.6320 H     1 <1>   0.0800 
 58 H        3.9860     8.5910     2.9150 H     1 <1>   0.0800 
 59 H        2.7020     7.5390     2.4250 H     1 <1>   0.0800 
 60 H        5.1200     9.4910     0.2790 H     1 <1>   0.0800 
 61 H        6.2170     8.1520     0.0260 H     1 <1>   0.0800 
 62 H        6.0490     8.8540     1.6090 H     1 <1>   0.0800 
@<TRIPOS>BOND
  1   1   2  1   
  2   1   3  1   
  3   2   4  1   
  4   2  28  1   
  5   2  29  1   
  6   3   5  1   
  7   3  30  1   
  8   3  31  1   
  9   4   5  1   
 10   4   6  1   
 11   4  32  1   
 12   5   7  1   
 13   5  33  1   
 14   6   8  1   
 15   6  34  1   
 16   6  35  1   
 17   7   9  1   
 18   7  36  1   
 19   7  37  1   
 20   8  10  1   
 21   8  11  1   
 22   8  38  1   
 23   9  12  ar  
 24   9  13  ar  
 25  10  14  1   
 26  10  39  1   
 27  10  40  1   
 28  11  15  1   
 29  11  41  1   
 30  11  42  1   
 31  12  16  ar  
 32  12  17  ar  
 33  13  18  ar  
 34  13  43  1   
 35  14  19  1   
 36  14  44  1   
 37  14  45  1   
 38  15  19  1   
 39  15  46  1   
 40  15  47  1   
 41  16  20  ar  
 42  16  21  ar  
 43  17  22  ar  
 44  17  48  1   
 45  18  20  ar  
 46  18  49  1   
 47  19  23  1   
 48  19  50  1   
 49  21  24  ar  
 50  21  51  1   
 51  22  24  ar  
 52  22  52  1   
 53  23  25  1   
 54  23  53  1   
 55  23  54  1   
 56  24  55  1   
 57  25  26  1   
 58  25  27  1   
 59  25  56  1   
 60  26  57  1   
 61  26  58  1   
 62  26  59  1   
 63  27  60  1   
 64  27  61  1   
 65  27  62  1   
@<TRIPOS>SUBSTRUCTURE
  1 ****   6 GROUP 4 **** **** 0

# MOE 2024.06 (io_trps.svl 2023.06)
