@<TRIPOS>MOLECULE
NONAME
55 57 1 0 0 
SMALL
USER_CHARGES


@<TRIPOS>ATOM
  1 O        3.4910     0.6600    -1.9180 O.2   1 <1>  -0.5700 
  2 C        3.3300    -0.0550    -0.9400 C.2   1 <1>   0.5440 
  3 N        2.7940     0.5400     0.1950 N.am  1 <1>  -0.6600 
  4 C        3.7310    -1.4670    -1.0190 C.ar  1 <1>   0.3960 
  5 C        2.9780    -0.0390     1.5670 C.3   1 <1>   0.1400 
  6 C        2.0790     1.8460     0.1130 C.3   1 <1>   0.1400 
  7 N        3.0920    -2.4050    -0.2930 N.ar  1 <1>  -0.6200 
  8 C        4.7820    -1.8180    -1.8700 C.ar  1 <1>  -0.1500 
  9 C        3.3390     1.0110     2.6280 C.3   1 <1>   0.1400 
 10 C        3.0570     3.0260     0.2070 C.3   1 <1>  -0.1600 
 11 C        3.5020    -3.6530    -0.4040 C.ar  1 <1>   0.1670 
 12 C        5.2070    -3.1230    -1.9820 C.ar  1 <1>  -0.1500 
 13 N        4.3540     1.9650     2.0920 N.am  1 <1>  -0.6600 
 14 C        3.7630     3.2250     1.5600 C.3   1 <1>   0.1400 
 15 C        4.5430    -4.0580    -1.2230 C.ar  1 <1>  -0.1500 
 16 C        2.7570    -4.6690     0.4350 C.3   1 <1>  -0.0970 
 17 C        5.6800     1.5820     2.0520 C.2   1 <1>   0.5690 
 18 O        6.0410     0.6510     2.7400 O.2   1 <1>  -0.5700 
 19 C        6.7680     2.2610     1.1660 C.3   1 <1>   0.2610 
 20 O        6.2560     2.9450     0.0570 O.3   1 <1>  -0.6800 
 21 C        7.8300     1.2570     0.6390 C.3   1 <1>  -0.0800 
 22 C        8.9980     1.9680    -0.0780 C.3   1 <1>  -0.1600 
 23 C        7.2240     0.1680    -0.2760 C.3   1 <1>  -0.1600 
 24 C       10.0630     0.9660    -0.5460 C.3   1 <1>  -0.1600 
 25 C        8.2920    -0.8300    -0.7410 C.3   1 <1>  -0.1600 
 26 C        9.4500    -0.1140    -1.4460 C.3   1 <1>  -0.1600 
 27 H        2.0810    -0.5570     1.8580 H     1 <1>   0.0800 
 28 H        3.7780    -0.7580     1.5500 H     1 <1>   0.0800 
 29 H        1.5650     1.8970    -0.8320 H     1 <1>   0.0800 
 30 H        1.3360     1.9080     0.8880 H     1 <1>   0.0800 
 31 H        5.2650    -1.0510    -2.4470 H     1 <1>   0.1500 
 32 H        3.7250     0.5140     3.5020 H     1 <1>   0.0800 
 33 H        2.4540     1.5410     2.9310 H     1 <1>   0.0800 
 34 H        2.5090     3.9260    -0.0050 H     1 <1>   0.0800 
 35 H        3.7830     2.9320    -0.5770 H     1 <1>   0.0800 
 36 H        6.0180    -3.3980    -2.6350 H     1 <1>   0.1500 
 37 H        3.0500     3.5960     2.2760 H     1 <1>   0.0800 
 38 H        4.5250     3.9790     1.4670 H     1 <1>   0.0800 
 39 H        4.8320    -5.0920    -1.2700 H     1 <1>   0.1500 
 40 H        3.1400    -5.6600     0.2780 H     1 <1>   0.0800 
 41 H        1.7150    -4.6540     0.1740 H     1 <1>   0.0800 
 42 H        2.8570    -4.4180     1.4750 H     1 <1>   0.0800 
 43 H        7.2630     2.9930     1.7780 H     1 <1>   0.0800 
 44 H        5.7070     2.3250    -0.4650 H     1 <1>   0.4000 
 45 H        8.2490     0.7610     1.4980 H     1 <1>   0.0800 
 46 H        8.6270     2.5060    -0.9340 H     1 <1>   0.0800 
 47 H        9.4500     2.6820     0.5880 H     1 <1>   0.0800 
 48 H        6.4560    -0.3700     0.2520 H     1 <1>   0.0800 
 49 H        6.7750     0.6250    -1.1410 H     1 <1>   0.0800 
 50 H       10.8350     1.4880    -1.0840 H     1 <1>   0.0800 
 51 H       10.5150     0.5000     0.3130 H     1 <1>   0.0800 
 52 H        8.6700    -1.3670     0.1130 H     1 <1>   0.0800 
 53 H        7.8500    -1.5470    -1.4100 H     1 <1>   0.0800 
 54 H       10.2070    -0.8310    -1.7150 H     1 <1>   0.0800 
 55 H        9.0880     0.3410    -2.3520 H     1 <1>   0.0800 
@<TRIPOS>BOND
  1   1   2  2   
  2   2   3  am  
  3   2   4  1   
  4   3   5  1   
  5   3   6  1   
  6   4   7  ar  
  7   4   8  ar  
  8   5   9  1   
  9   5  27  1   
 10   5  28  1   
 11   6  10  1   
 12   6  29  1   
 13   6  30  1   
 14   7  11  ar  
 15   8  12  ar  
 16   8  31  1   
 17   9  13  1   
 18   9  32  1   
 19   9  33  1   
 20  10  14  1   
 21  10  34  1   
 22  10  35  1   
 23  11  15  ar  
 24  11  16  1   
 25  12  15  ar  
 26  12  36  1   
 27  13  14  1   
 28  13  17  am  
 29  14  37  1   
 30  14  38  1   
 31  15  39  1   
 32  16  40  1   
 33  16  41  1   
 34  16  42  1   
 35  17  18  2   
 36  17  19  1   
 37  19  20  1   
 38  19  21  1   
 39  19  43  1   
 40  20  44  1   
 41  21  22  1   
 42  21  23  1   
 43  21  45  1   
 44  22  24  1   
 45  22  46  1   
 46  22  47  1   
 47  23  25  1   
 48  23  48  1   
 49  23  49  1   
 50  24  26  1   
 51  24  50  1   
 52  24  51  1   
 53  25  26  1   
 54  25  52  1   
 55  25  53  1   
 56  26  54  1   
 57  26  55  1   
@<TRIPOS>SUBSTRUCTURE
  1 ****   2 GROUP 4 **** **** 0

# MOE 2024.06 (io_trps.svl 2023.06)
