@<TRIPOS>MOLECULE
NONAME
37 39 1 0 0 
SMALL
USER_CHARGES


@<TRIPOS>ATOM
  1 S        0.4750     0.3220    -1.0130 S.3   1 <1>  -0.0800 
  2 C        1.5270     1.3610    -0.0450 C.2   1 <1>  -0.0450 
  3 C        0.8290    -1.0820    -0.0300 C.2   1 <1>  -0.1100 
  4 C        1.6530     2.7520    -0.4090 C.2   1 <1>   0.7150 
  5 C        2.0720     0.6120     0.9500 C.2   1 <1>  -0.1500 
  6 C        1.6830    -0.7590     0.9580 C.2   1 <1>  -0.1500 
  7 O        0.7280     3.3340    -0.9470 O.2   1 <1>  -0.5700 
  8 N        2.8110     3.4570    -0.1560 N.am  1 <1>  -0.6600 
  9 C        4.1730     2.8330    -0.2160 C.3   1 <1>   0.1400 
 10 C        2.8360     4.9570    -0.1870 C.3   1 <1>   0.1400 
 11 C        4.9980     3.3850    -1.3950 C.3   1 <1>   0.2090 
 12 C        3.6490     5.4720    -1.3840 C.3   1 <1>   0.2090 
 13 N        5.0240     4.8790    -1.3680 N.pl3 1 <1>  -0.8380 
 14 C        6.1030     5.5610    -0.8480 C.ar  1 <1>   0.7200 
 15 N        5.8450     6.6830    -0.1820 N.ar  1 <1>  -0.6200 
 16 N        7.3050     5.0220    -1.0540 N.ar  1 <1>  -0.6200 
 17 C        6.8740     7.3370     0.3090 C.ar  1 <1>   0.3930 
 18 C        8.3300     5.6840    -0.5630 C.ar  1 <1>   0.1600 
 19 O        6.5360     8.4690     0.9700 O.3   1 <1>  -0.3630 
 20 C        8.1640     6.8530     0.1290 C.ar  1 <1>   0.1900 
 21 C        7.4580     9.3740     1.5360 C.3   1 <1>   0.0400 
 22 F        9.2370     7.4550     0.5930 F     1 <1>  -0.1900 
 23 H        0.3540    -2.0090    -0.2970 H     1 <1>   0.1500 
 24 H        2.7430     0.9950     1.6990 H     1 <1>   0.1500 
 25 H        2.0570    -1.4410     1.7020 H     1 <1>   0.1500 
 26 H        4.1000     1.7670    -0.3250 H     1 <1>   0.0800 
 27 H        4.6950     3.0410     0.7020 H     1 <1>   0.0800 
 28 H        3.2850     5.3230     0.7200 H     1 <1>   0.0800 
 29 H        1.8370     5.3530    -0.2380 H     1 <1>   0.0800 
 30 H        4.5570     3.0600    -2.3210 H     1 <1>   0.0800 
 31 H        5.9930     2.9770    -1.3520 H     1 <1>   0.0800 
 32 H        3.6900     6.5470    -1.3620 H     1 <1>   0.0800 
 33 H        3.1510     5.1900    -2.2950 H     1 <1>   0.0800 
 34 H        9.3180     5.2870    -0.7160 H     1 <1>   0.1500 
 35 H        6.9040    10.1890     1.9640 H     1 <1>   0.0800 
 36 H        8.1080     9.7430     0.7620 H     1 <1>   0.0800 
 37 H        8.0180     8.8710     2.3050 H     1 <1>   0.0800 
@<TRIPOS>BOND
  1   1   2  1   
  2   1   3  1   
  3   2   4  1   
  4   2   5  2   
  5   3   6  2   
  6   3  23  1   
  7   4   7  2   
  8   4   8  am  
  9   5   6  1   
 10   5  24  1   
 11   6  25  1   
 12   8   9  1   
 13   8  10  1   
 14   9  11  1   
 15   9  26  1   
 16   9  27  1   
 17  10  12  1   
 18  10  28  1   
 19  10  29  1   
 20  11  13  1   
 21  11  30  1   
 22  11  31  1   
 23  12  13  1   
 24  12  32  1   
 25  12  33  1   
 26  13  14  1   
 27  14  15  ar  
 28  14  16  ar  
 29  15  17  ar  
 30  16  18  ar  
 31  17  19  1   
 32  17  20  ar  
 33  18  20  ar  
 34  18  34  1   
 35  19  21  1   
 36  20  22  1   
 37  21  35  1   
 38  21  36  1   
 39  21  37  1   
@<TRIPOS>SUBSTRUCTURE
  1 ****  13 GROUP 4 **** **** 0

# MOE 2024.06 (io_trps.svl 2023.06)
