@<TRIPOS>MOLECULE
NONAME
38 39 1 0 0 
SMALL
USER_CHARGES


@<TRIPOS>ATOM
  1 O        0.8880     0.0560    -1.1700 O.2   1 <1>  -0.5700 
  2 C        1.5520    -0.5490    -0.3620 C.2   1 <1>   0.5690 
  3 N        2.1670     0.1150     0.6720 N.am  1 <1>  -0.6600 
  4 C        1.6150    -2.0650    -0.5660 C.3   1 <1>  -0.0190 
  5 C        2.2990     1.6110     0.6020 C.3   1 <1>   0.3200 
  6 C        2.8790    -0.5050     1.8270 C.3   1 <1>   0.0600 
  7 C        0.5570    -2.7340     0.3260 C.3   1 <1>   0.0960 
  8 C        3.0250    -2.6870    -0.4550 C.3   1 <1>  -0.2400 
  9 C        3.6900     2.0820     0.1780 C.2   1 <1>   0.2980 
 10 N        0.4980    -4.1910     0.1160 N.pl3 1 <1>   0.3140 
 11 O        3.8850     3.3440    -0.0390 O.3   1 <1>  -0.2800 
 12 N        4.7570     1.3950     0.0010 N.2   1 <1>  -0.3380 
 13 N        0.9560    -5.0630     1.0020 N.2   1 <1>  -0.7070 
 14 C        0.0060    -4.8630    -0.9290 C.2   1 <1>   0.0360 
 15 C        5.1340     3.4140    -0.3690 C.2   1 <1>   0.2980 
 16 N        5.7010     2.2670    -0.3560 N.2   1 <1>  -0.3380 
 17 C        0.7110    -6.1950     0.4300 C.2   1 <1>   0.3660 
 18 N        0.1230    -6.1320    -0.7720 N.2   1 <1>  -0.5650 
 19 C        5.7360     4.7680    -0.7100 C.3   1 <1>   0.0200 
 20 C        7.2270     4.7030    -1.0710 C.3   1 <1>  -0.2400 
 21 H        1.3050    -2.2240    -1.5850 H     1 <1>   0.0800 
 22 H        2.0750     2.0290     1.5660 H     1 <1>   0.0800 
 23 H        1.5870     2.0200    -0.0920 H     1 <1>   0.0800 
 24 H        2.4330    -1.4420     2.1000 H     1 <1>   0.0800 
 25 H        2.8350     0.1450     2.6840 H     1 <1>   0.0800 
 26 H        3.9130    -0.6680     1.5720 H     1 <1>   0.0800 
 27 H       -0.4120    -2.3220     0.1110 H     1 <1>   0.0800 
 28 H        0.7710    -2.5570     1.3630 H     1 <1>   0.0800 
 29 H        3.3240    -2.8280     0.5660 H     1 <1>   0.0800 
 30 H        3.7470    -2.0570    -0.9470 H     1 <1>   0.0800 
 31 H        3.0440    -3.6510    -0.9330 H     1 <1>   0.0800 
 32 H       -0.4290    -4.3810    -1.7860 H     1 <1>   0.1500 
 33 H        0.9550    -7.1480     0.8720 H     1 <1>   0.1500 
 34 H        5.6040     5.4200     0.1350 H     1 <1>   0.0800 
 35 H        5.1890     5.1820    -1.5380 H     1 <1>   0.0800 
 36 H        7.7910     4.3040    -0.2460 H     1 <1>   0.0800 
 37 H        7.5980     5.6860    -1.3010 H     1 <1>   0.0800 
 38 H        7.3740     4.0680    -1.9270 H     1 <1>   0.0800 
@<TRIPOS>BOND
  1   1   2  2   
  2   2   3  am  
  3   2   4  1   
  4   3   5  1   
  5   3   6  1   
  6   4   7  1   
  7   4   8  1   
  8   4  21  1   
  9   5   9  1   
 10   5  22  1   
 11   5  23  1   
 12   6  24  1   
 13   6  25  1   
 14   6  26  1   
 15   7  10  1   
 16   7  27  1   
 17   7  28  1   
 18   8  29  1   
 19   8  30  1   
 20   8  31  1   
 21   9  11  1   
 22   9  12  2   
 23  10  13  1   
 24  10  14  1   
 25  11  15  1   
 26  12  16  1   
 27  13  17  2   
 28  14  18  2   
 29  14  32  1   
 30  15  16  2   
 31  15  19  1   
 32  17  18  1   
 33  17  33  1   
 34  19  20  1   
 35  19  34  1   
 36  19  35  1   
 37  20  36  1   
 38  20  37  1   
 39  20  38  1   
@<TRIPOS>SUBSTRUCTURE
  1 ****   3 GROUP 4 **** **** 0

# MOE 2024.06 (io_trps.svl 2023.06)
