@<TRIPOS>MOLECULE
NONAME
64 65 1 0 0 
SMALL
USER_CHARGES


@<TRIPOS>ATOM
  1 O        1.2670    -0.5420     1.8960 O.2   1 <1>  -0.5700 
  2 C        1.8060    -0.7390     0.8350 C.2   1 <1>   0.5690 
  3 N        1.2670    -1.5270    -0.1270 N.am  1 <1>  -0.7300 
  4 C        3.1330    -0.0680     0.5700 C.3   1 <1>  -0.0990 
  5 C       -0.0240    -2.2320    -0.0220 C.3   1 <1>   0.2200 
  6 C        2.9490     1.4500     0.5770 C.3   1 <1>   0.1100 
  7 C        0.2790    -3.7340    -0.0900 C.3   1 <1>  -0.1600 
  8 C       -0.9350    -1.7060    -1.1400 C.3   1 <1>  -0.1600 
  9 N        4.2130     2.1390     0.2550 N.3   1 <1>  -0.8100 
 10 C       -0.9320    -4.6560     0.1190 C.3   1 <1>  -0.1600 
 11 C       -2.4400    -1.8340    -0.8340 C.3   1 <1>  -0.1600 
 12 C        3.9440     3.5330    -0.1870 C.3   1 <1>   0.1100 
 13 C        5.1440     2.1640     1.4120 C.3   1 <1>   0.1100 
 14 C       -1.7360    -4.9450    -1.1630 C.3   1 <1>  -0.1600 
 15 C       -3.1750    -2.8600    -1.7080 C.3   1 <1>  -0.1600 
 16 C        5.2400     4.3480    -0.4720 C.3   1 <1>   0.4230 
 17 C        6.4800     2.8670     1.0690 C.3   1 <1>   0.3430 
 18 C       -3.1310    -4.3040    -1.1880 C.3   1 <1>  -0.1600 
 19 N        6.4450     3.4610    -0.3140 N.4   1 <1>  -0.9590 
 20 C        5.3490     5.6070     0.4120 C.3   1 <1>  -0.1600 
 21 C        7.7390     4.0020    -0.8070 C.3   1 <1>   0.4230 
 22 C        4.3080     6.6740     0.0420 C.3   1 <1>  -0.2400 
 23 C        7.5900     4.4720    -2.2540 C.3   1 <1>  -0.2400 
 24 C        8.8130     2.9160    -0.7410 C.3   1 <1>  -0.2400 
 25 H        1.7610    -1.6750    -1.0050 H     1 <1>   0.3700 
 26 H        3.5200    -0.3840    -0.3800 H     1 <1>   0.0800 
 27 H        3.8090    -0.3730     1.3450 H     1 <1>   0.0800 
 28 H       -0.4650    -2.0030     0.9350 H     1 <1>   0.0800 
 29 H        2.5750     1.7740     1.5350 H     1 <1>   0.0800 
 30 H        2.2070     1.6950    -0.1660 H     1 <1>   0.0800 
 31 H        0.9770    -3.9470     0.7020 H     1 <1>   0.0800 
 32 H        0.7650    -3.9740    -1.0190 H     1 <1>   0.0800 
 33 H       -0.6870    -2.1800    -2.0730 H     1 <1>   0.0800 
 34 H       -0.7360    -0.6540    -1.2550 H     1 <1>   0.0800 
 35 H       -1.5630    -4.2700     0.9010 H     1 <1>   0.0800 
 36 H       -0.5520    -5.5990     0.4740 H     1 <1>   0.0800 
 37 H       -2.8880    -0.8740    -1.0320 H     1 <1>   0.0800 
 38 H       -2.6140    -2.0390     0.2090 H     1 <1>   0.0800 
 39 H        3.3530     4.0350     0.5610 H     1 <1>   0.0800 
 40 H        3.3550     3.5090    -1.0880 H     1 <1>   0.0800 
 41 H        5.3630     1.1610     1.7330 H     1 <1>   0.0800 
 42 H        4.6810     2.6720     2.2420 H     1 <1>   0.0800 
 43 H       -1.8800    -6.0110    -1.2130 H     1 <1>   0.0800 
 44 H       -1.1840    -4.6720    -2.0470 H     1 <1>   0.0800 
 45 H       -2.8070    -2.8220    -2.7190 H     1 <1>   0.0800 
 46 H       -4.2110    -2.5710    -1.7470 H     1 <1>   0.0800 
 47 H        5.1830     4.6760    -1.4960 H     1 <1>   0.0800 
 48 H        7.2660     2.1350     1.1350 H     1 <1>   0.0800 
 49 H        6.6820     3.6310     1.8000 H     1 <1>   0.0800 
 50 H       -3.5820    -4.3570    -0.2120 H     1 <1>   0.0800 
 51 H       -3.7480    -4.8940    -1.8440 H     1 <1>   0.0800 
 52 H        6.1960     2.6510    -0.8990 H     1 <1>   0.4500 
 53 H        6.3190     6.0540     0.2940 H     1 <1>   0.0800 
 54 H        5.2220     5.3470     1.4480 H     1 <1>   0.0800 
 55 H        8.0450     4.8360    -0.1950 H     1 <1>   0.0800 
 56 H        4.4110     6.9680    -0.9880 H     1 <1>   0.0800 
 57 H        4.4500     7.5500     0.6540 H     1 <1>   0.0800 
 58 H        3.3040     6.3210     0.2020 H     1 <1>   0.0800 
 59 H        7.1960     3.6890    -2.8770 H     1 <1>   0.0800 
 60 H        8.5520     4.7550    -2.6440 H     1 <1>   0.0800 
 61 H        6.9630     5.3420    -2.3210 H     1 <1>   0.0800 
 62 H        8.5010     2.0300    -1.2650 H     1 <1>   0.0800 
 63 H        9.0610     2.6700     0.2750 H     1 <1>   0.0800 
 64 H        9.7180     3.2730    -1.2010 H     1 <1>   0.0800 
@<TRIPOS>BOND
  1   1   2  2   
  2   2   3  am  
  3   2   4  1   
  4   3   5  1   
  5   3  25  1   
  6   4   6  1   
  7   4  26  1   
  8   4  27  1   
  9   5   7  1   
 10   5   8  1   
 11   5  28  1   
 12   6   9  1   
 13   6  29  1   
 14   6  30  1   
 15   7  10  1   
 16   7  31  1   
 17   7  32  1   
 18   8  11  1   
 19   8  33  1   
 20   8  34  1   
 21   9  12  1   
 22   9  13  1   
 23  10  14  1   
 24  10  35  1   
 25  10  36  1   
 26  11  15  1   
 27  11  37  1   
 28  11  38  1   
 29  12  16  1   
 30  12  39  1   
 31  12  40  1   
 32  13  17  1   
 33  13  41  1   
 34  13  42  1   
 35  14  18  1   
 36  14  43  1   
 37  14  44  1   
 38  15  18  1   
 39  15  45  1   
 40  15  46  1   
 41  16  19  1   
 42  16  20  1   
 43  16  47  1   
 44  17  19  1   
 45  17  48  1   
 46  17  49  1   
 47  18  50  1   
 48  18  51  1   
 49  19  21  1   
 50  19  52  1   
 51  20  22  1   
 52  20  53  1   
 53  20  54  1   
 54  21  23  1   
 55  21  24  1   
 56  21  55  1   
 57  22  56  1   
 58  22  57  1   
 59  22  58  1   
 60  23  59  1   
 61  23  60  1   
 62  23  61  1   
 63  24  62  1   
 64  24  63  1   
 65  24  64  1   
@<TRIPOS>SUBSTRUCTURE
  1 ****   4 GROUP 4 **** **** 0

# MOE 2024.06 (io_trps.svl 2023.06)
