@<TRIPOS>MOLECULE
NONAME
64 68 1 0 0 
SMALL
USER_CHARGES


@<TRIPOS>ATOM
  1 O       -1.9020     1.2060    -1.3280 O.2   1 <1>  -0.5700 
  2 C       -1.5750     2.1030    -0.5750 C.2   1 <1>   0.5440 
  3 N       -2.4570     2.4650     0.4230 N.am  1 <1>  -0.6600 
  4 C       -0.3050     2.7780    -0.7670 C.ar  1 <1>   0.0860 
  5 C       -2.7150     3.8750     0.7810 C.3   1 <1>   0.1400 
  6 C       -3.4870     1.5170     0.9000 C.3   1 <1>   0.1400 
  7 C        0.2230     3.0110    -2.0290 C.ar  1 <1>  -0.1500 
  8 C        0.4820     3.2290     0.2850 C.ar  1 <1>  -0.1500 
  9 C       -4.0390     4.2980     0.1380 C.3   1 <1>  -0.1600 
 10 C       -4.8170     1.8790     0.2440 C.3   1 <1>  -0.1600 
 11 C        1.4300     3.6680    -2.1730 C.ar  1 <1>   0.1600 
 12 C        1.6780     3.8760     0.0370 C.ar  1 <1>   0.1600 
 13 C       -5.2000     3.3480     0.4930 C.3   1 <1>   0.4230 
 14 N        2.1660     4.1130    -1.1690 N.ar  1 <1>  -0.6200 
 15 N       -6.4180     3.6880    -0.3170 N.4   1 <1>  -0.9590 
 16 C       -6.8730     5.1340    -0.2550 C.3   1 <1>   0.3430 
 17 C       -7.6010     2.8100    -0.0400 C.3   1 <1>   0.3430 
 18 C       -7.8430     5.4860     0.9030 C.3   1 <1>   0.1430 
 19 C       -8.1030     2.9780     1.4040 C.3   1 <1>  -0.1600 
 20 C       -9.2250     5.7260     0.3250 C.ar  1 <1>   0.1670 
 21 C       -7.8970     4.3900     1.9910 C.3   1 <1>  -0.1600 
 22 C       -7.5180     6.8660     1.5360 C.3   1 <1>  -0.1600 
 23 N       -9.8230     4.9470    -0.5420 N.ar  1 <1>  -0.6200 
 24 C       -9.7770     6.8770     0.7980 C.ar  1 <1>  -0.1430 
 25 C       -8.8640     7.5770     1.7710 C.3   1 <1>  -0.0170 
 26 C      -11.0300     5.3640    -0.9370 C.ar  1 <1>   0.7200 
 27 C      -11.0220     7.2230     0.3380 C.ar  1 <1>   0.1600 
 28 N      -11.6530     6.4730    -0.5330 N.ar  1 <1>  -0.6200 
 29 N      -11.6830     4.5720    -1.8540 N.pl3 1 <1>  -0.8380 
 30 C      -11.6010     3.0890    -1.8180 C.3   1 <1>   0.1290 
 31 C      -12.7840     5.1220    -2.6950 C.3   1 <1>   0.1290 
 32 H       -1.9220     4.5110     0.4250 H     1 <1>   0.0800 
 33 H       -2.7640     3.9670     1.8540 H     1 <1>   0.0800 
 34 H       -3.5590     1.5760     1.9730 H     1 <1>   0.0800 
 35 H       -3.2100     0.5070     0.6420 H     1 <1>   0.0800 
 36 H       -0.3120     2.6730    -2.8980 H     1 <1>   0.1500 
 37 H        0.1640     3.0690     1.2980 H     1 <1>   0.1500 
 38 H       -3.8970     4.3210    -0.9290 H     1 <1>   0.0800 
 39 H       -4.2470     5.2940     0.4800 H     1 <1>   0.0800 
 40 H       -5.5590     1.2170     0.6480 H     1 <1>   0.0800 
 41 H       -4.7250     1.6900    -0.8120 H     1 <1>   0.0800 
 42 H        1.8120     3.8360    -3.1660 H     1 <1>   0.1500 
 43 H        2.2670     4.2160     0.8720 H     1 <1>   0.1500 
 44 H       -5.4180     3.4630     1.5420 H     1 <1>   0.0800 
 45 H       -6.1540     3.5100    -1.2950 H     1 <1>   0.4500 
 46 H       -7.3860     5.3680    -1.1750 H     1 <1>   0.0800 
 47 H       -6.0210     5.7860    -0.2100 H     1 <1>   0.0800 
 48 H       -7.3660     1.7750    -0.2280 H     1 <1>   0.0800 
 49 H       -8.3980     3.0810    -0.7140 H     1 <1>   0.0800 
 50 H       -7.6320     2.2510     2.0400 H     1 <1>   0.0800 
 51 H       -9.1560     2.7520     1.4030 H     1 <1>   0.0800 
 52 H       -8.6880     4.6040     2.6910 H     1 <1>   0.0800 
 53 H       -6.9770     4.4040     2.5460 H     1 <1>   0.0800 
 54 H       -6.9530     7.4610     0.8390 H     1 <1>   0.0800 
 55 H       -6.9530     6.7870     2.4490 H     1 <1>   0.0800 
 56 H       -8.7990     8.6330     1.5710 H     1 <1>   0.0800 
 57 H       -9.2140     7.4160     2.7760 H     1 <1>   0.0800 
 58 H      -11.5040     8.1220     0.6820 H     1 <1>   0.1500 
 59 H      -11.0530     2.7570    -0.9540 H     1 <1>   0.0800 
 60 H      -11.1090     2.7340    -2.7060 H     1 <1>   0.0800 
 61 H      -12.5910     2.6690    -1.7710 H     1 <1>   0.0800 
 62 H      -12.6070     6.1620    -2.9090 H     1 <1>   0.0800 
 63 H      -13.7200     5.0290    -2.1730 H     1 <1>   0.0800 
 64 H      -12.8390     4.5870    -3.6270 H     1 <1>   0.0800 
@<TRIPOS>BOND
  1   1   2  2   
  2   2   3  am  
  3   2   4  1   
  4   3   5  1   
  5   3   6  1   
  6   4   7  ar  
  7   4   8  ar  
  8   5   9  1   
  9   5  32  1   
 10   5  33  1   
 11   6  10  1   
 12   6  34  1   
 13   6  35  1   
 14   7  11  ar  
 15   7  36  1   
 16   8  12  ar  
 17   8  37  1   
 18   9  13  1   
 19   9  38  1   
 20   9  39  1   
 21  10  13  1   
 22  10  40  1   
 23  10  41  1   
 24  11  14  ar  
 25  11  42  1   
 26  12  14  ar  
 27  12  43  1   
 28  13  15  1   
 29  13  44  1   
 30  15  16  1   
 31  15  17  1   
 32  15  45  1   
 33  16  18  1   
 34  16  46  1   
 35  16  47  1   
 36  17  19  1   
 37  17  48  1   
 38  17  49  1   
 39  18  20  1   
 40  18  21  1   
 41  18  22  1   
 42  19  21  1   
 43  19  50  1   
 44  19  51  1   
 45  20  23  ar  
 46  20  24  ar  
 47  21  52  1   
 48  21  53  1   
 49  22  25  1   
 50  22  54  1   
 51  22  55  1   
 52  23  26  ar  
 53  24  25  1   
 54  24  27  ar  
 55  25  56  1   
 56  25  57  1   
 57  26  28  ar  
 58  26  29  1   
 59  27  28  ar  
 60  27  58  1   
 61  29  30  1   
 62  29  31  1   
 63  30  59  1   
 64  30  60  1   
 65  30  61  1   
 66  31  62  1   
 67  31  63  1   
 68  31  64  1   
@<TRIPOS>SUBSTRUCTURE
  1 ****  15 GROUP 4 **** **** 0

# MOE 2024.06 (io_trps.svl 2023.06)
