@<TRIPOS>MOLECULE
NONAME
48 51 1 0 0 
SMALL
USER_CHARGES


@<TRIPOS>ATOM
  1 O        1.5980    -1.0360    -0.6740 O.2   1 <1>  -0.5700 
  2 C        2.5930    -1.7200    -0.6900 C.2   1 <1>   0.5690 
  3 N        3.7930    -1.2210    -1.1330 N.am  1 <1>  -0.6600 
  4 C        2.4930    -3.1620    -0.2000 C.3   1 <1>  -0.0990 
  5 C        3.8610     0.1480    -1.7450 C.3   1 <1>   0.1400 
  6 C        5.0680    -1.9930    -1.1950 C.3   1 <1>   0.0600 
  7 C        1.0540    -3.6360     0.0870 C.3   1 <1>  -0.1600 
  8 C        3.5800     1.2770    -0.7390 C.3   1 <1>   0.2000 
  9 C        1.0130    -5.0970     0.5580 C.3   1 <1>   0.0200 
 10 O        3.8910     2.5170    -1.3670 O.3   1 <1>  -0.3630 
 11 C        4.4210     1.2240     0.5560 C.3   1 <1>  -0.0170 
 12 C       -0.4090    -5.5660     0.8070 C.2   1 <1>   0.2980 
 13 C        4.7040     3.2390    -0.5790 C.ar  1 <1>   0.0820 
 14 C        5.0640     2.5780     0.5650 C.ar  1 <1>  -0.1440 
 15 O       -1.0730    -5.0580     1.8120 O.3   1 <1>  -0.0190 
 16 N       -1.0310    -6.4290     0.1180 N.2   1 <1>  -0.5650 
 17 C        5.1570     4.5160    -0.8480 C.ar  1 <1>  -0.1500 
 18 C        5.8950     3.1770     1.4930 C.ar  1 <1>  -0.1500 
 19 N       -2.2260    -5.6510     1.7590 N.2   1 <1>  -0.4100 
 20 C       -2.2060    -6.4600     0.7590 C.2   1 <1>   0.5150 
 21 C        5.9920     5.1270     0.0740 C.ar  1 <1>  -0.1500 
 22 C        6.3590     4.4610     1.2380 C.ar  1 <1>  -0.1500 
 23 C       -3.2840    -7.3230     0.3270 C.2   1 <1>   0.1410 
 24 O       -4.4450    -7.3570     0.9760 O.3   1 <1>  -0.2800 
 25 C       -3.3490    -8.1950    -0.7170 C.2   1 <1>  -0.1500 
 26 C       -5.2390    -8.2200     0.3770 C.2   1 <1>  -0.0100 
 27 C       -4.6190    -8.7760    -0.6830 C.2   1 <1>  -0.1500 
 28 H        3.0760    -3.2480     0.6980 H     1 <1>   0.0800 
 29 H        2.9220    -3.8010    -0.9490 H     1 <1>   0.0800 
 30 H        3.1320     0.2070    -2.5360 H     1 <1>   0.0800 
 31 H        4.8350     0.3030    -2.1750 H     1 <1>   0.0800 
 32 H        5.0590    -2.8200    -0.5090 H     1 <1>   0.0800 
 33 H        5.8960    -1.3550    -0.9370 H     1 <1>   0.0800 
 34 H        5.2160    -2.3650    -2.1940 H     1 <1>   0.0800 
 35 H        0.4620    -3.5360    -0.8070 H     1 <1>   0.0800 
 36 H        0.6140    -3.0040     0.8410 H     1 <1>   0.0800 
 37 H        2.5330     1.3060    -0.4980 H     1 <1>   0.0800 
 38 H        1.5750    -5.2090     1.4680 H     1 <1>   0.0800 
 39 H        1.4560    -5.7300    -0.1900 H     1 <1>   0.0800 
 40 H        5.1680     0.4540     0.5240 H     1 <1>   0.0800 
 41 H        3.7870     1.0780     1.4110 H     1 <1>   0.0800 
 42 H        4.8590     5.0110    -1.7540 H     1 <1>   0.1500 
 43 H        6.1770     2.6600     2.3920 H     1 <1>   0.1500 
 44 H        6.3580     6.1220    -0.1120 H     1 <1>   0.1500 
 45 H        7.0060     4.9450     1.9480 H     1 <1>   0.1500 
 46 H       -2.5790    -8.4050    -1.4370 H     1 <1>   0.1500 
 47 H       -6.2290    -8.3770     0.7710 H     1 <1>   0.1500 
 48 H       -4.9930    -9.5120    -1.3740 H     1 <1>   0.1500 
@<TRIPOS>BOND
  1   1   2  2   
  2   2   3  am  
  3   2   4  1   
  4   3   5  1   
  5   3   6  1   
  6   4   7  1   
  7   4  28  1   
  8   4  29  1   
  9   5   8  1   
 10   5  30  1   
 11   5  31  1   
 12   6  32  1   
 13   6  33  1   
 14   6  34  1   
 15   7   9  1   
 16   7  35  1   
 17   7  36  1   
 18   8  10  1   
 19   8  11  1   
 20   8  37  1   
 21   9  12  1   
 22   9  38  1   
 23   9  39  1   
 24  10  13  1   
 25  11  14  1   
 26  11  40  1   
 27  11  41  1   
 28  12  15  1   
 29  12  16  2   
 30  13  14  ar  
 31  13  17  ar  
 32  14  18  ar  
 33  15  19  1   
 34  16  20  1   
 35  17  21  ar  
 36  17  42  1   
 37  18  22  ar  
 38  18  43  1   
 39  19  20  2   
 40  20  23  1   
 41  21  22  ar  
 42  21  44  1   
 43  22  45  1   
 44  23  24  1   
 45  23  25  2   
 46  24  26  1   
 47  25  27  1   
 48  25  46  1   
 49  26  27  2   
 50  26  47  1   
 51  27  48  1   
@<TRIPOS>SUBSTRUCTURE
  1 ****   1 GROUP 4 **** **** 0

# MOE 2024.06 (io_trps.svl 2023.06)
