@<TRIPOS>MOLECULE
NONAME
51 53 1 0 0 
SMALL
USER_CHARGES


@<TRIPOS>ATOM
  1 O       -2.0490    -0.3410     2.1710 O.2   1 <1>  -0.5700 
  2 C       -1.5790    -0.9520     1.2410 C.2   1 <1>   0.5690 
  3 N       -2.1400    -2.1120     0.7760 N.am  1 <1>  -0.6600 
  4 C       -0.3420    -0.3700     0.5770 C.3   1 <1>  -0.0990 
  5 C       -1.5550    -2.9420    -0.3160 C.3   1 <1>   0.1400 
  6 C       -3.3480    -2.7160     1.4440 C.3   1 <1>   0.2010 
  7 C        0.4300    -1.3820    -0.2800 C.3   1 <1>  -0.1600 
  8 C       -0.5520    -2.1540    -1.1630 C.3   1 <1>  -0.1600 
  9 C       -4.5430    -2.9320     0.5060 C.2   1 <1>   0.5690 
 10 O       -4.7410    -4.0660     0.1320 O.2   1 <1>  -0.5700 
 11 N       -5.3520    -1.8920     0.1090 N.am  1 <1>  -0.6600 
 12 C       -5.1460    -0.4630     0.4700 C.3   1 <1>   0.1400 
 13 C       -6.5180    -2.1080    -0.7920 C.3   1 <1>   0.1400 
 14 C       -6.4030     0.0660     1.1640 C.3   1 <1>  -0.1600 
 15 C       -7.7870    -1.5820    -0.1150 C.3   1 <1>  -0.1600 
 16 C       -7.6620    -0.1020     0.2910 C.3   1 <1>   0.2800 
 17 O       -7.4940     0.6130    -0.9100 O.3   1 <1>  -0.5600 
 18 C       -8.9390     0.3740     1.0300 C.3   1 <1>  -0.1600 
 19 C       -7.6740     2.0000    -0.8720 C.3   1 <1>   0.1200 
 20 C       -9.8820     1.1870     0.1390 C.3   1 <1>   0.2800 
 21 C       -9.1170     2.3600    -0.4810 C.3   1 <1>  -0.1600 
 22 O      -10.2890     0.3810    -0.8910 O.3   1 <1>  -0.6800 
 23 C      -11.1430     1.6360     0.8710 C.3   1 <1>  -0.2400 
 24 H        0.3050     0.0270     1.3370 H     1 <1>   0.0800 
 25 H       -0.6640     0.4480    -0.0410 H     1 <1>   0.0800 
 26 H       -2.3390    -3.3110    -0.9560 H     1 <1>   0.0800 
 27 H       -1.0620    -3.7900     0.1280 H     1 <1>   0.0800 
 28 H       -3.6680    -2.1090     2.2700 H     1 <1>   0.0800 
 29 H       -3.0680    -3.6710     1.8500 H     1 <1>   0.0800 
 30 H        0.9540    -2.0710     0.3620 H     1 <1>   0.0800 
 31 H        1.1550    -0.8690    -0.8870 H     1 <1>   0.0800 
 32 H       -1.0880    -1.4710    -1.8000 H     1 <1>   0.0800 
 33 H       -0.0150    -2.8370    -1.7970 H     1 <1>   0.0800 
 34 H       -4.9570     0.1010    -0.4280 H     1 <1>   0.0800 
 35 H       -4.3040    -0.3390     1.1210 H     1 <1>   0.0800 
 36 H       -6.6380    -3.1530    -1.0190 H     1 <1>   0.0800 
 37 H       -6.3500    -1.5830    -1.7170 H     1 <1>   0.0800 
 38 H       -6.2580     1.0960     1.4290 H     1 <1>   0.0800 
 39 H       -6.5340    -0.4780     2.0820 H     1 <1>   0.0800 
 40 H       -7.9730    -2.1820     0.7570 H     1 <1>   0.0800 
 41 H       -8.6230    -1.7140    -0.7760 H     1 <1>   0.0800 
 42 H       -8.6520     0.9970     1.8580 H     1 <1>   0.0800 
 43 H       -9.4660    -0.4600     1.4550 H     1 <1>   0.0800 
 44 H       -7.4470     2.3850    -1.8520 H     1 <1>   0.0800 
 45 H       -6.9710     2.4200    -0.1750 H     1 <1>   0.0800 
 46 H       -9.6500     2.7320    -1.3380 H     1 <1>   0.0800 
 47 H       -9.0690     3.1670     0.2260 H     1 <1>   0.0800 
 48 H       -9.4800     0.1550    -1.3990 H     1 <1>   0.4000 
 49 H      -10.8880     2.2710     1.7000 H     1 <1>   0.0800 
 50 H      -11.6780     0.7830     1.2470 H     1 <1>   0.0800 
 51 H      -11.7830     2.1850     0.2040 H     1 <1>   0.0800 
@<TRIPOS>BOND
  1   1   2  2   
  2   2   3  am  
  3   2   4  1   
  4   3   5  1   
  5   3   6  1   
  6   4   7  1   
  7   4  24  1   
  8   4  25  1   
  9   5   8  1   
 10   5  26  1   
 11   5  27  1   
 12   6   9  1   
 13   6  28  1   
 14   6  29  1   
 15   7   8  1   
 16   7  30  1   
 17   7  31  1   
 18   8  32  1   
 19   8  33  1   
 20   9  10  2   
 21   9  11  am  
 22  11  12  1   
 23  11  13  1   
 24  12  14  1   
 25  12  34  1   
 26  12  35  1   
 27  13  15  1   
 28  13  36  1   
 29  13  37  1   
 30  14  16  1   
 31  14  38  1   
 32  14  39  1   
 33  15  16  1   
 34  15  40  1   
 35  15  41  1   
 36  16  17  1   
 37  16  18  1   
 38  17  19  1   
 39  18  20  1   
 40  18  42  1   
 41  18  43  1   
 42  19  21  1   
 43  19  44  1   
 44  19  45  1   
 45  20  21  1   
 46  20  22  1   
 47  20  23  1   
 48  21  46  1   
 49  21  47  1   
 50  22  48  1   
 51  23  49  1   
 52  23  50  1   
 53  23  51  1   
@<TRIPOS>SUBSTRUCTURE
  1 ****  12 GROUP 4 **** **** 0

# MOE 2024.06 (io_trps.svl 2023.06)
