@<TRIPOS>MOLECULE
NONAME
42 44 1 0 0 
SMALL
USER_CHARGES


@<TRIPOS>ATOM
  1 O        0.2430    -0.8590     1.2960 O.3   1 <1>  -0.5600 
  2 C        0.4710    -1.6100     0.1400 C.3   1 <1>   0.2000 
  3 C       -1.0970    -0.6880     1.6310 C.3   1 <1>   0.0400 
  4 C        1.9200    -1.4620    -0.3560 C.3   1 <1>   0.0000 
  5 C        0.2680    -3.1070     0.3960 C.3   1 <1>  -0.1600 
  6 C        2.9210    -1.4590     0.8260 C.3   1 <1>   0.2090 
  7 C        2.1070    -0.1750    -1.1890 C.3   1 <1>  -0.1600 
  8 C        2.0880    -2.7360    -1.2030 C.3   1 <1>  -0.1600 
  9 C        1.3190    -3.8300    -0.4560 C.3   1 <1>  -0.1600 
 10 N        4.3260    -1.2890     0.3330 N.pl3 1 <1>  -0.8380 
 11 C        3.5720     0.0150    -1.6220 C.3   1 <1>  -0.1600 
 12 C        5.3160    -2.2310     0.5330 C.ar  1 <1>   0.7200 
 13 C        4.5380    -0.0300    -0.4320 C.3   1 <1>   0.2090 
 14 N        6.5690    -1.8670     0.2570 N.ar  1 <1>  -0.6200 
 15 N        4.9410    -3.4290     0.9820 N.ar  1 <1>  -0.6200 
 16 C        7.5030    -2.7630     0.4470 C.ar  1 <1>   0.1670 
 17 C        5.8930    -4.3090     1.1630 C.ar  1 <1>   0.1600 
 18 C        7.2100    -4.0240     0.9070 C.ar  1 <1>  -0.1500 
 19 C        8.9250    -2.3490     0.1350 C.3   1 <1>  -0.0970 
 20 H       -0.2000    -1.2760    -0.6340 H     1 <1>   0.0800 
 21 H       -1.1440    -0.0830     2.5190 H     1 <1>   0.0800 
 22 H       -1.5440    -1.6480     1.8260 H     1 <1>   0.0800 
 23 H       -1.6050    -0.1890     0.8250 H     1 <1>   0.0800 
 24 H        0.4340    -3.3330     1.4360 H     1 <1>   0.0800 
 25 H       -0.7250    -3.4060     0.1140 H     1 <1>   0.0800 
 26 H        2.8130    -2.3580     1.4060 H     1 <1>   0.0800 
 27 H        2.6980    -0.6360     1.4820 H     1 <1>   0.0800 
 28 H        1.4730    -0.1950    -2.0580 H     1 <1>   0.0800 
 29 H        1.8120     0.6690    -0.5880 H     1 <1>   0.0800 
 30 H        1.6380    -2.5920    -2.1700 H     1 <1>   0.0800 
 31 H        3.1200    -3.0060    -1.3450 H     1 <1>   0.0800 
 32 H        1.9970    -4.3670     0.1870 H     1 <1>   0.0800 
 33 H        0.8690    -4.5250    -1.1440 H     1 <1>   0.0800 
 34 H        3.6790     0.9590    -2.1240 H     1 <1>   0.0800 
 35 H        3.8520    -0.7570    -2.3160 H     1 <1>   0.0800 
 36 H        4.3550     0.8060     0.2200 H     1 <1>   0.0800 
 37 H        5.5470     0.0480    -0.7950 H     1 <1>   0.0800 
 38 H        5.6140    -5.2830     1.5260 H     1 <1>   0.1500 
 39 H        7.9740    -4.7600     1.0630 H     1 <1>   0.1500 
 40 H        9.6130    -3.1510     0.3250 H     1 <1>   0.0800 
 41 H        9.1940    -1.5060     0.7450 H     1 <1>   0.0800 
 42 H        8.9960    -2.0640    -0.8990 H     1 <1>   0.0800 
@<TRIPOS>BOND
  1   1   2  1   
  2   1   3  1   
  3   2   4  1   
  4   2   5  1   
  5   2  20  1   
  6   3  21  1   
  7   3  22  1   
  8   3  23  1   
  9   4   6  1   
 10   4   7  1   
 11   4   8  1   
 12   5   9  1   
 13   5  24  1   
 14   5  25  1   
 15   6  10  1   
 16   6  26  1   
 17   6  27  1   
 18   7  11  1   
 19   7  28  1   
 20   7  29  1   
 21   8   9  1   
 22   8  30  1   
 23   8  31  1   
 24   9  32  1   
 25   9  33  1   
 26  10  12  1   
 27  10  13  1   
 28  11  13  1   
 29  11  34  1   
 30  11  35  1   
 31  12  14  ar  
 32  12  15  ar  
 33  13  36  1   
 34  13  37  1   
 35  14  16  ar  
 36  15  17  ar  
 37  16  18  ar  
 38  16  19  1   
 39  17  18  ar  
 40  17  38  1   
 41  18  39  1   
 42  19  40  1   
 43  19  41  1   
 44  19  42  1   
@<TRIPOS>SUBSTRUCTURE
  1 ****  10 GROUP 4 **** **** 0

# MOE 2024.06 (io_trps.svl 2023.06)
