@<TRIPOS>MOLECULE
NONAME
51 52 1 0 0 
SMALL
USER_CHARGES


@<TRIPOS>ATOM
  1 O       -1.4400    -0.4270     1.3210 O.2   1 <1>  -0.5700 
  2 C       -1.7150     0.4980     0.5780 C.2   1 <1>   0.5440 
  3 N       -2.4030     0.1940    -0.5770 N.am  1 <1>  -0.6600 
  4 C       -1.4340     1.8540     0.9930 C.ar  1 <1>   0.0860 
  5 C       -2.2860    -1.1620    -1.1770 C.3   1 <1>   0.3200 
  6 C       -3.5550     1.0150    -1.0570 C.3   1 <1>   0.1400 
  7 C       -0.9460     2.8380     0.1190 C.ar  1 <1>   0.3920 
  8 C       -1.6530     2.2340     2.3130 C.ar  1 <1>  -0.1500 
  9 C       -3.5000    -1.9400    -0.7280 C.2   1 <1>  -0.3320 
 10 C       -4.6840     1.0000    -0.0060 C.3   1 <1>   0.3430 
 11 O       -0.6630     2.4750    -1.1500 O.3   1 <1>  -0.3630 
 12 N       -0.7410     4.1120     0.4390 N.ar  1 <1>  -0.6200 
 13 C       -1.4200     3.5420     2.6620 C.ar  1 <1>  -0.1500 
 14 N       -3.6760    -2.2990     0.5550 N.pl3 1 <1>   0.0330 
 15 C       -4.5830    -2.3770    -1.4050 C.2   1 <1>   0.0770 
 16 N       -6.0410     1.3000    -0.5730 N.4   1 <1>  -0.9590 
 17 C       -0.0350     3.3570    -2.0640 C.3   1 <1>   0.0400 
 18 C       -0.9770     4.4380     1.7030 C.ar  1 <1>   0.3930 
 19 C       -4.8880    -2.8940     0.5880 C.2   1 <1>   0.0060 
 20 N       -5.4720    -2.9390    -0.5660 N.2   1 <1>  -0.5650 
 21 C       -6.9760     1.7110     0.5180 C.3   1 <1>   0.2630 
 22 C       -6.5970     0.0960    -1.2740 C.3   1 <1>   0.2630 
 23 O       -0.7830     5.7090     2.0970 O.3   1 <1>  -0.3620 
 24 C       -5.4860    -3.4590     1.8590 C.3   1 <1>  -0.0600 
 25 C       -0.2860     6.6910     1.2090 C.3   1 <1>   0.0400 
 26 H       -1.3830    -1.6490    -0.8470 H     1 <1>   0.0800 
 27 H       -2.2550    -1.0850    -2.2500 H     1 <1>   0.0800 
 28 H       -3.9090     0.6050    -1.9860 H     1 <1>   0.0800 
 29 H       -3.2330     2.0260    -1.2350 H     1 <1>   0.0800 
 30 H       -1.9890     1.5160     3.0420 H     1 <1>   0.1500 
 31 H       -4.4420     1.7210     0.7560 H     1 <1>   0.0800 
 32 H       -4.7120     0.0260     0.4550 H     1 <1>   0.0800 
 33 H       -1.5700     3.8880     3.6690 H     1 <1>   0.1500 
 34 H       -3.0120    -2.1340     1.3240 H     1 <1>   0.2700 
 35 H       -4.7810    -2.3060    -2.4620 H     1 <1>   0.1500 
 36 H       -5.9640     2.0790    -1.2460 H     1 <1>   0.4500 
 37 H        0.1200     2.8330    -2.9900 H     1 <1>   0.0800 
 38 H        0.9110     3.6660    -1.6530 H     1 <1>   0.0800 
 39 H       -0.6700     4.2100    -2.2220 H     1 <1>   0.0800 
 40 H       -7.0840     0.9150     1.2370 H     1 <1>   0.0800 
 41 H       -7.9470     1.9410     0.1110 H     1 <1>   0.0800 
 42 H       -6.6010     2.5860     1.0250 H     1 <1>   0.0800 
 43 H       -6.6680    -0.7370    -0.5920 H     1 <1>   0.0800 
 44 H       -5.9590    -0.1930    -2.0930 H     1 <1>   0.0800 
 45 H       -7.5800     0.3060    -1.6640 H     1 <1>   0.0800 
 46 H       -5.5850    -2.6890     2.6020 H     1 <1>   0.0800 
 47 H       -4.8560    -4.2410     2.2420 H     1 <1>   0.0800 
 48 H       -6.4570    -3.8730     1.6540 H     1 <1>   0.0800 
 49 H       -0.1990     7.6190     1.7440 H     1 <1>   0.0800 
 50 H       -0.9740     6.8000     0.3890 H     1 <1>   0.0800 
 51 H        0.6790     6.3790     0.8500 H     1 <1>   0.0800 
@<TRIPOS>BOND
  1   1   2  2   
  2   2   3  am  
  3   2   4  1   
  4   3   5  1   
  5   3   6  1   
  6   4   7  ar  
  7   4   8  ar  
  8   5   9  1   
  9   5  26  1   
 10   5  27  1   
 11   6  10  1   
 12   6  28  1   
 13   6  29  1   
 14   7  11  1   
 15   7  12  ar  
 16   8  13  ar  
 17   8  30  1   
 18   9  14  1   
 19   9  15  2   
 20  10  16  1   
 21  10  31  1   
 22  10  32  1   
 23  11  17  1   
 24  12  18  ar  
 25  13  18  ar  
 26  13  33  1   
 27  14  19  1   
 28  14  34  1   
 29  15  20  1   
 30  15  35  1   
 31  16  21  1   
 32  16  22  1   
 33  16  36  1   
 34  17  37  1   
 35  17  38  1   
 36  17  39  1   
 37  18  23  1   
 38  19  20  2   
 39  19  24  1   
 40  21  40  1   
 41  21  41  1   
 42  21  42  1   
 43  22  43  1   
 44  22  44  1   
 45  22  45  1   
 46  23  25  1   
 47  24  46  1   
 48  24  47  1   
 49  24  48  1   
 50  25  49  1   
 51  25  50  1   
 52  25  51  1   
@<TRIPOS>SUBSTRUCTURE
  1 ****   3 GROUP 4 **** **** 0

# MOE 2024.06 (io_trps.svl 2023.06)
