@<TRIPOS>MOLECULE
NONAME
48 50 1 0 0 
SMALL
USER_CHARGES


@<TRIPOS>ATOM
  1 O       -0.3680     1.9460    -1.6680 O.2   1 <1>  -0.5700 
  2 C       -0.4160     3.0580    -1.2060 C.2   1 <1>   0.5690 
  3 N       -1.2800     3.3570    -0.2120 N.am  1 <1>  -0.7300 
  4 C        0.4840     4.1620    -1.7640 C.3   1 <1>   0.1810 
  5 C       -1.4160     4.7070     0.3880 C.3   1 <1>   0.3640 
  6 O        0.6410     5.2410    -0.8680 O.3   1 <1>  -0.5600 
  7 C       -2.8970     5.0800     0.3750 C.ar  1 <1>  -0.1440 
  8 C       -0.5730     5.7780    -0.3610 C.3   1 <1>   0.2610 
  9 C       -3.6560     4.9590    -0.7800 C.ar  1 <1>  -0.1500 
 10 C       -3.5070     5.5610     1.5220 C.ar  1 <1>  -0.1500 
 11 C       -0.2670     6.9940     0.5260 C.2   1 <1>   0.5690 
 12 C       -4.9950     5.3100    -0.8090 C.ar  1 <1>   0.0830 
 13 C       -4.8420     5.9230     1.5130 C.ar  1 <1>  -0.1500 
 14 O       -0.8220     7.1470     1.5910 O.2   1 <1>  -0.5700 
 15 N        0.6440     7.8980     0.0890 N.am  1 <1>  -0.7300 
 16 O       -5.6020     5.1280    -2.0170 O.3   1 <1>  -0.3630 
 17 C       -5.6040     5.8150     0.3520 C.ar  1 <1>   0.0830 
 18 C        1.0840     9.0900     0.8360 C.3   1 <1>   0.3200 
 19 C       -6.9740     4.8160    -2.1090 C.3   1 <1>   0.0400 
 20 O       -6.9120     6.2080     0.3250 O.3   1 <1>  -0.3620 
 21 C        2.5460     9.3460     0.5370 C.2   1 <1>  -0.0400 
 22 C       -7.4900     6.9510     1.3760 C.3   1 <1>   0.0400 
 23 O        2.9130     9.6640    -0.6770 O.3   1 <1>  -0.0190 
 24 C        3.6450     9.3150     1.3060 C.2   1 <1>  -0.1500 
 25 N        4.1980     9.8450    -0.7610 N.2   1 <1>  -0.4100 
 26 C        4.6660     9.6420     0.4180 C.2   1 <1>   0.1080 
 27 C        6.1310     9.7460     0.7810 C.3   1 <1>  -0.0590 
 28 H       -1.9150     2.6310     0.1240 H     1 <1>   0.3700 
 29 H        0.0670     4.5360    -2.6800 H     1 <1>   0.0800 
 30 H        1.4600     3.7580    -1.9650 H     1 <1>   0.0800 
 31 H       -1.0730     4.6480     1.4070 H     1 <1>   0.0800 
 32 H       -1.1370     6.1340    -1.2040 H     1 <1>   0.0800 
 33 H       -3.2160     4.5810    -1.6860 H     1 <1>   0.1500 
 34 H       -2.9410     5.6690     2.4330 H     1 <1>   0.1500 
 35 H       -5.2650     6.2910     2.4270 H     1 <1>   0.1500 
 36 H        1.2100     7.6740    -0.7360 H     1 <1>   0.3700 
 37 H        0.4970     9.9390     0.5340 H     1 <1>   0.0800 
 38 H        0.9470     8.9330     1.8920 H     1 <1>   0.0800 
 39 H       -7.1550     4.3820    -3.0750 H     1 <1>   0.0800 
 40 H       -7.5440     5.7220    -2.0060 H     1 <1>   0.0800 
 41 H       -7.2280     4.1130    -1.3350 H     1 <1>   0.0800 
 42 H       -8.4850     7.2290     1.0790 H     1 <1>   0.0800 
 43 H       -6.9000     7.8340     1.5460 H     1 <1>   0.0800 
 44 H       -7.5320     6.3370     2.2580 H     1 <1>   0.0800 
 45 H        3.7510     9.0940     2.3510 H     1 <1>   0.1500 
 46 H        6.4830     8.8010     1.1530 H     1 <1>   0.0800 
 47 H        6.2670    10.4980     1.5360 H     1 <1>   0.0800 
 48 H        6.7060    10.0150    -0.0860 H     1 <1>   0.0800 
@<TRIPOS>BOND
  1   1   2  2   
  2   2   3  am  
  3   2   4  1   
  4   3   5  1   
  5   3  28  1   
  6   4   6  1   
  7   4  29  1   
  8   4  30  1   
  9   5   7  1   
 10   5   8  1   
 11   5  31  1   
 12   6   8  1   
 13   7   9  ar  
 14   7  10  ar  
 15   8  11  1   
 16   8  32  1   
 17   9  12  ar  
 18   9  33  1   
 19  10  13  ar  
 20  10  34  1   
 21  11  14  2   
 22  11  15  am  
 23  12  16  1   
 24  12  17  ar  
 25  13  17  ar  
 26  13  35  1   
 27  15  18  1   
 28  15  36  1   
 29  16  19  1   
 30  17  20  1   
 31  18  21  1   
 32  18  37  1   
 33  18  38  1   
 34  19  39  1   
 35  19  40  1   
 36  19  41  1   
 37  20  22  1   
 38  21  23  1   
 39  21  24  2   
 40  22  42  1   
 41  22  43  1   
 42  22  44  1   
 43  23  25  1   
 44  24  26  1   
 45  24  45  1   
 46  25  26  2   
 47  26  27  1   
 48  27  46  1   
 49  27  47  1   
 50  27  48  1   
@<TRIPOS>SUBSTRUCTURE
  1 ****   8 GROUP 4 **** **** 0

# MOE 2024.06 (io_trps.svl 2023.06)
