@<TRIPOS>MOLECULE
NONAME
52 54 1 0 0 
SMALL
USER_CHARGES


@<TRIPOS>ATOM
  1 O       -0.5890     0.7280     0.4360 O.2   1 <1>  -0.5700 
  2 C       -1.6910     1.2290     0.3150 C.2   1 <1>   0.5440 
  3 N       -2.7740     0.4100     0.0980 N.am  1 <1>  -0.6600 
  4 C       -1.8110     2.6740     0.3710 C.ar  1 <1>   0.0860 
  5 C       -4.0340     0.8340    -0.5650 C.3   1 <1>   0.1400 
  6 C       -2.6480    -1.0710     0.0650 C.3   1 <1>   0.1400 
  7 C       -0.8670     3.4720    -0.2710 C.ar  1 <1>  -0.1500 
  8 C       -2.8300     3.3200     1.0700 C.ar  1 <1>  -0.1500 
  9 C       -4.5220    -0.4120    -1.2980 C.3   1 <1>   0.2000 
 10 C       -3.9800    -1.5840    -0.4870 C.3   1 <1>  -0.0800 
 11 C       -0.9190     4.8550    -0.2190 C.ar  1 <1>  -0.1440 
 12 C       -2.9070     4.7000     1.1130 C.ar  1 <1>  -0.1500 
 13 O       -5.9050    -0.4590    -1.3550 O.3   1 <1>  -0.6800 
 14 C       -3.8490    -2.8780    -1.3030 C.3   1 <1>   0.0210 
 15 C       -1.9540     5.4690     0.4700 C.ar  1 <1>  -0.1500 
 16 C        0.1590     5.6780    -0.8970 C.3   1 <1>   0.4860 
 17 C       -3.2260    -3.9810    -0.4700 C.2   1 <1>   0.1080 
 18 N        1.4430     5.4570    -0.1690 N.4   1 <1>  -0.9590 
 19 N       -3.7930    -4.4650     0.5910 N.2   1 <1>  -0.7070 
 20 C       -1.9990    -4.5810    -0.7310 C.2   1 <1>  -0.1500 
 21 C        1.3810     5.9810     1.2320 C.3   1 <1>   0.2630 
 22 C        2.6050     6.0290    -0.9140 C.3   1 <1>   0.2630 
 23 N       -2.9330    -5.3990     1.0400 N.pl3 1 <1>   0.3000 
 24 C       -1.8380    -5.4860     0.2560 C.2   1 <1>  -0.3320 
 25 C       -0.6860    -6.4430     0.5040 C.3   1 <1>  -0.0600 
 26 H       -4.7440     1.1310     0.1860 H     1 <1>   0.0800 
 27 H       -3.8570     1.6400    -1.2560 H     1 <1>   0.0800 
 28 H       -1.8320    -1.3420    -0.5840 H     1 <1>   0.0800 
 29 H       -2.4580    -1.4600     1.0510 H     1 <1>   0.0800 
 30 H       -0.0820     2.9690    -0.8110 H     1 <1>   0.1500 
 31 H       -3.5640     2.7300     1.5910 H     1 <1>   0.1500 
 32 H       -4.1380    -0.4140    -2.3040 H     1 <1>   0.0800 
 33 H       -4.6200    -1.7670     0.3590 H     1 <1>   0.0800 
 34 H       -3.7090     5.1750     1.6540 H     1 <1>   0.1500 
 35 H       -6.2740    -0.6730    -0.4760 H     1 <1>   0.4000 
 36 H       -3.2470    -2.7070    -2.1770 H     1 <1>   0.0800 
 37 H       -4.8230    -3.2000    -1.6250 H     1 <1>   0.0800 
 38 H       -2.0320     6.5430     0.5190 H     1 <1>   0.1500 
 39 H       -0.1050     6.7230    -0.8830 H     1 <1>   0.0800 
 40 H        0.2540     5.3610    -1.9230 H     1 <1>   0.0800 
 41 H        1.5580     4.4330    -0.1040 H     1 <1>   0.4500 
 42 H       -1.3400    -4.3510    -1.5490 H     1 <1>   0.1500 
 43 H        1.2230     7.0470     1.2300 H     1 <1>   0.0800 
 44 H        2.3010     5.7680     1.7520 H     1 <1>   0.0800 
 45 H        0.5720     5.5130     1.7710 H     1 <1>   0.0800 
 46 H        2.5060     7.0990    -1.0010 H     1 <1>   0.0800 
 47 H        2.6630     5.6050    -1.9030 H     1 <1>   0.0800 
 48 H        3.5240     5.8090    -0.3940 H     1 <1>   0.0800 
 49 H       -3.1230    -5.9580     1.8800 H     1 <1>   0.2700 
 50 H        0.0650    -6.3220    -0.2570 H     1 <1>   0.0800 
 51 H       -1.0360    -7.4600     0.4810 H     1 <1>   0.0800 
 52 H       -0.2380    -6.2460     1.4610 H     1 <1>   0.0800 
@<TRIPOS>BOND
  1   1   2  2   
  2   2   3  am  
  3   2   4  1   
  4   3   5  1   
  5   3   6  1   
  6   4   7  ar  
  7   4   8  ar  
  8   5   9  1   
  9   5  26  1   
 10   5  27  1   
 11   6  10  1   
 12   6  28  1   
 13   6  29  1   
 14   7  11  ar  
 15   7  30  1   
 16   8  12  ar  
 17   8  31  1   
 18   9  10  1   
 19   9  13  1   
 20   9  32  1   
 21  10  14  1   
 22  10  33  1   
 23  11  15  ar  
 24  11  16  1   
 25  12  15  ar  
 26  12  34  1   
 27  13  35  1   
 28  14  17  1   
 29  14  36  1   
 30  14  37  1   
 31  15  38  1   
 32  16  18  1   
 33  16  39  1   
 34  16  40  1   
 35  17  19  2   
 36  17  20  1   
 37  18  21  1   
 38  18  22  1   
 39  18  41  1   
 40  19  23  1   
 41  20  24  2   
 42  20  42  1   
 43  21  43  1   
 44  21  44  1   
 45  21  45  1   
 46  22  46  1   
 47  22  47  1   
 48  22  48  1   
 49  23  24  1   
 50  23  49  1   
 51  24  25  1   
 52  25  50  1   
 53  25  51  1   
 54  25  52  1   
@<TRIPOS>SUBSTRUCTURE
  1 ****   3 GROUP 4 **** **** 0

# MOE 2024.06 (io_trps.svl 2023.06)
