@<TRIPOS>MOLECULE
NONAME
52 54 1 0 0 
SMALL
USER_CHARGES


@<TRIPOS>ATOM
  1 O       -1.2600     0.7290     1.9400 O.2   1 <1>  -0.5700 
  2 C       -1.2650     1.4120     0.9330 C.2   1 <1>   0.5440 
  3 N       -2.0500     1.0140    -0.1320 N.am  1 <1>  -0.6600 
  4 C       -0.4640     2.6140     0.8990 C.ar  1 <1>   0.0860 
  5 C       -2.6430    -0.3570    -0.1420 C.3   1 <1>   0.1400 
  6 C       -2.4630     1.9400    -1.2290 C.3   1 <1>   0.1400 
  7 C       -0.5460     3.5390     1.9350 C.ar  1 <1>   0.1600 
  8 C        0.4130     2.9060    -0.1390 C.ar  1 <1>  -0.1500 
  9 C       -3.9500    -0.4080     0.6650 C.3   1 <1>   0.1400 
 10 C       -3.9670     1.9080    -1.5360 C.3   1 <1>  -0.1600 
 11 N        0.1110     4.6840     2.0060 N.ar  1 <1>  -0.6200 
 12 C        1.1160     4.0880    -0.0820 C.ar  1 <1>  -0.1500 
 13 N       -5.0780     0.2800    -0.0410 N.am  1 <1>  -0.6600 
 14 C       -4.8640     1.7320    -0.3060 C.3   1 <1>   0.1400 
 15 C        0.9340     4.9480     1.0010 C.ar  1 <1>   0.3930 
 16 C       -6.2390    -0.3300    -0.4510 C.2   1 <1>   0.5690 
 17 O        1.5860     6.1190     1.1120 O.3   1 <1>  -0.3630 
 18 O       -7.0580     0.2540    -1.1210 O.2   1 <1>  -0.5700 
 19 C       -6.5180    -1.7820    -0.0860 C.3   1 <1>  -0.0990 
 20 C        2.5650     6.5550     0.1950 C.3   1 <1>   0.0400 
 21 C       -7.9440    -2.2430    -0.4190 C.3   1 <1>   0.0200 
 22 C       -8.1230    -3.7060    -0.0420 C.2   1 <1>  -0.3320 
 23 N       -7.7320    -4.7610    -0.7930 N.pl3 1 <1>   0.3140 
 24 C       -8.6860    -4.2120     1.0760 C.2   1 <1>  -0.1500 
 25 N       -8.0170    -5.9250    -0.1860 N.2   1 <1>  -0.7070 
 26 C       -7.0940    -4.7390    -2.1160 C.3   1 <1>   0.0160 
 27 C       -8.5910    -5.5900     0.9290 C.2   1 <1>   0.1390 
 28 H       -1.9390    -1.0390     0.3050 H     1 <1>   0.0800 
 29 H       -2.8160    -0.6860    -1.1510 H     1 <1>   0.0800 
 30 H       -1.9120     1.6980    -2.1220 H     1 <1>   0.0800 
 31 H       -2.2110     2.9490    -0.9540 H     1 <1>   0.0800 
 32 H       -1.2050     3.3090     2.7550 H     1 <1>   0.1500 
 33 H        0.5350     2.2190    -0.9580 H     1 <1>   0.1500 
 34 H       -3.7950     0.0500     1.6270 H     1 <1>   0.0800 
 35 H       -4.1850    -1.4400     0.8410 H     1 <1>   0.0800 
 36 H       -4.1850     1.1370    -2.2540 H     1 <1>   0.0800 
 37 H       -4.2200     2.8410    -2.0050 H     1 <1>   0.0800 
 38 H        1.7970     4.3330    -0.8730 H     1 <1>   0.1500 
 39 H       -5.8130     2.2070    -0.4910 H     1 <1>   0.0800 
 40 H       -4.4300     2.2060     0.5590 H     1 <1>   0.0800 
 41 H       -6.3690    -1.9070     0.9700 H     1 <1>   0.0800 
 42 H       -5.8140    -2.4010    -0.6060 H     1 <1>   0.0800 
 43 H        2.9440     7.5010     0.5400 H     1 <1>   0.0800 
 44 H        2.1110     6.6750    -0.7720 H     1 <1>   0.0800 
 45 H        3.3620     5.8330     0.1640 H     1 <1>   0.0800 
 46 H       -8.1530    -2.1020    -1.4650 H     1 <1>   0.0800 
 47 H       -8.6450    -1.6440     0.1360 H     1 <1>   0.0800 
 48 H       -9.1190    -3.6950     1.9120 H     1 <1>   0.1500 
 49 H       -7.6570    -4.1030    -2.7710 H     1 <1>   0.0800 
 50 H       -7.0760    -5.7370    -2.5120 H     1 <1>   0.0800 
 51 H       -6.0900    -4.3740    -2.0170 H     1 <1>   0.0800 
 52 H       -8.9470    -6.3060     1.6490 H     1 <1>   0.1500 
@<TRIPOS>BOND
  1   1   2  2   
  2   2   3  am  
  3   2   4  1   
  4   3   5  1   
  5   3   6  1   
  6   4   7  ar  
  7   4   8  ar  
  8   5   9  1   
  9   5  28  1   
 10   5  29  1   
 11   6  10  1   
 12   6  30  1   
 13   6  31  1   
 14   7  11  ar  
 15   7  32  1   
 16   8  12  ar  
 17   8  33  1   
 18   9  13  1   
 19   9  34  1   
 20   9  35  1   
 21  10  14  1   
 22  10  36  1   
 23  10  37  1   
 24  11  15  ar  
 25  12  15  ar  
 26  12  38  1   
 27  13  14  1   
 28  13  16  am  
 29  14  39  1   
 30  14  40  1   
 31  15  17  1   
 32  16  18  2   
 33  16  19  1   
 34  17  20  1   
 35  19  21  1   
 36  19  41  1   
 37  19  42  1   
 38  20  43  1   
 39  20  44  1   
 40  20  45  1   
 41  21  22  1   
 42  21  46  1   
 43  21  47  1   
 44  22  23  1   
 45  22  24  2   
 46  23  25  1   
 47  23  26  1   
 48  24  27  1   
 49  24  48  1   
 50  25  27  2   
 51  26  49  1   
 52  26  50  1   
 53  26  51  1   
 54  27  52  1   
@<TRIPOS>SUBSTRUCTURE
  1 ****   9 GROUP 4 **** **** 0

# MOE 2024.06 (io_trps.svl 2023.06)
