@<TRIPOS>MOLECULE
NONAME
52 54 1 0 0 
SMALL
USER_CHARGES


@<TRIPOS>ATOM
  1 O       -0.6400    -3.2220     1.0250 O.2   1 <1>  -0.5700 
  2 C        0.2470    -2.8040     0.3070 C.2   1 <1>   0.6900 
  3 N        1.4440    -3.4760     0.2120 N.am  1 <1>  -0.4200 
  4 N        0.0270    -1.7200    -0.4950 N.am  1 <1>  -0.5390 
  5 C        2.2980    -3.2070    -0.8400 C.2   1 <1>   0.6160 
  6 C        1.8290    -4.4920     1.2360 C.3   1 <1>   0.1400 
  7 C        0.9110    -1.3390    -1.4840 C.2   1 <1>  -0.0290 
  8 O        3.2230    -3.9660    -1.0570 O.2   1 <1>  -0.5700 
  9 C        2.0300    -2.0750    -1.6640 C.2   1 <1>  -0.1360 
 10 C        1.4160    -5.9070     0.8010 C.3   1 <1>   0.3430 
 11 C        0.5470    -0.1160    -2.3020 C.3   1 <1>  -0.1020 
 12 N       -0.0430    -5.9670     0.4710 N.4   1 <1>  -0.9590 
 13 C       -0.7990    -6.9160     1.3640 C.3   1 <1>   0.3430 
 14 C       -0.2610    -6.2940    -0.9690 C.3   1 <1>   0.3430 
 15 C       -2.3300    -6.7340     1.3130 C.3   1 <1>   0.2090 
 16 C       -1.3750    -5.4410    -1.5810 C.3   1 <1>  -0.1600 
 17 N       -2.8440    -6.7240    -0.0880 N.pl3 1 <1>  -0.8380 
 18 C       -2.6800    -5.4240    -0.7840 C.3   1 <1>   0.2090 
 19 C       -4.0620    -7.3730    -0.2890 C.ar  1 <1>   0.1000 
 20 C       -4.1390    -8.5440    -1.0450 C.ar  1 <1>  -0.1430 
 21 C       -5.2250    -6.8560     0.2730 C.ar  1 <1>  -0.1500 
 22 C       -5.3620    -9.1710    -1.2200 C.ar  1 <1>  -0.1500 
 23 C       -2.8950    -9.1430    -1.6850 C.3   1 <1>  -0.0970 
 24 C       -6.4410    -7.4860     0.0960 C.ar  1 <1>  -0.1500 
 25 C       -6.5110    -8.6470    -0.6530 C.ar  1 <1>  -0.1500 
 26 H       -0.8420    -1.2070    -0.3260 H     1 <1>   0.3700 
 27 H        1.3700    -4.2520     2.1790 H     1 <1>   0.0800 
 28 H        2.8950    -4.4640     1.3830 H     1 <1>   0.0800 
 29 H        2.7610    -1.8540    -2.4200 H     1 <1>   0.1500 
 30 H        1.6460    -6.6000     1.5930 H     1 <1>   0.0800 
 31 H        2.0040    -6.1860    -0.0580 H     1 <1>   0.0800 
 32 H        0.4600     0.7440    -1.6630 H     1 <1>   0.0800 
 33 H       -0.3890    -0.2710    -2.8070 H     1 <1>   0.0800 
 34 H        1.3030     0.0850    -3.0400 H     1 <1>   0.0800 
 35 H       -0.4450    -5.0220     0.6310 H     1 <1>   0.4500 
 36 H       -0.4830    -6.7810     2.3840 H     1 <1>   0.0800 
 37 H       -0.5710    -7.9310     1.0820 H     1 <1>   0.0800 
 38 H       -0.5280    -7.3350    -1.0630 H     1 <1>   0.0800 
 39 H        0.6460    -6.1290    -1.5290 H     1 <1>   0.0800 
 40 H       -2.6030    -5.8190     1.8110 H     1 <1>   0.0800 
 41 H       -2.7920    -7.5440     1.8530 H     1 <1>   0.0800 
 42 H       -1.5910    -5.8420    -2.5550 H     1 <1>   0.0800 
 43 H       -1.0340    -4.4340    -1.7320 H     1 <1>   0.0800 
 44 H       -3.5100    -5.2540    -1.4520 H     1 <1>   0.0800 
 45 H       -2.6680    -4.6210    -0.0660 H     1 <1>   0.0800 
 46 H       -5.1750    -5.9540     0.8520 H     1 <1>   0.1500 
 47 H       -5.4320   -10.0730    -1.8010 H     1 <1>   0.1500 
 48 H       -2.4830    -8.4450    -2.3910 H     1 <1>   0.0800 
 49 H       -3.1270   -10.0560    -2.2020 H     1 <1>   0.0800 
 50 H       -2.1630    -9.3530    -0.9280 H     1 <1>   0.0800 
 51 H       -7.3340    -7.0770     0.5360 H     1 <1>   0.1500 
 52 H       -7.4550    -9.1420    -0.7950 H     1 <1>   0.1500 
@<TRIPOS>BOND
  1   1   2  2   
  2   2   3  am  
  3   2   4  am  
  4   3   5  am  
  5   3   6  1   
  6   4   7  1   
  7   4  26  1   
  8   5   8  2   
  9   5   9  1   
 10   6  10  1   
 11   6  27  1   
 12   6  28  1   
 13   7   9  2   
 14   7  11  1   
 15   9  29  1   
 16  10  12  1   
 17  10  30  1   
 18  10  31  1   
 19  11  32  1   
 20  11  33  1   
 21  11  34  1   
 22  12  13  1   
 23  12  14  1   
 24  12  35  1   
 25  13  15  1   
 26  13  36  1   
 27  13  37  1   
 28  14  16  1   
 29  14  38  1   
 30  14  39  1   
 31  15  17  1   
 32  15  40  1   
 33  15  41  1   
 34  16  18  1   
 35  16  42  1   
 36  16  43  1   
 37  17  18  1   
 38  17  19  1   
 39  18  44  1   
 40  18  45  1   
 41  19  20  ar  
 42  19  21  ar  
 43  20  22  ar  
 44  20  23  1   
 45  21  24  ar  
 46  21  46  1   
 47  22  25  ar  
 48  22  47  1   
 49  23  48  1   
 50  23  49  1   
 51  23  50  1   
 52  24  25  ar  
 53  24  51  1   
 54  25  52  1   
@<TRIPOS>SUBSTRUCTURE
  1 ****  16 GROUP 4 **** **** 0

# MOE 2024.06 (io_trps.svl 2023.06)
