@<TRIPOS>MOLECULE
NONAME
40 41 1 0 0 
SMALL
USER_CHARGES


@<TRIPOS>ATOM
  1 O        0.4120     0.0730     1.0160 O.2   1 <1>  -0.5700 
  2 C        1.3130     0.5640     0.3600 C.2   1 <1>   0.5440 
  3 N        1.0740     1.7490    -0.2880 N.am  1 <1>  -0.7300 
  4 C        2.6090    -0.0660     0.2580 C.ar  1 <1>   0.0860 
  5 C       -0.2030     2.5080    -0.2590 C.3   1 <1>   0.0600 
  6 C        2.7410    -1.4590     0.0900 C.ar  1 <1>   0.4100 
  7 C        3.7750     0.6890     0.3150 C.ar  1 <1>  -0.1500 
  8 N        3.9120    -2.0850    -0.0300 N.ar  1 <1>  -0.6200 
  9 N        1.6270    -2.2620     0.0330 N.pl3 1 <1>  -0.8690 
 10 C        4.9820     0.0390     0.1950 C.ar  1 <1>  -0.1500 
 11 C        4.9920    -1.3330     0.0250 C.ar  1 <1>   0.1600 
 12 C        1.6600    -3.7280     0.1790 C.3   1 <1>   0.2090 
 13 C        0.2370    -4.2620     0.0200 C.3   1 <1>  -0.1600 
 14 C        0.1460    -5.7890     0.1960 C.3   1 <1>  -0.0800 
 15 C        0.9430    -6.5460    -0.8840 C.3   1 <1>   0.1200 
 16 C       -1.3260    -6.2330     0.1710 C.3   1 <1>  -0.1600 
 17 O        0.7820    -7.9230    -0.7170 O.3   1 <1>  -0.5600 
 18 C       -1.4150    -7.7630     0.2050 C.3   1 <1>  -0.1600 
 19 C       -0.5240    -8.3830    -0.8760 C.3   1 <1>   0.1200 
 20 H        1.7820     2.1010    -0.9360 H     1 <1>   0.3700 
 21 H       -0.8760     2.0890     0.4700 H     1 <1>   0.0800 
 22 H       -0.6730     2.4660    -1.2270 H     1 <1>   0.0800 
 23 H       -0.0110     3.5350    -0.0010 H     1 <1>   0.0800 
 24 H        3.7350     1.7540     0.4580 H     1 <1>   0.1500 
 25 H        0.7730    -1.8140     0.4020 H     1 <1>   0.4000 
 26 H        5.9080     0.5830     0.2340 H     1 <1>   0.1500 
 27 H        5.9390    -1.8360    -0.0700 H     1 <1>   0.1500 
 28 H        2.0530    -3.9800     1.1500 H     1 <1>   0.0800 
 29 H        2.3100    -4.1390    -0.5750 H     1 <1>   0.0800 
 30 H       -0.1310    -3.9890    -0.9540 H     1 <1>   0.0800 
 31 H       -0.3850    -3.7910     0.7610 H     1 <1>   0.0800 
 32 H        0.5650    -6.0470     1.1550 H     1 <1>   0.0800 
 33 H        1.9950    -6.3390    -0.8010 H     1 <1>   0.0800 
 34 H        0.6120    -6.2800    -1.8730 H     1 <1>   0.0800 
 35 H       -1.7940    -5.8750    -0.7290 H     1 <1>   0.0800 
 36 H       -1.8540    -5.8180     1.0130 H     1 <1>   0.0800 
 37 H       -2.4340    -8.0740     0.0550 H     1 <1>   0.0800 
 38 H       -1.0960    -8.1280     1.1660 H     1 <1>   0.0800 
 39 H       -0.5080    -9.4550    -0.7850 H     1 <1>   0.0800 
 40 H       -0.8640    -8.1180    -1.8630 H     1 <1>   0.0800 
@<TRIPOS>BOND
  1   1   2  2   
  2   2   3  am  
  3   2   4  1   
  4   3   5  1   
  5   3  20  1   
  6   4   6  ar  
  7   4   7  ar  
  8   5  21  1   
  9   5  22  1   
 10   5  23  1   
 11   6   8  ar  
 12   6   9  1   
 13   7  10  ar  
 14   7  24  1   
 15   8  11  ar  
 16   9  12  1   
 17   9  25  1   
 18  10  11  ar  
 19  10  26  1   
 20  11  27  1   
 21  12  13  1   
 22  12  28  1   
 23  12  29  1   
 24  13  14  1   
 25  13  30  1   
 26  13  31  1   
 27  14  15  1   
 28  14  16  1   
 29  14  32  1   
 30  15  17  1   
 31  15  33  1   
 32  15  34  1   
 33  16  18  1   
 34  16  35  1   
 35  16  36  1   
 36  17  19  1   
 37  18  19  1   
 38  18  37  1   
 39  18  38  1   
 40  19  39  1   
 41  19  40  1   
@<TRIPOS>SUBSTRUCTURE
  1 ****   9 GROUP 4 **** **** 0

# MOE 2024.06 (io_trps.svl 2023.06)
