@<TRIPOS>MOLECULE
NONAME
42 45 1 0 0 
SMALL
USER_CHARGES


@<TRIPOS>ATOM
  1 O       -0.4600     0.1020     2.1340 O.2   1 <1>  -0.5700 
  2 C       -1.3140     0.7040     1.5020 C.2   1 <1>   0.5440 
  3 N       -2.5760     0.1310     1.4500 N.am  1 <1>  -0.6600 
  4 C       -0.9710     1.9680     0.8520 C.ar  1 <1>   0.3960 
  5 C       -2.7400    -1.3500     1.3900 C.3   1 <1>   0.1400 
  6 C       -3.8020     0.8460     0.9650 C.3   1 <1>   0.1400 
  7 N       -1.5290     2.2860    -0.3200 N.ar  1 <1>  -0.6200 
  8 C       -0.0540     2.8120     1.4850 C.ar  1 <1>   0.1600 
  9 C       -3.2160    -1.7740    -0.0140 C.3   1 <1>   0.3440 
 10 C       -4.2260     0.3180    -0.4260 C.3   1 <1>   0.2950 
 11 C       -1.1650     3.4880    -0.7700 C.ar  1 <1>   0.1390 
 12 N        0.3440     4.0070     1.0450 N.ar  1 <1>  -0.6200 
 13 O       -4.3850    -1.0760    -0.3630 O.3   1 <1>  -0.5600 
 14 C       -3.4850    -3.2760    -0.0570 C.ar  1 <1>  -0.1440 
 15 C       -5.5530     0.8880    -0.9590 C.3   1 <1>  -0.1950 
 16 O       -1.6940     3.8730    -1.8340 O.3   1 <1>  -0.8290 
 17 C       -0.2390     4.3120    -0.0910 C.ar  1 <1>   0.1600 
 18 C       -4.7210    -3.8010     0.2960 C.ar  1 <1>  -0.1500 
 19 C       -2.4710    -4.1420    -0.4420 C.ar  1 <1>  -0.1500 
 20 C       -5.9610     2.3160    -0.7640 C.3   1 <1>  -0.2000 
 21 C       -6.7440     1.2110    -0.1080 C.3   1 <1>  -0.2000 
 22 C       -4.9400    -5.1680     0.2670 C.ar  1 <1>  -0.1500 
 23 C       -2.6880    -5.5090    -0.4720 C.ar  1 <1>  -0.1500 
 24 C       -3.9220    -6.0230    -0.1170 C.ar  1 <1>  -0.1500 
 25 H       -1.8090    -1.8430     1.6080 H     1 <1>   0.0800 
 26 H       -3.4610    -1.6630     2.1230 H     1 <1>   0.0800 
 27 H       -4.5970     0.6750     1.6660 H     1 <1>   0.0800 
 28 H       -3.6360     1.9060     0.9210 H     1 <1>   0.0800 
 29 H        0.3720     2.4800     2.4140 H     1 <1>   0.1500 
 30 H       -2.4590    -1.5280    -0.7380 H     1 <1>   0.0800 
 31 H       -3.4490     0.5430    -1.1390 H     1 <1>   0.0800 
 32 H       -5.7500     0.4910    -1.9390 H     1 <1>   0.1000 
 33 H       -0.0180     5.2510    -0.5610 H     1 <1>   0.1500 
 34 H       -5.5190    -3.1410     0.5910 H     1 <1>   0.1500 
 35 H       -1.5060    -3.7550    -0.7200 H     1 <1>   0.1500 
 36 H       -5.3390     2.9610    -0.1670 H     1 <1>   0.1000 
 37 H       -6.3810     2.8360    -1.6070 H     1 <1>   0.1000 
 38 H       -7.7190     0.9660    -0.4910 H     1 <1>   0.1000 
 39 H       -6.6880     1.1040     0.9600 H     1 <1>   0.1000 
 40 H       -5.9020    -5.5630     0.5410 H     1 <1>   0.1500 
 41 H       -1.8960    -6.1730    -0.7720 H     1 <1>   0.1500 
 42 H       -4.0920    -7.0850    -0.1400 H     1 <1>   0.1500 
@<TRIPOS>BOND
  1   1   2  2   
  2   2   3  am  
  3   2   4  1   
  4   3   5  1   
  5   3   6  1   
  6   4   7  ar  
  7   4   8  ar  
  8   5   9  1   
  9   5  25  1   
 10   5  26  1   
 11   6  10  1   
 12   6  27  1   
 13   6  28  1   
 14   7  11  ar  
 15   8  12  ar  
 16   8  29  1   
 17   9  13  1   
 18   9  14  1   
 19   9  30  1   
 20  10  13  1   
 21  10  15  1   
 22  10  31  1   
 23  11  16  1   
 24  11  17  ar  
 25  12  17  ar  
 26  14  18  ar  
 27  14  19  ar  
 28  15  20  1   
 29  15  21  1   
 30  15  32  1   
 31  17  33  1   
 32  18  22  ar  
 33  18  34  1   
 34  19  23  ar  
 35  19  35  1   
 36  20  21  1   
 37  20  36  1   
 38  20  37  1   
 39  21  38  1   
 40  21  39  1   
 41  22  24  ar  
 42  22  40  1   
 43  23  24  ar  
 44  23  41  1   
 45  24  42  1   
@<TRIPOS>SUBSTRUCTURE
  1 ****   3 GROUP 4 **** **** 0

# MOE 2024.06 (io_trps.svl 2023.06)
