@<TRIPOS>MOLECULE
NONAME
52 53 1 0 0 
SMALL
USER_CHARGES


@<TRIPOS>ATOM
  1 S        0.5870     0.5700     0.4120 S.o2  1 <1>   1.3330 
  2 O       -0.8090     0.6930     0.7660 O.2   1 <1>  -0.6500 
  3 O        1.5760     0.3740     1.4480 O.2   1 <1>  -0.6500 
  4 N        0.7480    -0.6970    -0.7070 N.am  1 <1>  -0.8490 
  5 C        1.0320     2.0110    -0.5530 C.3   1 <1>  -0.0550 
  6 C        2.1210    -1.1990    -0.8270 C.3   1 <1>   0.1160 
  7 C       -0.1660    -1.8080    -0.4230 C.3   1 <1>   0.1160 
  8 C        0.8530     3.3340     0.2120 C.3   1 <1>  -0.0800 
  9 C        1.1680     4.5480    -0.6580 C.3   1 <1>   0.2000 
 10 C        1.7740     3.4930     1.4230 C.3   1 <1>   0.1400 
 11 O        0.0520     4.8940    -1.4020 O.3   1 <1>  -0.6800 
 12 C        1.5760     5.6590     0.3090 C.3   1 <1>   0.1400 
 13 N        1.9810     4.9530     1.5520 N.am  1 <1>  -0.6600 
 14 C        2.5540     5.5180     2.6610 C.2   1 <1>   0.5690 
 15 O        2.9210     4.8390     3.5900 O.2   1 <1>  -0.5700 
 16 C        2.7400     7.0260     2.7660 C.3   1 <1>   0.0440 
 17 C        3.7450     7.5720     1.7570 C.ar  1 <1>  -0.1440 
 18 C        3.4080     8.6280     0.9270 C.ar  1 <1>  -0.1500 
 19 C        5.0060     7.0110     1.6550 C.ar  1 <1>  -0.1500 
 20 C        4.3030     9.1240    -0.0070 C.ar  1 <1>   0.0820 
 21 C        5.9120     7.4880     0.7240 C.ar  1 <1>  -0.1500 
 22 O        3.8290    10.1650    -0.7490 O.3   1 <1>  -0.3620 
 23 C        5.5760     8.5390    -0.1260 C.ar  1 <1>   0.0820 
 24 C        4.6890    11.1670    -1.2430 C.3   1 <1>   0.0400 
 25 O        6.4500     8.9910    -1.0740 O.3   1 <1>  -0.3630 
 26 C        7.6870     8.3590    -1.3180 C.3   1 <1>   0.0400 
 27 H        2.0490     1.9230    -0.8800 H     1 <1>   0.0800 
 28 H        0.4090     2.0400    -1.4270 H     1 <1>   0.0800 
 29 H        2.1790    -1.9330    -1.6120 H     1 <1>   0.0800 
 30 H        2.4400    -1.6490     0.0990 H     1 <1>   0.0800 
 31 H        2.7920    -0.3920    -1.0670 H     1 <1>   0.0800 
 32 H       -0.0490    -2.5850    -1.1590 H     1 <1>   0.0800 
 33 H       -1.1860    -1.4640    -0.4570 H     1 <1>   0.0800 
 34 H        0.0300    -2.2130     0.5560 H     1 <1>   0.0800 
 35 H       -0.1600     3.4040     0.5720 H     1 <1>   0.0800 
 36 H        1.9790     4.3470    -1.3370 H     1 <1>   0.0800 
 37 H        2.7280     3.0200     1.2550 H     1 <1>   0.0800 
 38 H        1.3320     3.0870     2.3180 H     1 <1>   0.0800 
 39 H       -0.7180     5.0410    -0.8190 H     1 <1>   0.4000 
 40 H        0.7490     6.3140     0.5200 H     1 <1>   0.0800 
 41 H        2.4010     6.2160    -0.0980 H     1 <1>   0.0800 
 42 H        1.7830     7.4950     2.6380 H     1 <1>   0.0800 
 43 H        3.0840     7.2620     3.7570 H     1 <1>   0.0800 
 44 H        2.4390     9.0890     0.9930 H     1 <1>   0.1500 
 45 H        5.2860     6.1940     2.2990 H     1 <1>   0.1500 
 46 H        6.8750     7.0180     0.6810 H     1 <1>   0.1500 
 47 H        4.0970    12.0330    -1.4750 H     1 <1>   0.0800 
 48 H        5.1660    10.8040    -2.1360 H     1 <1>   0.0800 
 49 H        5.4190    11.4070    -0.4900 H     1 <1>   0.0800 
 50 H        8.1640     8.8640    -2.1370 H     1 <1>   0.0800 
 51 H        7.5090     7.3300    -1.5780 H     1 <1>   0.0800 
 52 H        8.2990     8.4360    -0.4360 H     1 <1>   0.0800 
@<TRIPOS>BOND
  1   1   2  2   
  2   1   3  2   
  3   1   4  am  
  4   1   5  1   
  5   4   6  1   
  6   4   7  1   
  7   5   8  1   
  8   5  27  1   
  9   5  28  1   
 10   6  29  1   
 11   6  30  1   
 12   6  31  1   
 13   7  32  1   
 14   7  33  1   
 15   7  34  1   
 16   8   9  1   
 17   8  10  1   
 18   8  35  1   
 19   9  11  1   
 20   9  12  1   
 21   9  36  1   
 22  10  13  1   
 23  10  37  1   
 24  10  38  1   
 25  11  39  1   
 26  12  13  1   
 27  12  40  1   
 28  12  41  1   
 29  13  14  am  
 30  14  15  2   
 31  14  16  1   
 32  16  17  1   
 33  16  42  1   
 34  16  43  1   
 35  17  18  ar  
 36  17  19  ar  
 37  18  20  ar  
 38  18  44  1   
 39  19  21  ar  
 40  19  45  1   
 41  20  22  1   
 42  20  23  ar  
 43  21  23  ar  
 44  21  46  1   
 45  22  24  1   
 46  23  25  1   
 47  24  47  1   
 48  24  48  1   
 49  24  49  1   
 50  25  26  1   
 51  26  50  1   
 52  26  51  1   
 53  26  52  1   
@<TRIPOS>SUBSTRUCTURE
  1 ****  12 GROUP 4 **** **** 0

# MOE 2024.06 (io_trps.svl 2023.06)
