@<TRIPOS>MOLECULE
NONAME
42 44 1 0 0 
SMALL
USER_CHARGES


@<TRIPOS>ATOM
  1 CL       0.5060     1.7300    -2.5320 Cl    1 <1>  -0.1770 
  2 C        1.8480     1.9540    -1.4320 C.ar  1 <1>   0.1770 
  3 C        2.5880     0.8740    -0.9800 C.ar  1 <1>   0.1900 
  4 C        2.1720     3.2300    -1.0130 C.ar  1 <1>  -0.1500 
  5 F        2.2870    -0.3380    -1.3740 F     1 <1>  -0.1900 
  6 C        3.6520     1.0410    -0.1120 C.ar  1 <1>  -0.1500 
  7 C        3.2370     3.4190    -0.1420 C.ar  1 <1>   0.0830 
  8 C        3.9760     2.3220     0.3080 C.ar  1 <1>  -0.1500 
  9 O        3.4940     4.6990     0.2230 O.3   1 <1>  -0.3630 
 10 C        4.5540     5.0140     1.1160 C.3   1 <1>   0.1810 
 11 C        4.6410     6.5130     1.3890 C.2   1 <1>   0.5690 
 12 O        4.3690     6.8760     2.5120 O.2   1 <1>  -0.5700 
 13 N        5.0660     7.4070     0.4270 N.am  1 <1>  -0.6600 
 14 C        5.5320     8.7660     0.8500 C.3   1 <1>   0.1400 
 15 C        5.3140     7.0380    -1.0040 C.3   1 <1>   0.1400 
 16 C        7.0620     8.9710     0.7490 C.3   1 <1>   0.2200 
 17 C        6.7930     7.0700    -1.4430 C.3   1 <1>  -0.0190 
 18 N        7.4480     9.3410    -0.6430 N.am  1 <1>  -0.6600 
 19 C        7.9420     7.8140     1.2960 C.3   1 <1>   0.1200 
 20 C        7.2660     8.4850    -1.6900 C.2   1 <1>   0.5690 
 21 C        7.8110     6.3080    -0.5730 C.3   1 <1>   0.1200 
 22 C        7.9600    10.7280    -0.8380 C.3   1 <1>   0.0600 
 23 O        7.6560     6.5310     0.7960 O.3   1 <1>  -0.5600 
 24 O        7.4800     8.8130    -2.8330 O.2   1 <1>  -0.5700 
 25 H        1.6020     4.0730    -1.3560 H     1 <1>   0.1500 
 26 H        4.2090     0.1850     0.2250 H     1 <1>   0.1500 
 27 H        4.8030     2.4420     0.9840 H     1 <1>   0.1500 
 28 H        4.3760     4.5000     2.0430 H     1 <1>   0.0800 
 29 H        5.4800     4.6780     0.6880 H     1 <1>   0.0800 
 30 H        5.0310     9.5110     0.2580 H     1 <1>   0.0800 
 31 H        5.2480     8.9420     1.8720 H     1 <1>   0.0800 
 32 H        4.9310     6.0560    -1.2040 H     1 <1>   0.0800 
 33 H        4.7550     7.7150    -1.6280 H     1 <1>   0.0800 
 34 H        7.2830     9.8250     1.3650 H     1 <1>   0.0800 
 35 H        6.8220     6.5930    -2.4050 H     1 <1>   0.0800 
 36 H        7.7980     7.7560     2.3600 H     1 <1>   0.0800 
 37 H        8.9810     8.0240     1.1140 H     1 <1>   0.0800 
 38 H        8.8200     6.5660    -0.8490 H     1 <1>   0.0800 
 39 H        7.6820     5.2520    -0.7250 H     1 <1>   0.0800 
 40 H        8.8310    10.8850    -0.2260 H     1 <1>   0.0800 
 41 H        7.1990    11.4380    -0.5660 H     1 <1>   0.0800 
 42 H        8.2320    10.8950    -1.8660 H     1 <1>   0.0800 
@<TRIPOS>BOND
  1   1   2  1   
  2   2   3  ar  
  3   2   4  ar  
  4   3   5  1   
  5   3   6  ar  
  6   4   7  ar  
  7   4  25  1   
  8   6   8  ar  
  9   6  26  1   
 10   7   8  ar  
 11   7   9  1   
 12   8  27  1   
 13   9  10  1   
 14  10  11  1   
 15  10  28  1   
 16  10  29  1   
 17  11  12  2   
 18  11  13  am  
 19  13  14  1   
 20  13  15  1   
 21  14  16  1   
 22  14  30  1   
 23  14  31  1   
 24  15  17  1   
 25  15  32  1   
 26  15  33  1   
 27  16  18  1   
 28  16  19  1   
 29  16  34  1   
 30  17  20  1   
 31  17  21  1   
 32  17  35  1   
 33  18  20  am  
 34  18  22  1   
 35  19  23  1   
 36  19  36  1   
 37  19  37  1   
 38  20  24  2   
 39  21  23  1   
 40  21  38  1   
 41  21  39  1   
 42  22  40  1   
 43  22  41  1   
 44  22  42  1   
@<TRIPOS>SUBSTRUCTURE
  1 ****  10 GROUP 4 **** **** 0

# MOE 2024.06 (io_trps.svl 2023.06)
