@<TRIPOS>MOLECULE
NONAME
62 64 1 0 0 
SMALL
USER_CHARGES


@<TRIPOS>ATOM
  1 O       -1.5810     1.2250    -2.1670 O.2   1 <1>  -0.5700 
  2 C       -1.4690     1.6540    -1.0320 C.2   1 <1>   0.5440 
  3 N       -2.0700     0.9470    -0.0070 N.am  1 <1>  -0.6600 
  4 C       -0.7370     2.8850    -0.8020 C.ar  1 <1>   0.0860 
  5 C       -2.5370    -0.4470    -0.2470 C.3   1 <1>   0.1400 
  6 C       -2.4040     1.5590     1.3110 C.3   1 <1>   0.1400 
  7 C        0.2360     2.9830     0.1930 C.ar  1 <1>  -0.1500 
  8 C       -0.9860     4.0170    -1.5770 C.ar  1 <1>  -0.1500 
  9 C       -3.9220    -0.4590    -0.9150 C.3   1 <1>   0.1400 
 10 C       -3.8480     1.2880     1.7570 C.3   1 <1>  -0.1600 
 11 C        0.9180     4.1630     0.4300 C.ar  1 <1>  -0.1440 
 12 C       -0.3180     5.2110    -1.3650 C.ar  1 <1>  -0.1430 
 13 N       -5.0250    -0.0450     0.0180 N.am  1 <1>  -0.6600 
 14 C       -4.8720     1.3180     0.6170 C.3   1 <1>   0.1400 
 15 C        0.6330     5.2770    -0.3510 C.ar  1 <1>   0.0830 
 16 C        1.9680     4.2290     1.5300 C.3   1 <1>  -0.0970 
 17 C       -0.6370     6.4130    -2.2440 C.3   1 <1>  -0.0970 
 18 C       -6.1300    -0.8060     0.3110 C.2   1 <1>   0.5690 
 19 O        1.2880     6.4260    -0.1270 O.3   1 <1>  -0.5320 
 20 O       -6.9440    -0.4690     1.1420 O.2   1 <1>  -0.5700 
 21 C       -6.4210    -2.1340    -0.4140 C.3   1 <1>   0.4040 
 22 N       -7.8870    -2.5240    -0.3740 N.4   1 <1>  -0.9590 
 23 C       -8.1390    -3.9640    -0.6480 C.3   1 <1>   0.4230 
 24 C       -8.6850    -1.6100    -1.2530 C.3   1 <1>   0.2630 
 25 C       -9.6070    -4.3390    -0.3960 C.3   1 <1>  -0.1600 
 26 C       -7.3240    -4.8660     0.2820 C.3   1 <1>  -0.1600 
 27 C       -9.6110    -5.5440     0.5510 C.3   1 <1>  -0.1600 
 28 C       -8.1930    -6.0990     0.5040 C.3   1 <1>  -0.1600 
 29 H       -2.5560    -1.0010     0.6750 H     1 <1>   0.0800 
 30 H       -1.8340    -0.9330    -0.9040 H     1 <1>   0.0800 
 31 H       -2.2740     2.6270     1.2480 H     1 <1>   0.0800 
 32 H       -1.7200     1.1920     2.0570 H     1 <1>   0.0800 
 33 H        0.4550     2.1110     0.7820 H     1 <1>   0.1500 
 34 H       -1.7210     3.9400    -2.3590 H     1 <1>   0.1500 
 35 H       -4.0940    -1.4510    -1.2860 H     1 <1>   0.0800 
 36 H       -3.9070     0.2030    -1.7650 H     1 <1>   0.0800 
 37 H       -4.1100     2.0510     2.4670 H     1 <1>   0.0800 
 38 H       -3.9080     0.3500     2.2800 H     1 <1>   0.0800 
 39 H       -4.5750     2.0230    -0.1420 H     1 <1>   0.0800 
 40 H       -5.8180     1.6510     1.0090 H     1 <1>   0.0800 
 41 H        2.0730     3.2830     2.0290 H     1 <1>   0.0800 
 42 H        1.6900     4.9730     2.2540 H     1 <1>   0.0800 
 43 H        2.9190     4.5010     1.1070 H     1 <1>   0.0800 
 44 H       -1.3890     6.1670    -2.9720 H     1 <1>   0.0800 
 45 H        0.2460     6.7310    -2.7700 H     1 <1>   0.0800 
 46 H       -1.0060     7.2240    -1.6420 H     1 <1>   0.0800 
 47 H        1.0320     7.1310    -0.7440 H     1 <1>   0.4500 
 48 H       -5.8290    -2.8910     0.0680 H     1 <1>   0.0800 
 49 H       -6.0970    -2.0530    -1.4360 H     1 <1>   0.0800 
 50 H       -8.1790    -2.3280     0.6000 H     1 <1>   0.4500 
 51 H       -7.8920    -4.1990    -1.6710 H     1 <1>   0.0800 
 52 H       -8.4030    -1.7380    -2.2860 H     1 <1>   0.0800 
 53 H       -8.5160    -0.5820    -0.9710 H     1 <1>   0.0800 
 54 H       -9.7380    -1.8150    -1.1560 H     1 <1>   0.0800 
 55 H      -10.0590    -4.6230    -1.3300 H     1 <1>   0.0800 
 56 H      -10.1800    -3.5420     0.0430 H     1 <1>   0.0800 
 57 H       -7.1700    -4.3890     1.2360 H     1 <1>   0.0800 
 58 H       -6.3770    -5.1400    -0.1490 H     1 <1>   0.0800 
 59 H      -10.3390    -6.2850     0.2640 H     1 <1>   0.0800 
 60 H       -9.8300    -5.2160     1.5540 H     1 <1>   0.0800 
 61 H       -7.9350    -6.6240     1.4090 H     1 <1>   0.0800 
 62 H       -8.0960    -6.7730    -0.3310 H     1 <1>   0.0800 
@<TRIPOS>BOND
  1   1   2  2   
  2   2   3  am  
  3   2   4  1   
  4   3   5  1   
  5   3   6  1   
  6   4   7  ar  
  7   4   8  ar  
  8   5   9  1   
  9   5  29  1   
 10   5  30  1   
 11   6  10  1   
 12   6  31  1   
 13   6  32  1   
 14   7  11  ar  
 15   7  33  1   
 16   8  12  ar  
 17   8  34  1   
 18   9  13  1   
 19   9  35  1   
 20   9  36  1   
 21  10  14  1   
 22  10  37  1   
 23  10  38  1   
 24  11  15  ar  
 25  11  16  1   
 26  12  15  ar  
 27  12  17  1   
 28  13  14  1   
 29  13  18  am  
 30  14  39  1   
 31  14  40  1   
 32  15  19  1   
 33  16  41  1   
 34  16  42  1   
 35  16  43  1   
 36  17  44  1   
 37  17  45  1   
 38  17  46  1   
 39  18  20  2   
 40  18  21  1   
 41  19  47  1   
 42  21  22  1   
 43  21  48  1   
 44  21  49  1   
 45  22  23  1   
 46  22  24  1   
 47  22  50  1   
 48  23  25  1   
 49  23  26  1   
 50  23  51  1   
 51  24  52  1   
 52  24  53  1   
 53  24  54  1   
 54  25  27  1   
 55  25  55  1   
 56  25  56  1   
 57  26  28  1   
 58  26  57  1   
 59  26  58  1   
 60  27  28  1   
 61  27  59  1   
 62  27  60  1   
 63  28  61  1   
 64  28  62  1   
@<TRIPOS>SUBSTRUCTURE
  1 ****   9 GROUP 4 **** **** 0

# MOE 2024.06 (io_trps.svl 2023.06)
