@<TRIPOS>MOLECULE
NONAME
48 50 1 0 0 
SMALL
USER_CHARGES


@<TRIPOS>ATOM
  1 CL      -5.6360    -4.5510     3.9550 Cl    1 <1>  -0.1240 
  2 C       -5.1810    -3.4200     2.7080 C.2   1 <1>   0.2640 
  3 O       -5.3000    -3.7990     1.4540 O.3   1 <1>  -0.2800 
  4 C       -4.7140    -2.1620     2.8160 C.2   1 <1>  -0.1500 
  5 C       -4.9050    -2.7770     0.7100 C.2   1 <1>  -0.0400 
  6 C       -4.5320    -1.7350     1.4910 C.2   1 <1>  -0.1500 
  7 C       -4.9520    -2.9360    -0.8000 C.3   1 <1>   0.5230 
  8 N       -6.2870    -3.4720    -1.1730 N.4   1 <1>  -0.9590 
  9 C       -6.3440    -4.0240    -2.5620 C.3   1 <1>   0.3430 
 10 C       -7.4260    -2.5820    -0.8130 C.3   1 <1>   0.3430 
 11 C       -7.5980    -4.8990    -2.7900 C.3   1 <1>   0.1400 
 12 C       -8.5090    -3.3790    -0.0740 C.3   1 <1>  -0.1600 
 13 N       -8.2200    -5.3790    -1.5110 N.am  1 <1>  -0.6600 
 14 C       -9.2160    -4.4580    -0.9070 C.3   1 <1>   0.1400 
 15 C       -7.6040    -6.3490    -0.7510 C.2   1 <1>   0.7160 
 16 O       -6.3860    -6.3780    -0.7860 O.2   1 <1>  -0.5700 
 17 C       -8.3420    -7.2320     0.1140 C.2   1 <1>  -0.0860 
 18 C       -7.8040    -7.9180     1.2040 C.2   1 <1>   0.1390 
 19 C       -9.6480    -7.6240     0.1180 C.2   1 <1>  -0.3020 
 20 N       -8.6770    -8.6440     1.8260 N.2   1 <1>  -0.7070 
 21 N       -9.8280    -8.4680     1.1490 N.pl3 1 <1>   0.3140 
 22 C      -11.1040    -9.1480     1.5210 C.3   1 <1>   0.1760 
 23 C      -11.5470    -8.7370     2.9320 C.3   1 <1>  -0.2400 
 24 C      -10.9550   -10.6730     1.4170 C.3   1 <1>  -0.2400 
 25 H       -4.5180    -1.5940     3.7080 H     1 <1>   0.1500 
 26 H       -4.1640    -0.7620     1.2090 H     1 <1>   0.1500 
 27 H       -4.1860    -3.6330    -1.0970 H     1 <1>   0.0800 
 28 H       -4.7710    -1.9900    -1.2830 H     1 <1>   0.0800 
 29 H       -6.3840    -4.3170    -0.5740 H     1 <1>   0.4500 
 30 H       -5.4800    -4.6500    -2.7220 H     1 <1>   0.0800 
 31 H       -6.3140    -3.2310    -3.2900 H     1 <1>   0.0800 
 32 H       -7.8390    -2.1240    -1.6980 H     1 <1>   0.0800 
 33 H       -7.0810    -1.7960    -0.1600 H     1 <1>   0.0800 
 34 H       -7.3200    -5.7510    -3.3870 H     1 <1>   0.0800 
 35 H       -8.3240    -4.3430    -3.3560 H     1 <1>   0.0800 
 36 H       -9.2580    -2.6850     0.2630 H     1 <1>   0.0800 
 37 H       -8.0880    -3.8230     0.8110 H     1 <1>   0.0800 
 38 H       -9.8070    -4.0030    -1.6840 H     1 <1>   0.0800 
 39 H       -9.8890    -5.0080    -0.2720 H     1 <1>   0.0800 
 40 H       -6.7700    -7.8510     1.5020 H     1 <1>   0.1500 
 41 H      -10.4360    -7.3520    -0.5580 H     1 <1>   0.1500 
 42 H      -11.8560    -8.8310     0.8210 H     1 <1>   0.0800 
 43 H      -10.8130    -9.0460     3.6570 H     1 <1>   0.0800 
 44 H      -12.4860    -9.2000     3.1770 H     1 <1>   0.0800 
 45 H      -11.6660    -7.6700     2.9880 H     1 <1>   0.0800 
 46 H      -10.2120   -11.0220     2.1130 H     1 <1>   0.0800 
 47 H      -10.6590   -10.9490     0.4210 H     1 <1>   0.0800 
 48 H      -11.8900   -11.1540     1.6430 H     1 <1>   0.0800 
@<TRIPOS>BOND
  1   1   2  1   
  2   2   3  1   
  3   2   4  2   
  4   3   5  1   
  5   4   6  1   
  6   4  25  1   
  7   5   6  2   
  8   5   7  1   
  9   6  26  1   
 10   7   8  1   
 11   7  27  1   
 12   7  28  1   
 13   8   9  1   
 14   8  10  1   
 15   8  29  1   
 16   9  11  1   
 17   9  30  1   
 18   9  31  1   
 19  10  12  1   
 20  10  32  1   
 21  10  33  1   
 22  11  13  1   
 23  11  34  1   
 24  11  35  1   
 25  12  14  1   
 26  12  36  1   
 27  12  37  1   
 28  13  14  1   
 29  13  15  am  
 30  14  38  1   
 31  14  39  1   
 32  15  16  2   
 33  15  17  1   
 34  17  18  1   
 35  17  19  2   
 36  18  20  2   
 37  18  40  1   
 38  19  21  1   
 39  19  41  1   
 40  20  21  1   
 41  21  22  1   
 42  22  23  1   
 43  22  24  1   
 44  22  42  1   
 45  23  43  1   
 46  23  44  1   
 47  23  45  1   
 48  24  46  1   
 49  24  47  1   
 50  24  48  1   
@<TRIPOS>SUBSTRUCTURE
  1 ****  15 GROUP 4 **** **** 0

# MOE 2024.06 (io_trps.svl 2023.06)
