@<TRIPOS>MOLECULE
NONAME
51 52 1 0 0 
SMALL
USER_CHARGES


@<TRIPOS>ATOM
  1 S       -0.1140     0.3970     1.4130 S.o2  1 <1>   1.3330 
  2 O        1.2130     0.9370     1.5950 O.2   1 <1>  -0.6500 
  3 O       -1.1130     0.5260     2.4490 O.2   1 <1>  -0.6500 
  4 N       -0.7560     1.0250    -0.0290 N.am  1 <1>  -0.8490 
  5 C        0.0190    -1.3560     1.0430 C.3   1 <1>  -0.0550 
  6 C        0.2750     1.3630    -1.0200 C.3   1 <1>   0.1160 
  7 C       -1.5970     2.2040     0.2130 C.3   1 <1>   0.1160 
  8 C       -1.3440    -2.0190     0.7580 C.3   1 <1>  -0.1600 
  9 C       -1.1990    -3.5130     0.4770 C.3   1 <1>   0.3430 
 10 N       -2.5420    -4.1350     0.3470 N.4   1 <1>  -0.9590 
 11 C       -3.3760    -3.6810    -0.8040 C.3   1 <1>   0.3430 
 12 C       -2.5080    -5.6270     0.2620 C.3   1 <1>   0.3430 
 13 C       -4.4430    -4.7680    -0.9230 C.3   1 <1>   0.2000 
 14 C       -3.6270    -6.0430    -0.7050 C.3   1 <1>  -0.0800 
 15 O       -5.3270    -4.6270     0.1510 O.3   1 <1>  -0.5600 
 16 C       -4.4340    -7.2610    -0.2150 C.3   1 <1>   0.0200 
 17 C       -6.4880    -3.9020    -0.1240 C.3   1 <1>   0.0400 
 18 C       -3.5450    -8.4860    -0.1110 C.2   1 <1>  -0.0400 
 19 O       -2.5590    -8.5070     0.7460 O.3   1 <1>  -0.0190 
 20 C       -3.5430    -9.6560    -0.7680 C.2   1 <1>  -0.1500 
 21 N       -1.8870    -9.6160     0.6870 N.2   1 <1>  -0.4100 
 22 C       -2.4610   -10.3340    -0.2110 C.2   1 <1>   0.1080 
 23 C       -2.0130   -11.7240    -0.6040 C.3   1 <1>  -0.0590 
 24 H        0.6670    -1.4840     0.1970 H     1 <1>   0.0800 
 25 H        0.4780    -1.8420     1.8820 H     1 <1>   0.0800 
 26 H       -0.1850     1.6760    -1.9420 H     1 <1>   0.0800 
 27 H        0.8940     0.5060    -1.2220 H     1 <1>   0.0800 
 28 H        0.9020     2.1600    -0.6540 H     1 <1>   0.0800 
 29 H       -1.9930     2.5800    -0.7150 H     1 <1>   0.0800 
 30 H       -1.0230     2.9810     0.6920 H     1 <1>   0.0800 
 31 H       -2.4250     1.9450     0.8510 H     1 <1>   0.0800 
 32 H       -1.9770    -1.8750     1.6170 H     1 <1>   0.0800 
 33 H       -1.7930    -1.5260    -0.0850 H     1 <1>   0.0800 
 34 H       -0.6690    -3.9770     1.2940 H     1 <1>   0.0800 
 35 H       -0.6300    -3.6660    -0.4260 H     1 <1>   0.0800 
 36 H       -3.1070    -3.9220     1.1850 H     1 <1>   0.4500 
 37 H       -3.8180    -2.7140    -0.6280 H     1 <1>   0.0800 
 38 H       -2.7840    -3.6540    -1.7030 H     1 <1>   0.0800 
 39 H       -1.5580    -5.9780    -0.1080 H     1 <1>   0.0800 
 40 H       -2.6790    -6.0530     1.2380 H     1 <1>   0.0800 
 41 H       -4.9770    -4.7630    -1.8590 H     1 <1>   0.0800 
 42 H       -3.1620    -6.3060    -1.6390 H     1 <1>   0.0800 
 43 H       -5.2340    -7.4650    -0.9050 H     1 <1>   0.0800 
 44 H       -4.8720    -7.0690     0.7490 H     1 <1>   0.0800 
 45 H       -7.0750    -3.8530     0.7770 H     1 <1>   0.0800 
 46 H       -7.0530    -4.4080    -0.8890 H     1 <1>   0.0800 
 47 H       -6.2300    -2.9060    -0.4400 H     1 <1>   0.0800 
 48 H       -4.1940   -10.0210    -1.5400 H     1 <1>   0.1500 
 49 H       -2.8090   -12.4250    -0.4320 H     1 <1>   0.0800 
 50 H       -1.1610   -12.0160    -0.0170 H     1 <1>   0.0800 
 51 H       -1.7430   -11.7430    -1.6430 H     1 <1>   0.0800 
@<TRIPOS>BOND
  1   1   2  2   
  2   1   3  2   
  3   1   4  am  
  4   1   5  1   
  5   4   6  1   
  6   4   7  1   
  7   5   8  1   
  8   5  24  1   
  9   5  25  1   
 10   6  26  1   
 11   6  27  1   
 12   6  28  1   
 13   7  29  1   
 14   7  30  1   
 15   7  31  1   
 16   8   9  1   
 17   8  32  1   
 18   8  33  1   
 19   9  10  1   
 20   9  34  1   
 21   9  35  1   
 22  10  11  1   
 23  10  12  1   
 24  10  36  1   
 25  11  13  1   
 26  11  37  1   
 27  11  38  1   
 28  12  14  1   
 29  12  39  1   
 30  12  40  1   
 31  13  14  1   
 32  13  15  1   
 33  13  41  1   
 34  14  16  1   
 35  14  42  1   
 36  15  17  1   
 37  16  18  1   
 38  16  43  1   
 39  16  44  1   
 40  17  45  1   
 41  17  46  1   
 42  17  47  1   
 43  18  19  1   
 44  18  20  2   
 45  19  21  1   
 46  20  22  1   
 47  20  48  1   
 48  21  22  2   
 49  22  23  1   
 50  23  49  1   
 51  23  50  1   
 52  23  51  1   
@<TRIPOS>SUBSTRUCTURE
  1 ****  10 GROUP 4 **** **** 0

# MOE 2024.06 (io_trps.svl 2023.06)
