@<TRIPOS>MOLECULE
NONAME
47 48 1 0 0 
SMALL
USER_CHARGES


@<TRIPOS>ATOM
  1 S       -1.3550    -0.3750     0.9230 S.o2  1 <1>   1.3330 
  2 O       -0.7200    -0.1400    -0.3520 O.2   1 <1>  -0.6500 
  3 O       -2.5510     0.3330     1.3040 O.2   1 <1>  -0.6500 
  4 N       -1.7860    -1.9900     1.0140 N.am  1 <1>  -0.9140 
  5 C       -0.1390    -0.2260     2.2120 C.3   1 <1>  -0.1350 
  6 C       -2.1420    -2.6000    -0.2500 C.3   1 <1>   0.2760 
  7 C       -3.4940    -2.0780    -0.7500 C.3   1 <1>  -0.1600 
  8 C       -2.2060    -4.1110    -0.0350 C.3   1 <1>  -0.1600 
  9 C       -3.9150    -2.8050    -2.0270 C.3   1 <1>   0.1400 
 10 C       -2.6360    -4.8310    -1.3150 C.3   1 <1>   0.1400 
 11 N       -3.9360    -4.2790    -1.7930 N.am  1 <1>  -0.6600 
 12 C       -5.0650    -5.0190    -2.0860 C.2   1 <1>   0.5690 
 13 O       -6.0750    -4.4830    -2.4870 O.2   1 <1>  -0.5700 
 14 C       -5.1130    -6.5560    -1.9480 C.3   1 <1>   0.1710 
 15 N       -5.7290    -7.0980    -0.7010 N.3   1 <1>  -0.8100 
 16 C       -7.1550    -6.7220    -0.6190 C.3   1 <1>   0.2530 
 17 C       -4.9950    -6.6940     0.5060 C.3   1 <1>   0.0300 
 18 C       -7.8690    -7.5010     0.4780 C.ar  1 <1>  -0.1440 
 19 C       -8.6720    -6.8790     1.4140 C.ar  1 <1>  -0.1500 
 20 C       -7.7570    -8.8720     0.5910 C.ar  1 <1>  -0.1500 
 21 C       -9.3040    -7.6370     2.3860 C.ar  1 <1>   0.1600 
 22 C       -8.4300    -9.5360     1.6020 C.ar  1 <1>   0.1600 
 23 N       -9.2030    -8.9520     2.5040 N.ar  1 <1>  -0.6200 
 24 H       -2.6320    -1.9800     1.5800 H     1 <1>   0.4200 
 25 H        0.2060     0.7880     2.2760 H     1 <1>   0.0800 
 26 H        0.6990    -0.8610     2.0030 H     1 <1>   0.0800 
 27 H       -0.5610    -0.5060     3.1560 H     1 <1>   0.0800 
 28 H       -1.3790    -2.3960    -0.9850 H     1 <1>   0.0800 
 29 H       -3.4290    -1.0280    -0.9710 H     1 <1>   0.0800 
 30 H       -4.2550    -2.2230    -0.0040 H     1 <1>   0.0800 
 31 H       -2.9050    -4.3450     0.7480 H     1 <1>   0.0800 
 32 H       -1.2360    -4.4690     0.2570 H     1 <1>   0.0800 
 33 H       -3.2190    -2.5860    -2.8200 H     1 <1>   0.0800 
 34 H       -4.8830    -2.4470    -2.3340 H     1 <1>   0.0800 
 35 H       -2.7010    -5.8830    -1.1150 H     1 <1>   0.0800 
 36 H       -1.8930    -4.6840    -2.0820 H     1 <1>   0.0800 
 37 H       -4.1310    -6.9680    -2.0610 H     1 <1>   0.0800 
 38 H       -5.6800    -6.9250    -2.7840 H     1 <1>   0.0800 
 39 H       -7.6370    -6.9400    -1.5560 H     1 <1>   0.0800 
 40 H       -7.2450    -5.6640    -0.4390 H     1 <1>   0.0800 
 41 H       -3.9680    -7.0050     0.4330 H     1 <1>   0.0800 
 42 H       -5.4220    -7.1680     1.3740 H     1 <1>   0.0800 
 43 H       -5.0380    -5.6270     0.6370 H     1 <1>   0.0800 
 44 H       -8.8120    -5.8140     1.3940 H     1 <1>   0.1500 
 45 H       -7.1440    -9.4200    -0.1020 H     1 <1>   0.1500 
 46 H       -9.9260    -7.1340     3.1060 H     1 <1>   0.1500 
 47 H       -8.3250   -10.6050     1.6720 H     1 <1>   0.1500 
@<TRIPOS>BOND
  1   1   2  2   
  2   1   3  2   
  3   1   4  am  
  4   1   5  1   
  5   4   6  1   
  6   4  24  1   
  7   5  25  1   
  8   5  26  1   
  9   5  27  1   
 10   6   7  1   
 11   6   8  1   
 12   6  28  1   
 13   7   9  1   
 14   7  29  1   
 15   7  30  1   
 16   8  10  1   
 17   8  31  1   
 18   8  32  1   
 19   9  11  1   
 20   9  33  1   
 21   9  34  1   
 22  10  11  1   
 23  10  35  1   
 24  10  36  1   
 25  11  12  am  
 26  12  13  2   
 27  12  14  1   
 28  14  15  1   
 29  14  37  1   
 30  14  38  1   
 31  15  16  1   
 32  15  17  1   
 33  16  18  1   
 34  16  39  1   
 35  16  40  1   
 36  17  41  1   
 37  17  42  1   
 38  17  43  1   
 39  18  19  ar  
 40  18  20  ar  
 41  19  21  ar  
 42  19  44  1   
 43  20  22  ar  
 44  20  45  1   
 45  21  23  ar  
 46  21  46  1   
 47  22  23  ar  
 48  22  47  1   
@<TRIPOS>SUBSTRUCTURE
  1 ****  17 GROUP 4 **** **** 0

# MOE 2024.06 (io_trps.svl 2023.06)
