@<TRIPOS>MOLECULE
NONAME
47 49 1 0 0 
SMALL
USER_CHARGES


@<TRIPOS>ATOM
  1 O       -1.7500     0.2640    -2.2270 O.2   1 <1>  -0.5700 
  2 C       -1.8290     0.5770    -1.0560 C.2   1 <1>   0.5440 
  3 N       -1.9190    -0.4200    -0.1290 N.am  1 <1>  -0.7300 
  4 C       -1.8420     1.9730    -0.6500 C.ar  1 <1>   0.0860 
  5 C       -1.9530    -1.8710    -0.4250 C.3   1 <1>   0.2200 
  6 C       -2.4310     2.3850     0.5450 C.ar  1 <1>  -0.1500 
  7 C       -1.2660     2.9590    -1.4480 C.ar  1 <1>  -0.1500 
  8 C       -3.3640    -2.4260    -0.2860 C.3   1 <1>  -0.0800 
  9 C       -1.2510    -2.6170     0.7010 C.3   1 <1>   0.1200 
 10 C       -2.4390     3.7120     0.9350 C.ar  1 <1>   0.0830 
 11 C       -1.2620     4.2920    -1.0760 C.ar  1 <1>   0.0830 
 12 C       -3.4840    -2.6880     1.2190 C.3   1 <1>   0.1200 
 13 C       -4.4910    -1.5540    -0.8710 C.3   1 <1>  -0.0160 
 14 O       -2.1840    -2.6740     1.7380 O.3   1 <1>  -0.5600 
 15 O       -3.0410     3.9860     2.1190 O.3   1 <1>  -0.3630 
 16 C       -1.8500     4.6750     0.1240 C.ar  1 <1>  -0.1500 
 17 O       -0.6660     5.1580    -1.9330 O.3   1 <1>  -0.3630 
 18 C       -5.8420    -2.2360    -0.7180 C.ar  1 <1>  -0.1440 
 19 C       -3.1150     5.3010     2.6230 C.3   1 <1>   0.0400 
 20 C       -0.6210     6.5440    -1.6750 C.3   1 <1>   0.0400 
 21 C       -6.7250    -1.8930     0.2860 C.ar  1 <1>  -0.1500 
 22 C       -6.2540    -3.2340    -1.5770 C.ar  1 <1>  -0.1500 
 23 C       -7.9390    -2.5510     0.3840 C.ar  1 <1>   0.1600 
 24 C       -7.4910    -3.8300    -1.3920 C.ar  1 <1>   0.1600 
 25 N       -8.3420    -3.5140    -0.4290 N.ar  1 <1>  -0.6200 
 26 H       -1.9420    -0.2020     0.8690 H     1 <1>   0.3700 
 27 H       -1.5150    -2.0760    -1.3880 H     1 <1>   0.0800 
 28 H       -2.9040     1.6690     1.1900 H     1 <1>   0.1500 
 29 H       -0.8090     2.6800    -2.3810 H     1 <1>   0.1500 
 30 H       -3.3910    -3.3810    -0.7800 H     1 <1>   0.0800 
 31 H       -0.3580    -2.1200     1.0390 H     1 <1>   0.0800 
 32 H       -1.0210    -3.6260     0.4070 H     1 <1>   0.0800 
 33 H       -3.9340    -3.6440     1.4240 H     1 <1>   0.0800 
 34 H       -4.0390    -1.9110     1.7150 H     1 <1>   0.0800 
 35 H       -4.2970    -1.3730    -1.9150 H     1 <1>   0.0800 
 36 H       -4.5220    -0.5970    -0.3810 H     1 <1>   0.0800 
 37 H       -1.8500     5.7030     0.4200 H     1 <1>   0.1500 
 38 H       -3.6330     5.2690     3.5650 H     1 <1>   0.0800 
 39 H       -3.6620     5.9130     1.9270 H     1 <1>   0.0800 
 40 H       -2.1180     5.6770     2.7680 H     1 <1>   0.0800 
 41 H       -0.1130     7.0180    -2.4950 H     1 <1>   0.0800 
 42 H       -0.0780     6.7120    -0.7630 H     1 <1>   0.0800 
 43 H       -1.6270     6.9190    -1.6030 H     1 <1>   0.0800 
 44 H       -6.4820    -1.1210     0.9930 H     1 <1>   0.1500 
 45 H       -5.6260    -3.5540    -2.3880 H     1 <1>   0.1500 
 46 H       -8.6150    -2.2710     1.1740 H     1 <1>   0.1500 
 47 H       -7.7950    -4.6070    -2.0710 H     1 <1>   0.1500 
@<TRIPOS>BOND
  1   1   2  2   
  2   2   3  am  
  3   2   4  1   
  4   3   5  1   
  5   3  26  1   
  6   4   6  ar  
  7   4   7  ar  
  8   5   8  1   
  9   5   9  1   
 10   5  27  1   
 11   6  10  ar  
 12   6  28  1   
 13   7  11  ar  
 14   7  29  1   
 15   8  12  1   
 16   8  13  1   
 17   8  30  1   
 18   9  14  1   
 19   9  31  1   
 20   9  32  1   
 21  10  15  1   
 22  10  16  ar  
 23  11  16  ar  
 24  11  17  1   
 25  12  14  1   
 26  12  33  1   
 27  12  34  1   
 28  13  18  1   
 29  13  35  1   
 30  13  36  1   
 31  15  19  1   
 32  16  37  1   
 33  17  20  1   
 34  18  21  ar  
 35  18  22  ar  
 36  19  38  1   
 37  19  39  1   
 38  19  40  1   
 39  20  41  1   
 40  20  42  1   
 41  20  43  1   
 42  21  23  ar  
 43  21  44  1   
 44  22  24  ar  
 45  22  45  1   
 46  23  25  ar  
 47  23  46  1   
 48  24  25  ar  
 49  24  47  1   
@<TRIPOS>SUBSTRUCTURE
  1 ****   3 GROUP 4 **** **** 0

# MOE 2024.06 (io_trps.svl 2023.06)
