@<TRIPOS>MOLECULE
NONAME
51 53 1 0 0 
SMALL
USER_CHARGES


@<TRIPOS>ATOM
  1 O       -0.5730     0.9410    -1.7760 O.co2 1 <1>  -0.9000 
  2 C        0.0300     1.1250    -0.7140 C.2   1 <1>   0.9060 
  3 O        0.4160     0.1690    -0.0200 O.co2 1 <1>  -0.9000 
  4 C        0.2110     2.5340    -0.1540 C.3   1 <1>  -0.1060 
  5 C       -0.6760     2.5800     1.1080 C.3   1 <1>   0.2000 
  6 C       -0.3280     3.5790    -1.1580 C.3   1 <1>   0.1400 
  7 C        1.7100     2.8040     0.1740 C.3   1 <1>  -0.0170 
  8 O       -0.1760     1.7300     2.0750 O.3   1 <1>  -0.6800 
  9 C       -0.8090     3.9720     1.7230 C.3   1 <1>  -0.1600 
 10 N       -0.4530     4.9410    -0.5280 N.am  1 <1>  -0.6600 
 11 C        2.6380     2.8430    -1.0380 C.ar  1 <1>  -0.1430 
 12 C       -1.3280     4.9550     0.6770 C.3   1 <1>   0.1400 
 13 C        0.0990     6.0500    -1.1280 C.2   1 <1>   0.5690 
 14 C        3.1070     4.0570    -1.5140 C.ar  1 <1>  -0.1500 
 15 C        3.0310     1.6730    -1.6680 C.ar  1 <1>  -0.1500 
 16 O        0.4690     6.0290    -2.2800 O.2   1 <1>  -0.5700 
 17 C        0.2540     7.3810    -0.3960 C.3   1 <1>   0.0440 
 18 C        3.9550     4.1040    -2.6070 C.ar  1 <1>  -0.1500 
 19 C        3.8790     1.7150    -2.7610 C.ar  1 <1>  -0.1500 
 20 C        1.4550     7.4050     0.5540 C.ar  1 <1>  -0.1430 
 21 C        4.3430     2.9310    -3.2320 C.ar  1 <1>  -0.1500 
 22 C        2.7470     7.6940     0.1130 C.ar  1 <1>  -0.1430 
 23 C        1.2460     7.1330     1.8990 C.ar  1 <1>  -0.1500 
 24 C        3.7950     7.6980     1.0220 C.ar  1 <1>  -0.1500 
 25 C        3.0570     8.0100    -1.3450 C.3   1 <1>  -0.0970 
 26 C        2.2970     7.1360     2.7980 C.ar  1 <1>  -0.1500 
 27 C        3.5750     7.4200     2.3580 C.ar  1 <1>  -0.1500 
 28 H       -1.6570     2.2140     0.8500 H     1 <1>   0.0800 
 29 H       -1.3020     3.2770    -1.5030 H     1 <1>   0.0800 
 30 H        0.3130     3.6120    -2.0230 H     1 <1>   0.0800 
 31 H        1.8020     3.7370     0.6960 H     1 <1>   0.0800 
 32 H        2.0740     2.0420     0.8400 H     1 <1>   0.0800 
 33 H        0.1060     0.9030     1.5850 H     1 <1>   0.4000 
 34 H       -1.5030     3.9290     2.5420 H     1 <1>   0.0800 
 35 H        0.1380     4.3110     2.0990 H     1 <1>   0.0800 
 36 H       -1.3970     5.9330     1.1090 H     1 <1>   0.0800 
 37 H       -2.3200     4.6600     0.3770 H     1 <1>   0.0800 
 38 H        2.8050     4.9700    -1.0340 H     1 <1>   0.1500 
 39 H        2.6690     0.7230    -1.3100 H     1 <1>   0.1500 
 40 H        0.3680     8.1540    -1.1320 H     1 <1>   0.0800 
 41 H       -0.6460     7.6200     0.1310 H     1 <1>   0.0800 
 42 H        4.3040     5.0530    -2.9700 H     1 <1>   0.1500 
 43 H        4.1680     0.7990    -3.2420 H     1 <1>   0.1500 
 44 H        4.9980     2.9640    -4.0830 H     1 <1>   0.1500 
 45 H        0.2610     6.9140     2.2640 H     1 <1>   0.1500 
 46 H        4.7960     7.9170     0.6940 H     1 <1>   0.1500 
 47 H        4.1120     8.1470    -1.4940 H     1 <1>   0.0800 
 48 H        2.5560     8.9120    -1.6430 H     1 <1>   0.0800 
 49 H        2.7370     7.2060    -1.9810 H     1 <1>   0.0800 
 50 H        2.1210     6.9170     3.8360 H     1 <1>   0.1500 
 51 H        4.3970     7.4230     3.0520 H     1 <1>   0.1500 
@<TRIPOS>BOND
  1   1   2  ar  
  2   2   3  ar  
  3   2   4  1   
  4   4   5  1   
  5   4   6  1   
  6   4   7  1   
  7   5   8  1   
  8   5   9  1   
  9   5  28  1   
 10   6  10  1   
 11   6  29  1   
 12   6  30  1   
 13   7  11  1   
 14   7  31  1   
 15   7  32  1   
 16   8  33  1   
 17   9  12  1   
 18   9  34  1   
 19   9  35  1   
 20  10  12  1   
 21  10  13  am  
 22  11  14  ar  
 23  11  15  ar  
 24  12  36  1   
 25  12  37  1   
 26  13  16  2   
 27  13  17  1   
 28  14  18  ar  
 29  14  38  1   
 30  15  19  ar  
 31  15  39  1   
 32  17  20  1   
 33  17  40  1   
 34  17  41  1   
 35  18  21  ar  
 36  18  42  1   
 37  19  21  ar  
 38  19  43  1   
 39  20  22  ar  
 40  20  23  ar  
 41  21  44  1   
 42  22  24  ar  
 43  22  25  1   
 44  23  26  ar  
 45  23  45  1   
 46  24  27  ar  
 47  24  46  1   
 48  25  47  1   
 49  25  48  1   
 50  25  49  1   
 51  26  27  ar  
 52  26  50  1   
 53  27  51  1   
@<TRIPOS>SUBSTRUCTURE
  1 ****   7 GROUP 4 **** **** 0

# MOE 2024.06 (io_trps.svl 2023.06)
