@<TRIPOS>MOLECULE
NONAME
40 42 1 0 0 
SMALL
USER_CHARGES


@<TRIPOS>ATOM
  1 CL       1.5180     1.2200    -1.5170 Cl    1 <1>  -0.1770 
  2 C        0.4570     2.5310    -1.0650 C.ar  1 <1>   0.1770 
  3 C        0.8460     3.3980    -0.0590 C.ar  1 <1>  -0.1500 
  4 C       -0.7550     2.6750    -1.7150 C.ar  1 <1>  -0.1500 
  5 C        0.0110     4.4430     0.3090 C.ar  1 <1>  -0.1440 
  6 C       -1.5870     3.7210    -1.3570 C.ar  1 <1>  -0.1500 
  7 C       -1.1970     4.6050    -0.3610 C.ar  1 <1>   0.0830 
  8 C        0.4010     5.3700     1.4480 C.3   1 <1>   0.2540 
  9 O       -2.0180     5.6310    -0.0630 O.3   1 <1>  -0.3630 
 10 N        0.6310     6.7380     0.9570 N.3   1 <1>  -0.8100 
 11 C       -1.5230     6.9250    -0.3500 C.3   1 <1>   0.1200 
 12 C       -0.6460     7.4700     0.7870 C.3   1 <1>   0.1100 
 13 C        1.5370     7.4790     1.8850 C.3   1 <1>   0.1710 
 14 C        1.9470     8.8950     1.4420 C.2   1 <1>   0.5690 
 15 O        1.6820     9.8020     2.1970 O.2   1 <1>  -0.5700 
 16 N        2.5850     9.1250     0.2460 N.am  1 <1>  -0.6600 
 17 C        2.9410    10.5040    -0.2000 C.3   1 <1>   0.1400 
 18 C        2.8950     8.0740    -0.7720 C.3   1 <1>   0.1400 
 19 C        4.3600    10.5390    -0.7890 C.3   1 <1>   0.1200 
 20 C        4.3120     8.2600    -1.3410 C.3   1 <1>   0.1200 
 21 O        4.5040     9.5720    -1.7910 O.3   1 <1>  -0.5600 
 22 H        1.7920     3.2440     0.4260 H     1 <1>   0.1500 
 23 H       -1.0370     1.9820    -2.4870 H     1 <1>   0.1500 
 24 H       -2.5350     3.8620    -1.8450 H     1 <1>   0.1500 
 25 H        1.3010     4.9920     1.9010 H     1 <1>   0.0800 
 26 H       -0.3710     5.3670     2.2000 H     1 <1>   0.0800 
 27 H       -2.3750     7.5650    -0.4820 H     1 <1>   0.0800 
 28 H       -0.9690     6.8930    -1.2720 H     1 <1>   0.0800 
 29 H       -0.4320     8.4960     0.5460 H     1 <1>   0.0800 
 30 H       -1.2080     7.4660     1.7070 H     1 <1>   0.0800 
 31 H        2.4450     6.9170     2.0120 H     1 <1>   0.0800 
 32 H        1.0670     7.5570     2.8490 H     1 <1>   0.0800 
 33 H        2.8850    11.1940     0.6250 H     1 <1>   0.0800 
 34 H        2.2390    10.8250    -0.9490 H     1 <1>   0.0800 
 35 H        2.1800     8.1400    -1.5730 H     1 <1>   0.0800 
 36 H        2.8220     7.0900    -0.3480 H     1 <1>   0.0800 
 37 H        5.0930    10.3560    -0.0230 H     1 <1>   0.0800 
 38 H        4.5540    11.5000    -1.2310 H     1 <1>   0.0800 
 39 H        4.4640     7.6010    -2.1770 H     1 <1>   0.0800 
 40 H        5.0520     8.0430    -0.5910 H     1 <1>   0.0800 
@<TRIPOS>BOND
  1   1   2  1   
  2   2   3  ar  
  3   2   4  ar  
  4   3   5  ar  
  5   3  22  1   
  6   4   6  ar  
  7   4  23  1   
  8   5   7  ar  
  9   5   8  1   
 10   6   7  ar  
 11   6  24  1   
 12   7   9  1   
 13   8  10  1   
 14   8  25  1   
 15   8  26  1   
 16   9  11  1   
 17  10  12  1   
 18  10  13  1   
 19  11  12  1   
 20  11  27  1   
 21  11  28  1   
 22  12  29  1   
 23  12  30  1   
 24  13  14  1   
 25  13  31  1   
 26  13  32  1   
 27  14  15  2   
 28  14  16  am  
 29  16  17  1   
 30  16  18  1   
 31  17  19  1   
 32  17  33  1   
 33  17  34  1   
 34  18  20  1   
 35  18  35  1   
 36  18  36  1   
 37  19  21  1   
 38  19  37  1   
 39  19  38  1   
 40  20  21  1   
 41  20  39  1   
 42  20  40  1   
@<TRIPOS>SUBSTRUCTURE
  1 ****  10 GROUP 4 **** **** 0

# MOE 2024.06 (io_trps.svl 2023.06)
