@<TRIPOS>MOLECULE
NONAME
49 52 1 0 0 
SMALL
USER_CHARGES


@<TRIPOS>ATOM
  1 S       -0.7080    -0.7080    -0.6230 S.3   1 <1>  -0.1120 
  2 C       -1.0460     0.9740    -0.0690 C.2   1 <1>   0.2420 
  3 C       -1.4980    -1.8580     0.5200 C.2   1 <1>   0.1960 
  4 N       -1.7910     1.3090     0.9260 N.2   1 <1>  -0.3380 
  5 N       -0.5150     2.0200    -0.7020 N.pl3 1 <1>   0.0480 
  6 O       -1.4310    -3.1310     0.1900 O.3   1 <1>  -0.2800 
  7 C       -2.1590    -1.6770     1.6830 C.2   1 <1>  -0.1500 
  8 N       -1.7630     2.6460     0.9740 N.2   1 <1>  -0.3380 
  9 C       -1.0070     3.0430     0.0060 C.2   1 <1>   0.0360 
 10 C        0.3790     2.0490    -1.8740 C.3   1 <1>   0.0160 
 11 C       -2.0610    -3.8070     1.1370 C.2   1 <1>  -0.0400 
 12 C       -2.5300    -2.9660     2.0880 C.2   1 <1>  -0.1500 
 13 C       -2.1640    -5.3230     1.0320 C.3   1 <1>   0.2900 
 14 N       -2.9520    -5.7550    -0.1440 N.3   1 <1>  -0.8100 
 15 C       -3.0740    -7.2320    -0.2190 C.3   1 <1>   0.3330 
 16 C       -4.2910    -5.1290    -0.1750 C.3   1 <1>   0.1100 
 17 C       -1.6930    -7.8880    -0.2800 C.ar  1 <1>  -0.1430 
 18 C       -3.9450    -7.6530    -1.4350 C.3   1 <1>   0.2000 
 19 C       -5.1190    -5.6310    -1.3700 C.3   1 <1>   0.1200 
 20 C       -0.7540    -7.4740    -1.2130 C.ar  1 <1>  -0.1500 
 21 C       -1.3710    -8.9210     0.5900 C.ar  1 <1>  -0.1500 
 22 O       -5.2000    -7.0270    -1.3550 O.3   1 <1>  -0.5600 
 23 C       -4.1950    -9.1680    -1.5210 C.3   1 <1>   0.1200 
 24 C        0.4840    -8.0860    -1.2840 C.ar  1 <1>  -0.1500 
 25 C       -0.1330    -9.5350     0.5210 C.ar  1 <1>  -0.1500 
 26 O       -3.0620    -9.8440    -1.9700 O.3   1 <1>  -0.6800 
 27 C        0.7950    -9.1190    -0.4170 C.ar  1 <1>  -0.1500 
 28 H       -2.3770    -0.7730     2.2190 H     1 <1>   0.1500 
 29 H       -0.7880     4.0720    -0.2170 H     1 <1>   0.1500 
 30 H        0.6350     3.0660    -2.1110 H     1 <1>   0.0800 
 31 H       -0.1210     1.6000    -2.7140 H     1 <1>   0.0800 
 32 H        1.2740     1.4960    -1.6530 H     1 <1>   0.0800 
 33 H       -3.0790    -3.1970     2.9830 H     1 <1>   0.1500 
 34 H       -2.6160    -5.7070     1.9300 H     1 <1>   0.0800 
 35 H       -1.1640    -5.7140     0.9650 H     1 <1>   0.0800 
 36 H       -3.5750    -7.5780     0.6690 H     1 <1>   0.0800 
 37 H       -4.8230    -5.3420     0.7360 H     1 <1>   0.0800 
 38 H       -4.1900    -4.0610    -0.2640 H     1 <1>   0.0800 
 39 H       -3.4790    -7.3310    -2.3500 H     1 <1>   0.0800 
 40 H       -4.6710    -5.3180    -2.2970 H     1 <1>   0.0800 
 41 H       -6.1200    -5.2420    -1.3190 H     1 <1>   0.0800 
 42 H       -0.9900    -6.6650    -1.8860 H     1 <1>   0.1500 
 43 H       -2.0820    -9.2580     1.3250 H     1 <1>   0.1500 
 44 H       -4.9830    -9.3690    -2.2260 H     1 <1>   0.0800 
 45 H       -4.4670    -9.5650    -0.5590 H     1 <1>   0.0800 
 46 H        1.2050    -7.7570    -2.0120 H     1 <1>   0.1500 
 47 H        0.1100   -10.3370     1.1960 H     1 <1>   0.1500 
 48 H       -2.2640    -9.5640    -1.4670 H     1 <1>   0.4000 
 49 H        1.7580    -9.5970    -0.4730 H     1 <1>   0.1500 
@<TRIPOS>BOND
  1   1   2  1   
  2   1   3  1   
  3   2   4  2   
  4   2   5  1   
  5   3   6  1   
  6   3   7  2   
  7   4   8  1   
  8   5   9  1   
  9   5  10  1   
 10   6  11  1   
 11   7  12  1   
 12   7  28  1   
 13   8   9  2   
 14   9  29  1   
 15  10  30  1   
 16  10  31  1   
 17  10  32  1   
 18  11  12  2   
 19  11  13  1   
 20  12  33  1   
 21  13  14  1   
 22  13  34  1   
 23  13  35  1   
 24  14  15  1   
 25  14  16  1   
 26  15  17  1   
 27  15  18  1   
 28  15  36  1   
 29  16  19  1   
 30  16  37  1   
 31  16  38  1   
 32  17  20  ar  
 33  17  21  ar  
 34  18  22  1   
 35  18  23  1   
 36  18  39  1   
 37  19  22  1   
 38  19  40  1   
 39  19  41  1   
 40  20  24  ar  
 41  20  42  1   
 42  21  25  ar  
 43  21  43  1   
 44  23  26  1   
 45  23  44  1   
 46  23  45  1   
 47  24  27  ar  
 48  24  46  1   
 49  25  27  ar  
 50  25  47  1   
 51  26  48  1   
 52  27  49  1   
@<TRIPOS>SUBSTRUCTURE
  1 ****   6 GROUP 4 **** **** 0

# MOE 2024.06 (io_trps.svl 2023.06)
