@<TRIPOS>MOLECULE
NONAME
48 50 1 0 0 
SMALL
USER_CHARGES


@<TRIPOS>ATOM
  1 O       -1.2070     0.3510     1.2720 O.2   1 <1>  -0.5700 
  2 C       -1.7620     1.0530     0.4440 C.2   1 <1>   0.6160 
  3 N       -2.8640     0.5270    -0.2100 N.am  1 <1>  -0.6600 
  4 C       -1.2550     2.3830     0.2440 C.2   1 <1>   0.0290 
  5 C       -3.9390     1.3510    -0.8510 C.3   1 <1>   0.2200 
  6 C       -2.8440    -0.9290    -0.5510 C.3   1 <1>   0.0600 
  7 C       -0.9790     2.8450    -1.0840 C.2   1 <1>   0.6160 
  8 C       -0.9940     3.2260     1.2980 C.2   1 <1>  -0.1500 
  9 C       -4.3670     2.5500     0.0020 C.3   1 <1>  -0.1600 
 10 C       -5.2540     0.5820    -1.0200 C.3   1 <1>  -0.1600 
 11 O       -1.1550     2.1970    -2.1050 O.2   1 <1>  -0.5700 
 12 N       -0.4900     4.1150    -1.2450 N.am  1 <1>  -0.5390 
 13 C       -0.4880     4.5250     1.0800 C.2   1 <1>  -0.1500 
 14 C       -5.7870     2.9010    -0.4660 C.3   1 <1>  -0.0800 
 15 C       -6.3340     1.6600    -1.1690 C.3   1 <1>  -0.0800 
 16 C       -0.2420     4.9520    -0.1890 C.2   1 <1>  -0.0410 
 17 C       -6.7830     3.2500     0.6510 C.3   1 <1>  -0.1600 
 18 C       -7.6850     1.3240    -0.5140 C.3   1 <1>  -0.1600 
 19 C       -8.1010     2.5430     0.3110 C.3   1 <1>   0.4230 
 20 N       -9.0710     3.4030    -0.4460 N.4   1 <1>  -0.9590 
 21 C       -8.5220     4.0550    -1.6780 C.3   1 <1>   0.2630 
 22 C       -9.6890     4.4280     0.4520 C.3   1 <1>   0.2630 
 23 H       -3.6080     1.6890    -1.8190 H     1 <1>   0.0800 
 24 H       -3.0350    -1.0660    -1.6010 H     1 <1>   0.0800 
 25 H       -3.5860    -1.4520     0.0260 H     1 <1>   0.0800 
 26 H       -1.8810    -1.3580    -0.3310 H     1 <1>   0.0800 
 27 H       -1.1670     2.9020     2.3110 H     1 <1>   0.1500 
 28 H       -4.3650     2.2570     1.0370 H     1 <1>   0.0800 
 29 H       -3.7130     3.3920    -0.1350 H     1 <1>   0.0800 
 30 H       -5.2290    -0.0640    -1.8800 H     1 <1>   0.0800 
 31 H       -5.4300     0.0000    -0.1320 H     1 <1>   0.0800 
 32 H       -0.2990     4.3750    -2.2150 H     1 <1>   0.3700 
 33 H       -0.2980     5.1580     1.9300 H     1 <1>   0.1500 
 34 H       -5.7310     3.7060    -1.1800 H     1 <1>   0.0800 
 35 H       -6.4670     1.8800    -2.2150 H     1 <1>   0.0800 
 36 H        0.1490     5.9350    -0.4000 H     1 <1>   0.1500 
 37 H       -6.8870     4.3120     0.7840 H     1 <1>   0.0800 
 38 H       -6.4350     2.8350     1.5800 H     1 <1>   0.0800 
 39 H       -7.5610     0.5030     0.1700 H     1 <1>   0.0800 
 40 H       -8.4250     1.0370    -1.2400 H     1 <1>   0.0800 
 41 H       -8.5740     2.2080     1.2210 H     1 <1>   0.0800 
 42 H       -9.8260     2.7700    -0.7490 H     1 <1>   0.4500 
 43 H       -7.7290     4.7380    -1.4190 H     1 <1>   0.0800 
 44 H       -9.2970     4.6060    -2.1860 H     1 <1>   0.0800 
 45 H       -8.1310     3.3130    -2.3530 H     1 <1>   0.0800 
 46 H       -8.9440     5.1260     0.7960 H     1 <1>   0.0800 
 47 H      -10.1400     3.9540     1.3090 H     1 <1>   0.0800 
 48 H      -10.4530     4.9750    -0.0770 H     1 <1>   0.0800 
@<TRIPOS>BOND
  1   1   2  2   
  2   2   3  am  
  3   2   4  1   
  4   3   5  1   
  5   3   6  1   
  6   4   7  1   
  7   4   8  2   
  8   5   9  1   
  9   5  10  1   
 10   5  23  1   
 11   6  24  1   
 12   6  25  1   
 13   6  26  1   
 14   7  11  2   
 15   7  12  am  
 16   8  13  1   
 17   8  27  1   
 18   9  14  1   
 19   9  28  1   
 20   9  29  1   
 21  10  15  1   
 22  10  30  1   
 23  10  31  1   
 24  12  16  1   
 25  12  32  1   
 26  13  16  2   
 27  13  33  1   
 28  14  15  1   
 29  14  17  1   
 30  14  34  1   
 31  15  18  1   
 32  15  35  1   
 33  16  36  1   
 34  17  19  1   
 35  17  37  1   
 36  17  38  1   
 37  18  19  1   
 38  18  39  1   
 39  18  40  1   
 40  19  20  1   
 41  19  41  1   
 42  20  21  1   
 43  20  22  1   
 44  20  42  1   
 45  21  43  1   
 46  21  44  1   
 47  21  45  1   
 48  22  46  1   
 49  22  47  1   
 50  22  48  1   
@<TRIPOS>SUBSTRUCTURE
  1 ****   9 GROUP 4 **** **** 0

# MOE 2024.06 (io_trps.svl 2023.06)
