@<TRIPOS>MOLECULE
NONAME
51 54 1 0 0 
SMALL
USER_CHARGES


@<TRIPOS>ATOM
  1 CL      -1.1000    -0.6570    -2.4500 Cl    1 <1>  -0.1770 
  2 C       -2.2160    -1.6070    -1.5070 C.ar  1 <1>   0.1770 
  3 C       -2.5980    -2.8520    -1.9620 C.ar  1 <1>  -0.1500 
  4 C       -2.7020    -1.0960    -0.3140 C.ar  1 <1>  -0.1500 
  5 C       -3.4870    -3.5720    -1.1880 C.ar  1 <1>   0.1900 
  6 C       -3.5930    -1.8390     0.4460 C.ar  1 <1>  -0.1500 
  7 F       -3.8580    -4.7520    -1.6100 F     1 <1>  -0.1900 
  8 C       -4.0030    -3.0940     0.0100 C.ar  1 <1>  -0.1440 
  9 C       -4.9740    -3.9280     0.8280 C.3   1 <1>   0.4870 
 10 N       -6.1860    -4.2400     0.0180 N.4   1 <1>  -0.9590 
 11 C       -6.9730    -3.0170    -0.3850 C.3   1 <1>   0.3430 
 12 C       -7.0380    -5.2920     0.6660 C.3   1 <1>   0.3430 
 13 C       -7.7080    -2.3200     0.7870 C.3   1 <1>   0.1440 
 14 C       -8.2400    -4.7200     1.4340 C.3   1 <1>  -0.1600 
 15 C       -9.0010    -1.7530     0.2390 C.ar  1 <1>   0.1670 
 16 C       -8.0170    -3.2910     1.9530 C.3   1 <1>  -0.1600 
 17 C       -6.9880    -1.0410     1.2940 C.3   1 <1>  -0.1600 
 18 N       -9.8320    -2.4070    -0.5310 N.ar  1 <1>  -0.6200 
 19 C       -9.1990    -0.4660     0.6330 C.ar  1 <1>  -0.1430 
 20 C       -8.0760     0.0290     1.5080 C.3   1 <1>  -0.0170 
 21 C      -10.9120    -1.7170    -0.9110 C.ar  1 <1>   0.7200 
 22 C      -10.3360     0.1640     0.1950 C.ar  1 <1>   0.1600 
 23 N      -11.1960    -0.4540    -0.5800 N.ar  1 <1>  -0.6200 
 24 N      -11.8110    -2.3700    -1.7270 N.pl3 1 <1>  -0.8380 
 25 C      -12.8500    -1.6260    -2.4930 C.3   1 <1>   0.1290 
 26 C      -11.9440    -3.8520    -1.7500 C.3   1 <1>   0.1290 
 27 H       -2.2130    -3.2440    -2.8870 H     1 <1>   0.1500 
 28 H       -2.3750    -0.1220     0.0110 H     1 <1>   0.1500 
 29 H       -3.9500    -1.4280     1.3760 H     1 <1>   0.1500 
 30 H       -5.2520    -3.3970     1.7220 H     1 <1>   0.0800 
 31 H       -4.4850    -4.8440     1.1170 H     1 <1>   0.0800 
 32 H       -5.8140    -4.6490    -0.8540 H     1 <1>   0.4500 
 33 H       -7.7180    -3.3260    -1.1010 H     1 <1>   0.0800 
 34 H       -6.3360    -2.3070    -0.8850 H     1 <1>   0.0800 
 35 H       -6.4330    -5.8750     1.3410 H     1 <1>   0.0800 
 36 H       -7.4130    -5.9660    -0.0890 H     1 <1>   0.0800 
 37 H       -8.4740    -5.3750     2.2560 H     1 <1>   0.0800 
 38 H       -9.0990    -4.7290     0.7830 H     1 <1>   0.0800 
 39 H       -8.8940    -2.9570     2.4830 H     1 <1>   0.0800 
 40 H       -7.2070    -3.3070     2.6590 H     1 <1>   0.0800 
 41 H       -6.3230    -0.6760     0.5310 H     1 <1>   0.0800 
 42 H       -6.4200    -1.2010     2.1940 H     1 <1>   0.0800 
 43 H       -7.7400     1.0080     1.2120 H     1 <1>   0.0800 
 44 H       -8.4010     0.0490     2.5340 H     1 <1>   0.0800 
 45 H      -10.5440     1.1820     0.4780 H     1 <1>   0.1500 
 46 H      -12.4880    -0.6490    -2.7660 H     1 <1>   0.0800 
 47 H      -13.7330    -1.5150    -1.8890 H     1 <1>   0.0800 
 48 H      -13.0980    -2.1590    -3.3940 H     1 <1>   0.0800 
 49 H      -11.4690    -4.2920    -0.8910 H     1 <1>   0.0800 
 50 H      -11.4880    -4.2400    -2.6430 H     1 <1>   0.0800 
 51 H      -12.9840    -4.1260    -1.7360 H     1 <1>   0.0800 
@<TRIPOS>BOND
  1   1   2  1   
  2   2   3  ar  
  3   2   4  ar  
  4   3   5  ar  
  5   3  27  1   
  6   4   6  ar  
  7   4  28  1   
  8   5   7  1   
  9   5   8  ar  
 10   6   8  ar  
 11   6  29  1   
 12   8   9  1   
 13   9  10  1   
 14   9  30  1   
 15   9  31  1   
 16  10  11  1   
 17  10  12  1   
 18  10  32  1   
 19  11  13  1   
 20  11  33  1   
 21  11  34  1   
 22  12  14  1   
 23  12  35  1   
 24  12  36  1   
 25  13  15  1   
 26  13  16  1   
 27  13  17  1   
 28  14  16  1   
 29  14  37  1   
 30  14  38  1   
 31  15  18  ar  
 32  15  19  ar  
 33  16  39  1   
 34  16  40  1   
 35  17  20  1   
 36  17  41  1   
 37  17  42  1   
 38  18  21  ar  
 39  19  20  1   
 40  19  22  ar  
 41  20  43  1   
 42  20  44  1   
 43  21  23  ar  
 44  21  24  1   
 45  22  23  ar  
 46  22  45  1   
 47  24  25  1   
 48  24  26  1   
 49  25  46  1   
 50  25  47  1   
 51  25  48  1   
 52  26  49  1   
 53  26  50  1   
 54  26  51  1   
@<TRIPOS>SUBSTRUCTURE
  1 ****  11 GROUP 4 **** **** 0

# MOE 2024.06 (io_trps.svl 2023.06)
