@<TRIPOS>MOLECULE
NONAME
45 47 1 0 0 
SMALL
USER_CHARGES


@<TRIPOS>ATOM
  1 O        1.4120     0.2610    -1.2720 O.2   1 <1>  -0.5700 
  2 C        1.9980    -0.2440    -0.3340 C.2   1 <1>   0.5440 
  3 N        2.3600     0.5480     0.7400 N.am  1 <1>  -0.6600 
  4 C        2.2770    -1.6650    -0.3820 C.ar  1 <1>   0.0860 
  5 C        3.0060     0.0050     1.9820 C.3   1 <1>   0.1400 
  6 C        2.0870     2.0130     0.7230 C.3   1 <1>   0.1400 
  7 C        1.2680    -2.6110    -0.3730 C.ar  1 <1>  -0.1500 
  8 C        3.5630    -2.1790    -0.4510 C.ar  1 <1>  -0.1500 
  9 C        4.1230     0.8930     2.5600 C.3   1 <1>   0.1400 
 10 C        3.2850     2.7670     0.1310 C.3   1 <1>  -0.1600 
 11 C        1.5700    -3.9600    -0.4090 C.ar  1 <1>   0.3920 
 12 C        3.7680    -3.5440    -0.4810 C.ar  1 <1>   0.1600 
 13 N        4.9660     1.5280     1.5030 N.am  1 <1>  -0.6600 
 14 C        4.4980     2.8710     1.0630 C.3   1 <1>   0.1400 
 15 O        0.5290    -4.8190    -0.3890 O.3   1 <1>  -0.3630 
 16 N        2.8050    -4.4490    -0.4580 N.ar  1 <1>  -0.6200 
 17 C        6.0040     0.8340     0.9060 C.2   1 <1>   0.7160 
 18 C        0.7380    -6.2170    -0.4400 C.3   1 <1>   0.0400 
 19 O        6.0620    -0.3710     1.0970 O.2   1 <1>  -0.5700 
 20 C        7.0100     1.4640     0.0560 C.2   1 <1>   0.1410 
 21 N        7.6040     2.6740     0.3090 N.2   1 <1>  -0.5650 
 22 C        7.5560     0.9860    -1.0890 C.2   1 <1>  -0.0400 
 23 C        8.4250     2.8220    -0.6620 C.2   1 <1>   0.3280 
 24 O        8.4300     1.8400    -1.5270 O.3   1 <1>  -0.2800 
 25 C        7.3330    -0.2870    -1.8830 C.3   1 <1>  -0.0600 
 26 H        3.4330    -0.9600     1.7910 H     1 <1>   0.0800 
 27 H        2.2490    -0.1320     2.7340 H     1 <1>   0.0800 
 28 H        1.8700     2.3630     1.7160 H     1 <1>   0.0800 
 29 H        1.2180     2.2080     0.1170 H     1 <1>   0.0800 
 30 H        0.2410    -2.3000    -0.3400 H     1 <1>   0.1500 
 31 H        4.4000    -1.5070    -0.4750 H     1 <1>   0.1500 
 32 H        4.7480     0.2930     3.1990 H     1 <1>   0.0800 
 33 H        3.6860     1.6570     3.1770 H     1 <1>   0.0800 
 34 H        2.9660     3.7660    -0.1010 H     1 <1>   0.0800 
 35 H        3.5740     2.3070    -0.7970 H     1 <1>   0.0800 
 36 H        4.7800    -3.9120    -0.5260 H     1 <1>   0.1500 
 37 H        4.2410     3.4550     1.9300 H     1 <1>   0.0800 
 38 H        5.2770     3.4000     0.5480 H     1 <1>   0.0800 
 39 H       -0.2190    -6.7040    -0.4170 H     1 <1>   0.0800 
 40 H        1.3250    -6.5110     0.4120 H     1 <1>   0.0800 
 41 H        1.2550    -6.4570    -1.3520 H     1 <1>   0.0800 
 42 H        9.0880     3.6550    -0.8230 H     1 <1>   0.1500 
 43 H        6.5880    -0.9040    -1.4170 H     1 <1>   0.0800 
 44 H        8.2520    -0.8410    -1.9440 H     1 <1>   0.0800 
 45 H        7.0080    -0.0420    -2.8780 H     1 <1>   0.0800 
@<TRIPOS>BOND
  1   1   2  2   
  2   2   3  am  
  3   2   4  1   
  4   3   5  1   
  5   3   6  1   
  6   4   7  ar  
  7   4   8  ar  
  8   5   9  1   
  9   5  26  1   
 10   5  27  1   
 11   6  10  1   
 12   6  28  1   
 13   6  29  1   
 14   7  11  ar  
 15   7  30  1   
 16   8  12  ar  
 17   8  31  1   
 18   9  13  1   
 19   9  32  1   
 20   9  33  1   
 21  10  14  1   
 22  10  34  1   
 23  10  35  1   
 24  11  15  1   
 25  11  16  ar  
 26  12  16  ar  
 27  12  36  1   
 28  13  14  1   
 29  13  17  am  
 30  14  37  1   
 31  14  38  1   
 32  15  18  1   
 33  17  19  2   
 34  17  20  1   
 35  18  39  1   
 36  18  40  1   
 37  18  41  1   
 38  20  21  1   
 39  20  22  2   
 40  21  23  2   
 41  22  24  1   
 42  22  25  1   
 43  23  24  1   
 44  23  42  1   
 45  25  43  1   
 46  25  44  1   
 47  25  45  1   
@<TRIPOS>SUBSTRUCTURE
  1 ****   8 GROUP 4 **** **** 0

# MOE 2024.06 (io_trps.svl 2023.06)
