@<TRIPOS>MOLECULE
NONAME
41 42 1 0 0 
SMALL
USER_CHARGES


@<TRIPOS>ATOM
  1 O       -0.8860     0.7580     0.4500 O.3   1 <1>  -0.6800 
  2 C       -0.8390     2.0540    -0.0120 C.3   1 <1>   0.2000 
  3 C        0.5200     2.2770    -0.6830 C.3   1 <1>  -0.1600 
  4 C       -1.0450     2.9890     1.1830 C.3   1 <1>  -0.1600 
  5 C        0.6980     3.7500    -1.0890 C.3   1 <1>  -0.1600 
  6 C       -0.8660     4.4600     0.7720 C.3   1 <1>  -0.1600 
  7 C        0.4940     4.6890     0.1050 C.3   1 <1>   0.2890 
  8 N        0.5490     6.0780    -0.3780 N.pl3 1 <1>  -0.8690 
  9 C        1.6240     6.9230    -0.2500 C.ar  1 <1>   0.4100 
 10 N        2.7620     6.4040     0.1610 N.ar  1 <1>  -0.6200 
 11 C        1.5160     8.2760    -0.5460 C.ar  1 <1>  -0.1430 
 12 C        3.7730     7.2390     0.2770 C.ar  1 <1>   0.4770 
 13 C        2.6430     9.0380    -0.3800 C.ar  1 <1>   0.1600 
 14 C        0.2190     8.9130    -1.0350 C.3   1 <1>  -0.0170 
 15 N        3.7880     8.5360     0.0340 N.ar  1 <1>  -0.6200 
 16 C        5.0720     6.6330     0.7520 C.3   1 <1>  -0.0970 
 17 C       -0.7220     9.2090     0.1400 C.3   1 <1>  -0.1600 
 18 C       -2.0430     9.8190    -0.3380 C.3   1 <1>  -0.2400 
 19 H       -0.7390     0.1330    -0.2840 H     1 <1>   0.4000 
 20 H       -1.6350     2.1850    -0.7260 H     1 <1>   0.0800 
 21 H        0.6040     1.6570    -1.5580 H     1 <1>   0.0800 
 22 H        1.3050     2.0110     0.0050 H     1 <1>   0.0800 
 23 H       -0.3280     2.7480     1.9490 H     1 <1>   0.0800 
 24 H       -2.0330     2.8440     1.5840 H     1 <1>   0.0800 
 25 H       -0.0120     3.9950    -1.8600 H     1 <1>   0.0800 
 26 H        1.6890     3.8980    -1.4800 H     1 <1>   0.0800 
 27 H       -0.9400     5.0840     1.6450 H     1 <1>   0.0800 
 28 H       -1.6520     4.7290     0.0890 H     1 <1>   0.0800 
 29 H        1.2730     4.5150     0.8300 H     1 <1>   0.0800 
 30 H       -0.3520     6.4900    -0.6090 H     1 <1>   0.4000 
 31 H        2.6180    10.0940    -0.5890 H     1 <1>   0.1500 
 32 H       -0.2620     8.2580    -1.7410 H     1 <1>   0.0800 
 33 H        0.4410     9.8300    -1.5530 H     1 <1>   0.0800 
 34 H        5.2570     5.7170     0.2230 H     1 <1>   0.0800 
 35 H        5.0020     6.4280     1.8030 H     1 <1>   0.0800 
 36 H        5.8880     7.3090     0.5770 H     1 <1>   0.0800 
 37 H       -0.2390     9.8910     0.8190 H     1 <1>   0.0800 
 38 H       -0.9250     8.3000     0.6810 H     1 <1>   0.0800 
 39 H       -1.8650    10.7440    -0.8590 H     1 <1>   0.0800 
 40 H       -2.6800    10.0210     0.5050 H     1 <1>   0.0800 
 41 H       -2.5560     9.1420    -0.9990 H     1 <1>   0.0800 
@<TRIPOS>BOND
  1   1   2  1   
  2   1  19  1   
  3   2   3  1   
  4   2   4  1   
  5   2  20  1   
  6   3   5  1   
  7   3  21  1   
  8   3  22  1   
  9   4   6  1   
 10   4  23  1   
 11   4  24  1   
 12   5   7  1   
 13   5  25  1   
 14   5  26  1   
 15   6   7  1   
 16   6  27  1   
 17   6  28  1   
 18   7   8  1   
 19   7  29  1   
 20   8   9  1   
 21   8  30  1   
 22   9  10  ar  
 23   9  11  ar  
 24  10  12  ar  
 25  11  13  ar  
 26  11  14  1   
 27  12  15  ar  
 28  12  16  1   
 29  13  15  ar  
 30  13  31  1   
 31  14  17  1   
 32  14  32  1   
 33  14  33  1   
 34  16  34  1   
 35  16  35  1   
 36  16  36  1   
 37  17  18  1   
 38  17  37  1   
 39  17  38  1   
 40  18  39  1   
 41  18  40  1   
 42  18  41  1   
@<TRIPOS>SUBSTRUCTURE
  1 ****   8 GROUP 4 **** **** 0

# MOE 2024.06 (io_trps.svl 2023.06)
