@<TRIPOS>MOLECULE
NONAME
47 49 1 0 0 
SMALL
USER_CHARGES


@<TRIPOS>ATOM
  1 O       -0.2180     0.0750    -0.1930 O.2   1 <1>  -0.5700 
  2 C       -1.2100     0.7460     0.0230 C.2   1 <1>   0.5440 
  3 N       -2.4100     0.0990     0.2170 N.am  1 <1>  -0.6600 
  4 C       -1.1140     2.1920     0.0500 C.ar  1 <1>   0.0860 
  5 C       -3.7420     0.7200     0.0030 C.3   1 <1>   0.1400 
  6 C       -2.5190    -1.3810     0.1980 C.3   1 <1>   0.1400 
  7 C       -0.4460     2.8830    -0.9600 C.ar  1 <1>  -0.1500 
  8 C       -1.6780     2.9470     1.0780 C.ar  1 <1>  -0.1500 
  9 C       -4.6420    -0.4330    -0.4340 C.3   1 <1>   0.2000 
 10 C       -4.0180    -1.6810     0.1840 C.3   1 <1>  -0.0800 
 11 C       -0.3570     4.2640    -0.9690 C.ar  1 <1>  -0.1440 
 12 C       -1.5990     4.3270     1.0870 C.ar  1 <1>  -0.1500 
 13 O       -5.9410    -0.2690     0.0180 O.3   1 <1>  -0.6800 
 14 C       -4.3790    -2.9730    -0.5630 C.3   1 <1>   0.0210 
 15 C       -0.9400     4.9990     0.0600 C.ar  1 <1>   0.0830 
 16 C        0.3800     4.9670    -2.0990 C.3   1 <1>  -0.0970 
 17 C       -3.6620    -4.1640     0.0420 C.2   1 <1>   0.1080 
 18 O       -0.8340     6.3490     0.0140 O.3   1 <1>  -0.3630 
 19 N       -3.8780    -4.5730     1.2530 N.2   1 <1>  -0.7070 
 20 C       -2.7020    -4.9310    -0.6090 C.2   1 <1>  -0.1500 
 21 C       -1.3590     7.1810     1.0240 C.3   1 <1>   0.0400 
 22 N       -3.0540    -5.6270     1.4080 N.pl3 1 <1>   0.3000 
 23 C       -2.3300    -5.8620     0.2940 C.2   1 <1>  -0.3320 
 24 C       -1.3100    -6.9780     0.1590 C.3   1 <1>  -0.0600 
 25 H       -4.0880     1.1400     0.9310 H     1 <1>   0.0800 
 26 H       -3.6950     1.4800    -0.7580 H     1 <1>   0.0800 
 27 H       -2.0400    -1.7570    -0.6910 H     1 <1>   0.0800 
 28 H       -2.0410    -1.8100     1.0640 H     1 <1>   0.0800 
 29 H        0.0080     2.3070    -1.7480 H     1 <1>   0.1500 
 30 H       -2.1790     2.4370     1.8810 H     1 <1>   0.1500 
 31 H       -4.6600    -0.4910    -1.5090 H     1 <1>   0.0800 
 32 H       -4.3300    -1.7700     1.2100 H     1 <1>   0.0800 
 33 H       -2.0510     4.8630     1.8990 H     1 <1>   0.1500 
 34 H       -5.9800    -0.3980     0.9860 H     1 <1>   0.4000 
 35 H       -4.1160    -2.8880    -1.6010 H     1 <1>   0.0800 
 36 H       -5.4390    -3.1410    -0.4980 H     1 <1>   0.0800 
 37 H        0.7770     4.2610    -2.8050 H     1 <1>   0.0800 
 38 H        1.1930     5.5450    -1.6980 H     1 <1>   0.0800 
 39 H       -0.2920     5.6300    -2.6150 H     1 <1>   0.0800 
 40 H       -2.3500    -4.7900    -1.6160 H     1 <1>   0.1500 
 41 H       -1.1370     8.2000     0.7650 H     1 <1>   0.0800 
 42 H       -0.8900     6.9310     1.9590 H     1 <1>   0.0800 
 43 H       -2.4240     7.0400     1.0740 H     1 <1>   0.0800 
 44 H       -3.0090    -6.1610     2.2840 H     1 <1>   0.2700 
 45 H       -0.8670    -6.9570    -0.8210 H     1 <1>   0.0800 
 46 H       -1.7820    -7.9330     0.3010 H     1 <1>   0.0800 
 47 H       -0.5290    -6.8580     0.8890 H     1 <1>   0.0800 
@<TRIPOS>BOND
  1   1   2  2   
  2   2   3  am  
  3   2   4  1   
  4   3   5  1   
  5   3   6  1   
  6   4   7  ar  
  7   4   8  ar  
  8   5   9  1   
  9   5  25  1   
 10   5  26  1   
 11   6  10  1   
 12   6  27  1   
 13   6  28  1   
 14   7  11  ar  
 15   7  29  1   
 16   8  12  ar  
 17   8  30  1   
 18   9  10  1   
 19   9  13  1   
 20   9  31  1   
 21  10  14  1   
 22  10  32  1   
 23  11  15  ar  
 24  11  16  1   
 25  12  15  ar  
 26  12  33  1   
 27  13  34  1   
 28  14  17  1   
 29  14  35  1   
 30  14  36  1   
 31  15  18  1   
 32  16  37  1   
 33  16  38  1   
 34  16  39  1   
 35  17  19  2   
 36  17  20  1   
 37  18  21  1   
 38  19  22  1   
 39  20  23  2   
 40  20  40  1   
 41  21  41  1   
 42  21  42  1   
 43  21  43  1   
 44  22  23  1   
 45  22  44  1   
 46  23  24  1   
 47  24  45  1   
 48  24  46  1   
 49  24  47  1   
@<TRIPOS>SUBSTRUCTURE
  1 ****   3 GROUP 4 **** **** 0

# MOE 2024.06 (io_trps.svl 2023.06)
