@<TRIPOS>MOLECULE
NONAME
53 55 1 0 0 
SMALL
USER_CHARGES


@<TRIPOS>ATOM
  1 O       -0.9760     0.6200    -1.5270 O.2   1 <1>  -0.5700 
  2 C       -1.1700     1.3870    -0.6030 C.2   1 <1>   0.5440 
  3 N       -2.1460     1.0750     0.3190 N.am  1 <1>  -0.6600 
  4 C       -0.3810     2.5980    -0.5140 C.ar  1 <1>   0.0860 
  5 C       -2.6570    -0.3220     0.4050 C.3   1 <1>   0.1400 
  6 C       -2.7570     2.0740     1.2410 C.3   1 <1>   0.1400 
  7 C        0.4850     2.8380     0.5610 C.ar  1 <1>   0.0730 
  8 C       -0.4730     3.5550    -1.5240 C.ar  1 <1>  -0.1500 
  9 C       -3.8000    -0.5440    -0.5970 C.3   1 <1>   0.1400 
 10 C       -4.2920     2.0110     1.2700 C.3   1 <1>  -0.1600 
 11 C        0.6350     1.8820     1.6200 C.1   1 <1>   0.4840 
 12 C        1.2090     4.0240     0.6020 C.ar  1 <1>  -0.1500 
 13 C        0.2530     4.7290    -1.4720 C.ar  1 <1>  -0.1500 
 14 N       -5.0660     0.1560    -0.1890 N.am  1 <1>  -0.6600 
 15 C       -4.9430     1.6430    -0.0690 C.3   1 <1>   0.1400 
 16 N        0.7310     1.1440     2.4830 N.1   1 <1>  -0.5570 
 17 C        1.0960     4.9670    -0.4030 C.ar  1 <1>  -0.1500 
 18 C       -6.2740    -0.4610     0.0490 C.2   1 <1>   0.5690 
 19 O       -7.2490     0.1750     0.3870 O.2   1 <1>  -0.5700 
 20 C       -6.4680    -1.9950    -0.1310 C.3   1 <1>   0.4840 
 21 N       -7.8890    -2.3850    -0.4860 N.4   1 <1>  -0.9590 
 22 C       -5.9880    -2.7680     1.1060 C.3   1 <1>  -0.2400 
 23 C       -8.8850    -2.2700     0.6120 C.3   1 <1>   0.3430 
 24 C       -8.0660    -3.7310    -1.0790 C.3   1 <1>   0.3430 
 25 C      -10.0990    -3.0170     0.0800 C.3   1 <1>  -0.1600 
 26 C       -9.5610    -4.0040    -0.9620 C.3   1 <1>  -0.1600 
 27 H       -2.9810    -0.5420     1.4070 H     1 <1>   0.0800 
 28 H       -1.8520    -0.9970     0.1690 H     1 <1>   0.0800 
 29 H       -2.4720     3.0640     0.9280 H     1 <1>   0.0800 
 30 H       -2.3720     1.9220     2.2360 H     1 <1>   0.0800 
 31 H       -1.1220     3.3650    -2.3630 H     1 <1>   0.1500 
 32 H       -3.9590    -1.6000    -0.6880 H     1 <1>   0.0800 
 33 H       -3.4900    -0.1860    -1.5650 H     1 <1>   0.0800 
 34 H       -4.6460     2.9830     1.5630 H     1 <1>   0.0800 
 35 H       -4.6180     1.3260     2.0320 H     1 <1>   0.0800 
 36 H        1.8740     4.2160     1.4290 H     1 <1>   0.1500 
 37 H        0.1660     5.4560    -2.2630 H     1 <1>   0.1500 
 38 H       -4.3710     2.0360    -0.8930 H     1 <1>   0.0800 
 39 H       -5.9200     2.0940    -0.1170 H     1 <1>   0.0800 
 40 H        1.6640     5.8810    -0.3580 H     1 <1>   0.1500 
 41 H       -5.8430    -2.2790    -0.9600 H     1 <1>   0.0800 
 42 H       -8.2000    -1.6900    -1.1790 H     1 <1>   0.4500 
 43 H       -6.5030    -2.4370     1.9900 H     1 <1>   0.0800 
 44 H       -4.9410    -2.5820     1.2630 H     1 <1>   0.0800 
 45 H       -6.1180    -3.8280     0.9840 H     1 <1>   0.0800 
 46 H       -9.1120    -1.2400     0.8410 H     1 <1>   0.0800 
 47 H       -8.5230    -2.7640     1.4980 H     1 <1>   0.0800 
 48 H       -7.5240    -4.4630    -0.5030 H     1 <1>   0.0800 
 49 H       -7.7350    -3.7620    -2.1050 H     1 <1>   0.0800 
 50 H      -10.7760    -2.3180    -0.3790 H     1 <1>   0.0800 
 51 H      -10.6170    -3.5170     0.8810 H     1 <1>   0.0800 
 52 H       -9.7280    -5.0250    -0.6630 H     1 <1>   0.0800 
 53 H      -10.0410    -3.8460    -1.9130 H     1 <1>   0.0800 
@<TRIPOS>BOND
  1   1   2  2   
  2   2   3  am  
  3   2   4  1   
  4   3   5  1   
  5   3   6  1   
  6   4   7  ar  
  7   4   8  ar  
  8   5   9  1   
  9   5  27  1   
 10   5  28  1   
 11   6  10  1   
 12   6  29  1   
 13   6  30  1   
 14   7  11  1   
 15   7  12  ar  
 16   8  13  ar  
 17   8  31  1   
 18   9  14  1   
 19   9  32  1   
 20   9  33  1   
 21  10  15  1   
 22  10  34  1   
 23  10  35  1   
 24  11  16  3   
 25  12  17  ar  
 26  12  36  1   
 27  13  17  ar  
 28  13  37  1   
 29  14  15  1   
 30  14  18  am  
 31  15  38  1   
 32  15  39  1   
 33  17  40  1   
 34  18  19  2   
 35  18  20  1   
 36  20  21  1   
 37  20  22  1   
 38  20  41  1   
 39  21  23  1   
 40  21  24  1   
 41  21  42  1   
 42  22  43  1   
 43  22  44  1   
 44  22  45  1   
 45  23  25  1   
 46  23  46  1   
 47  23  47  1   
 48  24  26  1   
 49  24  48  1   
 50  24  49  1   
 51  25  26  1   
 52  25  50  1   
 53  25  51  1   
 54  26  52  1   
 55  26  53  1   
@<TRIPOS>SUBSTRUCTURE
  1 ****   9 GROUP 4 **** **** 0

# MOE 2024.06 (io_trps.svl 2023.06)
