@<TRIPOS>MOLECULE
NONAME
50 53 1 0 0 
SMALL
USER_CHARGES


@<TRIPOS>ATOM
  1 O        0.3020    -1.0810     0.3550 O.3   1 <1>  -0.3630 
  2 C       -0.1450    -2.3370     0.1210 C.ar  1 <1>   0.0830 
  3 C        1.2330    -0.7980     1.3740 C.3   1 <1>   0.1200 
  4 C       -1.0360    -2.5080    -0.9060 C.ar  1 <1>  -0.1500 
  5 C        0.2620    -3.4530     0.8750 C.ar  1 <1>  -0.1500 
  6 C        1.5170     0.7010     1.3500 C.3   1 <1>  -0.2400 
  7 C       -1.5570    -3.7750    -1.2250 C.ar  1 <1>   0.0000 
  8 C       -0.2360    -4.6950     0.5790 C.ar  1 <1>  -0.1500 
  9 C       -1.1530    -4.8940    -0.4660 C.ar  1 <1>   0.3100 
 10 C       -2.4680    -3.9850    -2.2730 C.ar  1 <1>  -0.1500 
 11 N       -1.6180    -6.1490    -0.7060 N.ar  1 <1>  -0.6200 
 12 C       -2.9150    -5.2510    -2.5000 C.ar  1 <1>  -0.1500 
 13 C       -2.4620    -6.3050    -1.6900 C.ar  1 <1>   0.1670 
 14 C       -2.9840    -7.7170    -1.9590 C.3   1 <1>   0.4860 
 15 N       -3.0530    -8.4790    -0.6760 N.4   1 <1>  -0.9590 
 16 C       -3.0430    -9.9610    -0.8980 C.3   1 <1>   0.3430 
 17 C       -4.1860    -8.0230     0.1750 C.3   1 <1>   0.3430 
 18 C       -3.0320   -10.7520     0.4220 C.3   1 <1>   0.1000 
 19 C       -4.1410    -8.7490     1.5210 C.3   1 <1>  -0.1600 
 20 C       -3.1830   -12.2310     0.1060 C.2   1 <1>   0.0060 
 21 C       -4.1620   -10.2770     1.3520 C.3   1 <1>  -0.1600 
 22 N       -3.5110   -12.6740    -1.0660 N.2   1 <1>  -0.5650 
 23 N       -2.9890   -13.2130     1.0170 N.pl3 1 <1>   0.0330 
 24 C       -3.5340   -14.0120    -0.9140 C.2   1 <1>   0.0770 
 25 C       -3.2180   -14.3590     0.3520 C.2   1 <1>  -0.3020 
 26 H        2.1310    -1.3580     1.1810 H     1 <1>   0.0800 
 27 H        0.8040    -1.0880     2.3180 H     1 <1>   0.0800 
 28 H       -1.3430    -1.6530    -1.4810 H     1 <1>   0.1500 
 29 H        0.9610    -3.3420     1.6820 H     1 <1>   0.1500 
 30 H        1.9290     0.9830     0.3970 H     1 <1>   0.0800 
 31 H        2.2260     0.9500     2.1180 H     1 <1>   0.0800 
 32 H        0.6100     1.2510     1.5260 H     1 <1>   0.0800 
 33 H        0.0700    -5.5540     1.1470 H     1 <1>   0.1500 
 34 H       -2.7890    -3.1480    -2.8690 H     1 <1>   0.1500 
 35 H       -3.6110    -5.4430    -3.2980 H     1 <1>   0.1500 
 36 H       -2.3000    -8.2030    -2.6340 H     1 <1>   0.0800 
 37 H       -3.9550    -7.6750    -2.4240 H     1 <1>   0.0800 
 38 H       -2.1870    -8.1830    -0.1910 H     1 <1>   0.4500 
 39 H       -2.1820   -10.2480    -1.4800 H     1 <1>   0.0800 
 40 H       -3.9220   -10.2460    -1.4530 H     1 <1>   0.0800 
 41 H       -5.1220    -8.2350    -0.3160 H     1 <1>   0.0800 
 42 H       -4.1180    -6.9580     0.3390 H     1 <1>   0.0800 
 43 H       -2.0800   -10.6010     0.9000 H     1 <1>   0.0800 
 44 H       -4.9910    -8.4460     2.1080 H     1 <1>   0.0800 
 45 H       -3.2580    -8.4460     2.0580 H     1 <1>   0.0800 
 46 H       -4.0680   -10.7490     2.3150 H     1 <1>   0.0800 
 47 H       -5.1100   -10.5760     0.9340 H     1 <1>   0.0800 
 48 H       -2.7280   -13.1170     2.0030 H     1 <1>   0.2700 
 49 H       -3.7800   -14.6680    -1.7340 H     1 <1>   0.1500 
 50 H       -3.1460   -15.3340     0.8000 H     1 <1>   0.1500 
@<TRIPOS>BOND
  1   1   2  1   
  2   1   3  1   
  3   2   4  ar  
  4   2   5  ar  
  5   3   6  1   
  6   3  26  1   
  7   3  27  1   
  8   4   7  ar  
  9   4  28  1   
 10   5   8  ar  
 11   5  29  1   
 12   6  30  1   
 13   6  31  1   
 14   6  32  1   
 15   7   9  ar  
 16   7  10  ar  
 17   8   9  ar  
 18   8  33  1   
 19   9  11  ar  
 20  10  12  ar  
 21  10  34  1   
 22  11  13  ar  
 23  12  13  ar  
 24  12  35  1   
 25  13  14  1   
 26  14  15  1   
 27  14  36  1   
 28  14  37  1   
 29  15  16  1   
 30  15  17  1   
 31  15  38  1   
 32  16  18  1   
 33  16  39  1   
 34  16  40  1   
 35  17  19  1   
 36  17  41  1   
 37  17  42  1   
 38  18  20  1   
 39  18  21  1   
 40  18  43  1   
 41  19  21  1   
 42  19  44  1   
 43  19  45  1   
 44  20  22  2   
 45  20  23  1   
 46  21  46  1   
 47  21  47  1   
 48  22  24  1   
 49  23  25  1   
 50  23  48  1   
 51  24  25  2   
 52  24  49  1   
 53  25  50  1   
@<TRIPOS>SUBSTRUCTURE
  1 ****  11 GROUP 4 **** **** 0

# MOE 2024.06 (io_trps.svl 2023.06)
