@<TRIPOS>MOLECULE
NONAME
56 59 1 0 0 
SMALL
USER_CHARGES


@<TRIPOS>ATOM
  1 O        1.0410     0.0840    -0.9870 O.3   1 <1>  -0.0190 
  2 N        0.8950     1.3030    -0.5580 N.2   1 <1>  -0.4100 
  3 C        1.2300    -0.7580    -0.0050 C.2   1 <1>  -0.0400 
  4 C        1.0010     1.2460     0.7210 C.2   1 <1>   0.1080 
  5 C        1.2200    -0.0630     1.1420 C.2   1 <1>  -0.1500 
  6 C        1.4200    -2.2360    -0.2980 C.3   1 <1>   0.2900 
  7 C        0.8970     2.4450     1.6380 C.3   1 <1>  -0.0590 
  8 N        0.1360    -2.9720    -0.2790 N.3   1 <1>  -0.8100 
  9 C        0.3740    -4.4240    -0.3510 C.3   1 <1>   0.2530 
 10 C       -0.7940    -2.5250    -1.3260 C.3   1 <1>   0.1100 
 11 C       -0.9460    -5.1810    -0.3330 C.ar  1 <1>  -0.1430 
 12 C       -2.1860    -3.0830    -1.0200 C.3   1 <1>  -0.0160 
 13 C       -0.9880    -6.5500     0.0100 C.ar  1 <1>   0.4100 
 14 C       -2.1120    -4.5470    -0.6110 C.ar  1 <1>   0.2170 
 15 N       -2.1280    -7.1990     0.1330 N.ar  1 <1>  -0.6200 
 16 N        0.1440    -7.2660     0.2230 N.pl3 1 <1>  -0.8380 
 17 N       -3.2550    -5.2610    -0.4950 N.ar  1 <1>  -0.1790 
 18 C       -3.2550    -6.5480    -0.1120 C.ar  1 <1>   0.7710 
 19 C        0.2740    -8.1510     1.4180 C.3   1 <1>   0.2090 
 20 C        1.1210    -7.5420    -0.8670 C.3   1 <1>   0.2090 
 21 N       -4.4470    -7.1970     0.0180 N.pl3 1 <1>  -0.8380 
 22 C        0.1620    -9.6170     0.9980 C.3   1 <1>  -0.1600 
 23 C        1.0090    -9.0040    -1.3010 C.3   1 <1>  -0.1600 
 24 C       -4.4960    -8.6730     0.2890 C.3   1 <1>   0.1290 
 25 C       -5.8130    -6.5850     0.0010 C.3   1 <1>   0.1290 
 26 C        1.1750    -9.9320    -0.1000 C.3   1 <1>   0.2000 
 27 O        0.9750   -11.2270    -0.5200 O.3   1 <1>  -0.6800 
 28 H        1.3440    -0.4000     2.1540 H     1 <1>   0.1500 
 29 H        2.0640    -2.6410     0.4630 H     1 <1>   0.0800 
 30 H        1.9090    -2.3540    -1.2500 H     1 <1>   0.0800 
 31 H        0.6970     3.3310     1.0620 H     1 <1>   0.0800 
 32 H        1.8210     2.5780     2.1690 H     1 <1>   0.0800 
 33 H        0.1000     2.3000     2.3420 H     1 <1>   0.0800 
 34 H        0.9640    -4.7260     0.4990 H     1 <1>   0.0800 
 35 H        0.9190    -4.6640    -1.2480 H     1 <1>   0.0800 
 36 H       -0.4520    -2.8620    -2.2910 H     1 <1>   0.0800 
 37 H       -0.8630    -1.4510    -1.3490 H     1 <1>   0.0800 
 38 H       -2.8050    -2.9590    -1.8900 H     1 <1>   0.0800 
 39 H       -2.6120    -2.5090    -0.2160 H     1 <1>   0.0800 
 40 H       -4.1650    -4.8650    -0.6820 H     1 <1>   0.4570 
 41 H       -0.4960    -7.9200     2.1350 H     1 <1>   0.0800 
 42 H        1.2280    -7.9750     1.8860 H     1 <1>   0.0800 
 43 H        2.1170    -7.3390    -0.5120 H     1 <1>   0.0800 
 44 H        0.9240    -6.9090    -1.7150 H     1 <1>   0.0800 
 45 H       -0.8390    -9.7950     0.6480 H     1 <1>   0.0800 
 46 H        0.3460   -10.2440     1.8520 H     1 <1>   0.0800 
 47 H        1.7720    -9.2170    -2.0280 H     1 <1>   0.0800 
 48 H        0.0460    -9.1520    -1.7550 H     1 <1>   0.0800 
 49 H       -3.6070    -9.1690    -0.0630 H     1 <1>   0.0800 
 50 H       -5.3390    -9.1170    -0.2140 H     1 <1>   0.0800 
 51 H       -4.5900    -8.8470     1.3470 H     1 <1>   0.0800 
 52 H       -5.7810    -5.5240     0.1660 H     1 <1>   0.0800 
 53 H       -6.4140    -7.0180     0.7840 H     1 <1>   0.0800 
 54 H       -6.2920    -6.7870    -0.9430 H     1 <1>   0.0800 
 55 H        2.1780    -9.8660     0.2880 H     1 <1>   0.0800 
 56 H        0.0700   -11.3270    -0.8700 H     1 <1>   0.4000 
@<TRIPOS>BOND
  1   1   2  1   
  2   1   3  1   
  3   2   4  2   
  4   3   5  2   
  5   3   6  1   
  6   4   5  1   
  7   4   7  1   
  8   5  28  1   
  9   6   8  1   
 10   6  29  1   
 11   6  30  1   
 12   7  31  1   
 13   7  32  1   
 14   7  33  1   
 15   8   9  1   
 16   8  10  1   
 17   9  11  1   
 18   9  34  1   
 19   9  35  1   
 20  10  12  1   
 21  10  36  1   
 22  10  37  1   
 23  11  13  ar  
 24  11  14  ar  
 25  12  14  1   
 26  12  38  1   
 27  12  39  1   
 28  13  15  ar  
 29  13  16  1   
 30  14  17  ar  
 31  15  18  ar  
 32  16  19  1   
 33  16  20  1   
 34  17  18  ar  
 35  17  40  1   
 36  18  21  1   
 37  19  22  1   
 38  19  41  1   
 39  19  42  1   
 40  20  23  1   
 41  20  43  1   
 42  20  44  1   
 43  21  24  1   
 44  21  25  1   
 45  22  26  1   
 46  22  45  1   
 47  22  46  1   
 48  23  26  1   
 49  23  47  1   
 50  23  48  1   
 51  24  49  1   
 52  24  50  1   
 53  24  51  1   
 54  25  52  1   
 55  25  53  1   
 56  25  54  1   
 57  26  27  1   
 58  26  55  1   
 59  27  56  1   
@<TRIPOS>SUBSTRUCTURE
  1 ****  11 GROUP 4 **** **** 0

# MOE 2024.06 (io_trps.svl 2023.06)
