@<TRIPOS>MOLECULE
NONAME
43 44 1 0 0 
SMALL
USER_CHARGES


@<TRIPOS>ATOM
  1 CL       0.2550     0.5340    -0.5940 Cl    1 <1>  -0.1770 
  2 C        1.7350    -0.3820    -0.4010 C.ar  1 <1>   0.1770 
  3 C        2.9520     0.2970    -0.3740 C.ar  1 <1>   0.0860 
  4 C        1.6480    -1.7630    -0.2610 C.ar  1 <1>  -0.1440 
  5 C        4.0820    -0.4900    -0.1780 C.ar  1 <1>   0.1900 
  6 C        3.0450     1.7230    -0.5400 C.2   1 <1>   0.5440 
  7 C        2.8090    -2.5020    -0.0770 C.ar  1 <1>  -0.1500 
  8 C        0.3020    -2.4750    -0.3040 C.3   1 <1>  -0.0960 
  9 F        5.2550     0.0810    -0.1200 F     1 <1>  -0.1900 
 10 C        4.0350    -1.8630    -0.0330 C.ar  1 <1>  -0.1500 
 11 O        2.7560     2.2410    -1.5990 O.2   1 <1>  -0.5700 
 12 N        3.4840     2.5140     0.4860 N.am  1 <1>  -0.7300 
 13 C        3.6720     3.9810     0.4080 C.3   1 <1>   0.1400 
 14 C        5.1670     4.3180     0.4090 C.3   1 <1>  -0.0800 
 15 C        5.4260     5.8320     0.3230 C.3   1 <1>   0.1400 
 16 C        5.9460     3.7020    -0.7720 C.3   1 <1>  -0.0990 
 17 N        6.6340     5.9330    -0.5100 N.am  1 <1>  -0.6600 
 18 C        6.9420     4.7700    -1.1260 C.2   1 <1>   0.5690 
 19 C        7.3230     7.2320    -0.7220 C.3   1 <1>   0.1400 
 20 O        7.8850     4.5870    -1.8550 O.2   1 <1>  -0.5700 
 21 C        8.7230     7.2020    -0.1110 C.3   1 <1>   0.1200 
 22 O        9.2490     8.4930    -0.1420 O.3   1 <1>  -0.5600 
 23 C       10.5630     8.5720     0.3070 C.3   1 <1>   0.0400 
 24 H        2.7640    -3.5730     0.0320 H     1 <1>   0.1500 
 25 H       -0.1890    -2.2770    -1.2400 H     1 <1>   0.0800 
 26 H       -0.3260    -2.1240     0.4960 H     1 <1>   0.0800 
 27 H        0.4200    -3.5380    -0.2010 H     1 <1>   0.0800 
 28 H        4.9440    -2.4210     0.1110 H     1 <1>   0.1500 
 29 H        3.8030     2.0710     1.3490 H     1 <1>   0.3700 
 30 H        3.1870     4.4420     1.2510 H     1 <1>   0.0800 
 31 H        3.2120     4.3630    -0.4900 H     1 <1>   0.0800 
 32 H        5.6040     3.9710     1.3290 H     1 <1>   0.0800 
 33 H        5.5950     6.2590     1.2970 H     1 <1>   0.0800 
 34 H        4.6160     6.3430    -0.1700 H     1 <1>   0.0800 
 35 H        5.3110     3.5330    -1.6230 H     1 <1>   0.0800 
 36 H        6.4400     2.7890    -0.4980 H     1 <1>   0.0800 
 37 H        6.7500     8.0220    -0.2690 H     1 <1>   0.0800 
 38 H        7.4030     7.4180    -1.7790 H     1 <1>   0.0800 
 39 H        9.3600     6.5490    -0.6840 H     1 <1>   0.0800 
 40 H        8.6780     6.8770     0.9130 H     1 <1>   0.0800 
 41 H       10.8730     9.6010     0.2520 H     1 <1>   0.0800 
 42 H       11.1910     7.9700    -0.3260 H     1 <1>   0.0800 
 43 H       10.6120     8.2310     1.3260 H     1 <1>   0.0800 
@<TRIPOS>BOND
  1   1   2  1   
  2   2   3  ar  
  3   2   4  ar  
  4   3   5  ar  
  5   3   6  1   
  6   4   7  ar  
  7   4   8  1   
  8   5   9  1   
  9   5  10  ar  
 10   6  11  2   
 11   6  12  am  
 12   7  10  ar  
 13   7  24  1   
 14   8  25  1   
 15   8  26  1   
 16   8  27  1   
 17  10  28  1   
 18  12  13  1   
 19  12  29  1   
 20  13  14  1   
 21  13  30  1   
 22  13  31  1   
 23  14  15  1   
 24  14  16  1   
 25  14  32  1   
 26  15  17  1   
 27  15  33  1   
 28  15  34  1   
 29  16  18  1   
 30  16  35  1   
 31  16  36  1   
 32  17  18  am  
 33  17  19  1   
 34  18  20  2   
 35  19  21  1   
 36  19  37  1   
 37  19  38  1   
 38  21  22  1   
 39  21  39  1   
 40  21  40  1   
 41  22  23  1   
 42  23  41  1   
 43  23  42  1   
 44  23  43  1   
@<TRIPOS>SUBSTRUCTURE
  1 ****  12 GROUP 4 **** **** 0

# MOE 2024.06 (io_trps.svl 2023.06)
