@<TRIPOS>MOLECULE
NONAME
53 55 1 0 0 
SMALL
USER_CHARGES


@<TRIPOS>ATOM
  1 CL       0.1030    -0.1300     1.1250 Cl    1 <1>  -0.1770 
  2 C        1.4430    -1.2350     0.9640 C.ar  1 <1>   0.1770 
  3 C        1.8810    -1.5860    -0.3010 C.ar  1 <1>  -0.1500 
  4 C        2.0440    -1.7400     2.1030 C.ar  1 <1>  -0.1500 
  5 C        2.9450    -2.4640    -0.4350 C.ar  1 <1>  -0.1500 
  6 C        3.1080    -2.6180     1.9720 C.ar  1 <1>  -0.1500 
  7 C        3.5480    -2.9740     0.7070 C.ar  1 <1>   0.1020 
  8 S        4.9320    -4.1230     0.6280 S.3   1 <1>  -0.3320 
  9 C        5.2510    -4.4520    -1.1730 C.3   1 <1>   0.1310 
 10 C        6.4190    -5.4180    -1.3360 C.2   1 <1>   0.5690 
 11 O        7.3730    -5.0160    -1.9630 O.2   1 <1>  -0.5700 
 12 N        6.4130    -6.6880    -0.7980 N.am  1 <1>  -0.6600 
 13 C        7.6670    -7.5230    -0.8680 C.3   1 <1>   0.2200 
 14 C        5.1610    -7.3140    -0.2650 C.3   1 <1>   0.1400 
 15 C        7.5690    -8.9160    -0.1880 C.3   1 <1>   0.0000 
 16 C        8.9320    -6.7560    -0.4050 C.3   1 <1>   0.3430 
 17 C        5.0210    -8.8100    -0.6000 C.3   1 <1>  -0.1600 
 18 C        8.8370    -9.7380    -0.5820 C.3   1 <1>  -0.1600 
 19 C        6.3270    -9.6060    -0.7880 C.3   1 <1>  -0.1600 
 20 C        7.4100    -8.8850     1.3680 C.3   1 <1>   0.1200 
 21 N       10.0850    -7.6630    -0.0650 N.4   1 <1>  -0.9590 
 22 C       10.0930    -8.8980    -0.8850 C.3   1 <1>   0.3430 
 23 O        8.5840    -8.5630     2.0450 O.3   1 <1>  -0.6800 
 24 C       11.3920    -6.9650    -0.0490 C.3   1 <1>   0.3430 
 25 C       11.4240    -5.9660     1.1030 C.3   1 <1>  -0.2400 
 26 H        1.3920    -1.1730    -1.1660 H     1 <1>   0.1500 
 27 H        1.6840    -1.4490     3.0730 H     1 <1>   0.1500 
 28 H        3.2810    -2.7290    -1.4180 H     1 <1>   0.1500 
 29 H        3.5940    -3.0230     2.8410 H     1 <1>   0.1500 
 30 H        4.3530    -4.8510    -1.6050 H     1 <1>   0.0800 
 31 H        5.4890    -3.5080    -1.6270 H     1 <1>   0.0800 
 32 H        7.8150    -7.7090    -1.9180 H     1 <1>   0.0800 
 33 H        5.1350    -7.1740     0.8010 H     1 <1>   0.0800 
 34 H        4.2940    -6.8110    -0.6550 H     1 <1>   0.0800 
 35 H        8.6780    -6.1740     0.4650 H     1 <1>   0.0800 
 36 H        9.2260    -6.0800    -1.1890 H     1 <1>   0.0800 
 37 H        4.4390    -9.2660     0.1830 H     1 <1>   0.0800 
 38 H        4.4340    -8.9020    -1.4980 H     1 <1>   0.0800 
 39 H        8.6450   -10.3260    -1.4620 H     1 <1>   0.0800 
 40 H        9.0700   -10.4440     0.1960 H     1 <1>   0.0800 
 41 H        6.4740    -9.7250    -1.8490 H     1 <1>   0.0800 
 42 H        6.2070   -10.5950    -0.3790 H     1 <1>   0.0800 
 43 H        7.1090    -9.8600     1.7140 H     1 <1>   0.0800 
 44 H        6.6640    -8.1810     1.6820 H     1 <1>   0.0800 
 45 H        9.8680    -7.9880     0.9000 H     1 <1>   0.4500 
 46 H       10.1060    -8.6300    -1.9290 H     1 <1>   0.0800 
 47 H       10.9730    -9.4840    -0.6750 H     1 <1>   0.0800 
 48 H        8.4320    -8.6240     3.0150 H     1 <1>   0.4000 
 49 H       12.1830    -7.6840     0.0910 H     1 <1>   0.0800 
 50 H       11.5540    -6.4570    -0.9860 H     1 <1>   0.0800 
 51 H       11.2260    -6.4580     2.0390 H     1 <1>   0.0800 
 52 H       10.7150    -5.1720     0.9530 H     1 <1>   0.0800 
 53 H       12.4030    -5.5240     1.1580 H     1 <1>   0.0800 
@<TRIPOS>BOND
  1   1   2  1   
  2   2   3  ar  
  3   2   4  ar  
  4   3   5  ar  
  5   3  26  1   
  6   4   6  ar  
  7   4  27  1   
  8   5   7  ar  
  9   5  28  1   
 10   6   7  ar  
 11   6  29  1   
 12   7   8  1   
 13   8   9  1   
 14   9  10  1   
 15   9  30  1   
 16   9  31  1   
 17  10  11  2   
 18  10  12  am  
 19  12  13  1   
 20  12  14  1   
 21  13  15  1   
 22  13  16  1   
 23  13  32  1   
 24  14  17  1   
 25  14  33  1   
 26  14  34  1   
 27  15  18  1   
 28  15  19  1   
 29  15  20  1   
 30  16  21  1   
 31  16  35  1   
 32  16  36  1   
 33  17  19  1   
 34  17  37  1   
 35  17  38  1   
 36  18  22  1   
 37  18  39  1   
 38  18  40  1   
 39  19  41  1   
 40  19  42  1   
 41  20  23  1   
 42  20  43  1   
 43  20  44  1   
 44  21  22  1   
 45  21  24  1   
 46  21  45  1   
 47  22  46  1   
 48  22  47  1   
 49  23  48  1   
 50  24  25  1   
 51  24  49  1   
 52  24  50  1   
 53  25  51  1   
 54  25  52  1   
 55  25  53  1   
@<TRIPOS>SUBSTRUCTURE
  1 ****  12 GROUP 4 **** **** 0

# MOE 2024.06 (io_trps.svl 2023.06)
