@<TRIPOS>MOLECULE
NONAME
47 50 1 0 0 
SMALL
USER_CHARGES


@<TRIPOS>ATOM
  1 S       -0.8690    -0.9170    -2.1280 S.3   1 <1>  -0.2420 
  2 C       -1.7980    -1.3450    -0.6920 C.2   1 <1>   0.6510 
  3 C       -0.4810     0.6840    -1.4690 C.2   1 <1>  -0.0490 
  4 N       -2.3930    -2.4870    -0.5510 N.2   1 <1>  -0.6210 
  5 N       -1.7800    -0.2970     0.1890 N.am  1 <1>  -0.2290 
  6 C       -1.0410     0.8200    -0.2590 C.2   1 <1>  -0.0410 
  7 C       -3.0860    -2.6590     0.6210 C.2   1 <1>   0.0330 
  8 C       -2.4710    -0.4460     1.3660 C.2   1 <1>   0.6160 
  9 C       -3.1410    -1.6800     1.5640 C.2   1 <1>  -0.1360 
 10 C       -3.7960    -4.0050     0.7980 C.3   1 <1>   0.4810 
 11 O       -2.5040     0.4500     2.1930 O.2   1 <1>  -0.5700 
 12 N       -4.1410    -4.5470    -0.5530 N.4   1 <1>  -0.9590 
 13 C       -5.5100    -4.2760    -1.0750 C.3   1 <1>   0.4230 
 14 C       -3.7660    -5.9860    -0.6820 C.3   1 <1>   0.2630 
 15 C       -6.6330    -4.8980    -0.2490 C.3   1 <1>  -0.1600 
 16 C       -5.8740    -2.7970    -1.1390 C.3   1 <1>  -0.1600 
 17 C       -7.8930    -4.1490    -0.7080 C.3   1 <1>  -0.0800 
 18 C       -7.4020    -2.7950    -1.2720 C.3   1 <1>  -0.0800 
 19 C       -8.9770    -4.0480     0.3860 C.3   1 <1>   0.1400 
 20 C       -8.0700    -1.5700    -0.6200 C.3   1 <1>  -0.0990 
 21 N       -9.9670    -3.0080     0.0180 N.am  1 <1>  -0.6600 
 22 C       -9.5600    -1.7970    -0.4710 C.2   1 <1>   0.5690 
 23 C      -11.4010    -3.3320     0.2510 C.3   1 <1>   0.0600 
 24 O      -10.3190    -0.9130    -0.7830 O.2   1 <1>  -0.5700 
 25 H        0.1280     1.3330    -2.0750 H     1 <1>   0.1500 
 26 H       -0.9810     1.6830     0.3860 H     1 <1>   0.1500 
 27 H       -3.6750    -1.7770     2.4910 H     1 <1>   0.1500 
 28 H       -4.6750    -3.8920     1.4090 H     1 <1>   0.0800 
 29 H       -3.1170    -4.6790     1.2930 H     1 <1>   0.0800 
 30 H       -3.4930    -4.0020    -1.1560 H     1 <1>   0.4500 
 31 H       -5.5850    -4.6680    -2.0780 H     1 <1>   0.0800 
 32 H       -4.3740    -6.5940    -0.0320 H     1 <1>   0.0800 
 33 H       -2.7290    -6.1270    -0.4190 H     1 <1>   0.0800 
 34 H       -3.9060    -6.3180    -1.6980 H     1 <1>   0.0800 
 35 H       -6.7280    -5.9540    -0.4330 H     1 <1>   0.0800 
 36 H       -6.4750    -4.7250     0.8000 H     1 <1>   0.0800 
 37 H       -5.6060    -2.2920    -0.2300 H     1 <1>   0.0800 
 38 H       -5.4090    -2.3070    -1.9760 H     1 <1>   0.0800 
 39 H       -8.3270    -4.6990    -1.5280 H     1 <1>   0.0800 
 40 H       -7.6550    -2.7770    -2.3210 H     1 <1>   0.0800 
 41 H       -8.5380    -3.7740     1.3300 H     1 <1>   0.0800 
 42 H       -9.4670    -5.0000     0.5030 H     1 <1>   0.0800 
 43 H       -7.9010    -0.6920    -1.2190 H     1 <1>   0.0800 
 44 H       -7.6730    -1.3890     0.3610 H     1 <1>   0.0800 
 45 H      -11.6840    -4.1820    -0.3440 H     1 <1>   0.0800 
 46 H      -12.0260    -2.4990    -0.0210 H     1 <1>   0.0800 
 47 H      -11.5610    -3.5550     1.2920 H     1 <1>   0.0800 
@<TRIPOS>BOND
  1   1   2  1   
  2   1   3  1   
  3   2   4  2   
  4   2   5  1   
  5   3   6  2   
  6   3  25  1   
  7   4   7  1   
  8   5   6  1   
  9   5   8  am  
 10   6  26  1   
 11   7   9  2   
 12   7  10  1   
 13   8   9  1   
 14   8  11  2   
 15   9  27  1   
 16  10  12  1   
 17  10  28  1   
 18  10  29  1   
 19  12  13  1   
 20  12  14  1   
 21  12  30  1   
 22  13  15  1   
 23  13  16  1   
 24  13  31  1   
 25  14  32  1   
 26  14  33  1   
 27  14  34  1   
 28  15  17  1   
 29  15  35  1   
 30  15  36  1   
 31  16  18  1   
 32  16  37  1   
 33  16  38  1   
 34  17  18  1   
 35  17  19  1   
 36  17  39  1   
 37  18  20  1   
 38  18  40  1   
 39  19  21  1   
 40  19  41  1   
 41  19  42  1   
 42  20  22  1   
 43  20  43  1   
 44  20  44  1   
 45  21  22  am  
 46  21  23  1   
 47  22  24  2   
 48  23  45  1   
 49  23  46  1   
 50  23  47  1   
@<TRIPOS>SUBSTRUCTURE
  1 ****  16 GROUP 4 **** **** 0

# MOE 2024.06 (io_trps.svl 2023.06)
