@<TRIPOS>MOLECULE
NONAME
49 50 1 0 0 
SMALL
USER_CHARGES


@<TRIPOS>ATOM
  1 O        0.3950     1.4220     1.0760 O.2   1 <1>  -0.5700 
  2 C        1.0550     2.2480     0.4850 C.2   1 <1>   0.5690 
  3 N        0.7070     3.5670     0.5120 N.am  1 <1>  -0.7300 
  4 C        2.3250     1.8240    -0.3090 C.3   1 <1>   0.3500 
  5 C       -0.4400     4.1690     1.2290 C.3   1 <1>   0.0600 
  6 N        2.6980     2.8180    -1.3660 N.pl3 1 <1>  -0.8690 
  7 C        2.2110     0.4570    -1.0110 C.3   1 <1>  -0.1600 
  8 C        3.4790     3.8720    -1.0110 C.ar  1 <1>   0.4100 
  9 C        2.4090    -0.7380    -0.0620 C.3   1 <1>  -0.1600 
 10 N        2.8690     5.0070    -0.9570 N.ar  1 <1>  -0.6200 
 11 C        4.8350     3.7030    -0.7150 C.ar  1 <1>  -0.1500 
 12 C        2.3490    -2.0620    -0.8290 C.3   1 <1>  -0.2400 
 13 C        3.5870     6.0940    -0.5610 C.ar  1 <1>   0.3100 
 14 C        5.5980     4.7600    -0.3250 C.ar  1 <1>  -0.1430 
 15 C        4.9700     6.0380    -0.2240 C.ar  1 <1>   0.0000 
 16 C        2.9070     7.3380    -0.4710 C.ar  1 <1>   0.0820 
 17 C        7.0690     4.4930    -0.0270 C.3   1 <1>  -0.0970 
 18 C        5.6010     7.2510     0.1890 C.ar  1 <1>   0.0820 
 19 O        1.5860     7.4480    -0.7660 O.3   1 <1>  -0.3620 
 20 C        3.5440     8.4740    -0.0570 C.ar  1 <1>  -0.1500 
 21 O        6.9230     7.2210     0.5080 O.3   1 <1>  -0.3630 
 22 C        4.8930     8.4310     0.2690 C.ar  1 <1>  -0.1500 
 23 C        1.2450     7.4490    -2.1350 C.3   1 <1>   0.0400 
 24 C        7.6450     8.3580     0.9330 C.3   1 <1>   0.0400 
 25 H        1.3420     4.2340     0.0370 H     1 <1>   0.3700 
 26 H        3.1320     1.7700     0.4000 H     1 <1>   0.0800 
 27 H       -1.0300     3.4010     1.7030 H     1 <1>   0.0800 
 28 H       -1.0590     4.7070     0.5330 H     1 <1>   0.0800 
 29 H       -0.0800     4.8480     1.9810 H     1 <1>   0.0800 
 30 H        1.8510     3.1500    -1.8330 H     1 <1>   0.4000 
 31 H        2.9660     0.3990    -1.7750 H     1 <1>   0.0800 
 32 H        1.2480     0.3860    -1.4850 H     1 <1>   0.0800 
 33 H        1.6460    -0.7430     0.6970 H     1 <1>   0.0800 
 34 H        3.3640    -0.6590     0.4280 H     1 <1>   0.0800 
 35 H        5.2360     2.7130    -0.8160 H     1 <1>   0.1500 
 36 H        1.3910    -2.1750    -1.3080 H     1 <1>   0.0800 
 37 H        2.4880    -2.8860    -0.1510 H     1 <1>   0.0800 
 38 H        3.1190    -2.1020    -1.5780 H     1 <1>   0.0800 
 39 H        7.3200     3.4600    -0.1830 H     1 <1>   0.0800 
 40 H        7.2890     4.7380     0.9970 H     1 <1>   0.0800 
 41 H        7.6900     5.0860    -0.6750 H     1 <1>   0.0800 
 42 H        3.0020     9.3990     0.0160 H     1 <1>   0.1500 
 43 H        5.3460     9.3530     0.5820 H     1 <1>   0.1500 
 44 H        0.1860     7.6080    -2.2180 H     1 <1>   0.0800 
 45 H        1.5080     6.5000    -2.5680 H     1 <1>   0.0800 
 46 H        1.7780     8.2440    -2.6260 H     1 <1>   0.0800 
 47 H        8.6600     8.0570     1.1180 H     1 <1>   0.0800 
 48 H        7.2050     8.7320     1.8400 H     1 <1>   0.0800 
 49 H        7.6210     9.0990     0.1540 H     1 <1>   0.0800 
@<TRIPOS>BOND
  1   1   2  2   
  2   2   3  am  
  3   2   4  1   
  4   3   5  1   
  5   3  25  1   
  6   4   6  1   
  7   4   7  1   
  8   4  26  1   
  9   5  27  1   
 10   5  28  1   
 11   5  29  1   
 12   6   8  1   
 13   6  30  1   
 14   7   9  1   
 15   7  31  1   
 16   7  32  1   
 17   8  10  ar  
 18   8  11  ar  
 19   9  12  1   
 20   9  33  1   
 21   9  34  1   
 22  10  13  ar  
 23  11  14  ar  
 24  11  35  1   
 25  12  36  1   
 26  12  37  1   
 27  12  38  1   
 28  13  15  ar  
 29  13  16  ar  
 30  14  15  ar  
 31  14  17  1   
 32  15  18  ar  
 33  16  19  1   
 34  16  20  ar  
 35  17  39  1   
 36  17  40  1   
 37  17  41  1   
 38  18  21  1   
 39  18  22  ar  
 40  19  23  1   
 41  20  22  ar  
 42  20  42  1   
 43  21  24  1   
 44  22  43  1   
 45  23  44  1   
 46  23  45  1   
 47  23  46  1   
 48  24  47  1   
 49  24  48  1   
 50  24  49  1   
@<TRIPOS>SUBSTRUCTURE
  1 ****  10 GROUP 4 **** **** 0

# MOE 2024.06 (io_trps.svl 2023.06)
