@<TRIPOS>MOLECULE
NONAME
45 46 1 0 0 
SMALL
USER_CHARGES


@<TRIPOS>ATOM
  1 S       -0.4270     0.2060    -0.8400 S.3   1 <1>  -0.0800 
  2 C        1.0080    -0.8190    -0.7550 C.2   1 <1>  -0.0450 
  3 C       -1.2870    -0.7590     0.3320 C.2   1 <1>  -0.1100 
  4 C        2.1440    -0.4660    -1.5630 C.2   1 <1>   0.5940 
  5 C        0.7630    -1.8230     0.1310 C.2   1 <1>  -0.1500 
  6 C       -0.5340    -1.8010     0.7350 C.2   1 <1>  -0.1810 
  7 O        2.1430     0.4200    -2.3770 O.2   1 <1>  -0.5700 
  8 C        3.4240    -1.2570    -1.4020 C.3   1 <1>  -0.1790 
  9 C       -0.9830    -2.8510     1.7410 C.3   1 <1>   0.5240 
 10 N       -1.6610    -3.9880     1.0470 N.4   1 <1>  -0.9590 
 11 C       -0.7540    -4.6540     0.0780 C.3   1 <1>   0.5240 
 12 C       -2.9410    -3.6040     0.3840 C.3   1 <1>   0.3430 
 13 C       -1.3830    -5.9650    -0.3210 C.2   1 <1>  -0.1810 
 14 C       -3.9880    -3.2530     1.4340 C.3   1 <1>  -0.2400 
 15 C       -1.8840    -6.2600    -1.5820 C.2   1 <1>   0.1390 
 16 C       -1.6040    -7.0840     0.4080 C.2   1 <1>  -0.3020 
 17 N       -2.3880    -7.4490    -1.6350 N.2   1 <1>  -0.7070 
 18 N       -2.2100    -7.9760    -0.4050 N.pl3 1 <1>   0.3140 
 19 C       -2.6320    -9.3620    -0.0400 C.3   1 <1>   0.1760 
 20 C       -1.8940   -10.3970    -0.9000 C.3   1 <1>  -0.2400 
 21 C       -4.1530    -9.5210    -0.1810 C.3   1 <1>  -0.2400 
 22 H       -2.2800    -0.4300     0.5880 H     1 <1>   0.1500 
 23 H        1.4870    -2.5800     0.3810 H     1 <1>   0.1500 
 24 H        3.6820    -1.3370    -0.3630 H     1 <1>   0.0800 
 25 H        4.2250    -0.7560    -1.9170 H     1 <1>   0.0800 
 26 H        3.3020    -2.2360    -1.8250 H     1 <1>   0.0800 
 27 H       -1.6630    -2.3970     2.4440 H     1 <1>   0.0800 
 28 H       -0.1290    -3.2050     2.2940 H     1 <1>   0.0800 
 29 H       -1.8950    -4.7090     1.7390 H     1 <1>   0.4500 
 30 H        0.2040    -4.8480     0.5330 H     1 <1>   0.0800 
 31 H       -0.6050    -4.0300    -0.7900 H     1 <1>   0.0800 
 32 H       -3.3120    -4.4330    -0.2000 H     1 <1>   0.0800 
 33 H       -2.7850    -2.7710    -0.2830 H     1 <1>   0.0800 
 34 H       -4.1360    -4.0700     2.1180 H     1 <1>   0.0800 
 35 H       -4.9250    -3.0660     0.9390 H     1 <1>   0.0800 
 36 H       -3.7280    -2.3620     1.9760 H     1 <1>   0.0800 
 37 H       -1.8730    -5.6000    -2.4350 H     1 <1>   0.1500 
 38 H       -1.3720    -7.3120     1.4330 H     1 <1>   0.1500 
 39 H       -2.3660    -9.5230     0.9890 H     1 <1>   0.0800 
 40 H       -2.1480   -10.2700    -1.9390 H     1 <1>   0.0800 
 41 H       -2.1700   -11.3920    -0.6020 H     1 <1>   0.0800 
 42 H       -0.8310   -10.2890    -0.7830 H     1 <1>   0.0800 
 43 H       -4.4510    -9.3720    -1.2050 H     1 <1>   0.0800 
 44 H       -4.6620    -8.8070     0.4400 H     1 <1>   0.0800 
 45 H       -4.4520   -10.5090     0.1200 H     1 <1>   0.0800 
@<TRIPOS>BOND
  1   1   2  1   
  2   1   3  1   
  3   2   4  1   
  4   2   5  2   
  5   3   6  2   
  6   3  22  1   
  7   4   7  2   
  8   4   8  1   
  9   5   6  1   
 10   5  23  1   
 11   6   9  1   
 12   8  24  1   
 13   8  25  1   
 14   8  26  1   
 15   9  10  1   
 16   9  27  1   
 17   9  28  1   
 18  10  11  1   
 19  10  12  1   
 20  10  29  1   
 21  11  13  1   
 22  11  30  1   
 23  11  31  1   
 24  12  14  1   
 25  12  32  1   
 26  12  33  1   
 27  13  15  1   
 28  13  16  2   
 29  14  34  1   
 30  14  35  1   
 31  14  36  1   
 32  15  17  2   
 33  15  37  1   
 34  16  18  1   
 35  16  38  1   
 36  17  18  1   
 37  18  19  1   
 38  19  20  1   
 39  19  21  1   
 40  19  39  1   
 41  20  40  1   
 42  20  41  1   
 43  20  42  1   
 44  21  43  1   
 45  21  44  1   
 46  21  45  1   
@<TRIPOS>SUBSTRUCTURE
  1 ****  11 GROUP 4 **** **** 0

# MOE 2024.06 (io_trps.svl 2023.06)
