@<TRIPOS>MOLECULE
NONAME
57 60 1 0 0 
SMALL
USER_CHARGES


@<TRIPOS>ATOM
  1 O        1.5880    -1.9880     0.2320 O.3   1 <1>  -0.5600 
  2 C        0.4870    -1.9680    -0.6500 C.3   1 <1>   0.2800 
  3 C        1.6150    -1.1080     1.3320 C.3   1 <1>   0.1200 
  4 C       -0.4800    -0.7960    -0.3580 C.3   1 <1>  -0.1600 
  5 C       -0.2110    -3.3450    -0.5590 C.3   1 <1>  -0.1600 
  6 C        1.0850    -1.8430    -2.0620 C.3   1 <1>  -0.1600 
  7 C        0.2790    -1.1030     2.0860 C.3   1 <1>   0.2000 
  8 C       -0.8540    -0.6250     1.1320 C.3   1 <1>   0.2800 
  9 C        0.5860    -4.5100    -1.1630 C.3   1 <1>   0.3430 
 10 C        2.0640    -2.9740    -2.4140 C.3   1 <1>   0.3430 
 11 O        0.0450    -2.3820     2.6040 O.3   1 <1>  -0.6800 
 12 O       -0.9850     0.7330     1.3330 O.3   1 <1>  -0.6800 
 13 C       -2.2390    -1.2030     1.4590 C.3   1 <1>  -0.2400 
 14 N        1.9760    -4.0720    -1.4110 N.4   1 <1>  -0.9590 
 15 C        2.9690    -5.1490    -1.6030 C.3   1 <1>   0.5240 
 16 C        4.3360    -4.5830    -1.2750 C.2   1 <1>  -0.1810 
 17 C        5.5450    -5.0910    -1.7330 C.2   1 <1>   0.1390 
 18 C        4.6900    -3.5210    -0.5120 C.2   1 <1>  -0.3020 
 19 N        6.5540    -4.4060    -1.3050 N.2   1 <1>  -0.7070 
 20 N        6.0420    -3.4220    -0.5250 N.pl3 1 <1>   0.5930 
 21 C        6.8220    -2.4030     0.0890 C.ar  1 <1>  -0.0230 
 22 C        6.7810    -2.1560     1.4660 C.ar  1 <1>  -0.1440 
 23 C        7.6460    -1.6160    -0.7110 C.ar  1 <1>  -0.1500 
 24 C        7.5370    -1.1230     1.9990 C.ar  1 <1>  -0.1500 
 25 C        5.9380    -3.0000     2.4150 C.3   1 <1>  -0.0970 
 26 C        8.3990    -0.5910    -0.1690 C.ar  1 <1>  -0.1500 
 27 C        8.3400    -0.3420     1.1890 C.ar  1 <1>  -0.1500 
 28 H        2.4090    -1.4140     1.9900 H     1 <1>   0.0800 
 29 H        1.8380    -0.1190     0.9690 H     1 <1>   0.0800 
 30 H        0.0060     0.1030    -0.6990 H     1 <1>   0.0800 
 31 H       -1.3680    -0.9070    -0.9530 H     1 <1>   0.0800 
 32 H       -0.4310    -3.5810     0.4630 H     1 <1>   0.0800 
 33 H       -1.1560    -3.3020    -1.0690 H     1 <1>   0.0800 
 34 H        0.2890    -1.8440    -2.7850 H     1 <1>   0.0800 
 35 H        1.5920    -0.9000    -2.1630 H     1 <1>   0.0800 
 36 H        0.3470    -0.4370     2.9300 H     1 <1>   0.0800 
 37 H        0.1330    -4.8240    -2.0900 H     1 <1>   0.0800 
 38 H        0.5730    -5.3410    -0.4760 H     1 <1>   0.0800 
 39 H        3.0670    -2.5770    -2.4160 H     1 <1>   0.0800 
 40 H        1.8500    -3.3490    -3.4020 H     1 <1>   0.0800 
 41 H       -0.6950    -2.3480     3.2420 H     1 <1>   0.4000 
 42 H       -1.7780     1.0660     0.8710 H     1 <1>   0.4000 
 43 H       -2.9950    -0.7700     0.8290 H     1 <1>   0.0800 
 44 H       -2.4900    -1.0090     2.4870 H     1 <1>   0.0800 
 45 H       -2.2530    -2.2660     1.3060 H     1 <1>   0.0800 
 46 H        2.2420    -3.5940    -0.5260 H     1 <1>   0.4500 
 47 H        2.7600    -5.9720    -0.9380 H     1 <1>   0.0800 
 48 H        2.9420    -5.5050    -2.6190 H     1 <1>   0.0800 
 49 H        5.6570    -5.9520    -2.3750 H     1 <1>   0.1500 
 50 H        4.0950    -2.8190     0.0420 H     1 <1>   0.1500 
 51 H        7.7010    -1.8120    -1.7680 H     1 <1>   0.1500 
 52 H        7.5100    -0.9190     3.0550 H     1 <1>   0.1500 
 53 H        6.2650    -2.8710     3.4310 H     1 <1>   0.0800 
 54 H        6.0270    -4.0440     2.1720 H     1 <1>   0.0800 
 55 H        4.9050    -2.7090     2.3540 H     1 <1>   0.0800 
 56 H        9.0300     0.0090    -0.8020 H     1 <1>   0.1500 
 57 H        8.9240     0.4560     1.6150 H     1 <1>   0.1500 
@<TRIPOS>BOND
  1   1   2  1   
  2   1   3  1   
  3   2   4  1   
  4   2   5  1   
  5   2   6  1   
  6   3   7  1   
  7   3  28  1   
  8   3  29  1   
  9   4   8  1   
 10   4  30  1   
 11   4  31  1   
 12   5   9  1   
 13   5  32  1   
 14   5  33  1   
 15   6  10  1   
 16   6  34  1   
 17   6  35  1   
 18   7   8  1   
 19   7  11  1   
 20   7  36  1   
 21   8  12  1   
 22   8  13  1   
 23   9  14  1   
 24   9  37  1   
 25   9  38  1   
 26  10  14  1   
 27  10  39  1   
 28  10  40  1   
 29  11  41  1   
 30  12  42  1   
 31  13  43  1   
 32  13  44  1   
 33  13  45  1   
 34  14  15  1   
 35  14  46  1   
 36  15  16  1   
 37  15  47  1   
 38  15  48  1   
 39  16  17  1   
 40  16  18  2   
 41  17  19  2   
 42  17  49  1   
 43  18  20  1   
 44  18  50  1   
 45  19  20  1   
 46  20  21  1   
 47  21  22  ar  
 48  21  23  ar  
 49  22  24  ar  
 50  22  25  1   
 51  23  26  ar  
 52  23  51  1   
 53  24  27  ar  
 54  24  52  1   
 55  25  53  1   
 56  25  54  1   
 57  25  55  1   
 58  26  27  ar  
 59  26  56  1   
 60  27  57  1   
@<TRIPOS>SUBSTRUCTURE
  1 ****   1 GROUP 4 **** **** 0

# MOE 2024.06 (io_trps.svl 2023.06)
