@<TRIPOS>MOLECULE
NONAME
39 40 1 0 0 
SMALL
USER_CHARGES


@<TRIPOS>ATOM
  1 S        1.3670     0.6620     0.3650 S.3   1 <1>  -0.4600 
  2 C        0.6850     1.2230    -1.2430 C.3   1 <1>   0.1310 
  3 C        1.2670    -1.1480     0.2780 C.3   1 <1>   0.1650 
  4 C        0.8690     2.7200    -1.4600 C.2   1 <1>   0.5690 
  5 C       -0.2070    -1.5600     0.2060 C.3   1 <1>  -0.1950 
  6 O        0.4750     3.2050    -2.4930 O.2   1 <1>  -0.5700 
  7 N        1.4630     3.4710    -0.5030 N.am  1 <1>  -0.7300 
  8 C       -1.0740    -1.5380     1.4240 C.3   1 <1>  -0.2000 
  9 C       -0.6600    -2.8480     0.8170 C.3   1 <1>  -0.2000 
 10 C        1.7780     4.8950    -0.6150 C.3   1 <1>   0.4010 
 11 C        3.0660     5.1430     0.1510 C.2   1 <1>  -0.1810 
 12 C        0.5990     5.7130    -0.0690 C.3   1 <1>  -0.1600 
 13 C        3.2440     5.0690     1.5280 C.2   1 <1>   0.1390 
 14 C        4.2850     5.4790    -0.3270 C.2   1 <1>  -0.3020 
 15 C        0.8320     7.2300    -0.1490 C.3   1 <1>  -0.2400 
 16 N        4.4640     5.3350     1.8830 N.2   1 <1>  -0.7070 
 17 N        5.1090     5.5870     0.7330 N.pl3 1 <1>   0.3140 
 18 C        6.5330     5.9340     0.7130 C.3   1 <1>   0.0160 
 19 H       -0.3610     0.9820    -1.2500 H     1 <1>   0.0800 
 20 H        1.1930     0.6770    -2.0160 H     1 <1>   0.0800 
 21 H        1.7360    -1.5260     1.1690 H     1 <1>   0.0800 
 22 H        1.8150    -1.4700    -0.5890 H     1 <1>   0.0800 
 23 H       -0.6620    -1.2960    -0.7320 H     1 <1>   0.1000 
 24 H        1.8360     3.0010     0.3270 H     1 <1>   0.3700 
 25 H       -2.0970    -1.2160     1.3220 H     1 <1>   0.1000 
 26 H       -0.6410    -1.2350     2.3620 H     1 <1>   0.1000 
 27 H        0.0420    -3.4590     1.3580 H     1 <1>   0.1000 
 28 H       -1.4030    -3.4340     0.3040 H     1 <1>   0.1000 
 29 H        1.9310     5.1420    -1.6530 H     1 <1>   0.0800 
 30 H        0.4120     5.4380     0.9530 H     1 <1>   0.0800 
 31 H       -0.2760     5.4710    -0.6470 H     1 <1>   0.0800 
 32 H        2.4680     4.8210     2.2330 H     1 <1>   0.1500 
 33 H        4.6030     5.6400    -1.3400 H     1 <1>   0.1500 
 34 H        1.6740     7.5190     0.4560 H     1 <1>   0.0800 
 35 H       -0.0370     7.7540     0.2080 H     1 <1>   0.0800 
 36 H        1.0170     7.5280    -1.1660 H     1 <1>   0.0800 
 37 H        6.9170     5.8260    -0.2830 H     1 <1>   0.0800 
 38 H        7.0590     5.2760     1.3800 H     1 <1>   0.0800 
 39 H        6.6480     6.9480     1.0440 H     1 <1>   0.0800 
@<TRIPOS>BOND
  1   1   2  1   
  2   1   3  1   
  3   2   4  1   
  4   2  19  1   
  5   2  20  1   
  6   3   5  1   
  7   3  21  1   
  8   3  22  1   
  9   4   6  2   
 10   4   7  am  
 11   5   8  1   
 12   5   9  1   
 13   5  23  1   
 14   7  10  1   
 15   7  24  1   
 16   8   9  1   
 17   8  25  1   
 18   8  26  1   
 19   9  27  1   
 20   9  28  1   
 21  10  11  1   
 22  10  12  1   
 23  10  29  1   
 24  11  13  1   
 25  11  14  2   
 26  12  15  1   
 27  12  30  1   
 28  12  31  1   
 29  13  16  2   
 30  13  32  1   
 31  14  17  1   
 32  14  33  1   
 33  15  34  1   
 34  15  35  1   
 35  15  36  1   
 36  16  17  1   
 37  17  18  1   
 38  18  37  1   
 39  18  38  1   
 40  18  39  1   
@<TRIPOS>SUBSTRUCTURE
  1 ****   7 GROUP 4 **** **** 0

# MOE 2024.06 (io_trps.svl 2023.06)
