@<TRIPOS>MOLECULE
NONAME
43 45 1 0 0 
SMALL
USER_CHARGES


@<TRIPOS>ATOM
  1 O       -0.3650     0.1180     0.3910 O.2   1 <1>  -0.5700 
  2 C       -1.3900     0.6960     0.1180 C.2   1 <1>   0.5690 
  3 N       -2.5300     0.0120    -0.1990 N.am  1 <1>  -0.6600 
  4 C       -1.4130     2.2170     0.1310 C.3   1 <1>  -0.0990 
  5 C       -3.8590     0.6000    -0.5020 C.3   1 <1>   0.1400 
  6 C       -2.5940    -1.4690    -0.2270 C.3   1 <1>   0.1400 
  7 C       -0.0470     2.8550     0.4240 C.3   1 <1>  -0.0170 
  8 C       -4.7770    -0.5980    -0.7490 C.3   1 <1>   0.2000 
  9 C       -4.0830    -1.8000    -0.1110 C.3   1 <1>  -0.0800 
 10 C       -0.1570     4.3700     0.4080 C.ar  1 <1>  -0.1440 
 11 O       -6.0240    -0.4120    -0.1720 O.3   1 <1>  -0.6800 
 12 C       -4.4880    -3.1320    -0.7660 C.3   1 <1>  -0.0170 
 13 C       -0.4510     5.0920     1.5470 C.ar  1 <1>  -0.1500 
 14 C        0.0280     5.1030    -0.7470 C.ar  1 <1>  -0.1500 
 15 C       -3.8170    -4.3200    -0.0960 C.ar  1 <1>   0.1670 
 16 C       -0.5460     6.4720     1.4770 C.ar  1 <1>   0.1600 
 17 C       -0.0900     6.4820    -0.7090 C.ar  1 <1>   0.1600 
 18 N       -2.5810    -4.5960    -0.4830 N.ar  1 <1>  -0.6200 
 19 C       -4.5010    -5.0540     0.8710 C.ar  1 <1>   0.1600 
 20 N       -0.3750     7.1850     0.3760 N.ar  1 <1>  -0.6200 
 21 C       -2.0800    -5.6380     0.1580 C.ar  1 <1>   0.1600 
 22 N       -4.0020    -6.0980     1.5140 N.ar  1 <1>  -0.6200 
 23 C       -2.7670    -6.3640     1.1240 C.ar  1 <1>   0.1600 
 24 H       -1.7560     2.5600    -0.8280 H     1 <1>   0.0800 
 25 H       -2.1150     2.5400     0.8760 H     1 <1>   0.0800 
 26 H       -4.1960     1.1780     0.3410 H     1 <1>   0.0800 
 27 H       -3.8020     1.2190    -1.3810 H     1 <1>   0.0800 
 28 H       -2.1920    -1.8190    -1.1630 H     1 <1>   0.0800 
 29 H       -2.0270    -1.8980     0.5820 H     1 <1>   0.0800 
 30 H        0.6690     2.5340    -0.3140 H     1 <1>   0.0800 
 31 H        0.3090     2.5260     1.3850 H     1 <1>   0.0800 
 32 H       -4.9120    -0.7400    -1.8090 H     1 <1>   0.0800 
 33 H       -4.3160    -1.8330     0.9390 H     1 <1>   0.0800 
 34 H       -5.9410    -0.3110     0.7960 H     1 <1>   0.4000 
 35 H       -4.2240    -3.1250    -1.8090 H     1 <1>   0.0800 
 36 H       -5.5560    -3.2430    -0.7050 H     1 <1>   0.0800 
 37 H       -0.6060     4.5940     2.4870 H     1 <1>   0.1500 
 38 H        0.2630     4.6140    -1.6750 H     1 <1>   0.1500 
 39 H       -0.7750     7.0180     2.3760 H     1 <1>   0.1500 
 40 H        0.0580     7.0370    -1.6190 H     1 <1>   0.1500 
 41 H       -5.5050    -4.7650     1.1270 H     1 <1>   0.1500 
 42 H       -1.0770    -5.9330    -0.0920 H     1 <1>   0.1500 
 43 H       -2.2740    -7.1980     1.5910 H     1 <1>   0.1500 
@<TRIPOS>BOND
  1   1   2  2   
  2   2   3  am  
  3   2   4  1   
  4   3   5  1   
  5   3   6  1   
  6   4   7  1   
  7   4  24  1   
  8   4  25  1   
  9   5   8  1   
 10   5  26  1   
 11   5  27  1   
 12   6   9  1   
 13   6  28  1   
 14   6  29  1   
 15   7  10  1   
 16   7  30  1   
 17   7  31  1   
 18   8   9  1   
 19   8  11  1   
 20   8  32  1   
 21   9  12  1   
 22   9  33  1   
 23  10  13  ar  
 24  10  14  ar  
 25  11  34  1   
 26  12  15  1   
 27  12  35  1   
 28  12  36  1   
 29  13  16  ar  
 30  13  37  1   
 31  14  17  ar  
 32  14  38  1   
 33  15  18  ar  
 34  15  19  ar  
 35  16  20  ar  
 36  16  39  1   
 37  17  20  ar  
 38  17  40  1   
 39  18  21  ar  
 40  19  22  ar  
 41  19  41  1   
 42  21  23  ar  
 43  21  42  1   
 44  22  23  ar  
 45  23  43  1   
@<TRIPOS>SUBSTRUCTURE
  1 ****   3 GROUP 4 **** **** 0

# MOE 2024.06 (io_trps.svl 2023.06)
