@<TRIPOS>MOLECULE
NONAME
48 50 1 0 0 
SMALL
USER_CHARGES


@<TRIPOS>ATOM
  1 O       -2.5250     0.0910    -2.4690 O.2   1 <1>  -0.5700 
  2 C       -2.5470    -0.5630    -1.4530 C.2   1 <1>   0.5690 
  3 N       -2.4320     0.0080    -0.2200 N.am  1 <1>  -0.6600 
  4 C       -2.7040    -2.0600    -1.5850 C.3   1 <1>  -0.0190 
  5 C       -2.5220    -0.7970     1.0310 C.3   1 <1>   0.2200 
  6 C       -2.2640     1.4790    -0.0440 C.3   1 <1>   0.0600 
  7 C       -1.4660    -2.7940    -1.0380 C.3   1 <1>   0.1200 
  8 C       -4.0860    -2.5220    -1.0870 C.3   1 <1>   0.1400 
  9 C       -1.3550    -1.8100     1.1460 C.3   1 <1>   0.1200 
 10 C       -3.9390    -1.3860     1.2140 C.3   1 <1>   0.1400 
 11 O       -1.4730    -2.9560     0.3470 O.3   1 <1>  -0.5600 
 12 N       -4.2530    -2.6100     0.4000 N.am  1 <1>  -0.6600 
 13 C       -4.7290    -3.7480     1.0230 C.2   1 <1>   0.5440 
 14 O       -5.1720    -3.6660     2.1530 O.2   1 <1>  -0.5700 
 15 C       -4.7490    -5.0360     0.3580 C.ar  1 <1>   0.0860 
 16 C       -5.9570    -5.6550     0.0480 C.ar  1 <1>  -0.1500 
 17 C       -3.5680    -5.6870     0.0050 C.ar  1 <1>  -0.1500 
 18 C       -5.9900    -6.8780    -0.6130 C.ar  1 <1>   0.0820 
 19 C       -3.5890    -6.9020    -0.6540 C.ar  1 <1>  -0.1500 
 20 O       -7.1300    -7.5320    -0.9510 O.3   1 <1>  -0.3630 
 21 C       -4.8000    -7.4930    -0.9650 C.ar  1 <1>  -0.1500 
 22 C       -8.4120    -7.1330    -0.5160 C.3   1 <1>   0.2000 
 23 C       -8.5950    -7.5500     0.9460 C.3   1 <1>  -0.2400 
 24 C       -9.4260    -7.8320    -1.4160 C.3   1 <1>  -0.2400 
 25 H       -2.7020    -2.2490    -2.6430 H     1 <1>   0.0800 
 26 H       -2.3880    -0.1090     1.8470 H     1 <1>   0.0800 
 27 H       -1.3600     1.6810     0.5020 H     1 <1>   0.0800 
 28 H       -3.1040     1.8800     0.4960 H     1 <1>   0.0800 
 29 H       -2.2040     1.9760    -0.9970 H     1 <1>   0.0800 
 30 H       -0.5620    -2.2790    -1.3180 H     1 <1>   0.0800 
 31 H       -1.4310    -3.7830    -1.4600 H     1 <1>   0.0800 
 32 H       -4.2930    -3.4780    -1.5330 H     1 <1>   0.0800 
 33 H       -4.8290    -1.8400    -1.4660 H     1 <1>   0.0800 
 34 H       -1.3090    -2.1610     2.1610 H     1 <1>   0.0800 
 35 H       -0.4210    -1.3290     0.9170 H     1 <1>   0.0800 
 36 H       -4.6680    -0.6260     0.9930 H     1 <1>   0.0800 
 37 H       -4.0430    -1.6220     2.2580 H     1 <1>   0.0800 
 38 H       -6.8580    -5.1520     0.3420 H     1 <1>   0.1500 
 39 H       -2.6280    -5.2290     0.2600 H     1 <1>   0.1500 
 40 H       -2.6670    -7.3890    -0.9200 H     1 <1>   0.1500 
 41 H       -4.8310    -8.4380    -1.4780 H     1 <1>   0.1500 
 42 H       -8.5080    -6.0690    -0.6390 H     1 <1>   0.0800 
 43 H       -8.4720    -8.6130     1.0470 H     1 <1>   0.0800 
 44 H       -9.5800    -7.2840     1.2820 H     1 <1>   0.0800 
 45 H       -7.8810    -7.0520     1.5760 H     1 <1>   0.0800 
 46 H       -9.3260    -8.9000    -1.3350 H     1 <1>   0.0800 
 47 H       -9.2720    -7.5380    -2.4390 H     1 <1>   0.0800 
 48 H      -10.4250    -7.5560    -1.1300 H     1 <1>   0.0800 
@<TRIPOS>BOND
  1   1   2  2   
  2   2   3  am  
  3   2   4  1   
  4   3   5  1   
  5   3   6  1   
  6   4   7  1   
  7   4   8  1   
  8   4  25  1   
  9   5   9  1   
 10   5  10  1   
 11   5  26  1   
 12   6  27  1   
 13   6  28  1   
 14   6  29  1   
 15   7  11  1   
 16   7  30  1   
 17   7  31  1   
 18   8  12  1   
 19   8  32  1   
 20   8  33  1   
 21   9  11  1   
 22   9  34  1   
 23   9  35  1   
 24  10  12  1   
 25  10  36  1   
 26  10  37  1   
 27  12  13  am  
 28  13  14  2   
 29  13  15  1   
 30  15  16  ar  
 31  15  17  ar  
 32  16  18  ar  
 33  16  38  1   
 34  17  19  ar  
 35  17  39  1   
 36  18  20  1   
 37  18  21  ar  
 38  19  21  ar  
 39  19  40  1   
 40  20  22  1   
 41  21  41  1   
 42  22  23  1   
 43  22  24  1   
 44  22  42  1   
 45  23  43  1   
 46  23  44  1   
 47  23  45  1   
 48  24  46  1   
 49  24  47  1   
 50  24  48  1   
@<TRIPOS>SUBSTRUCTURE
  1 ****  13 GROUP 4 **** **** 0

# MOE 2024.06 (io_trps.svl 2023.06)
