@<TRIPOS>MOLECULE
NONAME
42 43 1 0 0 
SMALL
USER_CHARGES


@<TRIPOS>ATOM
  1 CL      -0.5490    -0.3460     0.4800 Cl    1 <1>  -0.1770 
  2 C        0.9410    -1.0170    -0.1610 C.ar  1 <1>   0.1770 
  3 C        1.1660    -2.3880    -0.1650 C.ar  1 <1>   0.4100 
  4 C        1.9070    -0.1980    -0.6750 C.ar  1 <1>   0.1600 
  5 N        2.2890    -2.8770    -0.6600 N.ar  1 <1>  -0.6200 
  6 N        0.2460    -3.2770     0.3410 N.pl3 1 <1>  -0.8690 
  7 N        3.0370    -0.6790    -1.1690 N.ar  1 <1>  -0.6200 
  8 C        3.1570    -1.9960    -1.1270 C.ar  1 <1>   0.4770 
  9 C        0.2290    -4.7120     0.0080 C.3   1 <1>   0.4330 
 10 C        4.4400    -2.5600    -1.6880 C.3   1 <1>  -0.0960 
 11 C       -1.2330    -5.1080    -0.1380 C.ar  1 <1>  -0.1430 
 12 C        1.0080    -5.4770     1.0960 C.3   1 <1>  -0.1600 
 13 C       -2.0890    -5.1240     0.9560 C.ar  1 <1>   0.1600 
 14 C       -1.7420    -5.4510    -1.3770 C.ar  1 <1>  -0.1500 
 15 C        1.3240    -6.9720     0.8390 C.3   1 <1>   0.0000 
 16 N       -3.3700    -5.4530     0.9160 N.ar  1 <1>  -0.6200 
 17 C       -3.0740    -5.7970    -1.4370 C.ar  1 <1>  -0.1500 
 18 C        0.0630    -7.8500     0.8610 C.3   1 <1>  -0.2400 
 19 C        2.0500    -7.1670    -0.5010 C.3   1 <1>  -0.2400 
 20 C        2.2520    -7.4560     1.9640 C.3   1 <1>  -0.2400 
 21 C       -3.8320    -5.7830    -0.2790 C.ar  1 <1>   0.1600 
 22 H        1.7590     0.8670    -0.6850 H     1 <1>   0.1500 
 23 H       -0.6900    -2.9060     0.5260 H     1 <1>   0.4000 
 24 H        0.7230    -4.8480    -0.9380 H     1 <1>   0.0800 
 25 H        4.6320    -3.5330    -1.2750 H     1 <1>   0.0800 
 26 H        5.2620    -1.9110    -1.4470 H     1 <1>   0.0800 
 27 H        4.3560    -2.6400    -2.7550 H     1 <1>   0.0800 
 28 H        0.4920    -5.3820     2.0330 H     1 <1>   0.0800 
 29 H        1.9490    -4.9680     1.2100 H     1 <1>   0.0800 
 30 H       -1.7010    -4.8480     1.9210 H     1 <1>   0.1500 
 31 H       -1.1280    -5.4500    -2.2620 H     1 <1>   0.1500 
 32 H       -3.5250    -6.0750    -2.3720 H     1 <1>   0.1500 
 33 H       -0.5670    -7.6540     0.0150 H     1 <1>   0.0800 
 34 H       -0.5050    -7.6760     1.7580 H     1 <1>   0.0800 
 35 H        0.3300    -8.8910     0.8290 H     1 <1>   0.0800 
 36 H        1.4030    -6.9450    -1.3290 H     1 <1>   0.0800 
 37 H        2.3780    -8.1860    -0.6050 H     1 <1>   0.0800 
 38 H        2.9130    -6.5260    -0.5580 H     1 <1>   0.0800 
 39 H        1.7750    -7.3460     2.9210 H     1 <1>   0.0800 
 40 H        3.1660    -6.8890     1.9730 H     1 <1>   0.0800 
 41 H        2.5040    -8.4940     1.8310 H     1 <1>   0.0800 
 42 H       -4.8720    -6.0560    -0.3380 H     1 <1>   0.1500 
@<TRIPOS>BOND
  1   1   2  1   
  2   2   3  ar  
  3   2   4  ar  
  4   3   5  ar  
  5   3   6  1   
  6   4   7  ar  
  7   4  22  1   
  8   5   8  ar  
  9   6   9  1   
 10   6  23  1   
 11   7   8  ar  
 12   8  10  1   
 13   9  11  1   
 14   9  12  1   
 15   9  24  1   
 16  10  25  1   
 17  10  26  1   
 18  10  27  1   
 19  11  13  ar  
 20  11  14  ar  
 21  12  15  1   
 22  12  28  1   
 23  12  29  1   
 24  13  16  ar  
 25  13  30  1   
 26  14  17  ar  
 27  14  31  1   
 28  15  18  1   
 29  15  19  1   
 30  15  20  1   
 31  16  21  ar  
 32  17  21  ar  
 33  17  32  1   
 34  18  33  1   
 35  18  34  1   
 36  18  35  1   
 37  19  36  1   
 38  19  37  1   
 39  19  38  1   
 40  20  39  1   
 41  20  40  1   
 42  20  41  1   
 43  21  42  1   
@<TRIPOS>SUBSTRUCTURE
  1 ****   9 GROUP 4 **** **** 0

# MOE 2024.06 (io_trps.svl 2023.06)
