@<TRIPOS>MOLECULE
NONAME
49 52 1 0 0 
SMALL
USER_CHARGES


@<TRIPOS>ATOM
  1 O        2.0400     0.2310     1.7010 O.3   1 <1>  -0.6800 
  2 C        1.9170    -0.0330     0.3390 C.3   1 <1>   0.2000 
  3 C        2.7250    -1.2760    -0.0310 C.3   1 <1>  -0.0800 
  4 C        2.6430     1.0700    -0.4360 C.3   1 <1>   0.3430 
  5 C        4.1640    -0.7680    -0.1850 C.3   1 <1>   0.3430 
  6 C        2.6200    -2.4690     0.9390 C.3   1 <1>   0.0210 
  7 N        4.0970     0.7140    -0.3780 N.4   1 <1>  -0.9590 
  8 C        3.4370    -3.6480     0.4460 C.2   1 <1>   0.1080 
  9 C        4.7720     1.4110     0.7520 C.3   1 <1>   0.4860 
 10 N        4.7190    -3.5860     0.2500 N.2   1 <1>  -0.7070 
 11 C        2.9200    -4.9060     0.1590 C.2   1 <1>  -0.1500 
 12 C        4.8110     2.8970     0.4490 C.ar  1 <1>  -0.1440 
 13 N        5.0580    -4.8270    -0.1620 N.pl3 1 <1>   0.3000 
 14 C        3.9840    -5.6390    -0.2300 C.2   1 <1>  -0.3320 
 15 C        3.9390     3.7600     1.0960 C.ar  1 <1>  -0.1500 
 16 C        5.7080     3.4080    -0.4780 C.ar  1 <1>  -0.1500 
 17 C        4.0410    -7.0930    -0.6630 C.3   1 <1>  -0.0600 
 18 C        3.9530     5.1110     0.8060 C.ar  1 <1>  -0.1500 
 19 C        5.7200     4.7620    -0.7640 C.ar  1 <1>  -0.1500 
 20 C        4.8410     5.6350    -0.1280 C.ar  1 <1>  -0.0230 
 21 N        4.8400     7.0300    -0.4220 N.pl3 1 <1>   0.5930 
 22 N        3.7090     7.7790    -0.4610 N.2   1 <1>  -0.7070 
 23 C        5.9130     7.8100    -0.7050 C.2   1 <1>  -0.3020 
 24 C        4.0930     8.9790    -0.7630 C.2   1 <1>   0.1390 
 25 C        5.4690     9.0630    -0.9300 C.2   1 <1>  -0.1500 
 26 H        1.4220    -0.3190     2.2280 H     1 <1>   0.4000 
 27 H        0.8720    -0.0970     0.0860 H     1 <1>   0.0800 
 28 H        2.4020    -1.6110    -1.0010 H     1 <1>   0.0800 
 29 H        2.4360     2.0420    -0.0220 H     1 <1>   0.0800 
 30 H        2.3130     1.0500    -1.4620 H     1 <1>   0.0800 
 31 H        4.6420    -1.2550    -1.0200 H     1 <1>   0.0800 
 32 H        4.7230    -1.0050     0.7070 H     1 <1>   0.0800 
 33 H        1.5920    -2.7700     1.0380 H     1 <1>   0.0800 
 34 H        2.9850    -2.2000     1.9150 H     1 <1>   0.0800 
 35 H        4.5630     1.0030    -1.2450 H     1 <1>   0.4500 
 36 H        4.2370     1.2350     1.6720 H     1 <1>   0.0800 
 37 H        5.7780     1.0430     0.8660 H     1 <1>   0.0800 
 38 H        1.8910    -5.2110     0.2400 H     1 <1>   0.1500 
 39 H        6.0260    -5.0940    -0.3840 H     1 <1>   0.2700 
 40 H        3.2390     3.3910     1.8290 H     1 <1>   0.1500 
 41 H        6.4060     2.7630    -0.9850 H     1 <1>   0.1500 
 42 H        3.0570    -7.5270    -0.6310 H     1 <1>   0.0800 
 43 H        4.6820    -7.6520    -0.0050 H     1 <1>   0.0800 
 44 H        4.4160    -7.1690    -1.6680 H     1 <1>   0.0800 
 45 H        3.2660     5.7750     1.3080 H     1 <1>   0.1500 
 46 H        6.4170     5.1430    -1.4920 H     1 <1>   0.1500 
 47 H        6.9160     7.4280    -0.7230 H     1 <1>   0.1500 
 48 H        3.4160     9.8110    -0.8700 H     1 <1>   0.1500 
 49 H        6.0250     9.9500    -1.1810 H     1 <1>   0.1500 
@<TRIPOS>BOND
  1   1   2  1   
  2   1  26  1   
  3   2   3  1   
  4   2   4  1   
  5   2  27  1   
  6   3   5  1   
  7   3   6  1   
  8   3  28  1   
  9   4   7  1   
 10   4  29  1   
 11   4  30  1   
 12   5   7  1   
 13   5  31  1   
 14   5  32  1   
 15   6   8  1   
 16   6  33  1   
 17   6  34  1   
 18   7   9  1   
 19   7  35  1   
 20   8  10  2   
 21   8  11  1   
 22   9  12  1   
 23   9  36  1   
 24   9  37  1   
 25  10  13  1   
 26  11  14  2   
 27  11  38  1   
 28  12  15  ar  
 29  12  16  ar  
 30  13  14  1   
 31  13  39  1   
 32  14  17  1   
 33  15  18  ar  
 34  15  40  1   
 35  16  19  ar  
 36  16  41  1   
 37  17  42  1   
 38  17  43  1   
 39  17  44  1   
 40  18  20  ar  
 41  18  45  1   
 42  19  20  ar  
 43  19  46  1   
 44  20  21  1   
 45  21  22  1   
 46  21  23  1   
 47  22  24  2   
 48  23  25  2   
 49  23  47  1   
 50  24  25  1   
 51  24  48  1   
 52  25  49  1   
@<TRIPOS>SUBSTRUCTURE
  1 ****   7 GROUP 4 **** **** 0

# MOE 2024.06 (io_trps.svl 2023.06)
