@<TRIPOS>MOLECULE
NONAME
54 56 1 0 0 
SMALL
USER_CHARGES


@<TRIPOS>ATOM
  1 O       -1.6100     1.0000    -0.2570 O.2   1 <1>  -0.5700 
  2 C       -1.1600     2.0500     0.1270 C.2   1 <1>   0.5690 
  3 N       -1.9230     3.1640     0.1360 N.am  1 <1>  -0.7300 
  4 C        0.3020     2.1410     0.5750 C.3   1 <1>   0.1810 
  5 C       -1.4380     4.4900     0.5920 C.3   1 <1>   0.3640 
  6 O        0.5820     3.2980     1.3320 O.3   1 <1>  -0.5600 
  7 C       -1.8740     5.5440    -0.4250 C.ar  1 <1>  -0.1440 
  8 C        0.1030     4.5130     0.7710 C.3   1 <1>   0.2610 
  9 C       -1.7570     5.3240    -1.7930 C.ar  1 <1>  -0.1500 
 10 C       -2.3890     6.7540     0.0170 C.ar  1 <1>  -0.1500 
 11 C        0.5620     5.7220     1.6090 C.2   1 <1>   0.5690 
 12 C       -2.1490     6.2950    -2.6980 C.ar  1 <1>  -0.1500 
 13 C       -2.7810     7.7260    -0.8870 C.ar  1 <1>  -0.1500 
 14 O       -0.2410     6.2540     2.3460 O.2   1 <1>  -0.5700 
 15 N        1.8510     6.2000     1.5120 N.am  1 <1>  -0.6600 
 16 C       -2.6610     7.4970    -2.2450 C.ar  1 <1>  -0.1500 
 17 C        2.9650     5.5250     0.7920 C.3   1 <1>   0.1400 
 18 C        2.2660     7.4610     2.1850 C.3   1 <1>   0.1400 
 19 C        3.5140     6.4690    -0.2830 C.3   1 <1>  -0.1600 
 20 C        2.8130     8.4350     1.1370 C.3   1 <1>  -0.1600 
 21 C        3.9640     7.8110     0.3240 C.3   1 <1>  -0.0800 
 22 C        4.4820     8.7590    -0.7760 C.3   1 <1>  -0.0990 
 23 C        5.0910    10.0380    -0.2140 C.2   1 <1>   0.5690 
 24 O        6.1690     9.9280     0.3200 O.2   1 <1>  -0.5700 
 25 N        4.4550    11.2550    -0.3170 N.am  1 <1>  -0.6600 
 26 C        5.1110    12.5050     0.1640 C.3   1 <1>   0.0600 
 27 C        3.1100    11.4750    -0.9160 C.3   1 <1>   0.0600 
 28 H       -2.8950     3.1040    -0.1670 H     1 <1>   0.3700 
 29 H        0.9390     2.1380    -0.2900 H     1 <1>   0.0800 
 30 H        0.5390     1.2870     1.1830 H     1 <1>   0.0800 
 31 H       -1.9080     4.6950     1.5390 H     1 <1>   0.0800 
 32 H        0.5420     4.6100    -0.2040 H     1 <1>   0.0800 
 33 H       -1.3640     4.3930    -2.1650 H     1 <1>   0.1500 
 34 H       -2.4830     6.9510     1.0730 H     1 <1>   0.1500 
 35 H       -2.0580     6.1140    -3.7550 H     1 <1>   0.1500 
 36 H       -3.1790     8.6600    -0.5310 H     1 <1>   0.1500 
 37 H       -2.9680     8.2520    -2.9480 H     1 <1>   0.1500 
 38 H        3.7420     5.2910     1.5000 H     1 <1>   0.0800 
 39 H        2.6470     4.6020     0.3430 H     1 <1>   0.0800 
 40 H        1.4350     7.9150     2.6980 H     1 <1>   0.0800 
 41 H        3.0260     7.2380     2.9150 H     1 <1>   0.0800 
 42 H        4.3480     5.9950    -0.7680 H     1 <1>   0.0800 
 43 H        2.7510     6.6350    -1.0230 H     1 <1>   0.0800 
 44 H        2.0060     8.7140     0.4840 H     1 <1>   0.0800 
 45 H        3.1560     9.3220     1.6390 H     1 <1>   0.0800 
 46 H        4.7810     7.6140     1.0000 H     1 <1>   0.0800 
 47 H        3.7050     8.9740    -1.4820 H     1 <1>   0.0800 
 48 H        5.2630     8.2590    -1.3190 H     1 <1>   0.0800 
 49 H        4.5510    12.9160     0.9850 H     1 <1>   0.0800 
 50 H        5.1520    13.2250    -0.6350 H     1 <1>   0.0800 
 51 H        6.1160    12.3120     0.4980 H     1 <1>   0.0800 
 52 H        2.6460    12.3400    -0.4750 H     1 <1>   0.0800 
 53 H        2.4690    10.6310    -0.7420 H     1 <1>   0.0800 
 54 H        3.2090    11.6350    -1.9760 H     1 <1>   0.0800 
@<TRIPOS>BOND
  1   1   2  2   
  2   2   3  am  
  3   2   4  1   
  4   3   5  1   
  5   3  28  1   
  6   4   6  1   
  7   4  29  1   
  8   4  30  1   
  9   5   7  1   
 10   5   8  1   
 11   5  31  1   
 12   6   8  1   
 13   7   9  ar  
 14   7  10  ar  
 15   8  11  1   
 16   8  32  1   
 17   9  12  ar  
 18   9  33  1   
 19  10  13  ar  
 20  10  34  1   
 21  11  14  2   
 22  11  15  am  
 23  12  16  ar  
 24  12  35  1   
 25  13  16  ar  
 26  13  36  1   
 27  15  17  1   
 28  15  18  1   
 29  16  37  1   
 30  17  19  1   
 31  17  38  1   
 32  17  39  1   
 33  18  20  1   
 34  18  40  1   
 35  18  41  1   
 36  19  21  1   
 37  19  42  1   
 38  19  43  1   
 39  20  21  1   
 40  20  44  1   
 41  20  45  1   
 42  21  22  1   
 43  21  46  1   
 44  22  23  1   
 45  22  47  1   
 46  22  48  1   
 47  23  24  2   
 48  23  25  am  
 49  25  26  1   
 50  25  27  1   
 51  26  49  1   
 52  26  50  1   
 53  26  51  1   
 54  27  52  1   
 55  27  53  1   
 56  27  54  1   
@<TRIPOS>SUBSTRUCTURE
  1 ****  15 GROUP 4 **** **** 0

# MOE 2024.06 (io_trps.svl 2023.06)
