@<TRIPOS>MOLECULE
NONAME
47 49 1 0 0 
SMALL
USER_CHARGES


@<TRIPOS>ATOM
  1 O        0.4740     1.7370    -0.9220 O.2   1 <1>  -0.5700 
  2 C       -0.1040     2.7840    -0.7500 C.2   1 <1>   0.5690 
  3 N       -1.1150     2.9240     0.1610 N.am  1 <1>  -0.6600 
  4 C        0.3360     3.9890    -1.5810 C.3   1 <1>   0.1810 
  5 C       -1.8320     4.2270     0.3360 C.3   1 <1>   0.3640 
  6 C       -1.5800     1.8000     1.0220 C.3   1 <1>   0.0600 
  7 O       -0.6720     4.9660    -1.7350 O.3   1 <1>  -0.5600 
  8 C       -3.3540     4.0770     0.1600 C.ar  1 <1>  -0.1430 
  9 C       -1.2760     5.4020    -0.5220 C.3   1 <1>   0.2610 
 10 C       -3.9940     3.5400    -0.9630 C.ar  1 <1>  -0.1430 
 11 C       -4.1360     4.5290     1.2180 C.ar  1 <1>  -0.1500 
 12 C       -0.3360     6.3330     0.2610 C.2   1 <1>   0.5690 
 13 C       -5.3800     3.4700    -0.9910 C.ar  1 <1>  -0.1500 
 14 C       -3.2520     3.0160    -2.1860 C.3   1 <1>  -0.0960 
 15 C       -5.5150     4.4540     1.1790 C.ar  1 <1>  -0.1500 
 16 O       -0.4610     6.4570     1.4570 O.2   1 <1>  -0.5700 
 17 N        0.6100     7.0220    -0.4350 N.am  1 <1>  -0.6550 
 18 C       -6.1400     3.9220     0.0700 C.ar  1 <1>  -0.1500 
 19 C        1.6000     7.9680     0.1100 C.3   1 <1>   0.2250 
 20 C        0.9620     9.1700     0.8640 C.3   1 <1>   0.0000 
 21 C        2.0810     8.9780    -0.9680 C.3   1 <1>   0.0000 
 22 C        2.7240     7.2370     0.8500 C.3   1 <1>  -0.2400 
 23 C        1.9380    10.0980     0.0950 C.3   1 <1>   0.0000 
 24 H        0.6140     3.6530    -2.5630 H     1 <1>   0.0800 
 25 H        1.1940     4.4410    -1.1180 H     1 <1>   0.0800 
 26 H       -1.6880     4.4880     1.3680 H     1 <1>   0.0800 
 27 H       -1.5620     2.0990     2.0550 H     1 <1>   0.0800 
 28 H       -0.9440     0.9400     0.9020 H     1 <1>   0.0800 
 29 H       -2.5840     1.5240     0.7510 H     1 <1>   0.0800 
 30 H       -2.1120     6.0130    -0.8090 H     1 <1>   0.0800 
 31 H       -3.6780     4.9520     2.0960 H     1 <1>   0.1500 
 32 H       -5.8850     3.0590    -1.8470 H     1 <1>   0.1500 
 33 H       -3.9380     2.6360    -2.9210 H     1 <1>   0.0800 
 34 H       -2.5950     2.2110    -1.9150 H     1 <1>   0.0800 
 35 H       -2.6880     3.8020    -2.6490 H     1 <1>   0.0800 
 36 H       -6.1010     4.8100     2.0080 H     1 <1>   0.1500 
 37 H        0.6510     6.8790    -1.4470 H     1 <1>   0.3700 
 38 H       -7.2130     3.8600     0.0310 H     1 <1>   0.1500 
 39 H       -0.0630     9.3520     0.5900 H     1 <1>   0.0000 
 40 H        1.1310     9.1690     1.9270 H     1 <1>   0.0000 
 41 H        3.0960     8.8330    -1.2940 H     1 <1>   0.0000 
 42 H        1.3820     9.1030    -1.7780 H     1 <1>   0.0000 
 43 H        3.4540     7.9350     1.2180 H     1 <1>   0.0800 
 44 H        3.2160     6.5460     0.1900 H     1 <1>   0.0800 
 45 H        2.3210     6.7010     1.6900 H     1 <1>   0.0800 
 46 H        2.8530    10.2770     0.6350 H     1 <1>   0.0000 
 47 H        1.4790    10.9950    -0.2790 H     1 <1>   0.0000 
@<TRIPOS>BOND
  1   1   2  2   
  2   2   3  am  
  3   2   4  1   
  4   3   5  1   
  5   3   6  1   
  6   4   7  1   
  7   4  24  1   
  8   4  25  1   
  9   5   8  1   
 10   5   9  1   
 11   5  26  1   
 12   6  27  1   
 13   6  28  1   
 14   6  29  1   
 15   7   9  1   
 16   8  10  ar  
 17   8  11  ar  
 18   9  12  1   
 19   9  30  1   
 20  10  13  ar  
 21  10  14  1   
 22  11  15  ar  
 23  11  31  1   
 24  12  16  2   
 25  12  17  am  
 26  13  18  ar  
 27  13  32  1   
 28  14  33  1   
 29  14  34  1   
 30  14  35  1   
 31  15  18  ar  
 32  15  36  1   
 33  17  19  1   
 34  17  37  1   
 35  18  38  1   
 36  19  20  1   
 37  19  21  1   
 38  19  22  1   
 39  20  23  1   
 40  20  39  1   
 41  20  40  1   
 42  21  23  1   
 43  21  41  1   
 44  21  42  1   
 45  22  43  1   
 46  22  44  1   
 47  22  45  1   
 48  23  46  1   
 49  23  47  1   
@<TRIPOS>SUBSTRUCTURE
  1 ****   9 GROUP 4 **** **** 0

# MOE 2024.06 (io_trps.svl 2023.06)
