@<TRIPOS>MOLECULE
NONAME
48 50 1 0 0 
SMALL
USER_CHARGES


@<TRIPOS>ATOM
  1 O       -2.4820     0.9690     2.2850 O.2   1 <1>  -0.5700 
  2 C       -2.8270     0.9600     1.1290 C.2   1 <1>   0.5690 
  3 N       -2.9360    -0.2110     0.4170 N.am  1 <1>  -0.6600 
  4 C       -3.1530     2.2910     0.4940 C.3   1 <1>  -0.1790 
  5 C       -2.4910    -1.4980     1.0110 C.3   1 <1>   0.1400 
  6 C       -3.5140    -0.3310    -0.9430 C.3   1 <1>   0.1400 
  7 C       -3.7080    -2.4120     1.1380 C.3   1 <1>  -0.1600 
  8 C       -4.7480    -1.2340    -0.8610 C.3   1 <1>  -0.1600 
  9 C       -4.4030    -2.5830    -0.2130 C.3   1 <1>   0.4230 
 10 N       -5.6380    -3.3620     0.0140 N.4   1 <1>  -0.9060 
 11 C       -6.3180    -3.8900    -1.2020 C.3   1 <1>   0.4230 
 12 C       -7.6320    -4.5720    -0.8160 C.3   1 <1>  -0.0800 
 13 C       -5.5380    -5.1050    -1.6910 C.3   1 <1>   0.1200 
 14 C       -7.1870    -5.9880    -0.4130 C.3   1 <1>   0.1200 
 15 C       -8.5130    -3.8670     0.2350 C.3   1 <1>  -0.0170 
 16 O       -5.8250    -6.0540    -0.7180 O.3   1 <1>  -0.5600 
 17 C       -9.8180    -4.6200     0.4250 C.ar  1 <1>  -0.1440 
 18 C      -10.8660    -4.4890    -0.4650 C.ar  1 <1>  -0.1500 
 19 C      -10.0270    -5.4730     1.4910 C.ar  1 <1>  -0.1500 
 20 C      -12.0350    -5.2030    -0.2570 C.ar  1 <1>   0.1600 
 21 C      -11.2360    -6.1400     1.6070 C.ar  1 <1>   0.1600 
 22 N      -12.2410    -6.0280     0.7560 N.ar  1 <1>  -0.6200 
 23 H       -2.5670     2.4280    -0.3950 H     1 <1>   0.0800 
 24 H       -2.9200     3.0850     1.1810 H     1 <1>   0.0800 
 25 H       -4.1990     2.3400     0.2590 H     1 <1>   0.0800 
 26 H       -1.7420    -1.9420     0.3760 H     1 <1>   0.0800 
 27 H       -2.0470    -1.3430     1.9810 H     1 <1>   0.0800 
 28 H       -3.7940     0.6310    -1.3370 H     1 <1>   0.0800 
 29 H       -2.7760    -0.7550    -1.6030 H     1 <1>   0.0800 
 30 H       -4.3750    -1.9730     1.8600 H     1 <1>   0.0800 
 31 H       -3.3790    -3.3660     1.5100 H     1 <1>   0.0800 
 32 H       -5.1220    -1.3790    -1.8570 H     1 <1>   0.0800 
 33 H       -5.4970    -0.7210    -0.2820 H     1 <1>   0.0800 
 34 H       -3.7390    -3.1260    -0.8680 H     1 <1>   0.0800 
 35 H       -6.2820    -2.8070     0.5830 H     1 <1>   0.4500 
 36 H       -5.3950    -4.2050     0.5580 H     1 <1>   0.4500 
 37 H       -6.4470    -3.1320    -1.9570 H     1 <1>   0.0800 
 38 H       -8.2190    -4.6750    -1.7140 H     1 <1>   0.0800 
 39 H       -4.4750    -4.9530    -1.7510 H     1 <1>   0.0800 
 40 H       -5.9110    -5.4630    -2.6370 H     1 <1>   0.0800 
 41 H       -7.7080    -6.7450    -0.9790 H     1 <1>   0.0800 
 42 H       -7.3050    -6.1840     0.6390 H     1 <1>   0.0800 
 43 H       -8.7390    -2.8640    -0.0870 H     1 <1>   0.0800 
 44 H       -8.0110    -3.8060     1.1850 H     1 <1>   0.0800 
 45 H      -10.7960    -3.8410    -1.3190 H     1 <1>   0.1500 
 46 H       -9.2720    -5.6310     2.2390 H     1 <1>   0.1500 
 47 H      -12.8430    -5.0910    -0.9600 H     1 <1>   0.1500 
 48 H      -11.3840    -6.8030     2.4430 H     1 <1>   0.1500 
@<TRIPOS>BOND
  1   1   2  2   
  2   2   3  am  
  3   2   4  1   
  4   3   5  1   
  5   3   6  1   
  6   4  23  1   
  7   4  24  1   
  8   4  25  1   
  9   5   7  1   
 10   5  26  1   
 11   5  27  1   
 12   6   8  1   
 13   6  28  1   
 14   6  29  1   
 15   7   9  1   
 16   7  30  1   
 17   7  31  1   
 18   8   9  1   
 19   8  32  1   
 20   8  33  1   
 21   9  10  1   
 22   9  34  1   
 23  10  11  1   
 24  10  35  1   
 25  10  36  1   
 26  11  12  1   
 27  11  13  1   
 28  11  37  1   
 29  12  14  1   
 30  12  15  1   
 31  12  38  1   
 32  13  16  1   
 33  13  39  1   
 34  13  40  1   
 35  14  16  1   
 36  14  41  1   
 37  14  42  1   
 38  15  17  1   
 39  15  43  1   
 40  15  44  1   
 41  17  18  ar  
 42  17  19  ar  
 43  18  20  ar  
 44  18  45  1   
 45  19  21  ar  
 46  19  46  1   
 47  20  22  ar  
 48  20  47  1   
 49  21  22  ar  
 50  21  48  1   
@<TRIPOS>SUBSTRUCTURE
  1 ****  10 GROUP 4 **** **** 0

# MOE 2024.06 (io_trps.svl 2023.06)
