@<TRIPOS>MOLECULE
Untitled Document
34 34 1 0 0 
SMALL
USER_CHARGES


@<TRIPOS>ATOM
  1 S        0.1610    -0.5310     1.4630 S.3   1 <1>  -0.2430 
  2 C       -1.3260    -1.1240     0.6310 C.ar  1 <1>   0.1020 
  3 C        1.5740    -0.9120     0.4410 C.2   1 <1>   0.7710 
  4 C       -2.4890    -0.3960     0.8130 C.ar  1 <1>  -0.1500 
  5 C       -1.3250    -2.2790    -0.1340 C.ar  1 <1>  -0.1500 
  6 O        1.3960    -1.2580    -0.7050 O.2   1 <1>  -0.5700 
  7 N        2.7690    -0.7690     1.0480 N.am  1 <1>  -0.7300 
  8 C       -3.6640    -0.8160     0.2130 C.ar  1 <1>  -0.1500 
  9 C       -2.5010    -2.6950    -0.7330 C.ar  1 <1>  -0.1500 
 10 C        4.0840    -1.2960     0.5620 C.3   1 <1>   0.1140 
 11 C       -3.6730    -1.9710    -0.5670 C.ar  1 <1>   0.0820 
 12 C        4.6950    -2.2430     1.6240 C.2   1 <1>   0.9060 
 13 C        4.9610    -0.0780     0.2070 C.3   1 <1>  -0.1600 
 14 O       -4.7790    -2.4510    -1.1890 O.3   1 <1>  -0.3630 
 15 O        4.4370    -2.0180     2.8210 O.co2 1 <1>  -0.9000 
 16 O        5.3350    -3.2460     1.2780 O.co2 1 <1>  -0.9000 
 17 C        6.2730    -0.4480    -0.5120 C.3   1 <1>  -0.2660 
 18 C       -6.0150    -1.7770    -1.1090 C.3   1 <1>   0.0400 
 19 C        7.0090     0.7620    -1.0530 C.2   1 <1>   0.9060 
 20 O        7.7440     1.4100    -0.3000 O.co2 1 <1>  -0.9000 
 21 O        6.8550     1.0660    -2.2410 O.co2 1 <1>  -0.9000 
 22 H       -2.4690     0.4920     1.4190 H     1 <1>   0.1500 
 23 H       -0.4250    -2.8530    -0.2620 H     1 <1>   0.1500 
 24 H        2.7930    -0.7220     2.0740 H     1 <1>   0.3700 
 25 H       -4.5540    -0.2360     0.3640 H     1 <1>   0.1500 
 26 H       -2.5160    -3.5860    -1.3340 H     1 <1>   0.1500 
 27 H        3.9220    -1.8780    -0.3270 H     1 <1>   0.0800 
 28 H        4.4010     0.5710    -0.4440 H     1 <1>   0.0800 
 29 H        5.2000     0.4670     1.1040 H     1 <1>   0.0800 
 30 H        6.0630    -1.0980    -1.3400 H     1 <1>   0.0800 
 31 H        6.9280    -0.9660     0.1620 H     1 <1>   0.0800 
 32 H       -6.7350    -2.3300    -1.6850 H     1 <1>   0.0800 
 33 H       -5.9010    -0.7890    -1.5180 H     1 <1>   0.0800 
 34 H       -6.3240    -1.7370    -0.0800 H     1 <1>   0.0800 
@<TRIPOS>BOND
  1   1   2  1   
  2   1   3  1   
  3   2   4  ar  
  4   2   5  ar  
  5   3   6  2   
  6   3   7  am  
  7   4   8  ar  
  8   4  22  1   
  9   5   9  ar  
 10   5  23  1   
 11   7  10  1   
 12   7  24  1   
 13   8  11  ar  
 14   8  25  1   
 15   9  11  ar  
 16   9  26  1   
 17  10  12  1   
 18  10  13  1   
 19  10  27  1   
 20  11  14  1   
 21  12  15  ar  
 22  12  16  ar  
 23  13  17  1   
 24  13  28  1   
 25  13  29  1   
 26  14  18  1   
 27  17  19  1   
 28  17  30  1   
 29  17  31  1   
 30  18  32  1   
 31  18  33  1   
 32  18  34  1   
 33  19  20  ar  
 34  19  21  ar  
@<TRIPOS>SUBSTRUCTURE
  1 ****   3 GROUP 4 **** **** 0

# MOE 2024.06 (io_trps.svl 2023.06)
