@<TRIPOS>MOLECULE
NONAME
48 51 1 0 0 
SMALL
USER_CHARGES


@<TRIPOS>ATOM
  1 S       -2.6230     1.1550    -2.2150 S.3   1 <1>  -0.4600 
  2 C       -2.3740     1.0250    -0.4080 C.3   1 <1>   0.1310 
  3 C       -2.0390    -0.4510    -2.8260 C.3   1 <1>  -0.0100 
  4 C       -3.0900    -0.1880     0.1790 C.2   1 <1>   0.5690 
  5 O       -2.3960    -1.1100     0.5420 O.2   1 <1>  -0.5700 
  6 N       -4.4580    -0.2340     0.3060 N.am  1 <1>  -0.6600 
  7 C       -5.4040     0.8120    -0.1940 C.3   1 <1>   0.1400 
  8 C       -5.1100    -1.4340     0.9140 C.3   1 <1>   0.1400 
  9 C       -6.2940     1.3560     0.9470 C.3   1 <1>   0.1430 
 10 C       -6.5590    -1.1550     1.3490 C.3   1 <1>  -0.1600 
 11 C       -7.5020     2.0190     0.3040 C.ar  1 <1>   0.1670 
 12 C       -6.6920     0.2490     1.9590 C.3   1 <1>  -0.1600 
 13 C       -5.6190     2.5530     1.6680 C.3   1 <1>  -0.1600 
 14 N       -8.5230     1.3910    -0.2250 N.ar  1 <1>  -0.6200 
 15 C       -7.3980     3.3760     0.3230 C.ar  1 <1>  -0.1440 
 16 C       -6.1180     3.8330     0.9760 C.3   1 <1>  -0.0170 
 17 C       -9.4850     2.1670    -0.7430 C.ar  1 <1>   0.6200 
 18 C       -8.4200     4.1020    -0.2310 C.ar  1 <1>   0.1600 
 19 N       -9.4650     3.5090    -0.7620 N.ar  1 <1>  -0.6200 
 20 C      -10.6400     1.5010    -1.3320 C.ar  1 <1>   0.0000 
 21 C      -11.8980     2.1110    -1.3680 C.ar  1 <1>  -0.1500 
 22 C      -10.5460     0.2210    -1.8860 C.ar  1 <1>  -0.1500 
 23 C      -12.9970     1.4820    -1.9240 C.ar  1 <1>  -0.1500 
 24 C      -11.6400    -0.4150    -2.4430 C.ar  1 <1>  -0.1500 
 25 C      -12.8710     0.2150    -2.4640 C.ar  1 <1>  -0.1500 
 26 H       -2.7330     1.9340     0.0340 H     1 <1>   0.0800 
 27 H       -1.3150     0.9410    -0.2450 H     1 <1>   0.0800 
 28 H       -2.0860    -0.4310    -3.9000 H     1 <1>   0.0800 
 29 H       -2.6850    -1.2150    -2.4300 H     1 <1>   0.0800 
 30 H       -1.0280    -0.5900    -2.4880 H     1 <1>   0.0800 
 31 H       -6.0310     0.3570    -0.9420 H     1 <1>   0.0800 
 32 H       -4.8890     1.6240    -0.6730 H     1 <1>   0.0800 
 33 H       -4.5370    -1.7320     1.7770 H     1 <1>   0.0800 
 34 H       -5.0880    -2.2470     0.2080 H     1 <1>   0.0800 
 35 H       -6.8630    -1.8980     2.0640 H     1 <1>   0.0800 
 36 H       -7.2130    -1.2430     0.4980 H     1 <1>   0.0800 
 37 H       -7.6990     0.4080     2.3050 H     1 <1>   0.0800 
 38 H       -6.0430     0.2900     2.8160 H     1 <1>   0.0800 
 39 H       -4.5460     2.4800     1.6650 H     1 <1>   0.0800 
 40 H       -5.9510     2.5870     2.6910 H     1 <1>   0.0800 
 41 H       -5.4220     4.1570     0.2210 H     1 <1>   0.0800 
 42 H       -6.2900     4.6260     1.6830 H     1 <1>   0.0800 
 43 H       -8.3840     5.1780    -0.2400 H     1 <1>   0.1500 
 44 H      -12.0160     3.0960    -0.9520 H     1 <1>   0.1500 
 45 H       -9.5960    -0.2850    -1.8800 H     1 <1>   0.1500 
 46 H      -13.9510     1.9790    -1.9370 H     1 <1>   0.1500 
 47 H      -11.5350    -1.4000    -2.8620 H     1 <1>   0.1500 
 48 H      -13.7240    -0.2760    -2.8970 H     1 <1>   0.1500 
@<TRIPOS>BOND
  1   1   2  1   
  2   1   3  1   
  3   2   4  1   
  4   2  26  1   
  5   2  27  1   
  6   3  28  1   
  7   3  29  1   
  8   3  30  1   
  9   4   5  2   
 10   4   6  am  
 11   6   7  1   
 12   6   8  1   
 13   7   9  1   
 14   7  31  1   
 15   7  32  1   
 16   8  10  1   
 17   8  33  1   
 18   8  34  1   
 19   9  11  1   
 20   9  12  1   
 21   9  13  1   
 22  10  12  1   
 23  10  35  1   
 24  10  36  1   
 25  11  14  ar  
 26  11  15  ar  
 27  12  37  1   
 28  12  38  1   
 29  13  16  1   
 30  13  39  1   
 31  13  40  1   
 32  14  17  ar  
 33  15  16  1   
 34  15  18  ar  
 35  16  41  1   
 36  16  42  1   
 37  17  19  ar  
 38  17  20  1   
 39  18  19  ar  
 40  18  43  1   
 41  20  21  ar  
 42  20  22  ar  
 43  21  23  ar  
 44  21  44  1   
 45  22  24  ar  
 46  22  45  1   
 47  23  25  ar  
 48  23  46  1   
 49  24  25  ar  
 50  24  47  1   
 51  25  48  1   
@<TRIPOS>SUBSTRUCTURE
  1 ****  11 GROUP 4 **** **** 0

# MOE 2024.06 (io_trps.svl 2023.06)
