@<TRIPOS>MOLECULE
NONAME
42 44 1 0 0 
SMALL
USER_CHARGES


@<TRIPOS>ATOM
  1 S        0.5810     0.5780     0.3760 S.3   1 <1>  -0.4600 
  2 C        1.6160     1.1180     1.7820 C.3   1 <1>   0.1310 
  3 C        0.5650    -1.2260     0.5400 C.3   1 <1>   0.1650 
  4 C        1.5740     2.6290     1.9670 C.2   1 <1>   0.5690 
  5 C       -0.2560    -1.7910    -0.6190 C.3   1 <1>  -0.1950 
  6 O        0.9810     3.0750     2.9220 O.2   1 <1>  -0.5700 
  7 N        2.2320     3.4410     1.0930 N.am  1 <1>  -0.5100 
  8 C       -1.7490    -1.8580    -0.5450 C.3   1 <1>  -0.2000 
  9 C       -0.9330    -3.1200    -0.5010 C.3   1 <1>  -0.2000 
 10 C        2.0160     4.9120     0.9130 C.3   1 <1>   0.2250 
 11 C        2.4180     3.2800    -0.3870 C.3   1 <1>   0.2250 
 12 C        2.7190     4.7960    -0.4640 C.3   1 <1>   0.2580 
 13 O        4.1140     5.0390    -0.3850 O.3   1 <1>  -0.3400 
 14 C        4.6100     6.3000    -0.3200 C.ar  1 <1>   0.0830 
 15 C        5.9780     6.4230    -0.1470 C.ar  1 <1>  -0.1500 
 16 C        3.8270     7.4480    -0.4160 C.ar  1 <1>  -0.1500 
 17 C        6.5750     7.6690    -0.0670 C.ar  1 <1>   0.0830 
 18 C        4.4190     8.6970    -0.3360 C.ar  1 <1>  -0.1500 
 19 O        7.9210     7.6910     0.1040 O.3   1 <1>  -0.3630 
 20 C        5.7870     8.8130    -0.1620 C.ar  1 <1>  -0.1500 
 21 C        8.6270     8.9080     0.2050 C.3   1 <1>   0.0400 
 22 H        2.6200     0.7920     1.5880 H     1 <1>   0.0800 
 23 H        1.2350     0.6320     2.6620 H     1 <1>   0.0800 
 24 H        0.1230    -1.4610     1.4930 H     1 <1>   0.0800 
 25 H        1.5830    -1.5690     0.5040 H     1 <1>   0.0800 
 26 H        0.1740    -1.5440    -1.5750 H     1 <1>   0.1000 
 27 H       -2.3150    -1.6310    -1.4320 H     1 <1>   0.1000 
 28 H       -2.2380    -1.5190     0.3520 H     1 <1>   0.1000 
 29 H       -0.8830    -3.6620     0.4270 H     1 <1>   0.1000 
 30 H       -0.9470    -3.7710    -1.3590 H     1 <1>   0.1000 
 31 H        2.5540     5.4970     1.6380 H     1 <1>   0.0000 
 32 H        0.9680     5.1440     0.8440 H     1 <1>   0.0000 
 33 H        1.4960     3.0090    -0.8700 H     1 <1>   0.0000 
 34 H        3.2540     2.6490    -0.6320 H     1 <1>   0.0000 
 35 H        2.2660     5.3110    -1.2920 H     1 <1>   0.0000 
 36 H        6.5860     5.5400    -0.0720 H     1 <1>   0.1500 
 37 H        2.7640     7.3940    -0.5530 H     1 <1>   0.1500 
 38 H        3.8130     9.5840    -0.4100 H     1 <1>   0.1500 
 39 H        6.2190     9.7930    -0.1040 H     1 <1>   0.1500 
 40 H        9.6690     8.6790     0.3370 H     1 <1>   0.0800 
 41 H        8.2610     9.4540     1.0560 H     1 <1>   0.0800 
 42 H        8.4880     9.4680    -0.7030 H     1 <1>   0.0800 
@<TRIPOS>BOND
  1   1   2  1   
  2   1   3  1   
  3   2   4  1   
  4   2  22  1   
  5   2  23  1   
  6   3   5  1   
  7   3  24  1   
  8   3  25  1   
  9   4   6  2   
 10   4   7  am  
 11   5   8  1   
 12   5   9  1   
 13   5  26  1   
 14   7  10  1   
 15   7  11  1   
 16   8   9  1   
 17   8  27  1   
 18   8  28  1   
 19   9  29  1   
 20   9  30  1   
 21  10  12  1   
 22  10  31  1   
 23  10  32  1   
 24  11  12  1   
 25  11  33  1   
 26  11  34  1   
 27  12  13  1   
 28  12  35  1   
 29  13  14  1   
 30  14  15  ar  
 31  14  16  ar  
 32  15  17  ar  
 33  15  36  1   
 34  16  18  ar  
 35  16  37  1   
 36  17  19  1   
 37  17  20  ar  
 38  18  20  ar  
 39  18  38  1   
 40  19  21  1   
 41  20  39  1   
 42  21  40  1   
 43  21  41  1   
 44  21  42  1   
@<TRIPOS>SUBSTRUCTURE
  1 ****  11 GROUP 4 **** **** 0

# MOE 2024.06 (io_trps.svl 2023.06)
