@<TRIPOS>MOLECULE
NONAME
38 38 1 0 0 
SMALL
USER_CHARGES


@<TRIPOS>ATOM
  1 O        4.0600    -0.6760    -3.7820 O.3   1 <1>  -0.6800 
  2 C        3.3700    -1.0880    -2.6560 C.3   1 <1>   0.1200 
  3 C        4.2540    -0.8040    -1.4330 C.3   1 <1>   0.3430 
  4 N        3.7220    -1.4470    -0.1930 N.4   1 <1>  -0.9590 
  5 C        3.8730    -2.9230    -0.1550 C.3   1 <1>   0.5240 
  6 C        4.2250    -0.8220     1.0470 C.3   1 <1>   0.4810 
  7 C        2.7180    -3.4490     0.6830 C.2   1 <1>   0.0460 
  8 C        3.7140     0.6000     1.0750 C.2   1 <1>  -0.2880 
  9 N        1.5020    -2.8680     0.5760 N.2   1 <1>  -0.5650 
 10 C        2.6940    -4.4500     1.5890 C.2   1 <1>  -0.3020 
 11 C        4.4220     1.7250     0.9130 C.2   1 <1>  -0.2760 
 12 C        0.7660    -3.5300     1.4080 C.2   1 <1>   0.0060 
 13 N        1.4330    -4.5090     2.0570 N.pl3 1 <1>   0.0330 
 14 C        3.7680     3.0970     0.9710 C.3   1 <1>  -0.1020 
 15 C        5.9220     1.8100     0.6600 C.3   1 <1>  -0.1020 
 16 C       -0.7040    -3.2520     1.6420 C.3   1 <1>  -0.0600 
 17 H        3.5160    -0.7710    -4.5930 H     1 <1>   0.4000 
 18 H        2.4510    -0.5310    -2.5990 H     1 <1>   0.0800 
 19 H        3.1640    -2.1380    -2.7660 H     1 <1>   0.0800 
 20 H        4.2980     0.2650    -1.2980 H     1 <1>   0.0800 
 21 H        5.2510    -1.1610    -1.6270 H     1 <1>   0.0800 
 22 H        2.6930    -1.3320    -0.1500 H     1 <1>   0.4500 
 23 H        3.7880    -3.3320    -1.1470 H     1 <1>   0.0800 
 24 H        4.8210    -3.2130     0.2670 H     1 <1>   0.0800 
 25 H        3.8580    -1.3510     1.9120 H     1 <1>   0.0800 
 26 H        5.3020    -0.8380     1.0620 H     1 <1>   0.0800 
 27 H        2.6520     0.6250     1.2530 H     1 <1>   0.1500 
 28 H        3.4710    -5.1150     1.9250 H     1 <1>   0.1500 
 29 H        1.0480    -5.1580     2.7530 H     1 <1>   0.2700 
 30 H        4.1990     3.6810     1.7650 H     1 <1>   0.0800 
 31 H        2.7100     3.0140     1.1520 H     1 <1>   0.0800 
 32 H        3.9110     3.6190     0.0420 H     1 <1>   0.0800 
 33 H        6.3940     2.3680     1.4500 H     1 <1>   0.0800 
 34 H        6.1100     2.3180    -0.2700 H     1 <1>   0.0800 
 35 H        6.3850     0.8440     0.6130 H     1 <1>   0.0800 
 36 H       -1.0290    -2.4390     1.0170 H     1 <1>   0.0800 
 37 H       -0.8720    -2.9830     2.6690 H     1 <1>   0.0800 
 38 H       -1.2880    -4.1220     1.4030 H     1 <1>   0.0800 
@<TRIPOS>BOND
  1   1   2  1   
  2   1  17  1   
  3   2   3  1   
  4   2  18  1   
  5   2  19  1   
  6   3   4  1   
  7   3  20  1   
  8   3  21  1   
  9   4   5  1   
 10   4   6  1   
 11   4  22  1   
 12   5   7  1   
 13   5  23  1   
 14   5  24  1   
 15   6   8  1   
 16   6  25  1   
 17   6  26  1   
 18   7   9  1   
 19   7  10  2   
 20   8  11  2   
 21   8  27  1   
 22   9  12  2   
 23  10  13  1   
 24  10  28  1   
 25  11  14  1   
 26  11  15  1   
 27  12  13  1   
 28  12  16  1   
 29  13  29  1   
 30  14  30  1   
 31  14  31  1   
 32  14  32  1   
 33  15  33  1   
 34  15  34  1   
 35  15  35  1   
 36  16  36  1   
 37  16  37  1   
 38  16  38  1   
@<TRIPOS>SUBSTRUCTURE
  1 ****   4 GROUP 4 **** **** 0

# MOE 2024.06 (io_trps.svl 2023.06)
