@<TRIPOS>MOLECULE
NONAME
46 47 1 0 0 
SMALL
USER_CHARGES


@<TRIPOS>ATOM
  1 O       -1.5880    -0.8670     1.8840 O.2   1 <1>  -0.5700 
  2 C       -1.9000    -0.2700     0.8880 C.2   1 <1>   0.4230 
  3 C       -3.1530    -0.5090     0.2250 C.ar  1 <1>   0.0860 
  4 C       -0.8720     0.6900     0.3230 C.3   1 <1>  -0.1790 
  5 C       -3.9750     0.4380    -0.3870 C.ar  1 <1>   0.1660 
  6 C       -3.6330    -1.8100     0.1750 C.ar  1 <1>   0.1600 
  7 N       -5.0780     0.1070    -1.0110 N.ar  1 <1>  -0.6200 
  8 C       -3.6820     1.9290    -0.3590 C.3   1 <1>  -0.0960 
  9 N       -4.7420    -2.1650    -0.4300 N.ar  1 <1>  -0.6200 
 10 C       -5.4060    -1.1710    -1.0080 C.ar  1 <1>   0.7200 
 11 N       -6.5490    -1.4590    -1.6580 N.pl3 1 <1>  -0.8690 
 12 C       -7.0540    -2.8060    -2.0040 C.3   1 <1>   0.2090 
 13 C       -7.5750    -3.5170    -0.7360 C.3   1 <1>   0.3430 
 14 N       -7.1930    -4.9740    -0.6430 N.4   1 <1>  -0.9590 
 15 C       -7.9320    -5.7030     0.4520 C.3   1 <1>   0.4230 
 16 C       -5.7130    -5.0680    -0.4320 C.3   1 <1>   0.3430 
 17 C       -7.5000    -7.1830     0.4440 C.3   1 <1>  -0.1600 
 18 C       -9.4740    -5.5870     0.3160 C.3   1 <1>   0.1200 
 19 C       -5.2590    -6.5250    -0.4780 C.3   1 <1>  -0.1600 
 20 C       -5.9840    -7.3590     0.5790 C.3   1 <1>  -0.1600 
 21 O      -10.0950    -6.2430     1.3710 O.3   1 <1>  -0.6800 
 22 H       -1.0210     0.8390    -0.7300 H     1 <1>   0.0800 
 23 H        0.1120     0.2830     0.4710 H     1 <1>   0.0800 
 24 H       -0.9270     1.6320     0.8370 H     1 <1>   0.0800 
 25 H       -3.0550    -2.5790     0.6610 H     1 <1>   0.1500 
 26 H       -3.2560     2.2200     0.5830 H     1 <1>   0.0800 
 27 H       -4.5940     2.4860    -0.4890 H     1 <1>   0.0800 
 28 H       -3.0140     2.1910    -1.1590 H     1 <1>   0.0800 
 29 H       -6.9350    -0.6570    -2.1630 H     1 <1>   0.4000 
 30 H       -6.2560    -3.3610    -2.4640 H     1 <1>   0.0800 
 31 H       -7.8540    -2.7090    -2.7180 H     1 <1>   0.0800 
 32 H       -8.6450    -3.4090    -0.7200 H     1 <1>   0.0800 
 33 H       -7.1800    -3.0000     0.1240 H     1 <1>   0.0800 
 34 H       -7.4090    -5.4520    -1.5240 H     1 <1>   0.4500 
 35 H       -7.6550    -5.2700     1.3990 H     1 <1>   0.0800 
 36 H       -5.4530    -4.6380     0.5230 H     1 <1>   0.0800 
 37 H       -5.1880    -4.5140    -1.1930 H     1 <1>   0.0800 
 38 H       -7.8440    -7.6550    -0.4600 H     1 <1>   0.0800 
 39 H       -7.9710    -7.6950     1.2660 H     1 <1>   0.0800 
 40 H       -9.8110    -6.0430    -0.5990 H     1 <1>   0.0800 
 41 H       -9.7950    -4.5630     0.3590 H     1 <1>   0.0800 
 42 H       -4.1990    -6.5670    -0.2980 H     1 <1>   0.0800 
 43 H       -5.4360    -6.9290    -1.4590 H     1 <1>   0.0800 
 44 H       -5.7240    -8.3990     0.4700 H     1 <1>   0.0800 
 45 H       -5.6730    -7.0450     1.5620 H     1 <1>   0.0800 
 46 H      -11.0730    -6.2060     1.3030 H     1 <1>   0.4000 
@<TRIPOS>BOND
  1   1   2  2   
  2   2   3  1   
  3   2   4  1   
  4   3   5  ar  
  5   3   6  ar  
  6   4  22  1   
  7   4  23  1   
  8   4  24  1   
  9   5   7  ar  
 10   5   8  1   
 11   6   9  ar  
 12   6  25  1   
 13   7  10  ar  
 14   8  26  1   
 15   8  27  1   
 16   8  28  1   
 17   9  10  ar  
 18  10  11  1   
 19  11  12  1   
 20  11  29  1   
 21  12  13  1   
 22  12  30  1   
 23  12  31  1   
 24  13  14  1   
 25  13  32  1   
 26  13  33  1   
 27  14  15  1   
 28  14  16  1   
 29  14  34  1   
 30  15  17  1   
 31  15  18  1   
 32  15  35  1   
 33  16  19  1   
 34  16  36  1   
 35  16  37  1   
 36  17  20  1   
 37  17  38  1   
 38  17  39  1   
 39  18  21  1   
 40  18  40  1   
 41  18  41  1   
 42  19  20  1   
 43  19  42  1   
 44  19  43  1   
 45  20  44  1   
 46  20  45  1   
 47  21  46  1   
@<TRIPOS>SUBSTRUCTURE
  1 ****   9 GROUP 4 **** **** 0

# MOE 2024.06 (io_trps.svl 2023.06)
