@<TRIPOS>MOLECULE
NONAME
50 53 1 0 0 
SMALL
USER_CHARGES


@<TRIPOS>ATOM
  1 O        1.4810     0.5060     2.2140 O.3   1 <1>  -0.6800 
  2 C        1.4910    -0.0850     0.9550 C.3   1 <1>   0.2000 
  3 C        2.1600    -1.4520     1.0770 C.3   1 <1>  -0.0800 
  4 C        2.4590     0.6980     0.0620 C.3   1 <1>   0.3430 
  5 C        3.6520    -1.0930     1.1520 C.3   1 <1>   0.3430 
  6 C        1.8300    -2.3530    -0.1320 C.3   1 <1>  -0.0170 
  7 N        3.8180     0.1800     0.3980 N.4   1 <1>  -0.9590 
  8 C        2.6220    -3.6480    -0.0980 C.ar  1 <1>   0.1670 
  9 C        4.6010     1.1990     1.1450 C.3   1 <1>   0.5240 
 10 N        3.8080    -3.6240    -0.6230 N.ar  1 <1>  -0.6200 
 11 C        2.0530    -4.7880     0.4940 C.ar  1 <1>  -0.1500 
 12 C        5.0620     2.2620     0.1530 C.2   1 <1>   0.1080 
 13 C        4.5310    -4.7750    -0.6040 C.ar  1 <1>   0.3100 
 14 C        2.7600    -5.9500     0.5370 C.ar  1 <1>  -0.1500 
 15 N        5.2520     2.0150    -1.1120 N.2   1 <1>  -0.7070 
 16 C        5.3210     3.5900     0.4720 C.2   1 <1>  -0.1500 
 17 C        4.0480    -5.9680    -0.0230 C.ar  1 <1>   0.0000 
 18 C        5.8130    -4.7820    -1.1780 C.ar  1 <1>  -0.1500 
 19 N        5.6520     3.1950    -1.6320 N.pl3 1 <1>   0.3000 
 20 C        5.6970     4.1640    -0.6930 C.2   1 <1>  -0.3320 
 21 C        4.8680    -7.1130    -0.0290 C.ar  1 <1>  -0.1500 
 22 C        6.5940    -5.9070    -1.1750 C.ar  1 <1>  -0.1500 
 23 C        6.1120     5.5940    -1.0090 C.3   1 <1>   0.0200 
 24 C        6.1150    -7.0850    -0.5930 C.ar  1 <1>  -0.1500 
 25 C        6.0620     6.4940     0.2260 C.3   1 <1>  -0.2400 
 26 H        0.7490     0.1570     2.7660 H     1 <1>   0.4000 
 27 H        0.4860    -0.1070     0.5670 H     1 <1>   0.0800 
 28 H        1.8550    -1.9630     1.9740 H     1 <1>   0.0800 
 29 H        2.3720     1.7600     0.2260 H     1 <1>   0.0800 
 30 H        2.2450     0.4850    -0.9710 H     1 <1>   0.0800 
 31 H        4.2860    -1.8690     0.7580 H     1 <1>   0.0800 
 32 H        3.9110    -0.9330     2.1860 H     1 <1>   0.0800 
 33 H        2.0540    -1.8500    -1.0570 H     1 <1>   0.0800 
 34 H        0.7790    -2.5810    -0.1400 H     1 <1>   0.0800 
 35 H        4.3480     0.0610    -0.4840 H     1 <1>   0.4500 
 36 H        4.0010     1.6410     1.9220 H     1 <1>   0.0800 
 37 H        5.4710     0.7430     1.5860 H     1 <1>   0.0800 
 38 H        1.0620    -4.7350     0.9080 H     1 <1>   0.1500 
 39 H        2.3610    -6.8450     0.9810 H     1 <1>   0.1500 
 40 H        5.2370     4.0460     1.4430 H     1 <1>   0.1500 
 41 H        6.1650    -3.8710    -1.6250 H     1 <1>   0.1500 
 42 H        5.8900     3.3110    -2.6270 H     1 <1>   0.2700 
 43 H        4.4950    -8.0180     0.4180 H     1 <1>   0.1500 
 44 H        7.5750    -5.9010    -1.6180 H     1 <1>   0.1500 
 45 H        7.1140     5.5950    -1.4040 H     1 <1>   0.0800 
 46 H        5.4560     5.9970    -1.7630 H     1 <1>   0.0800 
 47 H        6.7400    -7.9620    -0.5970 H     1 <1>   0.1500 
 48 H        6.7320     6.1270     0.9830 H     1 <1>   0.0800 
 49 H        5.0640     6.5270     0.6260 H     1 <1>   0.0800 
 50 H        6.3580     7.4940    -0.0360 H     1 <1>   0.0800 
@<TRIPOS>BOND
  1   1   2  1   
  2   1  26  1   
  3   2   3  1   
  4   2   4  1   
  5   2  27  1   
  6   3   5  1   
  7   3   6  1   
  8   3  28  1   
  9   4   7  1   
 10   4  29  1   
 11   4  30  1   
 12   5   7  1   
 13   5  31  1   
 14   5  32  1   
 15   6   8  1   
 16   6  33  1   
 17   6  34  1   
 18   7   9  1   
 19   7  35  1   
 20   8  10  ar  
 21   8  11  ar  
 22   9  12  1   
 23   9  36  1   
 24   9  37  1   
 25  10  13  ar  
 26  11  14  ar  
 27  11  38  1   
 28  12  15  2   
 29  12  16  1   
 30  13  17  ar  
 31  13  18  ar  
 32  14  17  ar  
 33  14  39  1   
 34  15  19  1   
 35  16  20  2   
 36  16  40  1   
 37  17  21  ar  
 38  18  22  ar  
 39  18  41  1   
 40  19  20  1   
 41  19  42  1   
 42  20  23  1   
 43  21  24  ar  
 44  21  43  1   
 45  22  24  ar  
 46  22  44  1   
 47  23  25  1   
 48  23  45  1   
 49  23  46  1   
 50  24  47  1   
 51  25  48  1   
 52  25  49  1   
 53  25  50  1   
@<TRIPOS>SUBSTRUCTURE
  1 ****   5 GROUP 4 **** **** 0

# MOE 2024.06 (io_trps.svl 2023.06)
