@<TRIPOS>MOLECULE
NONAME
39 40 1 0 0 
SMALL
USER_CHARGES


@<TRIPOS>ATOM
  1 CL       0.5190     1.3690     1.9820 Cl    1 <1>  -0.1770 
  2 C        1.9610     1.7410     1.0660 C.ar  1 <1>   0.1770 
  3 C        2.4870     3.0230     1.0910 C.ar  1 <1>   0.1600 
  4 C        2.5640     0.7490     0.3230 C.ar  1 <1>  -0.1500 
  5 N        3.5770     3.4090     0.4300 N.ar  1 <1>  -0.6200 
  6 C        3.6880     1.1470    -0.3580 C.ar  1 <1>   0.1900 
  7 C        4.1770     2.4630    -0.2930 C.ar  1 <1>   0.4100 
  8 F        4.3160     0.2600    -1.0940 F     1 <1>  -0.1900 
  9 N        5.3200     2.8360    -0.9830 N.pl3 1 <1>  -0.8690 
 10 C        5.5850     4.2410    -1.3620 C.3   1 <1>   0.2090 
 11 C        6.3990     4.9170    -0.2490 C.3   1 <1>  -0.0800 
 12 C        6.6960     6.3860    -0.5440 C.3   1 <1>   0.3430 
 13 C        7.7610     4.2660     0.0060 C.3   1 <1>  -0.1600 
 14 N        8.1740     6.5530    -0.4020 N.4   1 <1>  -0.9590 
 15 C        8.6490     5.4170     0.4320 C.3   1 <1>   0.3430 
 16 C        8.5370     7.9010     0.1460 C.3   1 <1>   0.3430 
 17 C       10.0490     8.1570     0.1460 C.3   1 <1>   0.1200 
 18 O       10.2470     9.4440     0.6230 O.3   1 <1>  -0.5600 
 19 C       11.5810     9.8450     0.6750 C.3   1 <1>   0.0400 
 20 H        1.9820     3.7650     1.6850 H     1 <1>   0.1500 
 21 H        2.1820    -0.2540     0.2810 H     1 <1>   0.1500 
 22 H        5.6210     2.1380    -1.6730 H     1 <1>   0.4000 
 23 H        4.6500     4.7580    -1.5070 H     1 <1>   0.0800 
 24 H        6.1280     4.2600    -2.2920 H     1 <1>   0.0800 
 25 H        5.8180     4.8890     0.6570 H     1 <1>   0.0800 
 26 H        6.1760     7.0020     0.1720 H     1 <1>   0.0800 
 27 H        6.3760     6.6580    -1.5370 H     1 <1>   0.0800 
 28 H        8.1540     3.8260    -0.8940 H     1 <1>   0.0800 
 29 H        7.7020     3.5040     0.7640 H     1 <1>   0.0800 
 30 H        8.5870     6.4470    -1.3390 H     1 <1>   0.4500 
 31 H        9.6930     5.2010     0.2690 H     1 <1>   0.0800 
 32 H        8.4820     5.6320     1.4760 H     1 <1>   0.0800 
 33 H        8.1710     7.9930     1.1550 H     1 <1>   0.0800 
 34 H        8.0700     8.6670    -0.4520 H     1 <1>   0.0800 
 35 H       10.4470     8.1010    -0.8520 H     1 <1>   0.0800 
 36 H       10.5590     7.4730     0.8010 H     1 <1>   0.0800 
 37 H       11.6150    10.8500     1.0580 H     1 <1>   0.0800 
 38 H       12.0020     9.8240    -0.3160 H     1 <1>   0.0800 
 39 H       12.1270     9.1920     1.3340 H     1 <1>   0.0800 
@<TRIPOS>BOND
  1   1   2  1   
  2   2   3  ar  
  3   2   4  ar  
  4   3   5  ar  
  5   3  20  1   
  6   4   6  ar  
  7   4  21  1   
  8   5   7  ar  
  9   6   7  ar  
 10   6   8  1   
 11   7   9  1   
 12   9  10  1   
 13   9  22  1   
 14  10  11  1   
 15  10  23  1   
 16  10  24  1   
 17  11  12  1   
 18  11  13  1   
 19  11  25  1   
 20  12  14  1   
 21  12  26  1   
 22  12  27  1   
 23  13  15  1   
 24  13  28  1   
 25  13  29  1   
 26  14  15  1   
 27  14  16  1   
 28  14  30  1   
 29  15  31  1   
 30  15  32  1   
 31  16  17  1   
 32  16  33  1   
 33  16  34  1   
 34  17  18  1   
 35  17  35  1   
 36  17  36  1   
 37  18  19  1   
 38  19  37  1   
 39  19  38  1   
 40  19  39  1   
@<TRIPOS>SUBSTRUCTURE
  1 ****  11 GROUP 4 **** **** 0

# MOE 2024.06 (io_trps.svl 2023.06)
