@<TRIPOS>MOLECULE
NONAME
43 45 1 0 0 
SMALL
USER_CHARGES


@<TRIPOS>ATOM
  1 O        2.5390     1.8840     1.4180 O.co2 1 <1>  -0.9000 
  2 C        2.3270     0.6910     1.1910 C.2   1 <1>   0.9060 
  3 O        2.4320    -0.1510     2.0860 O.co2 1 <1>  -0.9000 
  4 C        2.3370     0.2040    -0.2730 C.3   1 <1>  -0.1060 
  5 C        3.5790    -0.7040    -0.3710 C.3   1 <1>   0.4230 
  6 C        2.5370     1.3840    -1.2820 C.3   1 <1>  -0.1600 
  7 C        1.0400    -0.5550    -0.6590 C.3   1 <1>  -0.1600 
  8 N        3.3540    -1.9740     0.4150 N.4   1 <1>  -0.9590 
  9 C        4.8490     0.1110     0.0700 C.3   1 <1>   0.3430 
 10 C        3.9500     2.0040    -1.3200 C.3   1 <1>   0.3430 
 11 C        0.9140    -1.9100     0.0510 C.3   1 <1>  -0.1600 
 12 C        2.1840    -2.7520    -0.0760 C.3   1 <1>   0.3430 
 13 C        4.5380    -2.8530     0.6390 C.3   1 <1>   0.2630 
 14 N        4.7160     1.6060    -0.1090 N.4   1 <1>  -0.9590 
 15 C        5.9560     2.3820     0.1340 C.3   1 <1>   0.5240 
 16 C        5.6280     3.8600     0.1640 C.2   1 <1>  -0.1810 
 17 C        4.6120     4.4990     0.7880 C.2   1 <1>  -0.0100 
 18 C        6.3620     4.8660    -0.4840 C.2   1 <1>  -0.1500 
 19 O        4.6720     5.7950     0.5610 O.3   1 <1>  -0.2800 
 20 C        5.7230     6.0200    -0.2000 C.2   1 <1>  -0.0100 
 21 H        3.7080    -0.9740    -1.4050 H     1 <1>   0.0800 
 22 H        1.8350     2.1660    -1.0430 H     1 <1>   0.0800 
 23 H        2.3020     1.0710    -2.2830 H     1 <1>   0.0800 
 24 H        0.1840     0.0540    -0.4170 H     1 <1>   0.0800 
 25 H        1.0200    -0.7330    -1.7200 H     1 <1>   0.0800 
 26 H        3.0300    -1.5930     1.3490 H     1 <1>   0.4500 
 27 H        5.6980    -0.2450    -0.4870 H     1 <1>   0.0800 
 28 H        5.0180    -0.0820     1.1170 H     1 <1>   0.0800 
 29 H        3.8560     3.0790    -1.3650 H     1 <1>   0.0800 
 30 H        4.4710     1.6770    -2.2040 H     1 <1>   0.0800 
 31 H        0.0870    -2.4560    -0.3690 H     1 <1>   0.0800 
 32 H        0.6920    -1.7610     1.0940 H     1 <1>   0.0800 
 33 H        2.3340    -3.0350    -1.1050 H     1 <1>   0.0800 
 34 H        2.0670    -3.6490     0.5120 H     1 <1>   0.0800 
 35 H        4.9110    -3.2300    -0.2990 H     1 <1>   0.0800 
 36 H        4.2600    -3.6890     1.2610 H     1 <1>   0.0800 
 37 H        5.3220    -2.3110     1.1410 H     1 <1>   0.0800 
 38 H        4.0670     1.9230     0.6640 H     1 <1>   0.4500 
 39 H        6.3900     2.1010     1.0800 H     1 <1>   0.0800 
 40 H        6.6710     2.1870    -0.6470 H     1 <1>   0.0800 
 41 H        3.8070     4.1230     1.4040 H     1 <1>   0.1500 
 42 H        7.2490     4.7350    -1.0790 H     1 <1>   0.1500 
 43 H        5.9410     7.0340    -0.4900 H     1 <1>   0.1500 
@<TRIPOS>BOND
  1   1   2  ar  
  2   2   3  ar  
  3   2   4  1   
  4   4   5  1   
  5   4   6  1   
  6   4   7  1   
  7   5   8  1   
  8   5   9  1   
  9   5  21  1   
 10   6  10  1   
 11   6  22  1   
 12   6  23  1   
 13   7  11  1   
 14   7  24  1   
 15   7  25  1   
 16   8  12  1   
 17   8  13  1   
 18   8  26  1   
 19   9  14  1   
 20   9  27  1   
 21   9  28  1   
 22  10  14  1   
 23  10  29  1   
 24  10  30  1   
 25  11  12  1   
 26  11  31  1   
 27  11  32  1   
 28  12  33  1   
 29  12  34  1   
 30  13  35  1   
 31  13  36  1   
 32  13  37  1   
 33  14  15  1   
 34  14  38  1   
 35  15  16  1   
 36  15  39  1   
 37  15  40  1   
 38  16  17  2   
 39  16  18  1   
 40  17  19  1   
 41  17  41  1   
 42  18  20  2   
 43  18  42  1   
 44  19  20  1   
 45  20  43  1   
@<TRIPOS>SUBSTRUCTURE
  1 ****  14 GROUP 4 **** **** 0

# MOE 2024.06 (io_trps.svl 2023.06)
