@<TRIPOS>MOLECULE
NONAME
48 49 1 0 0 
SMALL
USER_CHARGES


@<TRIPOS>ATOM
  1 O       -0.3550    -0.1800     0.9690 O.2   1 <1>  -0.5700 
  2 C       -1.0700     0.5040     0.2800 C.2   1 <1>   0.5690 
  3 N       -1.9650    -0.0360    -0.5890 N.am  1 <1>  -0.7300 
  4 C       -0.9780     2.0240     0.4010 C.3   1 <1>  -0.0190 
  5 C       -2.1890    -1.4820    -0.7840 C.3   1 <1>   0.1400 
  6 C       -2.3190     2.6480     0.8340 C.3   1 <1>  -0.1600 
  7 C       -0.4410     2.6790    -0.8960 C.3   1 <1>  -0.1600 
  8 C       -3.5970    -1.8320    -0.3050 C.3   1 <1>  -0.1600 
  9 C       -2.1930     4.1610     1.1120 C.3   1 <1>   0.2000 
 10 C       -0.8230     4.1650    -1.0440 C.3   1 <1>  -0.1600 
 11 C       -3.8620    -3.3370    -0.4070 C.3   1 <1>   0.0210 
 12 O       -3.4120     4.7660     0.7570 O.3   1 <1>  -0.5600 
 13 C       -1.0390     4.8290     0.3180 C.3   1 <1>   0.2000 
 14 C       -5.2590    -3.6580     0.0950 C.2   1 <1>  -0.1810 
 15 C       -4.4150     4.6880     1.7230 C.3   1 <1>   0.0400 
 16 O       -1.3470     6.1570     0.1020 O.3   1 <1>  -0.6800 
 17 C       -5.6610    -4.0320     1.3200 C.2   1 <1>  -0.0400 
 18 C       -6.4500    -3.6250    -0.6330 C.2   1 <1>   0.1080 
 19 O       -6.9560    -4.1960     1.2880 O.3   1 <1>  -0.0190 
 20 C       -4.9180    -4.2660     2.6190 C.3   1 <1>  -0.0600 
 21 N       -7.4470    -3.9510     0.1080 N.2   1 <1>  -0.4100 
 22 C       -6.5870    -3.2640    -2.0960 C.3   1 <1>  -0.0590 
 23 H       -2.5580     0.5870    -1.1380 H     1 <1>   0.3700 
 24 H       -0.2670     2.2240     1.1850 H     1 <1>   0.0800 
 25 H       -2.0730    -1.7240    -1.8270 H     1 <1>   0.0800 
 26 H       -1.4590    -2.0430    -0.2230 H     1 <1>   0.0800 
 27 H       -2.6700     2.1550     1.7230 H     1 <1>   0.0800 
 28 H       -3.0410     2.4920     0.0520 H     1 <1>   0.0800 
 29 H        0.6320     2.5850    -0.8980 H     1 <1>   0.0800 
 30 H       -0.8040     2.1520    -1.7620 H     1 <1>   0.0800 
 31 H       -3.7030    -1.5320     0.7230 H     1 <1>   0.0800 
 32 H       -4.3220    -1.3000    -0.8940 H     1 <1>   0.0800 
 33 H       -2.0100     4.3330     2.1600 H     1 <1>   0.0800 
 34 H       -1.7380     4.2380    -1.6060 H     1 <1>   0.0800 
 35 H       -0.0520     4.6840    -1.5860 H     1 <1>   0.0800 
 36 H       -3.1410    -3.8710     0.1870 H     1 <1>   0.0800 
 37 H       -3.7590    -3.6690    -1.4250 H     1 <1>   0.0800 
 38 H       -0.1240     4.7900     0.8830 H     1 <1>   0.0800 
 39 H       -5.2880     5.1860     1.3390 H     1 <1>   0.0800 
 40 H       -4.0830     5.1810     2.6200 H     1 <1>   0.0800 
 41 H       -4.6460     3.6560     1.9200 H     1 <1>   0.0800 
 42 H       -2.3290     6.1970     0.0490 H     1 <1>   0.4000 
 43 H       -3.8690    -4.0670     2.4980 H     1 <1>   0.0800 
 44 H       -5.0470    -5.2860     2.9310 H     1 <1>   0.0800 
 45 H       -5.3090    -3.6170     3.3810 H     1 <1>   0.0800 
 46 H       -6.2440    -2.2600    -2.2590 H     1 <1>   0.0800 
 47 H       -7.6180    -3.3300    -2.3930 H     1 <1>   0.0800 
 48 H       -6.0110    -3.9430    -2.6960 H     1 <1>   0.0800 
@<TRIPOS>BOND
  1   1   2  2   
  2   2   3  am  
  3   2   4  1   
  4   3   5  1   
  5   3  23  1   
  6   4   6  1   
  7   4   7  1   
  8   4  24  1   
  9   5   8  1   
 10   5  25  1   
 11   5  26  1   
 12   6   9  1   
 13   6  27  1   
 14   6  28  1   
 15   7  10  1   
 16   7  29  1   
 17   7  30  1   
 18   8  11  1   
 19   8  31  1   
 20   8  32  1   
 21   9  12  1   
 22   9  13  1   
 23   9  33  1   
 24  10  13  1   
 25  10  34  1   
 26  10  35  1   
 27  11  14  1   
 28  11  36  1   
 29  11  37  1   
 30  12  15  1   
 31  13  16  1   
 32  13  38  1   
 33  14  17  2   
 34  14  18  1   
 35  15  39  1   
 36  15  40  1   
 37  15  41  1   
 38  16  42  1   
 39  17  19  1   
 40  17  20  1   
 41  18  21  2   
 42  18  22  1   
 43  19  21  1   
 44  20  43  1   
 45  20  44  1   
 46  20  45  1   
 47  22  46  1   
 48  22  47  1   
 49  22  48  1   
@<TRIPOS>SUBSTRUCTURE
  1 ****   3 GROUP 4 **** **** 0

# MOE 2024.06 (io_trps.svl 2023.06)
