@<TRIPOS>MOLECULE
NONAME
50 54 1 0 0 
SMALL
USER_CHARGES


@<TRIPOS>ATOM
  1 O       -0.9710    -0.1040    -0.3590 O.2   1 <1>  -0.5700 
  2 C       -1.8900    -0.8920    -0.2240 C.2   1 <1>   0.5410 
  3 C       -1.7710    -2.0710     0.5520 C.2   1 <1>  -0.1360 
  4 C       -3.1510    -0.6870    -0.8440 C.2   1 <1>  -0.1360 
  5 C       -2.8000    -2.9560     0.6760 C.2   1 <1>   0.0910 
  6 C       -4.1480    -1.5870    -0.6840 C.2   1 <1>  -0.0620 
  7 O       -3.9680    -2.6850     0.0560 O.3   1 <1>  -0.1530 
  8 C       -2.7450    -4.1720     1.4650 C.2   1 <1>   0.6160 
  9 C       -5.5320    -1.4730    -1.2920 C.3   1 <1>  -0.1020 
 10 O       -2.0840    -4.1690     2.4880 O.2   1 <1>  -0.5700 
 11 N       -3.3950    -5.3400     1.1170 N.am  1 <1>  -0.6600 
 12 C       -3.7270    -6.3320     2.1840 C.3   1 <1>   0.1400 
 13 C       -3.8280    -5.6770    -0.2670 C.3   1 <1>   0.1400 
 14 C       -4.4780    -7.5440     1.6250 C.3   1 <1>  -0.1600 
 15 C       -5.3160    -6.0290    -0.2630 C.3   1 <1>  -0.1600 
 16 C       -5.6790    -7.1160     0.7740 C.3   1 <1>   0.4600 
 17 O       -6.6120    -6.5730     1.6810 O.3   1 <1>  -0.5600 
 18 C       -6.2970    -8.3410     0.1040 C.2   1 <1>  -0.3320 
 19 C       -7.9590    -6.5000     1.2770 C.3   1 <1>   0.1200 
 20 N       -5.6590    -9.2380    -0.7090 N.pl3 1 <1>   0.0330 
 21 C       -7.5880    -8.7070     0.2360 C.2   1 <1>  -0.1810 
 22 C       -8.5510    -7.9040     1.0750 C.3   1 <1>   0.0210 
 23 C       -6.5720   -10.1900    -1.0920 C.ar  1 <1>  -0.1520 
 24 C       -7.7990    -9.8840    -0.5100 C.ar  1 <1>   0.0000 
 25 C       -6.4280   -11.3140    -1.9100 C.ar  1 <1>  -0.1500 
 26 C       -8.9020   -10.7100    -0.7450 C.ar  1 <1>  -0.1500 
 27 C       -7.5220   -12.1180    -2.1340 C.ar  1 <1>  -0.1500 
 28 C       -8.7590   -11.8160    -1.5510 C.ar  1 <1>  -0.1500 
 29 H       -0.8280    -2.2300     1.0410 H     1 <1>   0.1500 
 30 H       -3.2530     0.2070    -1.4290 H     1 <1>   0.1500 
 31 H       -5.7230    -2.3150    -1.9310 H     1 <1>   0.0800 
 32 H       -5.6200    -0.5710    -1.8710 H     1 <1>   0.0800 
 33 H       -6.2720    -1.4550    -0.5120 H     1 <1>   0.0800 
 34 H       -4.3410    -5.8450     2.9230 H     1 <1>   0.0800 
 35 H       -2.8210    -6.6560     2.6670 H     1 <1>   0.0800 
 36 H       -3.2540    -6.5210    -0.6120 H     1 <1>   0.0800 
 37 H       -3.6400    -4.8670    -0.9470 H     1 <1>   0.0800 
 38 H       -4.8220    -8.1660     2.4320 H     1 <1>   0.0800 
 39 H       -3.7960    -8.1310     1.0410 H     1 <1>   0.0800 
 40 H       -5.5910    -6.3600    -1.2470 H     1 <1>   0.0800 
 41 H       -5.8670    -5.1280    -0.0610 H     1 <1>   0.0800 
 42 H       -8.0100    -5.9400     0.3600 H     1 <1>   0.0800 
 43 H       -8.5030    -5.9720     2.0390 H     1 <1>   0.0800 
 44 H       -4.6710    -9.2330    -0.9780 H     1 <1>   0.2700 
 45 H       -9.5020    -7.8300     0.5810 H     1 <1>   0.0800 
 46 H       -8.6910    -8.3840     2.0260 H     1 <1>   0.0800 
 47 H       -5.4750   -11.5400    -2.3540 H     1 <1>   0.1500 
 48 H       -9.8440   -10.4670    -0.2900 H     1 <1>   0.1500 
 49 H       -7.4380   -12.9890    -2.7600 H     1 <1>   0.1500 
 50 H       -9.5990   -12.4620    -1.7420 H     1 <1>   0.1500 
@<TRIPOS>BOND
  1   1   2  2   
  2   2   3  1   
  3   2   4  1   
  4   3   5  2   
  5   3  29  1   
  6   4   6  2   
  7   4  30  1   
  8   5   7  1   
  9   5   8  1   
 10   6   7  1   
 11   6   9  1   
 12   8  10  2   
 13   8  11  am  
 14   9  31  1   
 15   9  32  1   
 16   9  33  1   
 17  11  12  1   
 18  11  13  1   
 19  12  14  1   
 20  12  34  1   
 21  12  35  1   
 22  13  15  1   
 23  13  36  1   
 24  13  37  1   
 25  14  16  1   
 26  14  38  1   
 27  14  39  1   
 28  15  16  1   
 29  15  40  1   
 30  15  41  1   
 31  16  17  1   
 32  16  18  1   
 33  17  19  1   
 34  18  20  1   
 35  18  21  2   
 36  19  22  1   
 37  19  42  1   
 38  19  43  1   
 39  20  23  1   
 40  20  44  1   
 41  21  22  1   
 42  21  24  1   
 43  22  45  1   
 44  22  46  1   
 45  23  24  ar  
 46  23  25  ar  
 47  24  26  ar  
 48  25  27  ar  
 49  25  47  1   
 50  26  28  ar  
 51  26  48  1   
 52  27  28  ar  
 53  27  49  1   
 54  28  50  1   
@<TRIPOS>SUBSTRUCTURE
  1 ****  15 GROUP 4 **** **** 0

# MOE 2024.06 (io_trps.svl 2023.06)
