@<TRIPOS>MOLECULE
NONAME
47 49 1 0 0 
SMALL
USER_CHARGES


@<TRIPOS>ATOM
  1 CL       2.1110     0.9910    -1.9030 Cl    1 <1>  -0.1770 
  2 C        1.0300     1.8860    -0.8580 C.ar  1 <1>   0.1770 
  3 C        1.4200     2.3070     0.4120 C.ar  1 <1>  -0.1440 
  4 C       -0.2300     2.1640    -1.3550 C.ar  1 <1>  -0.1500 
  5 C        0.5050     3.0290     1.1670 C.ar  1 <1>  -0.1500 
  6 C        2.7970     2.0210     1.0110 C.3   1 <1>   0.3640 
  7 C       -1.1290     2.8790    -0.5860 C.ar  1 <1>  -0.1500 
  8 C       -0.7590     3.3120     0.6750 C.ar  1 <1>  -0.1500 
  9 N        3.0060     0.5540     1.0660 N.am  1 <1>  -0.7300 
 10 C        3.9390     2.7610     0.2580 C.3   1 <1>   0.2610 
 11 C        4.1670    -0.0440     0.7200 C.2   1 <1>   0.5690 
 12 O        5.2000     2.1740     0.5400 O.3   1 <1>  -0.5600 
 13 C        3.9550     4.2690     0.5740 C.2   1 <1>   0.5690 
 14 O        4.2990    -1.2370     0.8210 O.2   1 <1>  -0.5700 
 15 C        5.3110     0.8150     0.1740 C.3   1 <1>   0.1810 
 16 O        3.2680     4.6800     1.4840 O.2   1 <1>  -0.5700 
 17 N        4.7270     5.1350    -0.1670 N.am  1 <1>  -0.6600 
 18 C        4.8230     6.5770     0.2010 C.3   1 <1>   0.3210 
 19 C        5.6580     4.7040    -1.2520 C.3   1 <1>   0.0600 
 20 C        6.2670     6.9500     0.4900 C.2   1 <1>  -0.1810 
 21 C        7.0910     7.8440    -0.1040 C.2   1 <1>  -0.3320 
 22 C        7.0340     6.3750     1.4950 C.2   1 <1>   0.1390 
 23 N        8.2740     7.7700     0.5500 N.pl3 1 <1>   0.3140 
 24 C        6.8260     8.7810    -1.2720 C.3   1 <1>  -0.0600 
 25 N        8.2360     6.8600     1.5360 N.2   1 <1>  -0.7070 
 26 C        9.4910     8.5450     0.2850 C.3   1 <1>   0.0160 
 27 H       -0.5020     1.8230    -2.3380 H     1 <1>   0.1500 
 28 H        0.7720     3.3870     2.1490 H     1 <1>   0.1500 
 29 H        2.8050     2.3660     2.0320 H     1 <1>   0.0800 
 30 H       -2.1130     3.1000    -0.9660 H     1 <1>   0.1500 
 31 H       -1.4540     3.8740     1.2750 H     1 <1>   0.1500 
 32 H        2.2380    -0.0250     1.4070 H     1 <1>   0.3700 
 33 H        3.7740     2.6630    -0.7960 H     1 <1>   0.0800 
 34 H        5.3260     0.7510    -0.8980 H     1 <1>   0.0800 
 35 H        6.2450     0.4480     0.5580 H     1 <1>   0.0800 
 36 H        4.4420     7.1700    -0.6100 H     1 <1>   0.0800 
 37 H        4.2290     6.7960     1.0720 H     1 <1>   0.0800 
 38 H        5.8250     5.5150    -1.9400 H     1 <1>   0.0800 
 39 H        5.2590     3.8720    -1.8010 H     1 <1>   0.0800 
 40 H        6.6030     4.4190    -0.8200 H     1 <1>   0.0800 
 41 H        6.6770     5.6100     2.1650 H     1 <1>   0.1500 
 42 H        5.8250     8.6590    -1.6420 H     1 <1>   0.0800 
 43 H        7.5120     8.5760    -2.0750 H     1 <1>   0.0800 
 44 H        6.9500     9.8030    -0.9610 H     1 <1>   0.0800 
 45 H        9.8270     8.3440    -0.7140 H     1 <1>   0.0800 
 46 H       10.2520     8.2540     0.9860 H     1 <1>   0.0800 
 47 H        9.2760     9.5900     0.4010 H     1 <1>   0.0800 
@<TRIPOS>BOND
  1   1   2  1   
  2   2   3  ar  
  3   2   4  ar  
  4   3   5  ar  
  5   3   6  1   
  6   4   7  ar  
  7   4  27  1   
  8   5   8  ar  
  9   5  28  1   
 10   6   9  1   
 11   6  10  1   
 12   6  29  1   
 13   7   8  ar  
 14   7  30  1   
 15   8  31  1   
 16   9  11  am  
 17   9  32  1   
 18  10  12  1   
 19  10  13  1   
 20  10  33  1   
 21  11  14  2   
 22  11  15  1   
 23  12  15  1   
 24  13  16  2   
 25  13  17  am  
 26  15  34  1   
 27  15  35  1   
 28  17  18  1   
 29  17  19  1   
 30  18  20  1   
 31  18  36  1   
 32  18  37  1   
 33  19  38  1   
 34  19  39  1   
 35  19  40  1   
 36  20  21  2   
 37  20  22  1   
 38  21  23  1   
 39  21  24  1   
 40  22  25  2   
 41  22  41  1   
 42  23  25  1   
 43  23  26  1   
 44  24  42  1   
 45  24  43  1   
 46  24  44  1   
 47  26  45  1   
 48  26  46  1   
 49  26  47  1   
@<TRIPOS>SUBSTRUCTURE
  1 ****  13 GROUP 4 **** **** 0

# MOE 2024.06 (io_trps.svl 2023.06)
