@<TRIPOS>MOLECULE
NONAME
46 47 1 0 0 
SMALL
USER_CHARGES


@<TRIPOS>ATOM
  1 O       -0.3370    -0.2520    -0.5500 O.2   1 <1>  -0.5700 
  2 C        0.6830    -0.8570    -0.3160 C.2   1 <1>   0.5690 
  3 N        1.8850    -0.2330    -0.0840 N.am  1 <1>  -0.4940 
  4 C        0.6410    -2.4040    -0.3030 C.3   1 <1>   0.2810 
  5 C        2.2050     1.1460    -0.0520 C.2   1 <1>  -0.0880 
  6 N        1.9450    -2.9980     0.1260 N.am  1 <1>  -0.7300 
  7 C       -0.4710    -2.9530     0.6090 C.3   1 <1>  -0.1600 
  8 N        3.4680     1.6500     0.0370 N.pl3 1 <1>   0.3140 
  9 C        1.3710     2.2120    -0.0960 C.2   1 <1>  -0.1500 
 10 C        3.0500    -2.9990    -0.6430 C.2   1 <1>   0.5690 
 11 C       -0.5840    -4.4910     0.5750 C.3   1 <1>  -0.0990 
 12 N        3.4500     3.0080     0.0610 N.2   1 <1>  -0.7070 
 13 C        4.7210     0.8390     0.0990 C.3   1 <1>   0.1760 
 14 C        2.1950     3.3250    -0.0220 C.2   1 <1>   0.1390 
 15 O        4.0770    -2.5830    -0.1790 O.2   1 <1>  -0.5700 
 16 C        2.9870    -3.4090    -2.0920 C.3   1 <1>  -0.1790 
 17 C       -1.7910    -4.9820     1.3480 C.2   1 <1>   0.5690 
 18 C        5.0160     0.3280     1.5090 C.3   1 <1>  -0.1600 
 19 C        6.0010     1.5860    -0.2850 C.3   1 <1>  -0.1600 
 20 O       -2.8600    -5.0470     0.8030 O.2   1 <1>  -0.5700 
 21 N       -1.6630    -5.3380     2.6370 N.am  1 <1>  -0.8000 
 22 C        6.5100    -0.0110     1.5050 C.3   1 <1>  -0.1600 
 23 C        7.1290     0.7500     0.3250 C.3   1 <1>  -0.1600 
 24 H        2.6720    -0.8760     0.0620 H     1 <1>   0.3700 
 25 H        0.4290    -2.7180    -1.3100 H     1 <1>   0.0800 
 26 H        2.1250    -2.8890     1.1270 H     1 <1>   0.3700 
 27 H       -0.3160    -2.6130     1.6180 H     1 <1>   0.0800 
 28 H       -1.4110    -2.5400     0.2780 H     1 <1>   0.0800 
 29 H        0.2990     2.2170    -0.1710 H     1 <1>   0.1500 
 30 H        0.3000    -4.9460     0.9810 H     1 <1>   0.0800 
 31 H       -0.6890    -4.8220    -0.4420 H     1 <1>   0.0800 
 32 H        4.6150    -0.0020    -0.5630 H     1 <1>   0.0800 
 33 H        1.8420     4.3430    -0.0310 H     1 <1>   0.1500 
 34 H        2.2850    -4.2110    -2.2210 H     1 <1>   0.0800 
 35 H        3.9570    -3.7430    -2.4120 H     1 <1>   0.0800 
 36 H        2.6920    -2.5700    -2.6950 H     1 <1>   0.0800 
 37 H        4.8350     1.1190     2.2180 H     1 <1>   0.0800 
 38 H        4.4180    -0.5290     1.7600 H     1 <1>   0.0800 
 39 H        6.1030     1.6850    -1.3510 H     1 <1>   0.0800 
 40 H        6.0110     2.5610     0.1710 H     1 <1>   0.0800 
 41 H       -2.4880    -5.6660     3.1400 H     1 <1>   0.3700 
 42 H       -0.7880    -5.3240     3.1590 H     1 <1>   0.3700 
 43 H        6.9670     0.2750     2.4370 H     1 <1>   0.0800 
 44 H        6.6460    -1.0700     1.3620 H     1 <1>   0.0800 
 45 H        7.4940     0.0460    -0.4030 H     1 <1>   0.0800 
 46 H        7.9450     1.3770     0.6420 H     1 <1>   0.0800 
@<TRIPOS>BOND
  1   1   2  2   
  2   2   3  am  
  3   2   4  1   
  4   3   5  1   
  5   3  24  1   
  6   4   6  1   
  7   4   7  1   
  8   4  25  1   
  9   5   8  1   
 10   5   9  2   
 11   6  10  am  
 12   6  26  1   
 13   7  11  1   
 14   7  27  1   
 15   7  28  1   
 16   8  12  1   
 17   8  13  1   
 18   9  14  1   
 19   9  29  1   
 20  10  15  2   
 21  10  16  1   
 22  11  17  1   
 23  11  30  1   
 24  11  31  1   
 25  12  14  2   
 26  13  18  1   
 27  13  19  1   
 28  13  32  1   
 29  14  33  1   
 30  16  34  1   
 31  16  35  1   
 32  16  36  1   
 33  17  20  2   
 34  17  21  am  
 35  18  22  1   
 36  18  37  1   
 37  18  38  1   
 38  19  23  1   
 39  19  39  1   
 40  19  40  1   
 41  21  41  1   
 42  21  42  1   
 43  22  23  1   
 44  22  43  1   
 45  22  44  1   
 46  23  45  1   
 47  23  46  1   
@<TRIPOS>SUBSTRUCTURE
  1 ****   3 GROUP 4 **** **** 0

# MOE 2024.06 (io_trps.svl 2023.06)
