@<TRIPOS>MOLECULE
NONAME
55 59 1 0 0 
SMALL
USER_CHARGES


@<TRIPOS>ATOM
  1 O        1.9150    -1.5750    -2.1590 O.2   1 <1>  -0.5700 
  2 C        1.1970    -2.2420    -1.4540 C.2   1 <1>   0.5690 
  3 N        1.6830    -3.0040    -0.4190 N.am  1 <1>  -0.6600 
  4 C       -0.2900    -2.2310    -1.7720 C.3   1 <1>  -0.0990 
  5 C        0.8110    -3.7590     0.5270 C.3   1 <1>   0.1400 
  6 C        3.1300    -3.0130    -0.0690 C.3   1 <1>   0.0600 
  7 C       -1.1770    -2.7830    -0.6460 C.3   1 <1>  -0.1600 
  8 C       -0.5650    -4.0770    -0.0820 C.3   1 <1>  -0.0190 
  9 C       -1.4920    -4.7420     0.9390 C.2   1 <1>   0.5690 
 10 O       -1.2310    -4.6030     2.1120 O.2   1 <1>  -0.5700 
 11 N       -2.5860    -5.4730     0.5370 N.am  1 <1>  -0.6600 
 12 C       -3.0030    -5.7400    -0.8700 C.3   1 <1>   0.1400 
 13 C       -3.5210    -6.0720     1.5350 C.3   1 <1>   0.1400 
 14 C       -3.0340    -7.2510    -1.1030 C.3   1 <1>  -0.1600 
 15 C       -3.5730    -7.5870     1.3330 C.3   1 <1>  -0.1600 
 16 C       -3.9620    -7.9490    -0.1060 C.3   1 <1>   0.4600 
 17 O       -5.2580    -7.4580    -0.3730 O.3   1 <1>  -0.5600 
 18 C       -3.9380    -9.4580    -0.3230 C.2   1 <1>  -0.3320 
 19 C       -6.3600    -8.2260     0.0520 C.3   1 <1>   0.1200 
 20 N       -2.8380   -10.2700    -0.2860 N.pl3 1 <1>   0.0330 
 21 C       -5.0300   -10.2030    -0.5850 C.2   1 <1>  -0.1810 
 22 C       -6.4010    -9.5820    -0.6700 C.3   1 <1>   0.0210 
 23 C       -3.2500   -11.5560    -0.5400 C.ar  1 <1>  -0.1520 
 24 C       -4.6280   -11.5460    -0.7360 C.ar  1 <1>   0.0000 
 25 C       -2.5240   -12.7470    -0.6160 C.ar  1 <1>  -0.1500 
 26 C       -5.2960   -12.7430    -1.0170 C.ar  1 <1>  -0.1500 
 27 C       -3.1930   -13.9170    -0.8910 C.ar  1 <1>  -0.1500 
 28 C       -4.5790   -13.9150    -1.0920 C.ar  1 <1>  -0.1500 
 29 H       -0.4300    -2.8200    -2.6590 H     1 <1>   0.0800 
 30 H       -0.5840    -1.2230    -2.0000 H     1 <1>   0.0800 
 31 H        0.6870    -3.1660     1.4170 H     1 <1>   0.0800 
 32 H        1.2930    -4.6800     0.8060 H     1 <1>   0.0800 
 33 H        3.6990    -2.4290    -0.7720 H     1 <1>   0.0800 
 34 H        3.5030    -4.0220    -0.0830 H     1 <1>   0.0800 
 35 H        3.2690    -2.5960     0.9130 H     1 <1>   0.0800 
 36 H       -2.1700    -2.9590    -1.0220 H     1 <1>   0.0800 
 37 H       -1.2480    -2.0550     0.1440 H     1 <1>   0.0800 
 38 H       -0.3920    -4.7770    -0.8770 H     1 <1>   0.0800 
 39 H       -2.3410    -5.2810    -1.5800 H     1 <1>   0.0800 
 40 H       -3.9860    -5.3280    -1.0280 H     1 <1>   0.0800 
 41 H       -4.5010    -5.6490     1.3970 H     1 <1>   0.0800 
 42 H       -3.2050    -5.8530     2.5410 H     1 <1>   0.0800 
 43 H       -2.0360    -7.6370    -1.0070 H     1 <1>   0.0800 
 44 H       -3.3720    -7.4630    -2.1010 H     1 <1>   0.0800 
 45 H       -4.2640    -8.0290     2.0250 H     1 <1>   0.0800 
 46 H       -2.6020    -7.9910     1.5530 H     1 <1>   0.0800 
 47 H       -7.2530    -7.6650    -0.1610 H     1 <1>   0.0800 
 48 H       -6.2870    -8.3710     1.1150 H     1 <1>   0.0800 
 49 H       -1.8700    -9.9890    -0.1000 H     1 <1>   0.2700 
 50 H       -6.6750    -9.4440    -1.7000 H     1 <1>   0.0800 
 51 H       -7.1270   -10.2210    -0.2020 H     1 <1>   0.0800 
 52 H       -1.4600   -12.7400    -0.4610 H     1 <1>   0.1500 
 53 H       -6.3580   -12.7250    -1.1690 H     1 <1>   0.1500 
 54 H       -2.6570   -14.8480    -0.9550 H     1 <1>   0.1500 
 55 H       -5.0790   -14.8430    -1.3060 H     1 <1>   0.1500 
@<TRIPOS>BOND
  1   1   2  2   
  2   2   3  am  
  3   2   4  1   
  4   3   5  1   
  5   3   6  1   
  6   4   7  1   
  7   4  29  1   
  8   4  30  1   
  9   5   8  1   
 10   5  31  1   
 11   5  32  1   
 12   6  33  1   
 13   6  34  1   
 14   6  35  1   
 15   7   8  1   
 16   7  36  1   
 17   7  37  1   
 18   8   9  1   
 19   8  38  1   
 20   9  10  2   
 21   9  11  am  
 22  11  12  1   
 23  11  13  1   
 24  12  14  1   
 25  12  39  1   
 26  12  40  1   
 27  13  15  1   
 28  13  41  1   
 29  13  42  1   
 30  14  16  1   
 31  14  43  1   
 32  14  44  1   
 33  15  16  1   
 34  15  45  1   
 35  15  46  1   
 36  16  17  1   
 37  16  18  1   
 38  17  19  1   
 39  18  20  1   
 40  18  21  2   
 41  19  22  1   
 42  19  47  1   
 43  19  48  1   
 44  20  23  1   
 45  20  49  1   
 46  21  22  1   
 47  21  24  1   
 48  22  50  1   
 49  22  51  1   
 50  23  24  ar  
 51  23  25  ar  
 52  24  26  ar  
 53  25  27  ar  
 54  25  52  1   
 55  26  28  ar  
 56  26  53  1   
 57  27  28  ar  
 58  27  54  1   
 59  28  55  1   
@<TRIPOS>SUBSTRUCTURE
  1 ****  14 GROUP 4 **** **** 0

# MOE 2024.06 (io_trps.svl 2023.06)
