@<TRIPOS>MOLECULE
NONAME
45 47 1 0 0 
SMALL
USER_CHARGES


@<TRIPOS>ATOM
  1 O        2.8720     0.0420    -1.1700 O.2   1 <1>  -0.5700 
  2 C        3.0840     0.8530    -0.3010 C.2   1 <1>   0.5690 
  3 N        2.8110     2.1700    -0.3640 N.am  1 <1>  -0.6600 
  4 C        3.6980     0.5020     1.0250 C.3   1 <1>  -0.0990 
  5 C        3.1730     2.8960     0.8610 C.3   1 <1>   0.1400 
  6 C        2.1630     2.8670    -1.4970 C.3   1 <1>   0.2840 
  7 C        3.5150     1.7830     1.8590 C.3   1 <1>  -0.1600 
  8 C        0.7320     3.2620    -1.1240 C.ar  1 <1>  -0.1440 
  9 C        0.2810     4.5820    -1.0890 C.ar  1 <1>  -0.1430 
 10 C       -0.1500     2.2370    -0.8100 C.ar  1 <1>  -0.1500 
 11 C       -1.0340     4.8430    -0.7250 C.ar  1 <1>  -0.1500 
 12 C        1.1690     5.7690    -1.4350 C.3   1 <1>   0.3530 
 13 C       -1.4580     2.5060    -0.4550 C.ar  1 <1>  -0.1500 
 14 C       -1.9010     3.8130    -0.4100 C.ar  1 <1>  -0.1500 
 15 N        1.9220     6.1580    -0.2320 N.pl3 1 <1>  -0.8690 
 16 C        3.2660     6.1580    -0.1120 C.ar  1 <1>   0.7200 
 17 N        3.9990     6.1120    -1.2180 N.ar  1 <1>  -0.6200 
 18 N        3.6980     6.1820     1.1390 N.ar  1 <1>  -0.6200 
 19 C        5.2960     6.1060    -1.0400 C.ar  1 <1>   0.1670 
 20 C        4.9980     6.1800     1.2930 C.ar  1 <1>   0.1670 
 21 C        5.8530     6.1420     0.2170 C.ar  1 <1>  -0.1500 
 22 C        6.1590     6.0570    -2.2830 C.3   1 <1>  -0.0970 
 23 C        5.5200     6.2210     2.7130 C.3   1 <1>  -0.0970 
 24 H        4.7380     0.2770     0.8780 H     1 <1>   0.0800 
 25 H        3.1940    -0.3390     1.4650 H     1 <1>   0.0800 
 26 H        2.3520     3.5030     1.2070 H     1 <1>   0.0800 
 27 H        4.0310     3.5140     0.6650 H     1 <1>   0.0800 
 28 H        2.1340     2.2080    -2.3470 H     1 <1>   0.0800 
 29 H        2.7640     3.7160    -1.7620 H     1 <1>   0.0800 
 30 H        4.3940     2.0250     2.4300 H     1 <1>   0.0800 
 31 H        2.6870     1.6610     2.5350 H     1 <1>   0.0800 
 32 H        0.1890     1.2140    -0.8410 H     1 <1>   0.1500 
 33 H       -1.3930     5.8570    -0.6840 H     1 <1>   0.1500 
 34 H        0.5630     6.6030    -1.7440 H     1 <1>   0.0800 
 35 H        1.8220     5.5330    -2.2560 H     1 <1>   0.0800 
 36 H       -2.1270     1.6980    -0.2130 H     1 <1>   0.1500 
 37 H       -2.9180     4.0280    -0.1300 H     1 <1>   0.1500 
 38 H        1.4410     5.9820     0.6460 H     1 <1>   0.4000 
 39 H        6.9180     6.1400     0.3520 H     1 <1>   0.1500 
 40 H        5.9410     5.1620    -2.8360 H     1 <1>   0.0800 
 41 H        7.2030     6.0670    -2.0310 H     1 <1>   0.0800 
 42 H        5.9420     6.9080    -2.9030 H     1 <1>   0.0800 
 43 H        5.1640     7.1110     3.2000 H     1 <1>   0.0800 
 44 H        6.5940     6.2210     2.7310 H     1 <1>   0.0800 
 45 H        5.1620     5.3650     3.2540 H     1 <1>   0.0800 
@<TRIPOS>BOND
  1   1   2  2   
  2   2   3  am  
  3   2   4  1   
  4   3   5  1   
  5   3   6  1   
  6   4   7  1   
  7   4  24  1   
  8   4  25  1   
  9   5   7  1   
 10   5  26  1   
 11   5  27  1   
 12   6   8  1   
 13   6  28  1   
 14   6  29  1   
 15   7  30  1   
 16   7  31  1   
 17   8   9  ar  
 18   8  10  ar  
 19   9  11  ar  
 20   9  12  1   
 21  10  13  ar  
 22  10  32  1   
 23  11  14  ar  
 24  11  33  1   
 25  12  15  1   
 26  12  34  1   
 27  12  35  1   
 28  13  14  ar  
 29  13  36  1   
 30  14  37  1   
 31  15  16  1   
 32  15  38  1   
 33  16  17  ar  
 34  16  18  ar  
 35  17  19  ar  
 36  18  20  ar  
 37  19  21  ar  
 38  19  22  1   
 39  20  21  ar  
 40  20  23  1   
 41  21  39  1   
 42  22  40  1   
 43  22  41  1   
 44  22  42  1   
 45  23  43  1   
 46  23  44  1   
 47  23  45  1   
@<TRIPOS>SUBSTRUCTURE
  1 ****   5 GROUP 4 **** **** 0

# MOE 2024.06 (io_trps.svl 2023.06)
