@<TRIPOS>MOLECULE
NONAME
42 44 1 0 0 
SMALL
USER_CHARGES


@<TRIPOS>ATOM
  1 O        0.3440     1.0160    -0.2050 O.2   1 <1>  -0.5700 
  2 C        0.2280     2.2070    -0.0680 C.2   1 <1>   0.5690 
  3 N       -0.8980     2.7350     0.4580 N.am  1 <1>  -0.7300 
  4 C        1.3460     3.1450    -0.5300 C.3   1 <1>   0.1810 
  5 C       -1.1240     4.1900     0.6330 C.3   1 <1>   0.3640 
  6 O        1.2440     4.4400     0.0200 O.3   1 <1>  -0.5600 
  7 C       -2.5160     4.5240     0.0990 C.ar  1 <1>  -0.1440 
  8 C       -0.0400     5.0400    -0.0860 C.3   1 <1>   0.2610 
  9 C       -3.3650     5.3330     0.8410 C.ar  1 <1>  -0.1500 
 10 C       -2.9550     4.0370    -1.1270 C.ar  1 <1>  -0.1500 
 11 C       -0.0030     6.4920     0.4300 C.2   1 <1>   0.5690 
 12 C       -4.6270     5.6510     0.3700 C.ar  1 <1>  -0.1500 
 13 C       -4.2170     4.3540    -1.5990 C.ar  1 <1>  -0.1500 
 14 O       -0.6120     6.7680     1.4420 O.2   1 <1>  -0.5700 
 15 N        0.7000     7.4630    -0.2460 N.am  1 <1>  -0.6600 
 16 C       -5.0540     5.1620    -0.8510 C.ar  1 <1>  -0.1500 
 17 C        0.8170     8.8520     0.3200 C.3   1 <1>   0.3210 
 18 C        1.5500     7.1980    -1.4430 C.3   1 <1>   0.0600 
 19 C        2.2360     9.2030     0.7680 C.2   1 <1>   0.3350 
 20 N        2.6400     9.2070     1.9770 N.2   1 <1>  -0.4100 
 21 N        3.1790     9.5630    -0.1000 N.2   1 <1>  -0.5650 
 22 O        3.8880     9.5620     1.9660 O.3   1 <1>  -0.0190 
 23 C        4.1480     9.7600     0.6990 C.2   1 <1>   0.2980 
 24 C        5.5400    10.1950     0.3030 C.3   1 <1>  -0.0600 
 25 H       -1.6490     2.1100     0.7540 H     1 <1>   0.3700 
 26 H        1.3240     3.2280    -1.6010 H     1 <1>   0.0800 
 27 H        2.2950     2.7380    -0.2330 H     1 <1>   0.0800 
 28 H       -1.0890     4.3970     1.6900 H     1 <1>   0.0800 
 29 H       -0.2900     5.0740    -1.1290 H     1 <1>   0.0800 
 30 H       -3.0450     5.7280     1.7920 H     1 <1>   0.1500 
 31 H       -2.3200     3.4050    -1.7220 H     1 <1>   0.1500 
 32 H       -5.2740     6.2810     0.9550 H     1 <1>   0.1500 
 33 H       -4.5490     3.9710    -2.5480 H     1 <1>   0.1500 
 34 H       -6.0350     5.4090    -1.2160 H     1 <1>   0.1500 
 35 H        0.5090     9.5590    -0.4280 H     1 <1>   0.0800 
 36 H        0.1610     8.9740     1.1630 H     1 <1>   0.0800 
 37 H        1.6440     8.0920    -2.0360 H     1 <1>   0.0800 
 38 H        1.1270     6.4270    -2.0590 H     1 <1>   0.0800 
 39 H        2.5320     6.8920    -1.1220 H     1 <1>   0.0800 
 40 H        5.5970    10.3170    -0.7630 H     1 <1>   0.0800 
 41 H        6.2520     9.4520     0.6100 H     1 <1>   0.0800 
 42 H        5.7750    11.1300     0.7770 H     1 <1>   0.0800 
@<TRIPOS>BOND
  1   1   2  2   
  2   2   3  am  
  3   2   4  1   
  4   3   5  1   
  5   3  25  1   
  6   4   6  1   
  7   4  26  1   
  8   4  27  1   
  9   5   7  1   
 10   5   8  1   
 11   5  28  1   
 12   6   8  1   
 13   7   9  ar  
 14   7  10  ar  
 15   8  11  1   
 16   8  29  1   
 17   9  12  ar  
 18   9  30  1   
 19  10  13  ar  
 20  10  31  1   
 21  11  14  2   
 22  11  15  am  
 23  12  16  ar  
 24  12  32  1   
 25  13  16  ar  
 26  13  33  1   
 27  15  17  1   
 28  15  18  1   
 29  16  34  1   
 30  17  19  1   
 31  17  35  1   
 32  17  36  1   
 33  18  37  1   
 34  18  38  1   
 35  18  39  1   
 36  19  20  2   
 37  19  21  1   
 38  20  22  1   
 39  21  23  2   
 40  22  23  1   
 41  23  24  1   
 42  24  40  1   
 43  24  41  1   
 44  24  42  1   
@<TRIPOS>SUBSTRUCTURE
  1 ****  11 GROUP 4 **** **** 0

# MOE 2024.06 (io_trps.svl 2023.06)
