@<TRIPOS>MOLECULE
NONAME
53 56 1 0 0 
SMALL
USER_CHARGES


@<TRIPOS>ATOM
  1 O        1.0440    -0.6170     2.2480 O.2   1 <1>  -0.5700 
  2 C        1.5310    -0.3590     1.1610 C.2   1 <1>   0.5440 
  3 N        1.1360     0.7910     0.5200 N.am  1 <1>  -0.6600 
  4 C        2.5090    -1.2510     0.5960 C.ar  1 <1>   0.0860 
  5 C        1.6030     1.2230    -0.8140 C.3   1 <1>   0.1400 
  6 C        0.1120     1.7100     1.0560 C.3   1 <1>   0.1400 
  7 C        2.2300    -2.0720    -0.5160 C.ar  1 <1>   0.4100 
  8 C        3.7780    -1.3140     1.1530 C.ar  1 <1>  -0.1500 
  9 C        1.0180     2.6200    -0.9910 C.3   1 <1>  -0.1600 
 10 C       -0.2310     2.6280    -0.1120 C.3   1 <1>  -0.1600 
 11 N        3.1370    -2.8740    -1.0760 N.ar  1 <1>  -0.6200 
 12 N        0.9810    -2.1290    -1.1100 N.pl3 1 <1>  -0.8380 
 13 C        4.7040    -2.1520     0.5760 C.ar  1 <1>  -0.1500 
 14 C        4.3350    -2.8970    -0.5280 C.ar  1 <1>   0.1600 
 15 C       -0.2640    -2.3730    -0.3100 C.3   1 <1>   0.3890 
 16 C        0.8280    -2.2300    -2.5910 C.3   1 <1>   0.1290 
 17 C       -0.9880    -3.6390    -0.7580 C.2   1 <1>   0.0060 
 18 N       -2.2080    -3.6440    -1.2010 N.2   1 <1>  -0.5650 
 19 N       -0.4120    -4.8690    -0.7350 N.pl3 1 <1>   0.0480 
 20 C       -2.4440    -4.9370    -1.4840 C.2   1 <1>   0.0770 
 21 C       -1.3630    -5.6960    -1.2110 C.2   1 <1>  -0.3020 
 22 C        0.9760    -5.2160    -0.3380 C.3   1 <1>   0.2390 
 23 C        1.0860    -6.6520     0.1610 C.ar  1 <1>  -0.1430 
 24 C        0.5310    -7.0120     1.3800 C.ar  1 <1>  -0.1500 
 25 C        1.7430    -7.6090    -0.5970 C.ar  1 <1>  -0.1500 
 26 C        0.6320    -8.3150     1.8360 C.ar  1 <1>  -0.1500 
 27 C        1.8450    -8.9120    -0.1420 C.ar  1 <1>  -0.1500 
 28 C        1.2890    -9.2660     1.0750 C.ar  1 <1>  -0.1500 
 29 H        1.2070     0.5560    -1.5600 H     1 <1>   0.0800 
 30 H        2.6790     1.2330    -0.8660 H     1 <1>   0.0800 
 31 H        0.5380     2.2710     1.8700 H     1 <1>   0.0800 
 32 H       -0.7500     1.1650     1.4040 H     1 <1>   0.0800 
 33 H        4.0210    -0.7160     2.0150 H     1 <1>   0.1500 
 34 H        0.7960     2.8330    -2.0210 H     1 <1>   0.0800 
 35 H        1.7250     3.3440    -0.6260 H     1 <1>   0.0800 
 36 H       -0.4940     3.6160     0.2210 H     1 <1>   0.0800 
 37 H       -1.0620     2.2070    -0.6520 H     1 <1>   0.0800 
 38 H        5.7000    -2.2290     0.9740 H     1 <1>   0.1500 
 39 H        5.0670    -3.5460    -0.9800 H     1 <1>   0.1500 
 40 H       -0.9230    -1.5290    -0.4210 H     1 <1>   0.0800 
 41 H       -0.0270    -2.4710     0.7340 H     1 <1>   0.0800 
 42 H        1.6940    -1.8200    -3.0810 H     1 <1>   0.0800 
 43 H       -0.0440    -1.6840    -2.9080 H     1 <1>   0.0800 
 44 H        0.7220    -3.2600    -2.8810 H     1 <1>   0.0800 
 45 H       -3.3940    -5.2590    -1.8770 H     1 <1>   0.1500 
 46 H       -1.2220    -6.7560    -1.3230 H     1 <1>   0.1500 
 47 H        1.2970    -4.5490     0.4390 H     1 <1>   0.0800 
 48 H        1.6140    -5.0690    -1.1900 H     1 <1>   0.0800 
 49 H        0.0140    -6.2810     1.9770 H     1 <1>   0.1500 
 50 H        2.1780    -7.3460    -1.5460 H     1 <1>   0.1500 
 51 H        0.1980    -8.5900     2.7820 H     1 <1>   0.1500 
 52 H        2.3550    -9.6510    -0.7340 H     1 <1>   0.1500 
 53 H        1.3680   -10.2790     1.4300 H     1 <1>   0.1500 
@<TRIPOS>BOND
  1   1   2  2   
  2   2   3  am  
  3   2   4  1   
  4   3   5  1   
  5   3   6  1   
  6   4   7  ar  
  7   4   8  ar  
  8   5   9  1   
  9   5  29  1   
 10   5  30  1   
 11   6  10  1   
 12   6  31  1   
 13   6  32  1   
 14   7  11  ar  
 15   7  12  1   
 16   8  13  ar  
 17   8  33  1   
 18   9  10  1   
 19   9  34  1   
 20   9  35  1   
 21  10  36  1   
 22  10  37  1   
 23  11  14  ar  
 24  12  15  1   
 25  12  16  1   
 26  13  14  ar  
 27  13  38  1   
 28  14  39  1   
 29  15  17  1   
 30  15  40  1   
 31  15  41  1   
 32  16  42  1   
 33  16  43  1   
 34  16  44  1   
 35  17  18  2   
 36  17  19  1   
 37  18  20  1   
 38  19  21  1   
 39  19  22  1   
 40  20  21  2   
 41  20  45  1   
 42  21  46  1   
 43  22  23  1   
 44  22  47  1   
 45  22  48  1   
 46  23  24  ar  
 47  23  25  ar  
 48  24  26  ar  
 49  24  49  1   
 50  25  27  ar  
 51  25  50  1   
 52  26  28  ar  
 53  26  51  1   
 54  27  28  ar  
 55  27  52  1   
 56  28  53  1   
@<TRIPOS>SUBSTRUCTURE
  1 ****  12 GROUP 4 **** **** 0

# MOE 2024.06 (io_trps.svl 2023.06)
