@<TRIPOS>MOLECULE
NONAME
54 56 1 0 0 
SMALL
USER_CHARGES


@<TRIPOS>ATOM
  1 O        0.1850    -0.0630     0.0790 O.2   1 <1>  -0.5700 
  2 C        1.0880    -0.5040    -0.6080 C.2   1 <1>   0.7150 
  3 N        1.9420     0.3720    -1.2210 N.am  1 <1>  -0.7300 
  4 C        1.2570    -1.9310    -0.7790 C.2   1 <1>   0.0550 
  5 C        1.9080     1.8440    -1.0840 C.3   1 <1>   0.1400 
  6 O        0.5180    -2.7800    -0.0730 O.3   1 <1>  -0.2800 
  7 C        2.0790    -2.6640    -1.5840 C.2   1 <1>  -0.1500 
  8 C        3.2320     2.3120    -0.4850 C.3   1 <1>  -0.1600 
  9 C        0.8250    -4.0130    -0.4000 C.2   1 <1>  -0.0400 
 10 C        1.7970    -4.0100    -1.3390 C.2   1 <1>  -0.1500 
 11 C        3.2360     3.8260    -0.2530 C.3   1 <1>   0.0210 
 12 C        0.0840    -5.1550     0.2770 C.3   1 <1>   0.5230 
 13 C        4.5750     4.2670     0.3040 C.2   1 <1>  -0.1810 
 14 N       -1.3830    -4.9790     0.0780 N.4   1 <1>  -0.9590 
 15 C        5.0860     3.9800     1.5660 C.2   1 <1>   0.1390 
 16 C        5.5330     5.0090    -0.2880 C.2   1 <1>  -0.3020 
 17 C       -1.9570    -4.0040     1.0570 C.3   1 <1>   0.3430 
 18 C       -2.1100    -6.2780     0.0890 C.3   1 <1>   0.3430 
 19 N        6.2630     4.4940     1.7470 N.2   1 <1>  -0.7070 
 20 N        6.5390     5.1340     0.6000 N.pl3 1 <1>   0.3140 
 21 C       -3.4230    -3.7400     0.7190 C.3   1 <1>  -0.1600 
 22 C       -3.5790    -6.0490    -0.2680 C.3   1 <1>  -0.1600 
 23 C        7.8030     5.8530     0.4100 C.3   1 <1>   0.0160 
 24 C       -4.2420    -5.0380     0.6780 C.3   1 <1>  -0.0800 
 25 C       -5.6830    -4.7540     0.2410 C.3   1 <1>  -0.2400 
 26 H        2.7210     0.0000    -1.7620 H     1 <1>   0.3700 
 27 H        1.0910     2.1390    -0.4450 H     1 <1>   0.0800 
 28 H        1.7570     2.2880    -2.0530 H     1 <1>   0.0800 
 29 H        2.8120    -2.3060    -2.2860 H     1 <1>   0.1500 
 30 H        4.0410     2.0590    -1.1480 H     1 <1>   0.0800 
 31 H        3.3900     1.8150     0.4570 H     1 <1>   0.0800 
 32 H        2.2820    -4.8400    -1.8260 H     1 <1>   0.1500 
 33 H        2.4590     4.0980     0.4400 H     1 <1>   0.0800 
 34 H        3.0550     4.3400    -1.1810 H     1 <1>   0.0800 
 35 H        0.3200    -5.1710     1.3280 H     1 <1>   0.0800 
 36 H        0.4090    -6.0830    -0.1620 H     1 <1>   0.0800 
 37 H       -1.4930    -4.5480    -0.8490 H     1 <1>   0.4500 
 38 H        4.5750     3.3970     2.3140 H     1 <1>   0.1500 
 39 H        5.5570     5.4460    -1.2680 H     1 <1>   0.1500 
 40 H       -1.4170    -3.0710     1.0260 H     1 <1>   0.0800 
 41 H       -1.8850    -4.4020     2.0570 H     1 <1>   0.0800 
 42 H       -2.0450    -6.7250     1.0680 H     1 <1>   0.0800 
 43 H       -1.6710    -6.9560    -0.6260 H     1 <1>   0.0800 
 44 H       -3.4790    -3.2300    -0.2280 H     1 <1>   0.0800 
 45 H       -3.8350    -3.0790     1.4620 H     1 <1>   0.0800 
 46 H       -4.1010    -6.9890    -0.2100 H     1 <1>   0.0800 
 47 H       -3.6470    -5.7070    -1.2870 H     1 <1>   0.0800 
 48 H        7.7620     6.4210    -0.4990 H     1 <1>   0.0800 
 49 H        8.6040     5.1390     0.3620 H     1 <1>   0.0800 
 50 H        7.9560     6.5100     1.2450 H     1 <1>   0.0800 
 51 H       -4.2700    -5.4600     1.6700 H     1 <1>   0.0800 
 52 H       -5.7100    -4.3270    -0.7470 H     1 <1>   0.0800 
 53 H       -6.1520    -4.0650     0.9210 H     1 <1>   0.0800 
 54 H       -6.2610    -5.6620     0.2350 H     1 <1>   0.0800 
@<TRIPOS>BOND
  1   1   2  2   
  2   2   3  am  
  3   2   4  1   
  4   3   5  1   
  5   3  26  1   
  6   4   6  1   
  7   4   7  2   
  8   5   8  1   
  9   5  27  1   
 10   5  28  1   
 11   6   9  1   
 12   7  10  1   
 13   7  29  1   
 14   8  11  1   
 15   8  30  1   
 16   8  31  1   
 17   9  10  2   
 18   9  12  1   
 19  10  32  1   
 20  11  13  1   
 21  11  33  1   
 22  11  34  1   
 23  12  14  1   
 24  12  35  1   
 25  12  36  1   
 26  13  15  1   
 27  13  16  2   
 28  14  17  1   
 29  14  18  1   
 30  14  37  1   
 31  15  19  2   
 32  15  38  1   
 33  16  20  1   
 34  16  39  1   
 35  17  21  1   
 36  17  40  1   
 37  17  41  1   
 38  18  22  1   
 39  18  42  1   
 40  18  43  1   
 41  19  20  1   
 42  20  23  1   
 43  21  24  1   
 44  21  44  1   
 45  21  45  1   
 46  22  24  1   
 47  22  46  1   
 48  22  47  1   
 49  23  48  1   
 50  23  49  1   
 51  23  50  1   
 52  24  25  1   
 53  24  51  1   
 54  25  52  1   
 55  25  53  1   
 56  25  54  1   
@<TRIPOS>SUBSTRUCTURE
  1 ****   2 GROUP 4 **** **** 0

# MOE 2024.06 (io_trps.svl 2023.06)
