@<TRIPOS>MOLECULE
NONAME
44 45 1 0 0 
SMALL
USER_CHARGES


@<TRIPOS>ATOM
  1 S        0.7860     0.0670    -1.6500 S.o2  1 <1>   1.3330 
  2 O        1.2420    -1.2720    -1.9520 O.2   1 <1>  -0.6500 
  3 O        0.1110     0.8410    -2.6670 O.2   1 <1>  -0.6500 
  4 N       -0.2600    -0.0290    -0.3140 N.am  1 <1>  -0.8490 
  5 C        2.1870     1.0010    -1.0310 C.3   1 <1>  -0.0550 
  6 C       -1.1270    -1.2100    -0.3760 C.3   1 <1>   0.1160 
  7 C       -1.0780     1.1750    -0.1300 C.3   1 <1>   0.1160 
  8 C        3.0360     0.2510     0.0190 C.3   1 <1>  -0.0800 
  9 C        4.3290     0.9470     0.4150 C.3   1 <1>   0.2200 
 10 C        2.3480     0.0190     1.3710 C.3   1 <1>   0.1200 
 11 N        4.1070     2.3980     0.6140 N.am  1 <1>  -0.7300 
 12 C        4.5850     0.3050     1.7700 C.3   1 <1>   0.1200 
 13 O        3.3240     0.2030     2.3570 O.3   1 <1>  -0.5600 
 14 C        4.4250     3.3860    -0.2610 C.2   1 <1>   0.7150 
 15 O        4.8690     3.0710    -1.3480 O.2   1 <1>  -0.5700 
 16 C        4.2010     4.7510     0.1170 C.2   1 <1>  -0.2370 
 17 N        4.3830     5.8310    -0.6900 N.pl3 1 <1>   0.3140 
 18 C        3.7750     5.2670     1.3050 C.2   1 <1>  -0.1500 
 19 N        4.0890     6.9830    -0.0680 N.2   1 <1>  -0.7070 
 20 C        4.8370     5.8560    -2.0910 C.3   1 <1>   0.0160 
 21 C        3.7280     6.6350     1.1260 C.2   1 <1>   0.1080 
 22 C        3.3150     7.6510     2.1640 C.3   1 <1>  -0.0590 
 23 H        2.8240     1.2350    -1.8620 H     1 <1>   0.0800 
 24 H        1.8410     1.9300    -0.6240 H     1 <1>   0.0800 
 25 H       -1.7690    -1.2490     0.4870 H     1 <1>   0.0800 
 26 H       -0.5300    -2.1070    -0.3910 H     1 <1>   0.0800 
 27 H       -1.7320    -1.1830    -1.2680 H     1 <1>   0.0800 
 28 H       -1.6520     1.0970     0.7770 H     1 <1>   0.0800 
 29 H       -1.7520     1.3040    -0.9610 H     1 <1>   0.0800 
 30 H       -0.4490     2.0460    -0.0590 H     1 <1>   0.0800 
 31 H        3.2940    -0.7150    -0.3820 H     1 <1>   0.0800 
 32 H        5.1320     0.7730    -0.2830 H     1 <1>   0.0800 
 33 H        1.9510    -0.9790     1.4520 H     1 <1>   0.0800 
 34 H        1.5660     0.7350     1.5530 H     1 <1>   0.0800 
 35 H        3.6930     2.6420     1.5140 H     1 <1>   0.3700 
 36 H        5.2340     0.8900     2.3970 H     1 <1>   0.0800 
 37 H        4.9800    -0.6900     1.6560 H     1 <1>   0.0800 
 38 H        3.5230     4.7480     2.2120 H     1 <1>   0.1500 
 39 H        4.1560     5.2850    -2.6940 H     1 <1>   0.0800 
 40 H        5.8210     5.4300    -2.1510 H     1 <1>   0.0800 
 41 H        4.8620     6.8720    -2.4390 H     1 <1>   0.0800 
 42 H        3.0530     7.1650     3.0860 H     1 <1>   0.0800 
 43 H        2.4680     8.2060     1.8040 H     1 <1>   0.0800 
 44 H        4.1270     8.3320     2.3410 H     1 <1>   0.0800 
@<TRIPOS>BOND
  1   1   2  2   
  2   1   3  2   
  3   1   4  am  
  4   1   5  1   
  5   4   6  1   
  6   4   7  1   
  7   5   8  1   
  8   5  23  1   
  9   5  24  1   
 10   6  25  1   
 11   6  26  1   
 12   6  27  1   
 13   7  28  1   
 14   7  29  1   
 15   7  30  1   
 16   8   9  1   
 17   8  10  1   
 18   8  31  1   
 19   9  11  1   
 20   9  12  1   
 21   9  32  1   
 22  10  13  1   
 23  10  33  1   
 24  10  34  1   
 25  11  14  am  
 26  11  35  1   
 27  12  13  1   
 28  12  36  1   
 29  12  37  1   
 30  14  15  2   
 31  14  16  1   
 32  16  17  1   
 33  16  18  2   
 34  17  19  1   
 35  17  20  1   
 36  18  21  1   
 37  18  38  1   
 38  19  21  2   
 39  20  39  1   
 40  20  40  1   
 41  20  41  1   
 42  21  22  1   
 43  22  42  1   
 44  22  43  1   
 45  22  44  1   
@<TRIPOS>SUBSTRUCTURE
  1 ****  11 GROUP 4 **** **** 0

# MOE 2024.06 (io_trps.svl 2023.06)
