@<TRIPOS>MOLECULE
NONAME
38 39 1 0 0 
SMALL
USER_CHARGES


@<TRIPOS>ATOM
  1 CL      -1.9800    -2.6030     0.8620 Cl    1 <1>  -0.1770 
  2 C       -2.0340    -0.8630     0.7370 C.ar  1 <1>   0.1770 
  3 C       -2.6940    -0.2720    -0.3340 C.ar  1 <1>  -0.1440 
  4 C       -1.4170    -0.1110     1.7170 C.ar  1 <1>  -0.1500 
  5 C       -2.7270     1.1160    -0.4260 C.ar  1 <1>  -0.1500 
  6 C       -3.3610    -1.1370    -1.3870 C.3   1 <1>   0.4870 
  7 C       -1.4730     1.2630     1.6000 C.ar  1 <1>   0.1900 
  8 C       -2.1150     1.8910     0.5480 C.ar  1 <1>  -0.1500 
  9 N       -4.6250    -1.7020    -0.8520 N.4   1 <1>  -0.9590 
 10 F       -0.9000     1.9960     2.5140 F     1 <1>  -0.1900 
 11 C       -5.1890    -2.7510    -1.7460 C.3   1 <1>   0.5240 
 12 C       -5.6190    -0.6620    -0.4260 C.3   1 <1>   0.3430 
 13 C       -5.7130    -3.8710    -0.8590 C.2   1 <1>   0.0460 
 14 C       -6.6980    -1.1970     0.5270 C.3   1 <1>   0.1200 
 15 N       -5.1270    -4.1130     0.3340 N.2   1 <1>  -0.5650 
 16 C       -6.7450    -4.7190    -1.0650 C.2   1 <1>  -0.3020 
 17 O       -7.5110    -0.1340     0.8790 O.3   1 <1>  -0.6800 
 18 C       -5.8000    -5.1040     0.8190 C.2   1 <1>   0.0060 
 19 N       -6.8020    -5.5210     0.0150 N.pl3 1 <1>   0.0330 
 20 C       -5.5020    -5.7500     2.1560 C.3   1 <1>  -0.0600 
 21 H       -0.9100    -0.5740     2.5440 H     1 <1>   0.1500 
 22 H       -3.2230     1.6090    -1.2470 H     1 <1>   0.1500 
 23 H       -2.6900    -1.9370    -1.6580 H     1 <1>   0.0800 
 24 H       -3.5610    -0.5490    -2.2680 H     1 <1>   0.0800 
 25 H       -2.1290     2.9660     0.4980 H     1 <1>   0.1500 
 26 H       -4.3770    -2.2620    -0.0100 H     1 <1>   0.4500 
 27 H       -4.4130    -3.1580    -2.3720 H     1 <1>   0.0800 
 28 H       -5.9750    -2.3560    -2.3690 H     1 <1>   0.0800 
 29 H       -6.0970    -0.2370    -1.2920 H     1 <1>   0.0800 
 30 H       -5.1050     0.1290     0.0950 H     1 <1>   0.0800 
 31 H       -6.2550    -1.5960     1.4240 H     1 <1>   0.0800 
 32 H       -7.3150    -1.9400     0.0530 H     1 <1>   0.0800 
 33 H       -7.4280    -4.8080    -1.8930 H     1 <1>   0.1500 
 34 H       -8.1920    -0.4050     1.5310 H     1 <1>   0.4000 
 35 H       -7.4540    -6.2920     0.1950 H     1 <1>   0.2700 
 36 H       -4.6600    -5.2650     2.6190 H     1 <1>   0.0800 
 37 H       -5.2640    -6.7890     2.0200 H     1 <1>   0.0800 
 38 H       -6.3510    -5.6630     2.8100 H     1 <1>   0.0800 
@<TRIPOS>BOND
  1   1   2  1   
  2   2   3  ar  
  3   2   4  ar  
  4   3   5  ar  
  5   3   6  1   
  6   4   7  ar  
  7   4  21  1   
  8   5   8  ar  
  9   5  22  1   
 10   6   9  1   
 11   6  23  1   
 12   6  24  1   
 13   7   8  ar  
 14   7  10  1   
 15   8  25  1   
 16   9  11  1   
 17   9  12  1   
 18   9  26  1   
 19  11  13  1   
 20  11  27  1   
 21  11  28  1   
 22  12  14  1   
 23  12  29  1   
 24  12  30  1   
 25  13  15  1   
 26  13  16  2   
 27  14  17  1   
 28  14  31  1   
 29  14  32  1   
 30  15  18  2   
 31  16  19  1   
 32  16  33  1   
 33  17  34  1   
 34  18  19  1   
 35  18  20  1   
 36  19  35  1   
 37  20  36  1   
 38  20  37  1   
 39  20  38  1   
@<TRIPOS>SUBSTRUCTURE
  1 ****   9 GROUP 4 **** **** 0

# MOE 2024.06 (io_trps.svl 2023.06)
