@<TRIPOS>MOLECULE
NONAME
47 50 1 0 0 
SMALL
USER_CHARGES


@<TRIPOS>ATOM
  1 O       -0.2890     0.2960    -0.1350 O.2   1 <1>  -0.5700 
  2 C       -1.3580     0.8560    -0.2090 C.2   1 <1>   0.5690 
  3 N       -2.5210     0.1570    -0.3660 N.am  1 <1>  -0.6600 
  4 C       -1.4110     2.3720    -0.1230 C.3   1 <1>  -0.0990 
  5 C       -3.8890     0.7310    -0.4250 C.3   1 <1>   0.1400 
  6 C       -2.5670    -1.3220    -0.4440 C.3   1 <1>   0.1400 
  7 C       -0.0280     3.0310     0.0020 C.3   1 <1>   0.0200 
  8 C       -4.8200    -0.4760    -0.5580 C.3   1 <1>   0.2000 
  9 C       -4.0110    -1.6860    -0.0930 C.3   1 <1>  -0.0800 
 10 C       -0.1110     4.5480     0.0820 C.2   1 <1>   0.0060 
 11 O       -5.9520    -0.3360     0.2300 O.3   1 <1>  -0.6800 
 12 C       -4.5020    -3.0010    -0.7230 C.3   1 <1>  -0.0170 
 13 N       -1.2010     5.2360     0.0580 N.2   1 <1>  -0.5650 
 14 N        1.0100     5.3080     0.1900 N.pl3 1 <1>   0.0330 
 15 C       -3.7110    -4.2000    -0.2230 C.ar  1 <1>   0.1670 
 16 C       -0.7890     6.5320     0.1540 C.ar  1 <1>   0.2270 
 17 C        0.5890     6.5960     0.2380 C.ar  1 <1>  -0.1520 
 18 N       -2.5530    -4.4330    -0.8200 N.ar  1 <1>  -0.6200 
 19 C       -4.2150    -4.9850     0.8130 C.ar  1 <1>   0.1600 
 20 C       -1.5420     7.7040     0.1760 C.ar  1 <1>  -0.1500 
 21 C        1.2540     7.8190     0.3450 C.ar  1 <1>  -0.1500 
 22 C       -1.9370    -5.4890    -0.3140 C.ar  1 <1>   0.1600 
 23 N       -3.6010    -6.0410     1.3200 N.ar  1 <1>  -0.6200 
 24 C       -0.8960     8.9170     0.2820 C.ar  1 <1>  -0.1500 
 25 C        0.5020     8.9730     0.3660 C.ar  1 <1>  -0.1500 
 26 C       -2.4440    -6.2660     0.7210 C.ar  1 <1>   0.1600 
 27 H       -1.8940     2.7490    -1.0050 H     1 <1>   0.0800 
 28 H       -2.0030     2.6460     0.7300 H     1 <1>   0.0800 
 29 H       -4.0880     1.2760     0.4810 H     1 <1>   0.0800 
 30 H       -3.9850     1.3780    -1.2790 H     1 <1>   0.0800 
 31 H       -2.3240    -1.6280    -1.4480 H     1 <1>   0.0800 
 32 H       -1.8660    -1.7700     0.2400 H     1 <1>   0.0800 
 33 H        0.5700     2.7570    -0.8500 H     1 <1>   0.0800 
 34 H        0.4600     2.6600     0.8870 H     1 <1>   0.0800 
 35 H       -5.1320    -0.5830    -1.5830 H     1 <1>   0.0800 
 36 H       -4.0630    -1.7620     0.9790 H     1 <1>   0.0800 
 37 H       -5.7020    -0.2320     1.1690 H     1 <1>   0.4000 
 38 H       -4.4180    -2.9500    -1.7940 H     1 <1>   0.0800 
 39 H       -5.5430    -3.1360    -0.4880 H     1 <1>   0.0800 
 40 H        1.9780     4.9820     0.2280 H     1 <1>   0.2700 
 41 H       -5.1660    -4.7270     1.2430 H     1 <1>   0.1500 
 42 H       -2.6110     7.6310     0.1100 H     1 <1>   0.1500 
 43 H        2.3270     7.8520     0.4090 H     1 <1>   0.1500 
 44 H       -0.9850    -5.7520    -0.7390 H     1 <1>   0.1500 
 45 H       -1.4610     9.8330     0.3000 H     1 <1>   0.1500 
 46 H        0.9820     9.9330     0.4470 H     1 <1>   0.1500 
 47 H       -1.8670    -7.1060     1.0650 H     1 <1>   0.1500 
@<TRIPOS>BOND
  1   1   2  2   
  2   2   3  am  
  3   2   4  1   
  4   3   5  1   
  5   3   6  1   
  6   4   7  1   
  7   4  27  1   
  8   4  28  1   
  9   5   8  1   
 10   5  29  1   
 11   5  30  1   
 12   6   9  1   
 13   6  31  1   
 14   6  32  1   
 15   7  10  1   
 16   7  33  1   
 17   7  34  1   
 18   8   9  1   
 19   8  11  1   
 20   8  35  1   
 21   9  12  1   
 22   9  36  1   
 23  10  13  2   
 24  10  14  1   
 25  11  37  1   
 26  12  15  1   
 27  12  38  1   
 28  12  39  1   
 29  13  16  1   
 30  14  17  1   
 31  14  40  1   
 32  15  18  ar  
 33  15  19  ar  
 34  16  17  ar  
 35  16  20  ar  
 36  17  21  ar  
 37  18  22  ar  
 38  19  23  ar  
 39  19  41  1   
 40  20  24  ar  
 41  20  42  1   
 42  21  25  ar  
 43  21  43  1   
 44  22  26  ar  
 45  22  44  1   
 46  23  26  ar  
 47  24  25  ar  
 48  24  45  1   
 49  25  46  1   
 50  26  47  1   
@<TRIPOS>SUBSTRUCTURE
  1 ****   2 GROUP 4 **** **** 0

# MOE 2024.06 (io_trps.svl 2023.06)
