@<TRIPOS>MOLECULE
NONAME
51 53 1 0 0 
SMALL
USER_CHARGES


@<TRIPOS>ATOM
  1 O       -1.0620     0.0760    -1.5300 O.2   1 <1>  -0.5700 
  2 C       -1.4770     0.5960    -0.5120 C.2   1 <1>   0.5440 
  3 N       -1.8960    -0.2210     0.4970 N.am  1 <1>  -0.7300 
  4 C       -1.5330     2.0410    -0.3800 C.ar  1 <1>   0.0860 
  5 C       -1.9140    -1.7030     0.4570 C.3   1 <1>   0.2200 
  6 C       -0.7390     2.8630    -1.1800 C.ar  1 <1>  -0.1500 
  7 C       -2.3790     2.6660     0.5350 C.ar  1 <1>  -0.1500 
  8 C       -3.3270    -2.2300     0.2470 C.3   1 <1>  -0.0800 
  9 C       -1.6250    -2.2340     1.8540 C.3   1 <1>   0.1200 
 10 C       -0.7680     4.2480    -1.0670 C.ar  1 <1>   0.0820 
 11 C       -2.4350     4.0400     0.6670 C.ar  1 <1>   0.0820 
 12 C       -3.9100    -2.2280     1.6650 C.3   1 <1>   0.1200 
 13 C       -4.1800    -1.4760    -0.7920 C.3   1 <1>  -0.0160 
 14 O       -2.8300    -2.1070     2.5460 O.3   1 <1>  -0.5600 
 15 O        0.0020     5.0550    -1.8540 O.3   1 <1>  -0.3630 
 16 C       -1.6060     4.8470    -0.1230 C.ar  1 <1>   0.0820 
 17 O       -3.3200     4.5000     1.5940 O.3   1 <1>  -0.3630 
 18 C       -5.5430    -2.1310    -0.9550 C.ar  1 <1>  -0.1440 
 19 C        0.6840     4.5540    -2.9840 C.3   1 <1>   0.0400 
 20 O       -1.6070     6.1970     0.0180 O.3   1 <1>  -0.3630 
 21 C       -4.0630     5.6740     1.3440 C.3   1 <1>   0.0400 
 22 C       -6.6720    -1.6330    -0.3370 C.ar  1 <1>  -0.1500 
 23 C       -5.7180    -3.2590    -1.7290 C.ar  1 <1>  -0.1500 
 24 C       -0.5130     6.7490     0.7140 C.3   1 <1>   0.0400 
 25 C       -7.8870    -2.2740    -0.5140 C.ar  1 <1>   0.1600 
 26 C       -6.9780    -3.8240    -1.8410 C.ar  1 <1>   0.1600 
 27 N       -8.0670    -3.3590    -1.2490 N.ar  1 <1>  -0.6200 
 28 H       -2.2150     0.1680     1.3870 H     1 <1>   0.3700 
 29 H       -1.2160    -2.0750    -0.2750 H     1 <1>   0.0800 
 30 H       -0.0950     2.3820    -1.8920 H     1 <1>   0.1500 
 31 H       -3.0250     2.0790     1.1600 H     1 <1>   0.1500 
 32 H       -3.2510    -3.2560    -0.0660 H     1 <1>   0.0800 
 33 H       -0.8530    -1.6830     2.3600 H     1 <1>   0.0800 
 34 H       -1.3710    -3.2790     1.8210 H     1 <1>   0.0800 
 35 H       -4.4400    -3.1400     1.8800 H     1 <1>   0.0800 
 36 H       -4.5570    -1.3840     1.8280 H     1 <1>   0.0800 
 37 H       -3.6680    -1.4740    -1.7390 H     1 <1>   0.0800 
 38 H       -4.3140    -0.4510    -0.4980 H     1 <1>   0.0800 
 39 H        1.1290     5.3850    -3.5000 H     1 <1>   0.0800 
 40 H       -0.0230     4.0610    -3.6290 H     1 <1>   0.0800 
 41 H        1.4500     3.8740    -2.6580 H     1 <1>   0.0800 
 42 H       -4.9490     5.6470     1.9510 H     1 <1>   0.0800 
 43 H       -4.3300     5.7090     0.3020 H     1 <1>   0.0800 
 44 H       -3.4670     6.5270     1.6110 H     1 <1>   0.0800 
 45 H       -6.6210    -0.7540     0.2780 H     1 <1>   0.1500 
 46 H       -4.8880    -3.7040    -2.2470 H     1 <1>   0.1500 
 47 H       -0.6680     7.8090     0.7980 H     1 <1>   0.0800 
 48 H        0.3910     6.5530     0.1650 H     1 <1>   0.0800 
 49 H       -0.4640     6.3030     1.6910 H     1 <1>   0.0800 
 50 H       -8.7580    -1.8720    -0.0250 H     1 <1>   0.1500 
 51 H       -7.0970    -4.7040    -2.4490 H     1 <1>   0.1500 
@<TRIPOS>BOND
  1   1   2  2   
  2   2   3  am  
  3   2   4  1   
  4   3   5  1   
  5   3  28  1   
  6   4   6  ar  
  7   4   7  ar  
  8   5   8  1   
  9   5   9  1   
 10   5  29  1   
 11   6  10  ar  
 12   6  30  1   
 13   7  11  ar  
 14   7  31  1   
 15   8  12  1   
 16   8  13  1   
 17   8  32  1   
 18   9  14  1   
 19   9  33  1   
 20   9  34  1   
 21  10  15  1   
 22  10  16  ar  
 23  11  16  ar  
 24  11  17  1   
 25  12  14  1   
 26  12  35  1   
 27  12  36  1   
 28  13  18  1   
 29  13  37  1   
 30  13  38  1   
 31  15  19  1   
 32  16  20  1   
 33  17  21  1   
 34  18  22  ar  
 35  18  23  ar  
 36  19  39  1   
 37  19  40  1   
 38  19  41  1   
 39  20  24  1   
 40  21  42  1   
 41  21  43  1   
 42  21  44  1   
 43  22  25  ar  
 44  22  45  1   
 45  23  26  ar  
 46  23  46  1   
 47  24  47  1   
 48  24  48  1   
 49  24  49  1   
 50  25  27  ar  
 51  25  50  1   
 52  26  27  ar  
 53  26  51  1   
@<TRIPOS>SUBSTRUCTURE
  1 ****   2 GROUP 4 **** **** 0

# MOE 2024.06 (io_trps.svl 2023.06)
