@<TRIPOS>MOLECULE
NONAME
57 60 1 0 0 
SMALL
USER_CHARGES


@<TRIPOS>ATOM
  1 O        0.3150     0.4950    -0.7720 O.2   1 <1>  -0.5700 
  2 C       -0.2600     1.3990    -0.2120 C.2   1 <1>   0.5690 
  3 N       -1.6310     1.4430    -0.1450 N.am  1 <1>  -0.6600 
  4 C        0.5720     2.5090     0.4240 C.3   1 <1>  -0.0990 
  5 C       -2.4360     2.5440     0.4780 C.3   1 <1>   0.1400 
  6 C       -2.4680     0.3470    -0.7130 C.3   1 <1>   0.1400 
  7 C        2.0970     2.3170     0.3140 C.3   1 <1>  -0.1600 
  8 C       -3.4100     3.1630    -0.5430 C.3   1 <1>   0.1440 
  9 C       -3.4560     0.9150    -1.7400 C.3   1 <1>  -0.1600 
 10 C        2.8620     3.4710     0.9740 C.3   1 <1>  -0.0160 
 11 C       -4.2180     4.2390     0.1590 C.ar  1 <1>   0.1670 
 12 C       -4.3010     2.0570    -1.1480 C.3   1 <1>  -0.1600 
 13 C       -2.6620     3.9690    -1.6410 C.3   1 <1>  -0.1600 
 14 C        4.3620     3.2590     0.8530 C.ar  1 <1>  -0.1440 
 15 N       -5.1650     4.0240     1.0450 N.ar  1 <1>  -0.6200 
 16 C       -3.8310     5.4890    -0.2220 C.ar  1 <1>  -0.1440 
 17 C       -2.7100     5.4510    -1.2300 C.3   1 <1>  -0.0170 
 18 C        5.0460     3.7160    -0.2630 C.ar  1 <1>  -0.1500 
 19 C        5.0600     2.6070     1.8570 C.ar  1 <1>  -0.1500 
 20 C       -5.7260     5.1250     1.5260 C.ar  1 <1>   0.4770 
 21 C       -4.4800     6.5600     0.3410 C.ar  1 <1>   0.1600 
 22 C        6.4130     3.5290    -0.3760 C.ar  1 <1>  -0.1500 
 23 C        6.4270     2.4180     1.7470 C.ar  1 <1>  -0.1500 
 24 N       -5.4390     6.3850     1.2260 N.ar  1 <1>  -0.6200 
 25 C       -6.8280     4.9250     2.5370 C.3   1 <1>  -0.0970 
 26 C        7.1130     2.8760     0.6350 C.ar  1 <1>   0.0820 
 27 O        8.4510     2.6510     0.6050 O.3   1 <1>  -0.3630 
 28 C        9.2370     3.0640    -0.4900 C.3   1 <1>   0.0400 
 29 H        0.3070     2.5670     1.4630 H     1 <1>   0.0800 
 30 H        0.3070     3.4360    -0.0500 H     1 <1>   0.0800 
 31 H       -1.8080     3.3160     0.8800 H     1 <1>   0.0800 
 32 H       -3.0040     2.1320     1.2960 H     1 <1>   0.0800 
 33 H       -3.0090    -0.1280     0.0880 H     1 <1>   0.0800 
 34 H       -1.8530    -0.4010    -1.1840 H     1 <1>   0.0800 
 35 H        2.3760     2.2520    -0.7240 H     1 <1>   0.0800 
 36 H        2.3760     1.3890     0.7840 H     1 <1>   0.0800 
 37 H       -4.1050     0.1260    -2.0760 H     1 <1>   0.0800 
 38 H       -2.9030     1.2650    -2.5940 H     1 <1>   0.0800 
 39 H        2.5930     3.5390     2.0130 H     1 <1>   0.0800 
 40 H        2.5950     4.4020     0.5050 H     1 <1>   0.0800 
 41 H       -4.9480     2.4710    -1.9010 H     1 <1>   0.0800 
 42 H       -4.9300     1.6550    -0.3720 H     1 <1>   0.0800 
 43 H       -3.1850     3.8690    -2.5760 H     1 <1>   0.0800 
 44 H       -1.6520     3.6280    -1.7890 H     1 <1>   0.0800 
 45 H       -2.9110     6.0880    -2.0730 H     1 <1>   0.0800 
 46 H       -1.7890     5.7460    -0.7580 H     1 <1>   0.0800 
 47 H        4.5140     4.2190    -1.0510 H     1 <1>   0.1500 
 48 H        4.5440     2.2410     2.7270 H     1 <1>   0.1500 
 49 H       -4.2130     7.5660     0.0690 H     1 <1>   0.1500 
 50 H        6.9110     3.8950    -1.2520 H     1 <1>   0.1500 
 51 H        6.9700     1.9130     2.5240 H     1 <1>   0.1500 
 52 H       -6.7610     3.9460     2.9750 H     1 <1>   0.0800 
 53 H       -7.7780     5.0290     2.0480 H     1 <1>   0.0800 
 54 H       -6.7490     5.6610     3.3140 H     1 <1>   0.0800 
 55 H       10.2550     2.7760    -0.2970 H     1 <1>   0.0800 
 56 H        9.1700     4.1330    -0.5840 H     1 <1>   0.0800 
 57 H        8.8800     2.5740    -1.3790 H     1 <1>   0.0800 
@<TRIPOS>BOND
  1   1   2  2   
  2   2   3  am  
  3   2   4  1   
  4   3   5  1   
  5   3   6  1   
  6   4   7  1   
  7   4  29  1   
  8   4  30  1   
  9   5   8  1   
 10   5  31  1   
 11   5  32  1   
 12   6   9  1   
 13   6  33  1   
 14   6  34  1   
 15   7  10  1   
 16   7  35  1   
 17   7  36  1   
 18   8  11  1   
 19   8  12  1   
 20   8  13  1   
 21   9  12  1   
 22   9  37  1   
 23   9  38  1   
 24  10  14  1   
 25  10  39  1   
 26  10  40  1   
 27  11  15  ar  
 28  11  16  ar  
 29  12  41  1   
 30  12  42  1   
 31  13  17  1   
 32  13  43  1   
 33  13  44  1   
 34  14  18  ar  
 35  14  19  ar  
 36  15  20  ar  
 37  16  17  1   
 38  16  21  ar  
 39  17  45  1   
 40  17  46  1   
 41  18  22  ar  
 42  18  47  1   
 43  19  23  ar  
 44  19  48  1   
 45  20  24  ar  
 46  20  25  1   
 47  21  24  ar  
 48  21  49  1   
 49  22  26  ar  
 50  22  50  1   
 51  23  26  ar  
 52  23  51  1   
 53  25  52  1   
 54  25  53  1   
 55  25  54  1   
 56  26  27  1   
 57  27  28  1   
 58  28  55  1   
 59  28  56  1   
 60  28  57  1   
@<TRIPOS>SUBSTRUCTURE
  1 ****   4 GROUP 4 **** **** 0

# MOE 2024.06 (io_trps.svl 2023.06)
