@<TRIPOS>MOLECULE
NONAME
45 48 1 0 0 
SMALL
USER_CHARGES


@<TRIPOS>ATOM
  1 CL      -2.3060    -1.1960     1.8060 Cl    1 <1>  -0.1770 
  2 C       -1.6440    -2.5300     0.8850 C.ar  1 <1>   0.1770 
  3 C       -1.1150    -2.3240    -0.3840 C.ar  1 <1>   0.0830 
  4 C       -1.6650    -3.7910     1.4490 C.ar  1 <1>  -0.1500 
  5 O       -1.0960    -1.0980    -0.9430 O.3   1 <1>  -0.5330 
  6 C       -0.5990    -3.4010    -1.0870 C.ar  1 <1>  -0.1500 
  7 C       -1.1580    -4.8730     0.7420 C.ar  1 <1>  -0.1440 
  8 C       -0.6210    -4.6660    -0.5230 C.ar  1 <1>  -0.1500 
  9 C       -1.1900    -6.2750     1.3460 C.3   1 <1>   0.0440 
 10 C       -1.7030    -7.3370     0.3790 C.2   1 <1>   0.5690 
 11 O       -0.9060    -8.1700     0.0140 O.2   1 <1>  -0.5700 
 12 N       -3.0080    -7.3510    -0.0550 N.am  1 <1>  -0.6600 
 13 C       -3.4790    -8.3560    -1.0510 C.3   1 <1>   0.1400 
 14 C       -4.0490    -6.3480     0.3080 C.3   1 <1>   0.1400 
 15 C       -4.6960    -9.0950    -0.4930 C.3   1 <1>  -0.1600 
 16 C       -5.2660    -7.0720     0.8870 C.3   1 <1>  -0.1600 
 17 C       -5.8110    -8.1260    -0.0870 C.3   1 <1>   0.4610 
 18 O       -6.2240    -7.4840    -1.2800 O.3   1 <1>  -0.5600 
 19 C       -6.9860    -8.8890     0.5300 C.2   1 <1>  -0.1810 
 20 C       -7.4820    -6.8490    -1.3040 C.3   1 <1>   0.1200 
 21 C       -8.2260    -8.7520     0.0440 C.2   1 <1>  -0.1400 
 22 C       -6.9170    -9.7960     1.6400 C.2   1 <1>  -0.1500 
 23 C       -8.6210    -7.8610    -1.1020 C.3   1 <1>   0.0200 
 24 S       -9.3810    -9.7430     0.9100 S.3   1 <1>  -0.0800 
 25 C       -8.1080   -10.3360     1.9670 C.2   1 <1>  -0.1100 
 26 H       -2.0780    -3.9130     2.4340 H     1 <1>   0.1500 
 27 H       -0.6960    -1.0800    -1.8290 H     1 <1>   0.4500 
 28 H       -0.1810    -3.2650    -2.0680 H     1 <1>   0.1500 
 29 H       -0.2180    -5.4980    -1.0790 H     1 <1>   0.1500 
 30 H       -1.8000    -6.2960     2.2280 H     1 <1>   0.0800 
 31 H       -0.1910    -6.5400     1.6440 H     1 <1>   0.0800 
 32 H       -2.7020    -9.0650    -1.2800 H     1 <1>   0.0800 
 33 H       -3.7440    -7.8490    -1.9640 H     1 <1>   0.0800 
 34 H       -4.3320    -5.8010    -0.5760 H     1 <1>   0.0800 
 35 H       -3.6840    -5.6430     1.0300 H     1 <1>   0.0800 
 36 H       -4.3810    -9.6700     0.3570 H     1 <1>   0.0800 
 37 H       -5.0760    -9.7820    -1.2270 H     1 <1>   0.0800 
 38 H       -6.0340    -6.3650     1.1350 H     1 <1>   0.0800 
 39 H       -4.9740    -7.5550     1.8010 H     1 <1>   0.0800 
 40 H       -7.5840    -6.3590    -2.2560 H     1 <1>   0.0800 
 41 H       -7.5030    -6.1020    -0.5300 H     1 <1>   0.0800 
 42 H       -5.9870   -10.0020     2.1390 H     1 <1>   0.1500 
 43 H       -8.7610    -8.4470    -1.9920 H     1 <1>   0.0800 
 44 H       -9.5350    -7.3420    -0.8790 H     1 <1>   0.0800 
 45 H       -8.3900   -11.0370     2.7320 H     1 <1>   0.1500 
@<TRIPOS>BOND
  1   1   2  1   
  2   2   3  ar  
  3   2   4  ar  
  4   3   5  1   
  5   3   6  ar  
  6   4   7  ar  
  7   4  26  1   
  8   5  27  1   
  9   6   8  ar  
 10   6  28  1   
 11   7   8  ar  
 12   7   9  1   
 13   8  29  1   
 14   9  10  1   
 15   9  30  1   
 16   9  31  1   
 17  10  11  2   
 18  10  12  am  
 19  12  13  1   
 20  12  14  1   
 21  13  15  1   
 22  13  32  1   
 23  13  33  1   
 24  14  16  1   
 25  14  34  1   
 26  14  35  1   
 27  15  17  1   
 28  15  36  1   
 29  15  37  1   
 30  16  17  1   
 31  16  38  1   
 32  16  39  1   
 33  17  18  1   
 34  17  19  1   
 35  18  20  1   
 36  19  21  2   
 37  19  22  1   
 38  20  23  1   
 39  20  40  1   
 40  20  41  1   
 41  21  23  1   
 42  21  24  1   
 43  22  25  2   
 44  22  42  1   
 45  23  43  1   
 46  23  44  1   
 47  24  25  1   
 48  25  45  1   
@<TRIPOS>SUBSTRUCTURE
  1 ****  14 GROUP 4 **** **** 0

# MOE 2024.06 (io_trps.svl 2023.06)
