@<TRIPOS>MOLECULE
NONAME
43 44 1 0 0 
SMALL
USER_CHARGES


@<TRIPOS>ATOM
  1 O       -2.1430     3.6070     0.1170 O.3   1 <1>  -0.0190 
  2 N       -1.6010     4.0270    -0.9870 N.2   1 <1>  -0.4100 
  3 C       -1.3840     2.6020     0.4830 C.2   1 <1>   0.2980 
  4 C       -0.5820     3.2910    -1.2080 C.2   1 <1>   0.3350 
  5 N       -0.4010     2.3540    -0.2860 N.2   1 <1>  -0.5650 
  6 C       -1.7290     1.8190     1.7470 C.3   1 <1>   0.1000 
  7 C        0.3650     3.4180    -2.4030 C.3   1 <1>   0.2910 
  8 C       -3.0840     1.1110     1.6030 C.3   1 <1>  -0.2400 
  9 C       -1.7280     2.7170     2.9900 C.3   1 <1>  -0.2400 
 10 N        1.4540     4.3980    -2.1690 N.3   1 <1>  -0.8100 
 11 C        0.9810     5.7910    -2.3050 C.3   1 <1>   0.2900 
 12 C        2.6120     4.1510    -3.0410 C.3   1 <1>   0.0300 
 13 C        1.9280     6.7450    -1.5990 C.2   1 <1>   0.0070 
 14 N        2.6070     7.6720    -2.1870 N.2   1 <1>  -0.3380 
 15 N        2.1580     6.7280    -0.2810 N.pl3 1 <1>   0.0480 
 16 N        3.3170     8.2950    -1.2450 N.2   1 <1>  -0.3380 
 17 C        3.0360     7.7200    -0.1280 C.2   1 <1>   0.0370 
 18 C        1.5680     5.8790     0.7750 C.3   1 <1>   0.0960 
 19 C        0.1920     6.4220     1.1540 C.3   1 <1>   0.1200 
 20 O       -0.2060     5.8310     2.3480 O.3   1 <1>  -0.5600 
 21 C       -1.4640     6.2450     2.7760 C.3   1 <1>   0.0400 
 22 H       -0.9700     1.0670     1.8780 H     1 <1>   0.0800 
 23 H       -0.1960     3.6940    -3.2790 H     1 <1>   0.0800 
 24 H        0.7920     2.4460    -2.5760 H     1 <1>   0.0800 
 25 H       -3.8750     1.8280     1.4790 H     1 <1>   0.0800 
 26 H       -3.2890     0.5140     2.4740 H     1 <1>   0.0800 
 27 H       -3.0690     0.4650     0.7430 H     1 <1>   0.0800 
 28 H       -2.4980     3.4630     2.9160 H     1 <1>   0.0800 
 29 H       -0.7770     3.2110     3.0820 H     1 <1>   0.0800 
 30 H       -1.8970     2.1310     3.8760 H     1 <1>   0.0800 
 31 H        0.0060     5.9020    -1.8660 H     1 <1>   0.0800 
 32 H        0.9070     6.0590    -3.3450 H     1 <1>   0.0800 
 33 H        2.9900     3.1570    -2.8760 H     1 <1>   0.0800 
 34 H        3.4000     4.8500    -2.8150 H     1 <1>   0.0800 
 35 H        2.3380     4.2590    -4.0770 H     1 <1>   0.0800 
 36 H        3.4500     7.9970     0.8240 H     1 <1>   0.1500 
 37 H        2.2140     5.8990     1.6320 H     1 <1>   0.0800 
 38 H        1.4840     4.8670     0.4210 H     1 <1>   0.0800 
 39 H       -0.5320     6.1830     0.3930 H     1 <1>   0.0800 
 40 H        0.2370     7.4870     1.3050 H     1 <1>   0.0800 
 41 H       -1.6760     5.7590     3.7120 H     1 <1>   0.0800 
 42 H       -2.1990     5.9600     2.0430 H     1 <1>   0.0800 
 43 H       -1.4610     7.3120     2.9170 H     1 <1>   0.0800 
@<TRIPOS>BOND
  1   1   2  1   
  2   1   3  1   
  3   2   4  2   
  4   3   5  2   
  5   3   6  1   
  6   4   5  1   
  7   4   7  1   
  8   6   8  1   
  9   6   9  1   
 10   6  22  1   
 11   7  10  1   
 12   7  23  1   
 13   7  24  1   
 14   8  25  1   
 15   8  26  1   
 16   8  27  1   
 17   9  28  1   
 18   9  29  1   
 19   9  30  1   
 20  10  11  1   
 21  10  12  1   
 22  11  13  1   
 23  11  31  1   
 24  11  32  1   
 25  12  33  1   
 26  12  34  1   
 27  12  35  1   
 28  13  14  2   
 29  13  15  1   
 30  14  16  1   
 31  15  17  1   
 32  15  18  1   
 33  16  17  2   
 34  17  36  1   
 35  18  19  1   
 36  18  37  1   
 37  18  38  1   
 38  19  20  1   
 39  19  39  1   
 40  19  40  1   
 41  20  21  1   
 42  21  41  1   
 43  21  42  1   
 44  21  43  1   
@<TRIPOS>SUBSTRUCTURE
  1 ****  18 GROUP 4 **** **** 0

# MOE 2024.06 (io_trps.svl 2023.06)
