@<TRIPOS>MOLECULE
NONAME
58 60 1 0 0 
SMALL
USER_CHARGES


@<TRIPOS>ATOM
  1 O       -1.8300     2.8330    -1.9780 O.co2 1 <1>  -0.9000 
  2 C       -0.7670     2.4770    -1.4580 C.2   1 <1>   0.9060 
  3 O        0.2990     2.5650    -2.0780 O.co2 1 <1>  -0.9000 
  4 C       -0.7080     2.1720     0.0430 C.3   1 <1>  -0.1060 
  5 C       -2.0050     2.5070     0.8390 C.3   1 <1>   0.2000 
  6 C        0.3970     3.1020     0.5570 C.3   1 <1>   0.3430 
  7 C       -0.3600     0.6780     0.3190 C.3   1 <1>  -0.1600 
  8 O       -3.1140     2.1350     0.1170 O.3   1 <1>  -0.6800 
  9 C       -2.1660     3.9810     1.2400 C.3   1 <1>  -0.1600 
 10 N        0.0790     4.5730     0.3910 N.4   1 <1>  -0.9590 
 11 C        0.9660     0.1680    -0.2720 C.3   1 <1>  -0.1600 
 12 C       -1.3840     4.8900     0.3060 C.3   1 <1>   0.3430 
 13 C        0.7400     5.0940    -0.8430 C.3   1 <1>   0.4860 
 14 C        1.2180    -1.2870     0.1320 C.3   1 <1>  -0.2400 
 15 C        0.7780     6.6070    -0.7440 C.ar  1 <1>  -0.1440 
 16 C        1.6780     7.2370     0.1030 C.ar  1 <1>  -0.1500 
 17 C       -0.0960     7.3760    -1.4970 C.ar  1 <1>  -0.1500 
 18 C        1.6850     8.6160     0.2050 C.ar  1 <1>  -0.1500 
 19 C       -0.0810     8.7550    -1.3920 C.ar  1 <1>  -0.1500 
 20 C        0.8060     9.4010    -0.5340 C.ar  1 <1>   0.1000 
 21 N        0.8360    10.8000    -0.4070 N.pl3 1 <1>  -0.5690 
 22 C        2.0260    11.5080    -0.1970 C.ar  1 <1>   0.1000 
 23 C       -0.4070    11.5910    -0.5960 C.3   1 <1>   0.1290 
 24 C        3.0880    11.3730    -1.0830 C.ar  1 <1>  -0.1500 
 25 C        2.1770    12.3490     0.9010 C.ar  1 <1>  -0.1500 
 26 C        4.2700    12.0640    -0.8840 C.ar  1 <1>  -0.1500 
 27 C        3.3570    13.0420     1.1040 C.ar  1 <1>  -0.1500 
 28 C        4.4050    12.9000     0.2110 C.ar  1 <1>  -0.1500 
 29 H       -2.0400     1.9270     1.7450 H     1 <1>   0.0800 
 30 H        1.3130     2.8710     0.0380 H     1 <1>   0.0800 
 31 H        0.5490     2.8910     1.6010 H     1 <1>   0.0800 
 32 H       -0.3370     0.5110     1.3820 H     1 <1>   0.0800 
 33 H       -1.1590     0.0730    -0.0790 H     1 <1>   0.0800 
 34 H       -2.9210     2.3560    -0.8460 H     1 <1>   0.4000 
 35 H       -3.2060     4.2550     1.2320 H     1 <1>   0.0800 
 36 H       -1.8030     4.1230     2.2410 H     1 <1>   0.0800 
 37 H        0.4820     5.1010     1.1690 H     1 <1>   0.4500 
 38 H        0.9330     0.2220    -1.3480 H     1 <1>   0.0800 
 39 H        1.7930     0.7680     0.0630 H     1 <1>   0.0800 
 40 H       -1.5530     5.9240     0.5590 H     1 <1>   0.0800 
 41 H       -1.7380     4.7320    -0.7010 H     1 <1>   0.0800 
 42 H        1.7420     4.7060    -0.9270 H     1 <1>   0.0800 
 43 H        0.1920     4.7930    -1.7230 H     1 <1>   0.0800 
 44 H        0.4190    -1.9160    -0.2210 H     1 <1>   0.0800 
 45 H        1.2880    -1.3790     1.2010 H     1 <1>   0.0800 
 46 H        2.1390    -1.6340    -0.3030 H     1 <1>   0.0800 
 47 H        2.3810     6.6680     0.6860 H     1 <1>   0.1500 
 48 H       -0.7910     6.9050    -2.1740 H     1 <1>   0.1500 
 49 H        2.3830     9.0990     0.8650 H     1 <1>   0.1500 
 50 H       -0.7580     9.3320    -1.9930 H     1 <1>   0.1500 
 51 H       -0.3010    12.5680    -0.1610 H     1 <1>   0.0800 
 52 H       -1.2330    11.0880    -0.1250 H     1 <1>   0.0800 
 53 H       -0.6050    11.7010    -1.6480 H     1 <1>   0.0800 
 54 H        2.9780    10.7210    -1.9300 H     1 <1>   0.1500 
 55 H        1.3680    12.4500     1.5990 H     1 <1>   0.1500 
 56 H        5.0830    11.9510    -1.5790 H     1 <1>   0.1500 
 57 H        3.4610    13.6890     1.9580 H     1 <1>   0.1500 
 58 H        5.3240    13.4380     0.3680 H     1 <1>   0.1500 
@<TRIPOS>BOND
  1   1   2  ar  
  2   2   3  ar  
  3   2   4  1   
  4   4   5  1   
  5   4   6  1   
  6   4   7  1   
  7   5   8  1   
  8   5   9  1   
  9   5  29  1   
 10   6  10  1   
 11   6  30  1   
 12   6  31  1   
 13   7  11  1   
 14   7  32  1   
 15   7  33  1   
 16   8  34  1   
 17   9  12  1   
 18   9  35  1   
 19   9  36  1   
 20  10  12  1   
 21  10  13  1   
 22  10  37  1   
 23  11  14  1   
 24  11  38  1   
 25  11  39  1   
 26  12  40  1   
 27  12  41  1   
 28  13  15  1   
 29  13  42  1   
 30  13  43  1   
 31  14  44  1   
 32  14  45  1   
 33  14  46  1   
 34  15  16  ar  
 35  15  17  ar  
 36  16  18  ar  
 37  16  47  1   
 38  17  19  ar  
 39  17  48  1   
 40  18  20  ar  
 41  18  49  1   
 42  19  20  ar  
 43  19  50  1   
 44  20  21  1   
 45  21  22  1   
 46  21  23  1   
 47  22  24  ar  
 48  22  25  ar  
 49  23  51  1   
 50  23  52  1   
 51  23  53  1   
 52  24  26  ar  
 53  24  54  1   
 54  25  27  ar  
 55  25  55  1   
 56  26  28  ar  
 57  26  56  1   
 58  27  28  ar  
 59  27  57  1   
 60  28  58  1   
@<TRIPOS>SUBSTRUCTURE
  1 ****  15 GROUP 4 **** **** 0

# MOE 2024.06 (io_trps.svl 2023.06)
