@<TRIPOS>MOLECULE
NONAME
52 53 1 0 0 
SMALL
USER_CHARGES


@<TRIPOS>ATOM
  1 S       -0.5200     0.1980     1.4570 S.o2  1 <1>   1.3330 
  2 O        0.5460    -0.6840     1.8710 O.2   1 <1>  -0.6500 
  3 O       -1.1250     1.1130     2.3970 O.2   1 <1>  -0.6500 
  4 N        0.0160     1.0890     0.1130 N.am  1 <1>  -0.8490 
  5 C       -1.8480    -0.7900     0.7600 C.3   1 <1>  -0.0550 
  6 C        1.0230     0.3800    -0.6860 C.3   1 <1>   0.1160 
  7 C        0.5420     2.4040     0.4990 C.3   1 <1>   0.1160 
  8 C       -3.0000     0.0610     0.1910 C.3   1 <1>  -0.1600 
  9 C       -4.1500    -0.8080    -0.3120 C.3   1 <1>   0.3430 
 10 N       -5.2940     0.0600    -0.6740 N.4   1 <1>  -0.9590 
 11 C       -6.5890    -0.6700    -0.6830 C.3   1 <1>   0.3430 
 12 C       -5.0860     0.8880    -1.9050 C.3   1 <1>   0.3430 
 13 C       -7.7390     0.3590    -0.5550 C.3   1 <1>   0.0000 
 14 C       -6.4200     1.3350    -2.5260 C.3   1 <1>  -0.1600 
 15 C       -7.9150     0.7770     0.9170 C.3   1 <1>   0.2000 
 16 C       -7.5060     1.5950    -1.4690 C.3   1 <1>  -0.1600 
 17 C       -9.0670    -0.3530    -0.8410 C.3   1 <1>  -0.1600 
 18 O       -6.6680     0.9870     1.5220 O.3   1 <1>  -0.5600 
 19 C       -8.6800    -0.3720     1.5820 C.3   1 <1>  -0.1600 
 20 C       -9.4000    -1.1150     0.4470 C.3   1 <1>  -0.1600 
 21 C       -6.7220     1.6480     2.7510 C.3   1 <1>   0.0400 
 22 H       -1.4480    -1.4180    -0.0120 H     1 <1>   0.0800 
 23 H       -2.2310    -1.4280     1.5340 H     1 <1>   0.0800 
 24 H        1.2660     0.9480    -1.5680 H     1 <1>   0.0800 
 25 H        0.6480    -0.5810    -0.9930 H     1 <1>   0.0800 
 26 H        1.9230     0.2290    -0.1110 H     1 <1>   0.0800 
 27 H        0.8680     2.9480    -0.3710 H     1 <1>   0.0800 
 28 H        1.3720     2.2910     1.1780 H     1 <1>   0.0800 
 29 H       -0.2250     2.9820     0.9880 H     1 <1>   0.0800 
 30 H       -3.3610     0.7070     0.9740 H     1 <1>   0.0800 
 31 H       -2.6180     0.6710    -0.6080 H     1 <1>   0.0800 
 32 H       -4.4500    -1.4790     0.4770 H     1 <1>   0.0800 
 33 H       -3.8400    -1.3940    -1.1620 H     1 <1>   0.0800 
 34 H       -5.4430     0.7140     0.1230 H     1 <1>   0.4500 
 35 H       -6.6900    -1.2250    -1.6010 H     1 <1>   0.0800 
 36 H       -6.6370    -1.3580     0.1450 H     1 <1>   0.0800 
 37 H       -4.5060     1.7590    -1.6430 H     1 <1>   0.0800 
 38 H       -4.5300     0.3270    -2.6380 H     1 <1>   0.0800 
 39 H       -6.2540     2.2260    -3.1060 H     1 <1>   0.0800 
 40 H       -6.7610     0.5770    -3.2100 H     1 <1>   0.0800 
 41 H       -8.4960     1.6840     0.9700 H     1 <1>   0.0800 
 42 H       -8.4190     1.8940    -1.9540 H     1 <1>   0.0800 
 43 H       -7.1850     2.4300    -0.8680 H     1 <1>   0.0800 
 44 H       -9.8440     0.3740    -1.0110 H     1 <1>   0.0800 
 45 H       -9.0200    -1.0050    -1.6970 H     1 <1>   0.0800 
 46 H       -8.0050    -1.0410     2.0870 H     1 <1>   0.0800 
 47 H       -9.3920     0.0160     2.2900 H     1 <1>   0.0800 
 48 H       -9.0390    -2.1280     0.3870 H     1 <1>   0.0800 
 49 H      -10.4650    -1.1440     0.6110 H     1 <1>   0.0800 
 50 H       -5.7160     1.7700     3.1140 H     1 <1>   0.0800 
 51 H       -7.2880     1.0610     3.4540 H     1 <1>   0.0800 
 52 H       -7.1760     2.6150     2.6180 H     1 <1>   0.0800 
@<TRIPOS>BOND
  1   1   2  2   
  2   1   3  2   
  3   1   4  am  
  4   1   5  1   
  5   4   6  1   
  6   4   7  1   
  7   5   8  1   
  8   5  22  1   
  9   5  23  1   
 10   6  24  1   
 11   6  25  1   
 12   6  26  1   
 13   7  27  1   
 14   7  28  1   
 15   7  29  1   
 16   8   9  1   
 17   8  30  1   
 18   8  31  1   
 19   9  10  1   
 20   9  32  1   
 21   9  33  1   
 22  10  11  1   
 23  10  12  1   
 24  10  34  1   
 25  11  13  1   
 26  11  35  1   
 27  11  36  1   
 28  12  14  1   
 29  12  37  1   
 30  12  38  1   
 31  13  15  1   
 32  13  16  1   
 33  13  17  1   
 34  14  16  1   
 35  14  39  1   
 36  14  40  1   
 37  15  18  1   
 38  15  19  1   
 39  15  41  1   
 40  16  42  1   
 41  16  43  1   
 42  17  20  1   
 43  17  44  1   
 44  17  45  1   
 45  18  21  1   
 46  19  20  1   
 47  19  46  1   
 48  19  47  1   
 49  20  48  1   
 50  20  49  1   
 51  21  50  1   
 52  21  51  1   
 53  21  52  1   
@<TRIPOS>SUBSTRUCTURE
  1 ****  10 GROUP 4 **** **** 0

# MOE 2024.06 (io_trps.svl 2023.06)
