@<TRIPOS>MOLECULE
NONAME
38 39 1 0 0 
SMALL
USER_CHARGES


@<TRIPOS>ATOM
  1 O       -0.1790    -0.2320     1.5980 O.2   1 <1>  -0.5700 
  2 C       -1.0210     0.4800     1.1000 C.2   1 <1>   0.5690 
  3 N       -2.0630    -0.0570     0.3860 N.am  1 <1>  -0.6600 
  4 C       -0.8990     1.9890     1.3490 C.3   1 <1>   0.1810 
  5 C       -3.1480     0.6990    -0.2880 C.3   1 <1>   0.1400 
  6 C       -2.2270    -1.5100     0.1660 C.3   1 <1>   0.1400 
  7 O       -1.1220     2.7680     0.1990 O.3   1 <1>  -0.5600 
  8 C       -4.0880    -0.3670    -0.8580 C.3   1 <1>   0.2000 
  9 C       -3.7080    -1.6800    -0.1730 C.3   1 <1>  -0.0800 
 10 C       -0.9210     4.1270     0.3890 C.3   1 <1>   0.1200 
 11 O       -5.4160    -0.0710    -0.5900 O.3   1 <1>  -0.6800 
 12 C       -4.0200    -2.9110    -1.0400 C.3   1 <1>  -0.0170 
 13 C       -1.2470     4.8230    -0.9260 C.3   1 <1>  -0.2400 
 14 C       -3.6580    -4.2030    -0.3270 C.ar  1 <1>   0.1670 
 15 N       -2.4060    -4.6140    -0.4460 N.ar  1 <1>  -0.6200 
 16 C       -4.6250    -4.8850     0.4100 C.ar  1 <1>   0.1600 
 17 C       -2.1860    -5.7370     0.2180 C.ar  1 <1>   0.1600 
 18 N       -4.4080    -6.0080     1.0740 N.ar  1 <1>  -0.6200 
 19 C       -3.1550    -6.4110     0.9530 C.ar  1 <1>   0.1600 
 20 H        0.0930     2.1950     1.7090 H     1 <1>   0.0800 
 21 H       -1.6140     2.2750     2.0980 H     1 <1>   0.0800 
 22 H       -3.6480     1.3300     0.4250 H     1 <1>   0.0800 
 23 H       -2.7370     1.2950    -1.0840 H     1 <1>   0.0800 
 24 H       -1.6040    -1.8130    -0.6590 H     1 <1>   0.0800 
 25 H       -1.9510    -2.0720     1.0430 H     1 <1>   0.0800 
 26 H       -3.9620    -0.4270    -1.9250 H     1 <1>   0.0800 
 27 H       -4.2340    -1.7610     0.7630 H     1 <1>   0.0800 
 28 H       -1.5720     4.4730     1.1740 H     1 <1>   0.0800 
 29 H        0.1080     4.2920     0.6610 H     1 <1>   0.0800 
 30 H       -5.5520     0.0240     0.3730 H     1 <1>   0.4000 
 31 H       -3.4740    -2.8570    -1.9660 H     1 <1>   0.0800 
 32 H       -5.0680    -2.9160    -1.2820 H     1 <1>   0.0800 
 33 H       -2.2720     4.6430    -1.1960 H     1 <1>   0.0800 
 34 H       -0.6010     4.4600    -1.7050 H     1 <1>   0.0800 
 35 H       -1.0990     5.8830    -0.8240 H     1 <1>   0.0800 
 36 H       -5.6210    -4.4810     0.4550 H     1 <1>   0.1500 
 37 H       -1.1920    -6.1440     0.1790 H     1 <1>   0.1500 
 38 H       -2.8790    -7.3190     1.4600 H     1 <1>   0.1500 
@<TRIPOS>BOND
  1   1   2  2   
  2   2   3  am  
  3   2   4  1   
  4   3   5  1   
  5   3   6  1   
  6   4   7  1   
  7   4  20  1   
  8   4  21  1   
  9   5   8  1   
 10   5  22  1   
 11   5  23  1   
 12   6   9  1   
 13   6  24  1   
 14   6  25  1   
 15   7  10  1   
 16   8   9  1   
 17   8  11  1   
 18   8  26  1   
 19   9  12  1   
 20   9  27  1   
 21  10  13  1   
 22  10  28  1   
 23  10  29  1   
 24  11  30  1   
 25  12  14  1   
 26  12  31  1   
 27  12  32  1   
 28  13  33  1   
 29  13  34  1   
 30  13  35  1   
 31  14  15  ar  
 32  14  16  ar  
 33  15  17  ar  
 34  16  18  ar  
 35  16  36  1   
 36  17  19  ar  
 37  17  37  1   
 38  18  19  ar  
 39  19  38  1   
@<TRIPOS>SUBSTRUCTURE
  1 ****   6 GROUP 4 **** **** 0

# MOE 2024.06 (io_trps.svl 2023.06)
