@<TRIPOS>MOLECULE
NONAME
54 55 1 0 0 
SMALL
USER_CHARGES


@<TRIPOS>ATOM
  1 S        0.1500     0.1880    -0.1720 S.o2  1 <1>   1.3330 
  2 O       -1.1810    -0.2540     0.1770 O.2   1 <1>  -0.6500 
  3 O        1.1480     0.3470     0.8610 O.2   1 <1>  -0.6500 
  4 N        0.7750    -0.8740    -1.3400 N.am  1 <1>  -0.8490 
  5 C       -0.0140     1.7180    -1.0940 C.3   1 <1>  -0.0550 
  6 C        0.3470    -2.2590    -1.1180 C.3   1 <1>   0.1160 
  7 C        2.2370    -0.8180    -1.4540 C.3   1 <1>   0.1160 
  8 C       -0.6160     2.8780    -0.2740 C.3   1 <1>  -0.0800 
  9 C       -1.0170     4.0330    -1.1900 C.3   1 <1>   0.2000 
 10 C        0.4230     3.5070     0.6670 C.3   1 <1>   0.1400 
 11 O       -1.9430     4.8150    -0.5200 O.3   1 <1>  -0.6800 
 12 C        0.2640     4.8460    -1.3540 C.3   1 <1>   0.1400 
 13 N        0.9820     4.6820    -0.0620 N.am  1 <1>  -0.6600 
 14 C        1.8430     5.5570     0.5760 C.2   1 <1>   0.5690 
 15 O        2.0620     5.3740     1.7540 O.2   1 <1>  -0.5700 
 16 C        2.5240     6.7880    -0.1180 C.3   1 <1>   0.3410 
 17 O        3.6860     7.1330     0.6500 O.3   1 <1>  -0.3630 
 18 C        3.0190     6.4930    -1.5500 C.3   1 <1>  -0.2400 
 19 C        1.5520     7.9850    -0.1250 C.3   1 <1>  -0.2400 
 20 C        4.4020     8.2670     0.4560 C.ar  1 <1>   0.0820 
 21 C        4.0630     9.4270     1.1370 C.ar  1 <1>  -0.1500 
 22 C        5.5060     8.2540    -0.3820 C.ar  1 <1>  -0.1500 
 23 C        4.7960    10.5880     0.9500 C.ar  1 <1>  -0.1440 
 24 C        6.2400     9.4110    -0.5730 C.ar  1 <1>  -0.1500 
 25 C        5.8810    10.5750     0.0870 C.ar  1 <1>  -0.1500 
 26 C        4.4170    11.8610     1.6830 C.3   1 <1>  -0.0970 
 27 H        0.9440     2.0080    -1.4790 H     1 <1>   0.0800 
 28 H       -0.6560     1.5220    -1.9310 H     1 <1>   0.0800 
 29 H        0.7500    -2.9020    -1.8820 H     1 <1>   0.0800 
 30 H       -0.7280    -2.3240    -1.1590 H     1 <1>   0.0800 
 31 H        0.6780    -2.6030    -0.1520 H     1 <1>   0.0800 
 32 H        2.5690    -1.4390    -2.2680 H     1 <1>   0.0800 
 33 H        2.6990    -1.1600    -0.5420 H     1 <1>   0.0800 
 34 H        2.5580     0.1910    -1.6440 H     1 <1>   0.0800 
 35 H       -1.4680     2.5090     0.2730 H     1 <1>   0.0800 
 36 H       -1.4520     3.7250    -2.1260 H     1 <1>   0.0800 
 37 H        1.2140     2.8290     0.9380 H     1 <1>   0.0800 
 38 H       -0.0540     3.8490     1.5700 H     1 <1>   0.0800 
 39 H       -1.5400     5.1500     0.3080 H     1 <1>   0.4000 
 40 H        0.0400     5.8720    -1.5790 H     1 <1>   0.0800 
 41 H        0.8610     4.4220    -2.1420 H     1 <1>   0.0800 
 42 H        2.2060     6.3060    -2.2190 H     1 <1>   0.0800 
 43 H        3.6650     5.6340    -1.5410 H     1 <1>   0.0800 
 44 H        3.5500     7.3350    -1.9510 H     1 <1>   0.0800 
 45 H        0.6460     7.7350    -0.6410 H     1 <1>   0.0800 
 46 H        1.9870     8.8340    -0.6200 H     1 <1>   0.0800 
 47 H        1.2950     8.2470     0.8850 H     1 <1>   0.0800 
 48 H        3.2290     9.4090     1.8130 H     1 <1>   0.1500 
 49 H        5.7870     7.3420    -0.8750 H     1 <1>   0.1500 
 50 H        7.0920     9.4060    -1.2300 H     1 <1>   0.1500 
 51 H        6.4560    11.4710    -0.0700 H     1 <1>   0.1500 
 52 H        5.2980    12.4250     1.9320 H     1 <1>   0.0800 
 53 H        3.8940    11.6300     2.5940 H     1 <1>   0.0800 
 54 H        3.7810    12.4640     1.0600 H     1 <1>   0.0800 
@<TRIPOS>BOND
  1   1   2  2   
  2   1   3  2   
  3   1   4  am  
  4   1   5  1   
  5   4   6  1   
  6   4   7  1   
  7   5   8  1   
  8   5  27  1   
  9   5  28  1   
 10   6  29  1   
 11   6  30  1   
 12   6  31  1   
 13   7  32  1   
 14   7  33  1   
 15   7  34  1   
 16   8   9  1   
 17   8  10  1   
 18   8  35  1   
 19   9  11  1   
 20   9  12  1   
 21   9  36  1   
 22  10  13  1   
 23  10  37  1   
 24  10  38  1   
 25  11  39  1   
 26  12  13  1   
 27  12  40  1   
 28  12  41  1   
 29  13  14  am  
 30  14  15  2   
 31  14  16  1   
 32  16  17  1   
 33  16  18  1   
 34  16  19  1   
 35  17  20  1   
 36  18  42  1   
 37  18  43  1   
 38  18  44  1   
 39  19  45  1   
 40  19  46  1   
 41  19  47  1   
 42  20  21  ar  
 43  20  22  ar  
 44  21  23  ar  
 45  21  48  1   
 46  22  24  ar  
 47  22  49  1   
 48  23  25  ar  
 49  23  26  1   
 50  24  25  ar  
 51  24  50  1   
 52  25  51  1   
 53  26  52  1   
 54  26  53  1   
 55  26  54  1   
@<TRIPOS>SUBSTRUCTURE
  1 ****  14 GROUP 4 **** **** 0

# MOE 2024.06 (io_trps.svl 2023.06)
