@<TRIPOS>MOLECULE
NONAME
57 61 1 0 0 
SMALL
USER_CHARGES


@<TRIPOS>ATOM
  1 O       -2.4790     2.2640    -0.5520 O.2   1 <1>  -0.5700 
  2 C       -2.0850     1.8700     0.5220 C.2   1 <1>   0.5690 
  3 N       -0.7960     2.0000     0.9220 N.am  1 <1>  -0.5790 
  4 C       -3.0810     1.2100     1.4560 C.3   1 <1>  -0.0990 
  5 C        0.2790     2.6170     0.1310 C.3   1 <1>   0.0490 
  6 C       -3.9870     0.2000     0.7350 C.3   1 <1>   0.3430 
  7 C        1.6530     2.0490     0.2530 C.3   1 <1>  -0.2000 
  8 C        1.3330     3.3830     0.8590 C.3   1 <1>  -0.2000 
  9 N       -4.7640     0.8330    -0.3690 N.4   1 <1>  -0.9590 
 10 C       -5.8240     1.7820     0.1120 C.3   1 <1>   0.3430 
 11 C       -5.3200    -0.1720    -1.3180 C.3   1 <1>   0.3430 
 12 C       -6.4520     2.5630    -1.0530 C.3   1 <1>   0.1430 
 13 C       -5.9320     0.5420    -2.5280 C.3   1 <1>  -0.1600 
 14 C       -7.5720     3.4190    -0.5120 C.ar  1 <1>   0.1670 
 15 C       -6.9890     1.5860    -2.1190 C.3   1 <1>  -0.1600 
 16 C       -5.4900     3.6210    -1.6610 C.3   1 <1>  -0.1600 
 17 N       -8.4960     2.9980     0.3160 N.ar  1 <1>  -0.6200 
 18 C       -7.5040     4.6950    -0.9750 C.ar  1 <1>  -0.1440 
 19 C       -6.3250     4.8940    -1.8950 C.3   1 <1>  -0.0170 
 20 C       -9.4110     3.9130     0.6720 C.ar  1 <1>   0.6200 
 21 C       -8.4690     5.5730    -0.5560 C.ar  1 <1>   0.1600 
 22 N       -9.4210     5.1890     0.2630 N.ar  1 <1>  -0.6200 
 23 C      -10.4740     3.4870     1.5720 C.ar  1 <1>   0.0000 
 24 C      -10.2730     2.4850     2.5270 C.ar  1 <1>  -0.1500 
 25 C      -11.7480     4.0610     1.5210 C.ar  1 <1>  -0.1500 
 26 C      -11.2840     2.0790     3.3800 C.ar  1 <1>  -0.1500 
 27 C      -12.7630     3.6610     2.3710 C.ar  1 <1>  -0.1500 
 28 C      -12.5330     2.6670     3.3040 C.ar  1 <1>  -0.1500 
 29 H       -0.4970     1.6920     1.8490 H     1 <1>   0.3700 
 30 H       -3.6690     1.9690     1.9360 H     1 <1>   0.0800 
 31 H       -2.5450     0.6860     2.2260 H     1 <1>   0.0800 
 32 H       -0.0460     2.9790    -0.8330 H     1 <1>   0.1000 
 33 H       -4.6630    -0.2530     1.4420 H     1 <1>   0.0800 
 34 H       -3.3640    -0.5790     0.3250 H     1 <1>   0.0800 
 35 H        2.2850     2.0300    -0.6180 H     1 <1>   0.1000 
 36 H        1.8230     1.2100     0.9040 H     1 <1>   0.1000 
 37 H        1.2800     3.4690     1.9300 H     1 <1>   0.1000 
 38 H        1.7490     4.2600     0.3950 H     1 <1>   0.1000 
 39 H       -4.0700     1.4090    -0.8940 H     1 <1>   0.4500 
 40 H       -5.4080     2.4870     0.8110 H     1 <1>   0.0800 
 41 H       -6.6020     1.2320     0.6160 H     1 <1>   0.0800 
 42 H       -6.0790    -0.7570    -0.8240 H     1 <1>   0.0800 
 43 H       -4.5400    -0.8370    -1.6530 H     1 <1>   0.0800 
 44 H       -6.3910    -0.1910    -3.1670 H     1 <1>   0.0800 
 45 H       -5.1460     1.0070    -3.0970 H     1 <1>   0.0800 
 46 H       -7.3260     2.1300    -2.9850 H     1 <1>   0.0800 
 47 H       -7.8460     1.0700    -1.7160 H     1 <1>   0.0800 
 48 H       -5.0180     3.2940    -2.5700 H     1 <1>   0.0800 
 49 H       -4.7170     3.8600    -0.9490 H     1 <1>   0.0800 
 50 H       -6.6660     4.9470    -2.9150 H     1 <1>   0.0800 
 51 H       -5.7710     5.7840    -1.6490 H     1 <1>   0.0800 
 52 H       -8.4630     6.5970    -0.8920 H     1 <1>   0.1500 
 53 H       -9.3090     2.0180     2.6050 H     1 <1>   0.1500 
 54 H      -11.9460     4.8370     0.8020 H     1 <1>   0.1500 
 55 H      -11.1000     1.3060     4.1060 H     1 <1>   0.1500 
 56 H      -13.7320     4.1240     2.3070 H     1 <1>   0.1500 
 57 H      -13.3210     2.3540     3.9660 H     1 <1>   0.1500 
@<TRIPOS>BOND
  1   1   2  2   
  2   2   3  am  
  3   2   4  1   
  4   3   5  1   
  5   3  29  1   
  6   4   6  1   
  7   4  30  1   
  8   4  31  1   
  9   5   7  1   
 10   5   8  1   
 11   5  32  1   
 12   6   9  1   
 13   6  33  1   
 14   6  34  1   
 15   7   8  1   
 16   7  35  1   
 17   7  36  1   
 18   8  37  1   
 19   8  38  1   
 20   9  10  1   
 21   9  11  1   
 22   9  39  1   
 23  10  12  1   
 24  10  40  1   
 25  10  41  1   
 26  11  13  1   
 27  11  42  1   
 28  11  43  1   
 29  12  14  1   
 30  12  15  1   
 31  12  16  1   
 32  13  15  1   
 33  13  44  1   
 34  13  45  1   
 35  14  17  ar  
 36  14  18  ar  
 37  15  46  1   
 38  15  47  1   
 39  16  19  1   
 40  16  48  1   
 41  16  49  1   
 42  17  20  ar  
 43  18  19  1   
 44  18  21  ar  
 45  19  50  1   
 46  19  51  1   
 47  20  22  ar  
 48  20  23  1   
 49  21  22  ar  
 50  21  52  1   
 51  23  24  ar  
 52  23  25  ar  
 53  24  26  ar  
 54  24  53  1   
 55  25  27  ar  
 56  25  54  1   
 57  26  28  ar  
 58  26  55  1   
 59  27  28  ar  
 60  27  56  1   
 61  28  57  1   
@<TRIPOS>SUBSTRUCTURE
  1 ****  10 GROUP 4 **** **** 0

# MOE 2024.06 (io_trps.svl 2023.06)
