@<TRIPOS>MOLECULE
NONAME
39 41 1 0 0 
SMALL
USER_CHARGES


@<TRIPOS>ATOM
  1 CL       0.5740    -0.3100    -0.2470 Cl    1 <1>  -0.1770 
  2 C       -0.4220    -1.7380    -0.3490 C.ar  1 <1>   0.1770 
  3 C       -0.0540    -2.7640    -1.1980 C.ar  1 <1>  -0.1500 
  4 C       -1.5660    -1.8280     0.4190 C.ar  1 <1>  -0.1500 
  5 C       -0.8480    -3.8940    -1.2750 C.ar  1 <1>  -0.1500 
  6 C       -2.3500    -2.9650     0.3350 C.ar  1 <1>  -0.1500 
  7 C       -2.0140    -4.0230    -0.5140 C.ar  1 <1>   0.0530 
  8 C       -2.8250    -5.2150    -0.6110 C.2   1 <1>   0.0870 
  9 O       -2.2750    -6.3550    -0.9490 O.3   1 <1>  -0.0190 
 10 C       -4.1440    -5.4600    -0.4150 C.2   1 <1>  -0.2330 
 11 N       -3.1330    -7.3390    -0.9870 N.2   1 <1>  -0.4100 
 12 C       -4.2760    -6.8300    -0.6720 C.2   1 <1>   0.3720 
 13 C       -5.1570    -4.5380    -0.0260 C.2   1 <1>   1.0330 
 14 N       -5.4280    -7.6390    -0.6240 N.pl3 1 <1>  -0.8210 
 15 O       -5.3820    -4.3240     1.1770 O.co2 1 <1>  -0.9000 
 16 O       -5.8350    -3.9360    -0.8750 O.co2 1 <1>  -0.9000 
 17 C       -6.7550    -6.9960    -0.3660 C.3   1 <1>   0.2090 
 18 C       -5.2840    -8.8900     0.1730 C.3   1 <1>   0.2090 
 19 C       -7.9130    -8.0090    -0.5060 C.3   1 <1>   0.2000 
 20 C       -6.5020    -9.8190    -0.0230 C.3   1 <1>   0.2000 
 21 O       -7.6920    -9.1490     0.2780 O.3   1 <1>  -0.5600 
 22 C       -9.2480    -7.4150    -0.0610 C.3   1 <1>  -0.2400 
 23 C       -6.4430   -11.0460     0.8840 C.3   1 <1>  -0.2400 
 24 H        0.8390    -2.6750    -1.7880 H     1 <1>   0.1500 
 25 H       -1.8420    -1.0220     1.0740 H     1 <1>   0.1500 
 26 H       -0.5680    -4.6940    -1.9380 H     1 <1>   0.1500 
 27 H       -3.2380    -3.0300     0.9420 H     1 <1>   0.1500 
 28 H       -6.7690    -6.5740     0.6250 H     1 <1>   0.0800 
 29 H       -6.9120    -6.2020    -1.0740 H     1 <1>   0.0800 
 30 H       -4.3950    -9.4120    -0.1320 H     1 <1>   0.0800 
 31 H       -5.1850    -8.6370     1.2140 H     1 <1>   0.0800 
 32 H       -7.9840    -8.3190    -1.5340 H     1 <1>   0.0800 
 33 H       -6.5450   -10.1330    -1.0520 H     1 <1>   0.0800 
 34 H       -9.1950    -7.1250     0.9730 H     1 <1>   0.0800 
 35 H      -10.0330    -8.1370    -0.1930 H     1 <1>   0.0800 
 36 H       -9.4740    -6.5450    -0.6500 H     1 <1>   0.0800 
 37 H       -6.4300   -10.7430     1.9160 H     1 <1>   0.0800 
 38 H       -5.5550   -11.6150     0.6770 H     1 <1>   0.0800 
 39 H       -7.3000   -11.6700     0.7070 H     1 <1>   0.0800 
@<TRIPOS>BOND
  1   1   2  1   
  2   2   3  ar  
  3   2   4  ar  
  4   3   5  ar  
  5   3  24  1   
  6   4   6  ar  
  7   4  25  1   
  8   5   7  ar  
  9   5  26  1   
 10   6   7  ar  
 11   6  27  1   
 12   7   8  1   
 13   8   9  1   
 14   8  10  2   
 15   9  11  1   
 16  10  12  1   
 17  10  13  1   
 18  11  12  2   
 19  12  14  1   
 20  13  15  ar  
 21  13  16  ar  
 22  14  17  1   
 23  14  18  1   
 24  17  19  1   
 25  17  28  1   
 26  17  29  1   
 27  18  20  1   
 28  18  30  1   
 29  18  31  1   
 30  19  21  1   
 31  19  22  1   
 32  19  32  1   
 33  20  21  1   
 34  20  23  1   
 35  20  33  1   
 36  22  34  1   
 37  22  35  1   
 38  22  36  1   
 39  23  37  1   
 40  23  38  1   
 41  23  39  1   
@<TRIPOS>SUBSTRUCTURE
  1 ****  10 GROUP 4 **** **** 0

# MOE 2024.06 (io_trps.svl 2023.06)
