@<TRIPOS>MOLECULE
NONAME
50 53 1 0 0 
SMALL
USER_CHARGES


@<TRIPOS>ATOM
  1 N       -0.0470     0.6270    -0.5140 N.2   1 <1>  -0.6210 
  2 C       -1.0110    -0.0910    -0.0310 C.2   1 <1>   0.9190 
  3 C       -0.2560     1.9290    -0.7060 C.2   1 <1>   0.2710 
  4 N       -2.2200     0.4170     0.2940 N.pl3 1 <1>  -0.6690 
  5 N       -0.7910    -1.3900     0.1510 N.pl3 1 <1>  -0.8500 
  6 N        0.8190     2.5630    -1.2240 N.pl3 1 <1>  -0.8690 
  7 C       -1.4560     2.5270    -0.4010 C.2   1 <1>  -0.1410 
  8 C       -2.4430     1.7160     0.1090 C.cat 1 <1>   0.7910 
  9 C       -3.3860    -0.0930     0.8090 C.2   1 <1>   0.5030 
 10 C        1.0500     3.9950    -1.5220 C.3   1 <1>   0.2090 
 11 N       -3.7070     1.9430     0.5050 N.pl3 1 <1>  -0.3930 
 12 N       -4.2950     0.7980     0.9460 N.2   1 <1>  -0.2600 
 13 C        2.0830     4.5670    -0.5340 C.3   1 <1>  -0.0800 
 14 C        2.3130     6.0660    -0.7910 C.3   1 <1>  -0.1600 
 15 C        3.4330     3.8230    -0.5960 C.3   1 <1>  -0.1600 
 16 C        3.3640     6.6510     0.1560 C.3   1 <1>   0.3430 
 17 C        4.4660     4.4380     0.3470 C.3   1 <1>   0.3430 
 18 N        4.6390     5.8840     0.0370 N.4   1 <1>  -0.9590 
 19 C        5.7140     6.4860     0.8710 C.3   1 <1>   0.4860 
 20 C        6.0140     7.8730     0.3390 C.ar  1 <1>  -0.1430 
 21 C        5.5810     8.9960     1.0310 C.ar  1 <1>  -0.1500 
 22 C        6.7180     8.0320    -0.8480 C.ar  1 <1>  -0.1500 
 23 C        5.8370    10.2620     0.5350 C.ar  1 <1>  -0.1500 
 24 C        6.9720     9.2990    -1.3420 C.ar  1 <1>  -0.1500 
 25 C        6.5300    10.4130    -0.6530 C.ar  1 <1>  -0.1500 
 26 H        0.1290    -1.7520    -0.1080 H     1 <1>   0.4000 
 27 H       -1.4570    -2.0770     0.4890 H     1 <1>   0.4000 
 28 H        1.5870     1.9400    -1.5030 H     1 <1>   0.4000 
 29 H       -1.6280     3.5710    -0.5540 H     1 <1>   0.1500 
 30 H       -3.5030    -1.1350     1.0640 H     1 <1>   0.1500 
 31 H        0.1290     4.5450    -1.4490 H     1 <1>   0.0800 
 32 H        1.4110     4.0880    -2.5340 H     1 <1>   0.0800 
 33 H       -4.1940     2.8470     0.4860 H     1 <1>   0.4500 
 34 H        1.6750     4.4560     0.4570 H     1 <1>   0.0800 
 35 H        1.3910     6.6020    -0.6500 H     1 <1>   0.0800 
 36 H        2.6270     6.2290    -1.8070 H     1 <1>   0.0800 
 37 H        3.8180     3.8290    -1.6010 H     1 <1>   0.0800 
 38 H        3.2950     2.7950    -0.3100 H     1 <1>   0.0800 
 39 H        3.0020     6.6020     1.1700 H     1 <1>   0.0800 
 40 H        3.5300     7.6870    -0.0940 H     1 <1>   0.0800 
 41 H        5.4050     3.9190     0.2360 H     1 <1>   0.0800 
 42 H        4.1330     4.3210     1.3660 H     1 <1>   0.0800 
 43 H        4.9500     5.9780    -0.9380 H     1 <1>   0.4500 
 44 H        6.6080     5.8860     0.8160 H     1 <1>   0.0800 
 45 H        5.4020     6.5440     1.9010 H     1 <1>   0.0800 
 46 H        5.0460     8.9050     1.9610 H     1 <1>   0.1500 
 47 H        7.0810     7.1810    -1.3990 H     1 <1>   0.1500 
 48 H        5.5020    11.1340     1.0710 H     1 <1>   0.1500 
 49 H        7.5180     9.4240    -2.2620 H     1 <1>   0.1500 
 50 H        6.7290    11.3990    -1.0380 H     1 <1>   0.1500 
@<TRIPOS>BOND
  1   1   2  2   
  2   1   3  1   
  3   2   4  1   
  4   2   5  1   
  5   3   6  1   
  6   3   7  2   
  7   4   8  ar  
  8   4   9  1   
  9   5  26  1   
 10   5  27  1   
 11   6  10  1   
 12   6  28  1   
 13   7   8  1   
 14   7  29  1   
 15   8  11  ar  
 16   9  12  2   
 17   9  30  1   
 18  10  13  1   
 19  10  31  1   
 20  10  32  1   
 21  11  12  1   
 22  11  33  1   
 23  13  14  1   
 24  13  15  1   
 25  13  34  1   
 26  14  16  1   
 27  14  35  1   
 28  14  36  1   
 29  15  17  1   
 30  15  37  1   
 31  15  38  1   
 32  16  18  1   
 33  16  39  1   
 34  16  40  1   
 35  17  18  1   
 36  17  41  1   
 37  17  42  1   
 38  18  19  1   
 39  18  43  1   
 40  19  20  1   
 41  19  44  1   
 42  19  45  1   
 43  20  21  ar  
 44  20  22  ar  
 45  21  23  ar  
 46  21  46  1   
 47  22  24  ar  
 48  22  47  1   
 49  23  25  ar  
 50  23  48  1   
 51  24  25  ar  
 52  24  49  1   
 53  25  50  1   
@<TRIPOS>SUBSTRUCTURE
  1 ****  13 GROUP 4 **** **** 0

# MOE 2024.06 (io_trps.svl 2023.06)
