@<TRIPOS>MOLECULE
NONAME
51 53 1 0 0 
SMALL
USER_CHARGES


@<TRIPOS>ATOM
  1 O       -1.6340     0.8130     2.0190 O.2   1 <1>  -0.5700 
  2 C       -1.9750     1.0330     0.8830 C.2   1 <1>   0.6300 
  3 N       -2.8300     0.1860     0.2300 N.am  1 <1>  -0.6600 
  4 C       -1.4540     2.2890     0.1960 C.3   1 <1>  -0.1000 
  5 C       -3.0880    -1.1540     0.8690 C.3   1 <1>   0.3210 
  6 C       -3.4450     0.5120    -1.1010 C.3   1 <1>   0.1400 
  7 C       -0.9610     3.4590     0.9980 C.3   1 <1>  -0.0680 
  8 C       -2.2260     3.5770     0.2070 C.3   1 <1>  -0.2000 
  9 C       -4.0240    -2.0850     0.0950 C.2   1 <1>   0.0460 
 10 C       -4.6950     1.4180    -0.9920 C.3   1 <1>   0.3430 
 11 C        0.3010     4.1720     0.5500 C.ar  1 <1>  -0.0320 
 12 N       -5.3620    -1.8830     0.0670 N.2   1 <1>  -0.5650 
 13 C       -3.6950    -3.1900    -0.6170 C.2   1 <1>  -0.3320 
 14 N       -5.6700     0.9760     0.0580 N.4   1 <1>  -0.9590 
 15 C        1.4980     3.4770     0.4820 C.ar  1 <1>  -0.1500 
 16 C        0.2740     5.5160     0.2120 C.ar  1 <1>  -0.1500 
 17 C       -5.8110    -2.8720    -0.6360 C.2   1 <1>   0.0360 
 18 N       -4.8480    -3.7010    -1.0850 N.pl3 1 <1>   0.0330 
 19 C       -2.3490    -3.8400    -0.8980 C.3   1 <1>  -0.0600 
 20 C       -7.0830     1.2190    -0.3460 C.3   1 <1>   0.2630 
 21 C       -5.3860     1.5580     1.4050 C.3   1 <1>   0.2630 
 22 C        2.6550     4.1140     0.0690 C.ar  1 <1>  -0.1500 
 23 C        1.4310     6.1560    -0.2010 C.ar  1 <1>  -0.1500 
 24 C        2.6210     5.4540    -0.2740 C.ar  1 <1>  -0.1500 
 25 H       -0.8670     2.0480    -0.6710 H     1 <1>   0.1000 
 26 H       -2.1420    -1.6490     1.0060 H     1 <1>   0.0800 
 27 H       -3.5030    -1.0010     1.8500 H     1 <1>   0.0800 
 28 H       -2.7190     1.0110    -1.7190 H     1 <1>   0.0800 
 29 H       -3.7060    -0.3860    -1.6310 H     1 <1>   0.0800 
 30 H       -1.0400     3.4000     2.0710 H     1 <1>   0.1000 
 31 H       -2.2180     4.1960    -0.6740 H     1 <1>   0.1000 
 32 H       -3.1360     3.6700     0.7720 H     1 <1>   0.1000 
 33 H       -5.1810     1.4170    -1.9530 H     1 <1>   0.0800 
 34 H       -4.3840     2.4290    -0.7920 H     1 <1>   0.0800 
 35 H       -5.5470    -0.0600     0.1420 H     1 <1>   0.4500 
 36 H        1.5290     2.4360     0.7540 H     1 <1>   0.1500 
 37 H       -0.6460     6.0690     0.2730 H     1 <1>   0.1500 
 38 H       -6.8520    -3.0450    -0.8560 H     1 <1>   0.1500 
 39 H       -4.9730    -4.5490    -1.6470 H     1 <1>   0.2700 
 40 H       -1.5450    -3.2640    -0.4780 H     1 <1>   0.0800 
 41 H       -2.1880    -3.9180    -1.9590 H     1 <1>   0.0800 
 42 H       -2.3180    -4.8270    -0.4700 H     1 <1>   0.0800 
 43 H       -7.2680     2.2750    -0.4560 H     1 <1>   0.0800 
 44 H       -7.7540     0.8240     0.4000 H     1 <1>   0.0800 
 45 H       -7.2910     0.7280    -1.2830 H     1 <1>   0.0800 
 46 H       -5.4780     2.6310     1.3790 H     1 <1>   0.0800 
 47 H       -4.3890     1.3050     1.7250 H     1 <1>   0.0800 
 48 H       -6.0810     1.1670     2.1300 H     1 <1>   0.0800 
 49 H        3.5820     3.5680     0.0180 H     1 <1>   0.1500 
 50 H        1.4050     7.1990    -0.4640 H     1 <1>   0.1500 
 51 H        3.5200     5.9500    -0.5960 H     1 <1>   0.1500 
@<TRIPOS>BOND
  1   1   2  2   
  2   2   3  am  
  3   2   4  1   
  4   3   5  1   
  5   3   6  1   
  6   4   7  1   
  7   4   8  1   
  8   4  25  1   
  9   5   9  1   
 10   5  26  1   
 11   5  27  1   
 12   6  10  1   
 13   6  28  1   
 14   6  29  1   
 15   7   8  1   
 16   7  11  1   
 17   7  30  1   
 18   8  31  1   
 19   8  32  1   
 20   9  12  1   
 21   9  13  2   
 22  10  14  1   
 23  10  33  1   
 24  10  34  1   
 25  11  15  ar  
 26  11  16  ar  
 27  12  17  2   
 28  13  18  1   
 29  13  19  1   
 30  14  20  1   
 31  14  21  1   
 32  14  35  1   
 33  15  22  ar  
 34  15  36  1   
 35  16  23  ar  
 36  16  37  1   
 37  17  18  1   
 38  17  38  1   
 39  18  39  1   
 40  19  40  1   
 41  19  41  1   
 42  19  42  1   
 43  20  43  1   
 44  20  44  1   
 45  20  45  1   
 46  21  46  1   
 47  21  47  1   
 48  21  48  1   
 49  22  24  ar  
 50  22  49  1   
 51  23  24  ar  
 52  23  50  1   
 53  24  51  1   
@<TRIPOS>SUBSTRUCTURE
  1 ****   2 GROUP 4 **** **** 0

# MOE 2024.06 (io_trps.svl 2023.06)
