@<TRIPOS>MOLECULE
NONAME
55 57 1 0 0 
SMALL
USER_CHARGES


@<TRIPOS>ATOM
  1 O        2.8740    -0.6200    -1.2910 O.2   1 <1>  -0.5700 
  2 C        2.2430    -1.1030    -0.3800 C.2   1 <1>   0.5690 
  3 N        2.0550    -0.4370     0.7880 N.am  1 <1>  -0.7300 
  4 C        1.6340    -2.5010    -0.5300 C.3   1 <1>   0.1710 
  5 C        2.6670     0.8630     1.1450 C.3   1 <1>   0.1400 
  6 N        0.4460    -2.7490     0.3400 N.3   1 <1>  -0.8100 
  7 C        1.9980     1.9950     0.3630 C.3   1 <1>   0.0960 
  8 C        0.1390    -4.1960     0.4060 C.3   1 <1>   0.1100 
  9 C       -0.7440    -2.0260    -0.1740 C.3   1 <1>   0.1100 
 10 N        2.6900     3.2660     0.6410 N.pl3 1 <1>   0.0480 
 11 C       -1.0930    -4.5050     1.2830 C.3   1 <1>   0.2090 
 12 C       -1.9880    -2.2420     0.7070 C.3   1 <1>   0.2090 
 13 C        3.7580     3.8120     0.0030 C.2   1 <1>   0.0060 
 14 C        2.3930     4.1330     1.6260 C.2   1 <1>  -0.3020 
 15 N       -2.2820    -3.6920     0.8900 N.pl3 1 <1>  -0.8380 
 16 N        4.1370     4.9400     0.5170 N.2   1 <1>  -0.5650 
 17 C        4.4210     3.1410    -1.1980 C.3   1 <1>   0.0200 
 18 C        3.2830     5.1430     1.5340 C.2   1 <1>   0.0770 
 19 C       -3.3260    -4.2490     0.1520 C.ar  1 <1>   0.1000 
 20 C        5.7140     3.8340    -1.6460 C.3   1 <1>  -0.2400 
 21 C       -4.6360    -3.8920     0.4490 C.ar  1 <1>  -0.1500 
 22 C       -3.1060    -5.1480    -0.8870 C.ar  1 <1>  -0.1500 
 23 C       -5.7040    -4.4090    -0.2650 C.ar  1 <1>  -0.1440 
 24 C       -4.1650    -5.6720    -1.6060 C.ar  1 <1>  -0.1500 
 25 C       -5.4630    -5.3020    -1.2960 C.ar  1 <1>  -0.1500 
 26 C       -7.1300    -4.0110     0.0710 C.3   1 <1>  -0.0970 
 27 H        1.4760    -0.9180     1.4880 H     1 <1>   0.3700 
 28 H        2.4080    -3.2040    -0.2780 H     1 <1>   0.0800 
 29 H        1.3730    -2.6570    -1.5610 H     1 <1>   0.0800 
 30 H        3.7160     0.8280     0.9020 H     1 <1>   0.0800 
 31 H        2.5620     1.0310     2.2030 H     1 <1>   0.0800 
 32 H        0.9680     2.0880     0.6550 H     1 <1>   0.0800 
 33 H        2.0470     1.7970    -0.6920 H     1 <1>   0.0800 
 34 H        0.9860    -4.7210     0.8130 H     1 <1>   0.0800 
 35 H       -0.0390    -4.5740    -0.5860 H     1 <1>   0.0800 
 36 H       -0.9730    -2.3610    -1.1720 H     1 <1>   0.0800 
 37 H       -0.5370    -0.9710    -0.2190 H     1 <1>   0.0800 
 38 H       -0.8530    -4.2900     2.3100 H     1 <1>   0.0800 
 39 H       -1.3330    -5.5520     1.2180 H     1 <1>   0.0800 
 40 H       -2.8340    -1.7570     0.2520 H     1 <1>   0.0800 
 41 H       -1.8260    -1.7930     1.6710 H     1 <1>   0.0800 
 42 H        1.5880     3.9930     2.3230 H     1 <1>   0.1500 
 43 H        3.7260     3.1380    -2.0190 H     1 <1>   0.0800 
 44 H        4.6480     2.1190    -0.9530 H     1 <1>   0.0800 
 45 H        3.3560     6.0210     2.1550 H     1 <1>   0.1500 
 46 H        5.5070     4.8500    -1.9320 H     1 <1>   0.0800 
 47 H        6.1440     3.3160    -2.4850 H     1 <1>   0.0800 
 48 H        6.4250     3.8430    -0.8390 H     1 <1>   0.0800 
 49 H       -4.8020    -3.2050     1.2560 H     1 <1>   0.1500 
 50 H       -2.1050    -5.4330    -1.1380 H     1 <1>   0.1500 
 51 H       -3.9830    -6.3660    -2.4060 H     1 <1>   0.1500 
 52 H       -6.2830    -5.7120    -1.8590 H     1 <1>   0.1500 
 53 H       -7.1570    -3.3830     0.9430 H     1 <1>   0.0800 
 54 H       -7.7180    -4.8900     0.2640 H     1 <1>   0.0800 
 55 H       -7.5620    -3.4750    -0.7540 H     1 <1>   0.0800 
@<TRIPOS>BOND
  1   1   2  2   
  2   2   3  am  
  3   2   4  1   
  4   3   5  1   
  5   3  27  1   
  6   4   6  1   
  7   4  28  1   
  8   4  29  1   
  9   5   7  1   
 10   5  30  1   
 11   5  31  1   
 12   6   8  1   
 13   6   9  1   
 14   7  10  1   
 15   7  32  1   
 16   7  33  1   
 17   8  11  1   
 18   8  34  1   
 19   8  35  1   
 20   9  12  1   
 21   9  36  1   
 22   9  37  1   
 23  10  13  1   
 24  10  14  1   
 25  11  15  1   
 26  11  38  1   
 27  11  39  1   
 28  12  15  1   
 29  12  40  1   
 30  12  41  1   
 31  13  16  2   
 32  13  17  1   
 33  14  18  2   
 34  14  42  1   
 35  15  19  1   
 36  16  18  1   
 37  17  20  1   
 38  17  43  1   
 39  17  44  1   
 40  18  45  1   
 41  19  21  ar  
 42  19  22  ar  
 43  20  46  1   
 44  20  47  1   
 45  20  48  1   
 46  21  23  ar  
 47  21  49  1   
 48  22  24  ar  
 49  22  50  1   
 50  23  25  ar  
 51  23  26  1   
 52  24  25  ar  
 53  24  51  1   
 54  25  52  1   
 55  26  53  1   
 56  26  54  1   
 57  26  55  1   
@<TRIPOS>SUBSTRUCTURE
  1 ****   9 GROUP 4 **** **** 0

# MOE 2024.06 (io_trps.svl 2023.06)
