@<TRIPOS>MOLECULE
NONAME
53 56 1 0 0 
SMALL
USER_CHARGES


@<TRIPOS>ATOM
  1 O       -0.5140    -0.3870     0.2490 O.3   1 <1>  -0.3630 
  2 C       -0.5030    -1.7450     0.3900 C.ar  1 <1>   0.0830 
  3 C        0.6340     0.4090     0.4340 C.3   1 <1>   0.0400 
  4 C       -1.7280    -2.4430     0.1900 C.ar  1 <1>   0.3100 
  5 C        0.6510    -2.4270     0.7130 C.ar  1 <1>  -0.1500 
  6 N       -2.8540    -1.7450    -0.1190 N.ar  1 <1>  -0.6200 
  7 C       -1.7270    -3.8550     0.3230 C.ar  1 <1>   0.0000 
  8 C        0.6390    -3.8140     0.8480 C.ar  1 <1>  -0.1500 
  9 C       -3.9650    -2.4020    -0.2980 C.ar  1 <1>   0.4100 
 10 C       -2.9430    -4.5450     0.1090 C.ar  1 <1>  -0.1440 
 11 C       -0.5230    -4.5090     0.6570 C.ar  1 <1>  -0.1500 
 12 N       -5.1100    -1.6900    -0.5960 N.pl3 1 <1>  -0.8380 
 13 C       -4.0380    -3.8020    -0.2020 C.ar  1 <1>  -0.1500 
 14 C       -3.0420    -6.0600     0.2100 C.3   1 <1>  -0.0970 
 15 C       -6.3120    -1.8350     0.2800 C.3   1 <1>   0.2090 
 16 C       -4.9960    -0.3410    -1.2080 C.3   1 <1>   0.2090 
 17 C       -7.6090    -1.6070    -0.5360 C.3   1 <1>   0.0000 
 18 C       -6.2550    -0.0410    -2.0300 C.3   1 <1>  -0.1600 
 19 C       -8.8610    -1.7540     0.3470 C.3   1 <1>   0.2000 
 20 C       -7.5440    -0.2160    -1.2060 C.3   1 <1>  -0.1600 
 21 C       -7.8110    -2.7390    -1.5590 C.3   1 <1>  -0.1600 
 22 O       -8.6630    -1.2060     1.6160 O.3   1 <1>  -0.5600 
 23 C       -9.1410    -3.2580     0.4340 C.3   1 <1>  -0.1600 
 24 C       -8.4480    -3.8940    -0.7790 C.3   1 <1>  -0.1600 
 25 C       -9.8260    -0.9900     2.3510 C.3   1 <1>   0.0400 
 26 H        0.3550     1.4350     0.2710 H     1 <1>   0.0800 
 27 H        1.3810     0.1160    -0.2810 H     1 <1>   0.0800 
 28 H        0.9870     0.2820     1.4420 H     1 <1>   0.0800 
 29 H        1.5850    -1.9230     0.8700 H     1 <1>   0.1500 
 30 H        1.5510    -4.3260     1.1020 H     1 <1>   0.1500 
 31 H       -0.5150    -5.5770     0.7630 H     1 <1>   0.1500 
 32 H       -4.9900    -4.2550    -0.3950 H     1 <1>   0.1500 
 33 H       -4.0440    -6.3930     0.0060 H     1 <1>   0.0800 
 34 H       -2.7740    -6.3820     1.2000 H     1 <1>   0.0800 
 35 H       -2.3820    -6.5210    -0.5030 H     1 <1>   0.0800 
 36 H       -6.3270    -2.8050     0.7420 H     1 <1>   0.0800 
 37 H       -6.2460    -1.1040     1.0670 H     1 <1>   0.0800 
 38 H       -4.8740     0.3900    -0.4270 H     1 <1>   0.0800 
 39 H       -4.1280    -0.3010    -1.8450 H     1 <1>   0.0800 
 40 H       -6.1970     0.9660    -2.4020 H     1 <1>   0.0800 
 41 H       -6.2700    -0.7010    -2.8790 H     1 <1>   0.0800 
 42 H       -9.6870    -1.2530    -0.1300 H     1 <1>   0.0800 
 43 H       -8.4010    -0.0630    -1.8380 H     1 <1>   0.0800 
 44 H       -7.5660     0.5370    -0.4360 H     1 <1>   0.0800 
 45 H       -8.4970    -2.4170    -2.3220 H     1 <1>   0.0800 
 46 H       -6.8920    -3.0380    -2.0330 H     1 <1>   0.0800 
 47 H       -8.7230    -3.6630     1.3400 H     1 <1>   0.0800 
 48 H      -10.1990    -3.4440     0.4090 H     1 <1>   0.0800 
 49 H       -7.6800    -4.5700    -0.4420 H     1 <1>   0.0800 
 50 H       -9.1430    -4.4380    -1.3940 H     1 <1>   0.0800 
 51 H       -9.5480    -0.5580     3.2960 H     1 <1>   0.0800 
 52 H      -10.3260    -1.9280     2.5160 H     1 <1>   0.0800 
 53 H      -10.4640    -0.3080     1.8150 H     1 <1>   0.0800 
@<TRIPOS>BOND
  1   1   2  1   
  2   1   3  1   
  3   2   4  ar  
  4   2   5  ar  
  5   3  26  1   
  6   3  27  1   
  7   3  28  1   
  8   4   6  ar  
  9   4   7  ar  
 10   5   8  ar  
 11   5  29  1   
 12   6   9  ar  
 13   7  10  ar  
 14   7  11  ar  
 15   8  11  ar  
 16   8  30  1   
 17   9  12  1   
 18   9  13  ar  
 19  10  13  ar  
 20  10  14  1   
 21  11  31  1   
 22  12  15  1   
 23  12  16  1   
 24  13  32  1   
 25  14  33  1   
 26  14  34  1   
 27  14  35  1   
 28  15  17  1   
 29  15  36  1   
 30  15  37  1   
 31  16  18  1   
 32  16  38  1   
 33  16  39  1   
 34  17  19  1   
 35  17  20  1   
 36  17  21  1   
 37  18  20  1   
 38  18  40  1   
 39  18  41  1   
 40  19  22  1   
 41  19  23  1   
 42  19  42  1   
 43  20  43  1   
 44  20  44  1   
 45  21  24  1   
 46  21  45  1   
 47  21  46  1   
 48  22  25  1   
 49  23  24  1   
 50  23  47  1   
 51  23  48  1   
 52  24  49  1   
 53  24  50  1   
 54  25  51  1   
 55  25  52  1   
 56  25  53  1   
@<TRIPOS>SUBSTRUCTURE
  1 ****   9 GROUP 4 **** **** 0

# MOE 2024.06 (io_trps.svl 2023.06)
