@<TRIPOS>MOLECULE
NONAME
55 57 1 0 0 
SMALL
USER_CHARGES


@<TRIPOS>ATOM
  1 O       -0.5770     0.3150     0.3170 O.2   1 <1>  -0.5700 
  2 C       -1.5280     0.9750    -0.0580 C.2   1 <1>   0.5440 
  3 N       -2.6530     0.3200    -0.5120 N.am  1 <1>  -0.6600 
  4 C       -1.4540     2.4230     0.0010 C.ar  1 <1>   0.0860 
  5 C       -4.0280     0.9020    -0.4650 C.3   1 <1>   0.1400 
  6 C       -2.6570    -1.1480    -0.8020 C.3   1 <1>   0.1400 
  7 C       -1.8460     3.2240    -1.0730 C.ar  1 <1>  -0.1500 
  8 C       -0.9750     3.0710     1.1380 C.ar  1 <1>  -0.1500 
  9 C       -4.9430     0.0550     0.4440 C.3   1 <1>   0.2000 
 10 C       -3.6610    -1.8910     0.1060 C.3   1 <1>   0.2000 
 11 C       -1.7800     4.6030    -1.0070 C.ar  1 <1>  -0.1500 
 12 C       -0.9070     4.4490     1.2120 C.ar  1 <1>  -0.1500 
 13 O       -4.9190    -1.2830     0.0260 O.3   1 <1>  -0.5600 
 14 C       -6.4070     0.5560     0.4790 C.3   1 <1>  -0.0800 
 15 C       -3.8560    -3.3620    -0.2850 C.3   1 <1>  -0.1600 
 16 C       -1.3110     5.2370     0.1390 C.ar  1 <1>  -0.0230 
 17 C       -7.2180    -0.2100     1.5360 C.3   1 <1>  -0.2400 
 18 C       -7.1230     0.4610    -0.8800 C.3   1 <1>  -0.2400 
 19 C       -2.5840    -4.2070    -0.1070 C.3   1 <1>  -0.1600 
 20 N       -1.2420     6.6510     0.2090 N.pl3 1 <1>   0.3260 
 21 C       -2.8560    -5.6830    -0.4180 C.3   1 <1>  -0.1600 
 22 C       -0.2350     7.4280     0.6920 C.2   1 <1>   0.0360 
 23 C       -2.1690     7.5530    -0.1860 C.2   1 <1>  -0.3020 
 24 C       -1.5900    -6.5260    -0.2430 C.3   1 <1>  -0.2400 
 25 N       -0.4540     8.7010     0.6340 N.2   1 <1>  -0.5650 
 26 C       -1.6780     8.7820     0.0780 C.2   1 <1>   0.0770 
 27 H       -4.0040     1.9080    -0.0870 H     1 <1>   0.0800 
 28 H       -4.4270     0.9260    -1.4630 H     1 <1>   0.0800 
 29 H       -2.9310    -1.3010    -1.8300 H     1 <1>   0.0800 
 30 H       -1.6740    -1.5600    -0.6620 H     1 <1>   0.0800 
 31 H       -2.2000     2.7490    -1.9710 H     1 <1>   0.1500 
 32 H       -0.6520     2.4710     1.9730 H     1 <1>   0.1500 
 33 H       -4.5510     0.0900     1.4460 H     1 <1>   0.0800 
 34 H       -3.3270    -1.8380     1.1290 H     1 <1>   0.0800 
 35 H       -2.0880     5.1910    -1.8550 H     1 <1>   0.1500 
 36 H       -0.5380     4.9120     2.1120 H     1 <1>   0.1500 
 37 H       -6.3910     1.5910     0.7750 H     1 <1>   0.0800 
 38 H       -4.6330    -3.7710     0.3370 H     1 <1>   0.0800 
 39 H       -4.1830    -3.4140    -1.3090 H     1 <1>   0.0800 
 40 H       -7.2810    -1.2530     1.2760 H     1 <1>   0.0800 
 41 H       -8.2150     0.1870     1.6060 H     1 <1>   0.0800 
 42 H       -6.7510    -0.1280     2.5010 H     1 <1>   0.0800 
 43 H       -7.1270    -0.5560    -1.2310 H     1 <1>   0.0800 
 44 H       -6.6420     1.0760    -1.6170 H     1 <1>   0.0800 
 45 H       -8.1420     0.7920    -0.7880 H     1 <1>   0.0800 
 46 H       -1.8090    -3.8490    -0.7620 H     1 <1>   0.0800 
 47 H       -2.2340    -4.1160     0.9080 H     1 <1>   0.0800 
 48 H       -3.6230    -6.0570     0.2390 H     1 <1>   0.0800 
 49 H       -3.2090    -5.7800    -1.4310 H     1 <1>   0.0800 
 50 H        0.6650     6.9880     1.0820 H     1 <1>   0.1500 
 51 H       -3.1080     7.2680    -0.6200 H     1 <1>   0.1500 
 52 H       -1.2310    -6.4600     0.7690 H     1 <1>   0.0800 
 53 H       -0.8160    -6.1850    -0.9080 H     1 <1>   0.0800 
 54 H       -1.8010    -7.5570    -0.4650 H     1 <1>   0.0800 
 55 H       -2.1430     9.7380    -0.1030 H     1 <1>   0.1500 
@<TRIPOS>BOND
  1   1   2  2   
  2   2   3  am  
  3   2   4  1   
  4   3   5  1   
  5   3   6  1   
  6   4   7  ar  
  7   4   8  ar  
  8   5   9  1   
  9   5  27  1   
 10   5  28  1   
 11   6  10  1   
 12   6  29  1   
 13   6  30  1   
 14   7  11  ar  
 15   7  31  1   
 16   8  12  ar  
 17   8  32  1   
 18   9  13  1   
 19   9  14  1   
 20   9  33  1   
 21  10  13  1   
 22  10  15  1   
 23  10  34  1   
 24  11  16  ar  
 25  11  35  1   
 26  12  16  ar  
 27  12  36  1   
 28  14  17  1   
 29  14  18  1   
 30  14  37  1   
 31  15  19  1   
 32  15  38  1   
 33  15  39  1   
 34  16  20  1   
 35  17  40  1   
 36  17  41  1   
 37  17  42  1   
 38  18  43  1   
 39  18  44  1   
 40  18  45  1   
 41  19  21  1   
 42  19  46  1   
 43  19  47  1   
 44  20  22  1   
 45  20  23  1   
 46  21  24  1   
 47  21  48  1   
 48  21  49  1   
 49  22  25  2   
 50  22  50  1   
 51  23  26  2   
 52  23  51  1   
 53  24  52  1   
 54  24  53  1   
 55  24  54  1   
 56  25  26  1   
 57  26  55  1   
@<TRIPOS>SUBSTRUCTURE
  1 ****   2 GROUP 4 **** **** 0

# MOE 2024.06 (io_trps.svl 2023.06)
