@<TRIPOS>MOLECULE
NONAME
45 46 1 0 0 
SMALL
USER_CHARGES


@<TRIPOS>ATOM
  1 F        0.5580     0.2810     1.2180 F     1 <1>  -0.1900 
  2 C        1.3330    -0.5200     0.5340 C.ar  1 <1>   0.1900 
  3 C        2.6280    -0.1470     0.2190 C.ar  1 <1>   0.1900 
  4 C        0.8320    -1.7460     0.1380 C.ar  1 <1>  -0.1500 
  5 F        3.0970     1.0130     0.6000 F     1 <1>  -0.1900 
  6 C        3.4480    -0.9940    -0.5020 C.ar  1 <1>  -0.1500 
  7 C        1.6510    -2.6120    -0.5800 C.ar  1 <1>  -0.1440 
  8 C        2.9520    -2.2280    -0.9020 C.ar  1 <1>  -0.1500 
  9 C        1.1180    -3.9680    -1.0110 C.3   1 <1>   0.4870 
 10 N        1.7120    -5.0190    -0.1300 N.4   1 <1>  -0.9590 
 11 C        1.5350    -6.3890    -0.7410 C.3   1 <1>   0.3430 
 12 C        1.1930    -4.9040     1.2640 C.3   1 <1>   0.3430 
 13 C        0.4370    -7.2920    -0.1200 C.3   1 <1>   0.0000 
 14 C       -0.2810    -5.3100     1.3740 C.3   1 <1>  -0.1600 
 15 C       -0.7260    -6.3940     0.3800 C.3   1 <1>   0.2000 
 16 C       -0.0730    -8.2260    -1.2490 C.3   1 <1>   0.1200 
 17 C        0.9870    -8.1460     1.0660 C.3   1 <1>  -0.1600 
 18 O       -1.3050    -5.7510    -0.7040 O.3   1 <1>  -0.6800 
 19 O       -1.1720    -8.9560    -0.8230 O.3   1 <1>  -0.6800 
 20 C        2.1370    -9.1150     0.7270 C.3   1 <1>  -0.1600 
 21 C        2.6080    -9.8480     1.9860 C.3   1 <1>  -0.2400 
 22 H       -0.1830    -2.0010     0.3930 H     1 <1>   0.1500 
 23 H        4.4510    -0.6870    -0.7450 H     1 <1>   0.1500 
 24 H        3.5950    -2.8780    -1.4720 H     1 <1>   0.1500 
 25 H        1.3890    -4.1450    -2.0390 H     1 <1>   0.0800 
 26 H        0.0430    -3.9740    -0.9410 H     1 <1>   0.0800 
 27 H        2.7170    -4.8050    -0.0980 H     1 <1>   0.4500 
 28 H        1.3010    -6.2600    -1.7850 H     1 <1>   0.0800 
 29 H        2.4730    -6.9160    -0.7010 H     1 <1>   0.0800 
 30 H        1.7770    -5.5450     1.9020 H     1 <1>   0.0800 
 31 H        1.3170    -3.8960     1.6290 H     1 <1>   0.0800 
 32 H       -0.9120    -4.4420     1.2830 H     1 <1>   0.0800 
 33 H       -0.4310    -5.6830     2.3720 H     1 <1>   0.0800 
 34 H       -1.5000    -6.9930     0.8350 H     1 <1>   0.0800 
 35 H        0.6800    -8.9150    -1.5880 H     1 <1>   0.0800 
 36 H       -0.3940    -7.6520    -2.1030 H     1 <1>   0.0800 
 37 H        1.3270    -7.5100     1.8610 H     1 <1>   0.0800 
 38 H        0.1760    -8.7240     1.4770 H     1 <1>   0.0800 
 39 H       -1.9630    -6.3570    -1.1140 H     1 <1>   0.4000 
 40 H       -0.9020    -9.7360    -0.2960 H     1 <1>   0.4000 
 41 H        1.8150    -9.8550     0.0160 H     1 <1>   0.0800 
 42 H        2.9780    -8.5900     0.3110 H     1 <1>   0.0800 
 43 H        1.8030   -10.4140     2.4210 H     1 <1>   0.0800 
 44 H        2.9780    -9.1530     2.7200 H     1 <1>   0.0800 
 45 H        3.4030   -10.5310     1.7390 H     1 <1>   0.0800 
@<TRIPOS>BOND
  1   1   2  1   
  2   2   3  ar  
  3   2   4  ar  
  4   3   5  1   
  5   3   6  ar  
  6   4   7  ar  
  7   4  22  1   
  8   6   8  ar  
  9   6  23  1   
 10   7   8  ar  
 11   7   9  1   
 12   8  24  1   
 13   9  10  1   
 14   9  25  1   
 15   9  26  1   
 16  10  11  1   
 17  10  12  1   
 18  10  27  1   
 19  11  13  1   
 20  11  28  1   
 21  11  29  1   
 22  12  14  1   
 23  12  30  1   
 24  12  31  1   
 25  13  15  1   
 26  13  16  1   
 27  13  17  1   
 28  14  15  1   
 29  14  32  1   
 30  14  33  1   
 31  15  18  1   
 32  15  34  1   
 33  16  19  1   
 34  16  35  1   
 35  16  36  1   
 36  17  20  1   
 37  17  37  1   
 38  17  38  1   
 39  18  39  1   
 40  19  40  1   
 41  20  21  1   
 42  20  41  1   
 43  20  42  1   
 44  21  43  1   
 45  21  44  1   
 46  21  45  1   
@<TRIPOS>SUBSTRUCTURE
  1 ****  10 GROUP 4 **** **** 0

# MOE 2024.06 (io_trps.svl 2023.06)
