@<TRIPOS>MOLECULE
NONAME
58 60 1 0 0 
SMALL
USER_CHARGES


@<TRIPOS>ATOM
  1 O       -0.8490     0.4080     2.0900 O.2   1 <1>  -0.5700 
  2 C       -1.5300     0.9990     1.2880 C.2   1 <1>   0.5690 
  3 N       -2.4370     0.3460     0.5000 N.am  1 <1>  -0.6600 
  4 C       -1.3330     2.4960     1.1620 C.3   1 <1>  -0.0990 
  5 C       -3.3770     0.9420    -0.4870 C.3   1 <1>   0.1400 
  6 C       -2.6120    -1.1270     0.5500 C.3   1 <1>   0.1400 
  7 C       -0.3860     2.8330     0.0010 C.3   1 <1>  -0.0990 
  8 C       -4.4470    -0.1310    -0.6790 C.3   1 <1>   0.2000 
  9 C       -3.6750    -1.4440    -0.5100 C.3   1 <1>  -0.0800 
 10 C       -0.3130     4.3260    -0.2150 C.2   1 <1>   0.5690 
 11 O       -5.3720    -0.0030     0.3460 O.3   1 <1>  -0.6800 
 12 C       -4.5350    -2.6780    -0.1800 C.3   1 <1>  -0.0160 
 13 O       -1.1530     4.8380    -0.9120 O.2   1 <1>  -0.5700 
 14 N        0.6820     5.0160     0.4020 N.am  1 <1>  -0.7300 
 15 C       -3.6800    -3.9350    -0.1230 C.ar  1 <1>  -0.1440 
 16 C        0.9250     6.4750     0.3670 C.3   1 <1>   0.2200 
 17 C       -3.1970    -4.4410     1.0670 C.ar  1 <1>  -0.1500 
 18 C       -3.3420    -4.6350    -1.2630 C.ar  1 <1>  -0.1500 
 19 C       -0.2940     7.2200     0.9370 C.3   1 <1>  -0.1600 
 20 C        1.3450     6.8870    -1.0500 C.3   1 <1>  -0.1600 
 21 C       -2.4180    -5.5850     1.0590 C.ar  1 <1>   0.1600 
 22 C       -2.5570    -5.7720    -1.1620 C.ar  1 <1>   0.1600 
 23 C        0.0380     8.6670     1.3360 C.3   1 <1>  -0.1600 
 24 C        1.6430     8.3860    -1.2240 C.3   1 <1>  -0.1600 
 25 N       -2.0850    -6.2630    -0.0280 N.ar  1 <1>  -0.6200 
 26 C       -0.0820     9.6950     0.2000 C.3   1 <1>  -0.1600 
 27 C        0.3670     9.2400    -1.1980 C.3   1 <1>  -0.1600 
 28 H       -2.2810     2.9810     1.0210 H     1 <1>   0.0800 
 29 H       -0.9170     2.8670     2.0810 H     1 <1>   0.0800 
 30 H       -3.8070     1.8670    -0.1440 H     1 <1>   0.0800 
 31 H       -2.8540     1.1070    -1.4130 H     1 <1>   0.0800 
 32 H       -1.6830    -1.6290     0.3400 H     1 <1>   0.0800 
 33 H       -2.9500    -1.4040     1.5330 H     1 <1>   0.0800 
 34 H       -0.7430     2.3810    -0.9060 H     1 <1>   0.0800 
 35 H        0.5940     2.4410     0.2010 H     1 <1>   0.0800 
 36 H       -4.9640    -0.0530    -1.6200 H     1 <1>   0.0800 
 37 H       -3.1550    -1.6340    -1.4320 H     1 <1>   0.0800 
 38 H       -4.8900     0.0770     1.1940 H     1 <1>   0.4000 
 39 H       -5.2930    -2.7970    -0.9340 H     1 <1>   0.0800 
 40 H       -5.0380    -2.5450     0.7620 H     1 <1>   0.0800 
 41 H        1.3460     4.4980     0.9760 H     1 <1>   0.3700 
 42 H        1.7580     6.6690     1.0210 H     1 <1>   0.0800 
 43 H       -3.4170    -3.9580     2.0020 H     1 <1>   0.1500 
 44 H       -3.6810    -4.3090    -2.2290 H     1 <1>   0.1500 
 45 H       -1.1110     7.2030     0.2380 H     1 <1>   0.0800 
 46 H       -0.6110     6.7030     1.8250 H     1 <1>   0.0800 
 47 H        2.2340     6.3390    -1.3040 H     1 <1>   0.0800 
 48 H        0.5790     6.6030    -1.7500 H     1 <1>   0.0800 
 49 H       -2.0480    -5.9640     1.9970 H     1 <1>   0.1500 
 50 H       -2.3030    -6.3050    -2.0620 H     1 <1>   0.1500 
 51 H       -0.6340     8.9690     2.1210 H     1 <1>   0.0800 
 52 H        1.0310     8.7070     1.7490 H     1 <1>   0.0800 
 53 H        2.3480     8.7290    -0.4860 H     1 <1>   0.0800 
 54 H        2.1030     8.5130    -2.1880 H     1 <1>   0.0800 
 55 H       -1.1110    10.0050     0.1260 H     1 <1>   0.0800 
 56 H        0.4860    10.5660     0.4800 H     1 <1>   0.0800 
 57 H        0.5330    10.1230    -1.7910 H     1 <1>   0.0800 
 58 H       -0.4350     8.6990    -1.6720 H     1 <1>   0.0800 
@<TRIPOS>BOND
  1   1   2  2   
  2   2   3  am  
  3   2   4  1   
  4   3   5  1   
  5   3   6  1   
  6   4   7  1   
  7   4  28  1   
  8   4  29  1   
  9   5   8  1   
 10   5  30  1   
 11   5  31  1   
 12   6   9  1   
 13   6  32  1   
 14   6  33  1   
 15   7  10  1   
 16   7  34  1   
 17   7  35  1   
 18   8   9  1   
 19   8  11  1   
 20   8  36  1   
 21   9  12  1   
 22   9  37  1   
 23  10  13  2   
 24  10  14  am  
 25  11  38  1   
 26  12  15  1   
 27  12  39  1   
 28  12  40  1   
 29  14  16  1   
 30  14  41  1   
 31  15  17  ar  
 32  15  18  ar  
 33  16  19  1   
 34  16  20  1   
 35  16  42  1   
 36  17  21  ar  
 37  17  43  1   
 38  18  22  ar  
 39  18  44  1   
 40  19  23  1   
 41  19  45  1   
 42  19  46  1   
 43  20  24  1   
 44  20  47  1   
 45  20  48  1   
 46  21  25  ar  
 47  21  49  1   
 48  22  25  ar  
 49  22  50  1   
 50  23  26  1   
 51  23  51  1   
 52  23  52  1   
 53  24  27  1   
 54  24  53  1   
 55  24  54  1   
 56  26  27  1   
 57  26  55  1   
 58  26  56  1   
 59  27  57  1   
 60  27  58  1   
@<TRIPOS>SUBSTRUCTURE
  1 ****   2 GROUP 4 **** **** 0

# MOE 2024.06 (io_trps.svl 2023.06)
