@<TRIPOS>MOLECULE
NONAME
41 42 1 0 0 
SMALL
USER_CHARGES


@<TRIPOS>ATOM
  1 O       -0.7540     1.9010    -1.4560 O.3   1 <1>  -0.3630 
  2 C       -0.2120     2.7900    -0.6270 C.ar  1 <1>   0.3920 
  3 C       -0.9710     0.5460    -1.1070 C.3   1 <1>   0.0400 
  4 N        0.1510     2.3980     0.5940 N.ar  1 <1>  -0.6200 
  5 C       -0.0550     4.0820    -1.0890 C.ar  1 <1>  -0.1500 
  6 C        0.6780     3.3260     1.3560 C.ar  1 <1>   0.7710 
  7 C        0.5000     5.0310    -0.2620 C.ar  1 <1>   0.4610 
  8 N        0.8440     4.5970     0.9600 N.ar  1 <1>  -0.1790 
  9 N        1.0680     2.9680     2.5790 N.pl3 1 <1>  -0.9000 
 10 N        0.6880     6.3240    -0.6520 N.pl3 1 <1>  -0.8690 
 11 C        1.1680     7.5330     0.0880 C.3   1 <1>   0.4690 
 12 C        2.2400     7.1760     1.1240 C.2   1 <1>   0.0060 
 13 C       -0.0480     8.2040     0.7170 C.3   1 <1>  -0.2400 
 14 N        1.9860     6.7480     2.3190 N.2   1 <1>  -0.3380 
 15 N        3.5610     7.2190     0.8970 N.pl3 1 <1>   0.0480 
 16 N        3.1450     6.4450     2.8870 N.2   1 <1>  -0.3380 
 17 C        4.0660     6.7470     2.0390 C.2   1 <1>   0.0360 
 18 C        4.3320     7.6520    -0.2940 C.3   1 <1>   0.0960 
 19 C        4.5580     9.1660    -0.2880 C.3   1 <1>   0.1200 
 20 O        3.3240     9.8070    -0.3300 O.3   1 <1>  -0.5600 
 21 C        3.4080    11.1960    -0.2550 C.3   1 <1>   0.0400 
 22 H       -1.4190     0.0470    -1.9470 H     1 <1>   0.0800 
 23 H       -1.6320     0.5050    -0.2590 H     1 <1>   0.0800 
 24 H       -0.0250     0.0910    -0.8690 H     1 <1>   0.0800 
 25 H       -0.3680     4.3280    -2.0860 H     1 <1>   0.1500 
 26 H        1.2730     5.2450     1.6190 H     1 <1>   0.4570 
 27 H        1.5120     3.5710     3.2780 H     1 <1>   0.4000 
 28 H        0.9360     1.9970     2.8740 H     1 <1>   0.4000 
 29 H        0.3460     6.5900    -1.5830 H     1 <1>   0.4000 
 30 H        1.5860     8.2150    -0.6300 H     1 <1>   0.0800 
 31 H       -0.5340     7.5480     1.4160 H     1 <1>   0.0800 
 32 H       -0.7480     8.5020    -0.0420 H     1 <1>   0.0800 
 33 H        0.2680     9.0850     1.2470 H     1 <1>   0.0800 
 34 H        5.1210     6.6360     2.2170 H     1 <1>   0.1500 
 35 H        3.8080     7.3660    -1.1870 H     1 <1>   0.0800 
 36 H        5.2840     7.1510    -0.2890 H     1 <1>   0.0800 
 37 H        5.1260     9.4620    -1.1540 H     1 <1>   0.0800 
 38 H        5.0820     9.4660     0.6050 H     1 <1>   0.0800 
 39 H        2.4110    11.5980    -0.3040 H     1 <1>   0.0800 
 40 H        3.9870    11.5660    -1.0840 H     1 <1>   0.0800 
 41 H        3.8630    11.4770     0.6800 H     1 <1>   0.0800 
@<TRIPOS>BOND
  1   1   2  1   
  2   1   3  1   
  3   2   4  ar  
  4   2   5  ar  
  5   3  22  1   
  6   3  23  1   
  7   3  24  1   
  8   4   6  ar  
  9   5   7  ar  
 10   5  25  1   
 11   6   8  ar  
 12   6   9  1   
 13   7   8  ar  
 14   7  10  1   
 15   8  26  1   
 16   9  27  1   
 17   9  28  1   
 18  10  11  1   
 19  10  29  1   
 20  11  12  1   
 21  11  13  1   
 22  11  30  1   
 23  12  14  2   
 24  12  15  1   
 25  13  31  1   
 26  13  32  1   
 27  13  33  1   
 28  14  16  1   
 29  15  17  1   
 30  15  18  1   
 31  16  17  2   
 32  17  34  1   
 33  18  19  1   
 34  18  35  1   
 35  18  36  1   
 36  19  20  1   
 37  19  37  1   
 38  19  38  1   
 39  20  21  1   
 40  21  39  1   
 41  21  40  1   
 42  21  41  1   
@<TRIPOS>SUBSTRUCTURE
  1 ****  10 GROUP 4 **** **** 0

# MOE 2024.06 (io_trps.svl 2023.06)
