@<TRIPOS>MOLECULE
NONAME
42 44 1 0 0 
SMALL
USER_CHARGES


@<TRIPOS>ATOM
  1 O       -0.7650     0.4660     1.5080 O.2   1 <1>  -0.5700 
  2 C       -1.6160     1.0420     0.8480 C.2   1 <1>   0.6300 
  3 N       -2.6900     0.2640     0.4320 N.am  1 <1>  -0.6600 
  4 C       -1.4780     2.4760     0.5250 C.2   1 <1>   0.6550 
  5 C       -3.8250     0.7070    -0.4250 C.3   1 <1>   0.1400 
  6 C       -2.7630    -1.2010     0.6650 C.3   1 <1>   0.1400 
  7 O       -2.4710     3.1850     0.4520 O.2   1 <1>  -0.5700 
  8 C       -0.1800     3.0610     0.2600 C.2   1 <1>  -0.2370 
  9 C       -4.7920    -0.4770    -0.4280 C.3   1 <1>   0.2000 
 10 C       -3.8800    -1.6970    -0.2600 C.3   1 <1>  -0.0800 
 11 N        0.0770     4.4110     0.1290 N.pl3 1 <1>   0.0480 
 12 C        1.0190     2.4100     0.0820 C.2   1 <1>  -0.1500 
 13 O       -5.6210    -0.3630     0.6780 O.3   1 <1>  -0.6800 
 14 C       -4.5830    -2.9720     0.2430 C.3   1 <1>   0.0200 
 15 C        1.3970     4.5690    -0.1260 C.2   1 <1>  -0.3020 
 16 C       -0.8670     5.5410     0.2530 C.3   1 <1>   0.0160 
 17 C        2.0050     3.3560    -0.1610 C.2   1 <1>  -0.1500 
 18 C       -3.6670    -4.1840     0.2670 C.2   1 <1>  -0.0400 
 19 O       -4.0950    -5.2790     0.8380 O.3   1 <1>  -0.0190 
 20 C       -2.4280    -4.4230    -0.1940 C.2   1 <1>  -0.1500 
 21 N       -3.2110    -6.2330     0.7880 N.2   1 <1>  -0.4100 
 22 C       -2.1950    -5.7460     0.1710 C.2   1 <1>   0.1080 
 23 C       -0.9250    -6.5150    -0.1130 C.3   1 <1>  -0.0590 
 24 H       -4.3000     1.5950    -0.0460 H     1 <1>   0.0800 
 25 H       -3.4620     0.8890    -1.4220 H     1 <1>   0.0800 
 26 H       -1.8210    -1.6710     0.4410 H     1 <1>   0.0800 
 27 H       -3.0100    -1.3790     1.6980 H     1 <1>   0.0800 
 28 H       -5.4060    -0.5190    -1.3110 H     1 <1>   0.0800 
 29 H       -3.4430    -1.9060    -1.2210 H     1 <1>   0.0800 
 30 H        1.2020     1.3480     0.1200 H     1 <1>   0.1500 
 31 H       -5.0830    -0.1220     1.4590 H     1 <1>   0.4000 
 32 H       -5.4230    -3.1920    -0.3920 H     1 <1>   0.0800 
 33 H       -4.9620    -2.8150     1.2380 H     1 <1>   0.0800 
 34 H        1.8500     5.5350    -0.2700 H     1 <1>   0.1500 
 35 H       -0.3350     6.4710     0.1750 H     1 <1>   0.0800 
 36 H       -1.3600     5.4900     1.2060 H     1 <1>   0.0800 
 37 H       -1.5980     5.4800    -0.5330 H     1 <1>   0.0800 
 38 H        3.0470     3.1470    -0.3390 H     1 <1>   0.1500 
 39 H       -1.7440    -3.7870    -0.7230 H     1 <1>   0.1500 
 40 H       -0.7380    -6.5350    -1.1710 H     1 <1>   0.0800 
 41 H       -1.0220    -7.5260     0.2410 H     1 <1>   0.0800 
 42 H       -0.0960    -6.0490     0.3870 H     1 <1>   0.0800 
@<TRIPOS>BOND
  1   1   2  2   
  2   2   3  am  
  3   2   4  1   
  4   3   5  1   
  5   3   6  1   
  6   4   7  2   
  7   4   8  1   
  8   5   9  1   
  9   5  24  1   
 10   5  25  1   
 11   6  10  1   
 12   6  26  1   
 13   6  27  1   
 14   8  11  1   
 15   8  12  2   
 16   9  10  1   
 17   9  13  1   
 18   9  28  1   
 19  10  14  1   
 20  10  29  1   
 21  11  15  1   
 22  11  16  1   
 23  12  17  1   
 24  12  30  1   
 25  13  31  1   
 26  14  18  1   
 27  14  32  1   
 28  14  33  1   
 29  15  17  2   
 30  15  34  1   
 31  16  35  1   
 32  16  36  1   
 33  16  37  1   
 34  17  38  1   
 35  18  19  1   
 36  18  20  2   
 37  19  21  1   
 38  20  22  1   
 39  20  39  1   
 40  21  22  2   
 41  22  23  1   
 42  23  40  1   
 43  23  41  1   
 44  23  42  1   
@<TRIPOS>SUBSTRUCTURE
  1 ****   3 GROUP 4 **** **** 0

# MOE 2024.06 (io_trps.svl 2023.06)
