@<TRIPOS>MOLECULE
NONAME
45 46 1 0 0 
SMALL
USER_CHARGES


@<TRIPOS>ATOM
  1 S       -0.2880     0.1920     0.2440 S.o2  1 <1>   1.3330 
  2 O       -0.9560     1.4730     0.2480 O.2   1 <1>  -0.6500 
  3 O       -0.2440    -0.5910     1.4580 O.2   1 <1>  -0.6500 
  4 N       -0.9880    -0.7710    -0.9670 N.am  1 <1>  -0.8490 
  5 C        1.3760     0.4460    -0.3760 C.3   1 <1>  -0.0550 
  6 C       -2.4330    -0.5510    -1.0860 C.3   1 <1>   0.1160 
  7 C       -0.7130    -2.2030    -0.8050 C.3   1 <1>   0.1160 
  8 C        2.2260     1.3850     0.5030 C.3   1 <1>  -0.0800 
  9 C        3.5320     1.7420    -0.1850 C.3   1 <1>   0.2200 
 10 C        2.7150     0.6950     1.7820 C.3   1 <1>   0.1200 
 11 N        4.0390     3.0160     0.3730 N.am  1 <1>  -0.7300 
 12 C        4.4380     0.5960     0.2480 C.3   1 <1>   0.1200 
 13 O        4.0000     0.2110     1.5180 O.3   1 <1>  -0.5600 
 14 C        4.2160     4.1730    -0.3310 C.2   1 <1>   0.5440 
 15 O        3.9730     4.1630    -1.5210 O.2   1 <1>  -0.5700 
 16 C        4.6940     5.3790     0.3230 C.ar  1 <1>   0.0860 
 17 C        5.3750     6.3590    -0.3990 C.ar  1 <1>  -0.1500 
 18 C        4.4940     5.6110     1.6870 C.ar  1 <1>  -0.1500 
 19 C        5.8390     7.5110     0.2140 C.ar  1 <1>   0.0820 
 20 C        4.9650     6.7560     2.3060 C.ar  1 <1>  -0.1500 
 21 O        6.5020     8.4350    -0.5110 O.3   1 <1>  -0.3630 
 22 C        5.6440     7.7090     1.5710 C.ar  1 <1>  -0.1500 
 23 C        5.7470     9.4870    -1.0770 C.3   1 <1>   1.3000 
 24 F        4.8120     9.0280    -1.9000 F     1 <1>  -0.3400 
 25 F        6.5380    10.2910    -1.7720 F     1 <1>  -0.3400 
 26 F        5.1540    10.2160    -0.1390 F     1 <1>  -0.3400 
 27 H        1.8690    -0.5010    -0.4760 H     1 <1>   0.0800 
 28 H        1.2960     0.8780    -1.3550 H     1 <1>   0.0800 
 29 H       -2.8410    -1.1650    -1.8710 H     1 <1>   0.0800 
 30 H       -2.6310     0.4800    -1.3300 H     1 <1>   0.0800 
 31 H       -2.9260    -0.7870    -0.1570 H     1 <1>   0.0800 
 32 H       -1.0990    -2.7510    -1.6470 H     1 <1>   0.0800 
 33 H       -1.1720    -2.5750     0.0970 H     1 <1>   0.0800 
 34 H        0.3480    -2.3730    -0.7460 H     1 <1>   0.0800 
 35 H        1.6500     2.2680     0.7250 H     1 <1>   0.0800 
 36 H        3.4460     1.8050    -1.2570 H     1 <1>   0.0800 
 37 H        2.0950    -0.1260     2.0960 H     1 <1>   0.0800 
 38 H        2.7960     1.4040     2.5870 H     1 <1>   0.0800 
 39 H        4.3660     2.9500     1.3390 H     1 <1>   0.3700 
 40 H        5.4750     0.8800     0.2930 H     1 <1>   0.0800 
 41 H        4.3210    -0.2490    -0.4070 H     1 <1>   0.0800 
 42 H        5.5420     6.2140    -1.4520 H     1 <1>   0.1500 
 43 H        3.9560     4.8890     2.2760 H     1 <1>   0.1500 
 44 H        4.8020     6.9080     3.3600 H     1 <1>   0.1500 
 45 H        6.0190     8.5990     2.0460 H     1 <1>   0.1500 
@<TRIPOS>BOND
  1   1   2  2   
  2   1   3  2   
  3   1   4  am  
  4   1   5  1   
  5   4   6  1   
  6   4   7  1   
  7   5   8  1   
  8   5  27  1   
  9   5  28  1   
 10   6  29  1   
 11   6  30  1   
 12   6  31  1   
 13   7  32  1   
 14   7  33  1   
 15   7  34  1   
 16   8   9  1   
 17   8  10  1   
 18   8  35  1   
 19   9  11  1   
 20   9  12  1   
 21   9  36  1   
 22  10  13  1   
 23  10  37  1   
 24  10  38  1   
 25  11  14  am  
 26  11  39  1   
 27  12  13  1   
 28  12  40  1   
 29  12  41  1   
 30  14  15  2   
 31  14  16  1   
 32  16  17  ar  
 33  16  18  ar  
 34  17  19  ar  
 35  17  42  1   
 36  18  20  ar  
 37  18  43  1   
 38  19  21  1   
 39  19  22  ar  
 40  20  22  ar  
 41  20  44  1   
 42  21  23  1   
 43  22  45  1   
 44  23  24  1   
 45  23  25  1   
 46  23  26  1   
@<TRIPOS>SUBSTRUCTURE
  1 ****  14 GROUP 4 **** **** 0

# MOE 2024.06 (io_trps.svl 2023.06)
