@<TRIPOS>MOLECULE
NONAME
56 59 1 0 0 
SMALL
USER_CHARGES


@<TRIPOS>ATOM
  1 O        0.7350    -0.4480    -0.8530 O.3   1 <1>  -0.5600 
  2 C        1.8680    -1.0780    -0.3060 C.3   1 <1>   0.4240 
  3 C       -0.5140    -0.8070    -0.3420 C.3   1 <1>   0.1200 
  4 C        1.6050    -2.5590     0.0310 C.ar  1 <1>  -0.1440 
  5 C        2.9450    -0.9740    -1.3970 C.3   1 <1>  -0.1600 
  6 C        2.2930    -0.2820     0.9400 C.3   1 <1>  -0.1600 
  7 C       -0.7830    -2.2720    -0.6710 C.3   1 <1>  -0.0160 
  8 C        0.3540    -3.1290    -0.1510 C.ar  1 <1>  -0.1440 
  9 C        2.6250    -3.3590     0.5310 C.ar  1 <1>  -0.1500 
 10 C        3.2860     0.4820    -1.7080 C.3   1 <1>   0.2090 
 11 C        2.6630     1.1610     0.5960 C.3   1 <1>   0.2090 
 12 C        0.1400    -4.4670     0.1390 C.ar  1 <1>  -0.1500 
 13 C        2.4290    -4.6950     0.8370 C.ar  1 <1>   0.0820 
 14 N        3.7340     1.1490    -0.4470 N.pl3 1 <1>  -0.8380 
 15 C        1.1660    -5.2720     0.6260 C.ar  1 <1>   0.0820 
 16 O        3.5390    -5.3210     1.3260 O.3   1 <1>  -0.3630 
 17 C        4.9190     1.8110    -0.2920 C.ar  1 <1>   0.4610 
 18 O        0.9620    -6.5980     0.8810 O.3   1 <1>  -0.3630 
 19 C        3.4600    -6.4910     2.1080 C.3   1 <1>   0.0400 
 20 N        6.0200     1.2870    -0.8520 N.ar  1 <1>  -0.1790 
 21 C        5.0960     2.9750     0.4140 C.ar  1 <1>  -0.1500 
 22 C       -0.2020    -7.2740     0.4570 C.3   1 <1>   0.0400 
 23 C        7.2260     1.8710    -0.7250 C.ar  1 <1>   0.7710 
 24 C        6.3610     3.5340     0.5100 C.ar  1 <1>   0.4100 
 25 N        7.4230     2.9760    -0.0640 N.ar  1 <1>  -0.6200 
 26 N        8.2980     1.3110    -1.2940 N.pl3 1 <1>  -0.9000 
 27 N        6.5450     4.6850     1.2020 N.pl3 1 <1>  -0.8690 
 28 C        7.8330     5.4060     1.4180 C.3   1 <1>   0.1290 
 29 H       -1.2540    -0.1760    -0.8030 H     1 <1>   0.0800 
 30 H       -0.5230    -0.6420     0.7210 H     1 <1>   0.0800 
 31 H        2.5840    -1.4630    -2.2840 H     1 <1>   0.0800 
 32 H        3.8360    -1.4850    -1.0870 H     1 <1>   0.0800 
 33 H        3.1460    -0.7500     1.3950 H     1 <1>   0.0800 
 34 H        1.5040    -0.2970     1.6680 H     1 <1>   0.0800 
 35 H       -0.8710    -2.3910    -1.7370 H     1 <1>   0.0800 
 36 H       -1.7120    -2.5700    -0.2190 H     1 <1>   0.0800 
 37 H        3.6050    -2.9570     0.6990 H     1 <1>   0.1500 
 38 H        2.4110     0.9870    -2.0850 H     1 <1>   0.0800 
 39 H        4.0430     0.5320    -2.4710 H     1 <1>   0.0800 
 40 H        2.9990     1.6600     1.4890 H     1 <1>   0.0800 
 41 H        1.7970     1.6830     0.2200 H     1 <1>   0.0800 
 42 H       -0.8420    -4.8660    -0.0210 H     1 <1>   0.1500 
 43 H        4.4090    -6.6380     2.5910 H     1 <1>   0.0800 
 44 H        3.2470    -7.3250     1.4640 H     1 <1>   0.0800 
 45 H        2.6860    -6.3690     2.8450 H     1 <1>   0.0800 
 46 H        5.9420     0.3990    -1.3190 H     1 <1>   0.4570 
 47 H        4.2670     3.4650     0.8840 H     1 <1>   0.1500 
 48 H       -0.0790    -8.3190     0.6770 H     1 <1>   0.0800 
 49 H       -0.3200    -7.1350    -0.6030 H     1 <1>   0.0800 
 50 H       -1.0480    -6.8860     0.9960 H     1 <1>   0.0800 
 51 H        9.1950     1.7920    -1.1720 H     1 <1>   0.4000 
 52 H        8.3540     0.4570    -1.8500 H     1 <1>   0.4000 
 53 H        5.7380     5.1590     1.6200 H     1 <1>   0.4000 
 54 H        8.6680     4.8330     1.0540 H     1 <1>   0.0800 
 55 H        7.9750     5.5860     2.4690 H     1 <1>   0.0800 
 56 H        7.8110     6.3500     0.9000 H     1 <1>   0.0800 
@<TRIPOS>BOND
  1   1   2  1   
  2   1   3  1   
  3   2   4  1   
  4   2   5  1   
  5   2   6  1   
  6   3   7  1   
  7   3  29  1   
  8   3  30  1   
  9   4   8  ar  
 10   4   9  ar  
 11   5  10  1   
 12   5  31  1   
 13   5  32  1   
 14   6  11  1   
 15   6  33  1   
 16   6  34  1   
 17   7   8  1   
 18   7  35  1   
 19   7  36  1   
 20   8  12  ar  
 21   9  13  ar  
 22   9  37  1   
 23  10  14  1   
 24  10  38  1   
 25  10  39  1   
 26  11  14  1   
 27  11  40  1   
 28  11  41  1   
 29  12  15  ar  
 30  12  42  1   
 31  13  15  ar  
 32  13  16  1   
 33  14  17  1   
 34  15  18  1   
 35  16  19  1   
 36  17  20  ar  
 37  17  21  ar  
 38  18  22  1   
 39  19  43  1   
 40  19  44  1   
 41  19  45  1   
 42  20  23  ar  
 43  20  46  1   
 44  21  24  ar  
 45  21  47  1   
 46  22  48  1   
 47  22  49  1   
 48  22  50  1   
 49  23  25  ar  
 50  23  26  1   
 51  24  25  ar  
 52  24  27  1   
 53  26  51  1   
 54  26  52  1   
 55  27  28  1   
 56  27  53  1   
 57  28  54  1   
 58  28  55  1   
 59  28  56  1   
@<TRIPOS>SUBSTRUCTURE
  1 ****   6 GROUP 4 **** **** 0

# MOE 2024.06 (io_trps.svl 2023.06)
