@<TRIPOS>MOLECULE
NONAME
44 46 1 0 0 
SMALL
USER_CHARGES


@<TRIPOS>ATOM
  1 O       -1.8210     0.0990     1.5960 O.3   1 <1>  -0.5600 
  2 C       -3.1450    -0.1900     1.9620 C.3   1 <1>   0.1200 
  3 C       -1.3050    -0.6360     0.5240 C.3   1 <1>   0.1200 
  4 C       -4.1510     0.5440     1.0400 C.3   1 <1>   0.4230 
  5 C       -2.1650    -0.5310    -0.7560 C.3   1 <1>  -0.0800 
  6 N       -3.4140     1.5110     0.1420 N.4   1 <1>  -0.9590 
  7 C       -5.1000    -0.4430     0.3120 C.3   1 <1>   0.1100 
  8 C       -3.2540    -1.6220    -0.8480 C.3   1 <1>   0.1100 
  9 C       -2.7160     0.8830    -1.0310 C.3   1 <1>   0.3430 
 10 C       -4.2660     2.6510    -0.2910 C.3   1 <1>   0.2630 
 11 N       -4.6020    -1.0430    -0.9520 N.3   1 <1>  -0.8100 
 12 C       -5.5920    -1.9810    -1.5390 C.3   1 <1>   0.2530 
 13 C       -5.8480    -3.2070    -0.6650 C.ar  1 <1>  -0.1440 
 14 C       -6.9060    -3.2380     0.2450 C.ar  1 <1>   0.3930 
 15 C       -5.0420    -4.3220    -0.7810 C.ar  1 <1>  -0.1500 
 16 O       -7.7080    -2.1500     0.3270 O.3   1 <1>  -0.3630 
 17 N       -7.1770    -4.2660     1.0440 N.ar  1 <1>  -0.6200 
 18 C       -5.3240    -5.3970     0.0350 C.ar  1 <1>  -0.1500 
 19 C       -8.8780    -2.1640     1.1260 C.3   1 <1>   0.0400 
 20 C       -6.3850    -5.3150     0.9180 C.ar  1 <1>   0.1600 
 21 H       -3.2930    -1.2560     1.9690 H     1 <1>   0.0800 
 22 H       -3.2770     0.1610     2.9710 H     1 <1>   0.0800 
 23 H       -0.3220    -0.2410     0.3310 H     1 <1>   0.0800 
 24 H       -1.1900    -1.6610     0.8360 H     1 <1>   0.0800 
 25 H       -4.7780     1.1160     1.7040 H     1 <1>   0.0800 
 26 H       -1.4930    -0.7510    -1.5660 H     1 <1>   0.0800 
 27 H       -2.6430     1.8310     0.7520 H     1 <1>   0.4500 
 28 H       -6.0160     0.0790     0.0940 H     1 <1>   0.0800 
 29 H       -5.3520    -1.2240     1.0080 H     1 <1>   0.0800 
 30 H       -3.2060    -2.3000    -0.0120 H     1 <1>   0.0800 
 31 H       -3.0630    -2.2020    -1.7360 H     1 <1>   0.0800 
 32 H       -3.4020     0.8180    -1.8600 H     1 <1>   0.0800 
 33 H       -1.9020     1.5210    -1.3320 H     1 <1>   0.0800 
 34 H       -5.0660     2.2940    -0.9210 H     1 <1>   0.0800 
 35 H       -3.6810     3.3640    -0.8480 H     1 <1>   0.0800 
 36 H       -4.6920     3.1480     0.5650 H     1 <1>   0.0800 
 37 H       -6.5160    -1.4560    -1.7140 H     1 <1>   0.0800 
 38 H       -5.2380    -2.3060    -2.5030 H     1 <1>   0.0800 
 39 H       -4.2260    -4.3650    -1.4810 H     1 <1>   0.1500 
 40 H       -4.7300    -6.2920    -0.0120 H     1 <1>   0.1500 
 41 H       -9.3790    -1.2210     1.0150 H     1 <1>   0.0800 
 42 H       -8.5980    -2.3180     2.1540 H     1 <1>   0.0800 
 43 H       -9.5160    -2.9630     0.7910 H     1 <1>   0.0800 
 44 H       -6.5940    -6.1600     1.5520 H     1 <1>   0.1500 
@<TRIPOS>BOND
  1   1   2  1   
  2   1   3  1   
  3   2   4  1   
  4   2  21  1   
  5   2  22  1   
  6   3   5  1   
  7   3  23  1   
  8   3  24  1   
  9   4   6  1   
 10   4   7  1   
 11   4  25  1   
 12   5   8  1   
 13   5   9  1   
 14   5  26  1   
 15   6   9  1   
 16   6  10  1   
 17   6  27  1   
 18   7  11  1   
 19   7  28  1   
 20   7  29  1   
 21   8  11  1   
 22   8  30  1   
 23   8  31  1   
 24   9  32  1   
 25   9  33  1   
 26  10  34  1   
 27  10  35  1   
 28  10  36  1   
 29  11  12  1   
 30  12  13  1   
 31  12  37  1   
 32  12  38  1   
 33  13  14  ar  
 34  13  15  ar  
 35  14  16  1   
 36  14  17  ar  
 37  15  18  ar  
 38  15  39  1   
 39  16  19  1   
 40  17  20  ar  
 41  18  20  ar  
 42  18  40  1   
 43  19  41  1   
 44  19  42  1   
 45  19  43  1   
 46  20  44  1   
@<TRIPOS>SUBSTRUCTURE
  1 ****   7 GROUP 4 **** **** 0

# MOE 2024.06 (io_trps.svl 2023.06)
