@<TRIPOS>MOLECULE
NONAME
50 52 1 0 0 
SMALL
USER_CHARGES


@<TRIPOS>ATOM
  1 S       -0.5130     0.2220    -2.1300 S.3   1 <1>  -0.0800 
  2 C        0.2070    -1.3080    -1.6530 C.2   1 <1>  -0.1400 
  3 C        0.7830     1.1190    -1.3650 C.2   1 <1>  -0.1100 
  4 C        1.3480    -1.0930    -0.9710 C.2   1 <1>  -0.1500 
  5 C       -0.5040    -2.5820    -2.0480 C.3   1 <1>   0.5230 
  6 C        1.6830     0.2910    -0.7970 C.2   1 <1>   0.0190 
  7 N       -1.6320    -2.7800    -1.1010 N.4   1 <1>  -0.9590 
  8 C        2.8610     0.6840    -0.0860 C.1   1 <1>  -0.0190 
  9 C       -1.8730    -4.2380    -0.8180 C.3   1 <1>   0.3430 
 10 C       -2.8700    -2.1010    -1.5900 C.3   1 <1>   0.3430 
 11 C        3.8420     1.0110     0.5020 C.1   1 <1>  -0.2000 
 12 C       -2.7690    -4.5160     0.4130 C.3   1 <1>   0.1400 
 13 C       -3.5980    -1.4030    -0.4430 C.3   1 <1>  -0.1600 
 14 C        5.0710     1.4270     1.2280 C.3   1 <1>   0.3200 
 15 N       -4.0240    -3.6970     0.4150 N.am  1 <1>  -0.6600 
 16 C       -3.8330    -2.2690     0.7970 C.3   1 <1>   0.1400 
 17 O        5.9930     1.8130     0.2800 O.3   1 <1>  -0.6800 
 18 C       -5.2860    -4.1590     0.1340 C.2   1 <1>   0.5690 
 19 O       -6.1850    -3.3900    -0.1000 O.2   1 <1>  -0.5700 
 20 C       -5.5880    -5.6470     0.0870 C.3   1 <1>  -0.0990 
 21 C       -7.0990    -5.9330     0.0970 C.3   1 <1>   0.0960 
 22 N       -7.3410    -7.3870     0.0820 N.pl3 1 <1>   0.0480 
 23 C       -7.5720    -8.1850    -0.9610 C.2   1 <1>   0.0360 
 24 C       -7.3530    -8.2400     1.1080 C.2   1 <1>   0.0360 
 25 N       -7.7040    -9.4150    -0.6040 N.2   1 <1>  -0.3380 
 26 N       -7.5630    -9.4500     0.7230 N.2   1 <1>  -0.3380 
 27 H        0.7480     2.1930    -1.4150 H     1 <1>   0.1500 
 28 H        2.0010    -1.8470    -0.5640 H     1 <1>   0.1500 
 29 H        0.1920    -3.4010    -1.9680 H     1 <1>   0.0800 
 30 H       -0.8530    -2.5250    -3.0670 H     1 <1>   0.0800 
 31 H       -1.3460    -2.3010    -0.2370 H     1 <1>   0.4500 
 32 H       -0.9290    -4.7330    -0.6560 H     1 <1>   0.0800 
 33 H       -2.3290    -4.6960    -1.6810 H     1 <1>   0.0800 
 34 H       -3.5310    -2.8260    -2.0380 H     1 <1>   0.0800 
 35 H       -2.6290    -1.3670    -2.3420 H     1 <1>   0.0800 
 36 H       -2.2130    -4.3100     1.3110 H     1 <1>   0.0800 
 37 H       -3.0040    -5.5650     0.4310 H     1 <1>   0.0800 
 38 H       -4.5590    -1.0860    -0.8120 H     1 <1>   0.0800 
 39 H       -3.0710    -0.5090    -0.1620 H     1 <1>   0.0800 
 40 H        5.4820     0.6060     1.7900 H     1 <1>   0.0800 
 41 H        4.8820     2.2620     1.8800 H     1 <1>   0.0800 
 42 H       -4.7040    -1.9120     1.3230 H     1 <1>   0.0800 
 43 H       -2.9990    -2.1840     1.4720 H     1 <1>   0.0800 
 44 H        5.9180     1.2200    -0.4910 H     1 <1>   0.4000 
 45 H       -5.1460    -6.1140     0.9470 H     1 <1>   0.0800 
 46 H       -5.1540    -6.0570    -0.8060 H     1 <1>   0.0800 
 47 H       -7.5690    -5.4930    -0.7650 H     1 <1>   0.0800 
 48 H       -7.5510    -5.5130     0.9790 H     1 <1>   0.0800 
 49 H       -7.6370    -7.8320    -1.9740 H     1 <1>   0.1500 
 50 H       -7.2010    -7.9410     2.1290 H     1 <1>   0.1500 
@<TRIPOS>BOND
  1   1   2  1   
  2   1   3  1   
  3   2   4  2   
  4   2   5  1   
  5   3   6  2   
  6   3  27  1   
  7   4   6  1   
  8   4  28  1   
  9   5   7  1   
 10   5  29  1   
 11   5  30  1   
 12   6   8  1   
 13   7   9  1   
 14   7  10  1   
 15   7  31  1   
 16   8  11  3   
 17   9  12  1   
 18   9  32  1   
 19   9  33  1   
 20  10  13  1   
 21  10  34  1   
 22  10  35  1   
 23  11  14  1   
 24  12  15  1   
 25  12  36  1   
 26  12  37  1   
 27  13  16  1   
 28  13  38  1   
 29  13  39  1   
 30  14  17  1   
 31  14  40  1   
 32  14  41  1   
 33  15  16  1   
 34  15  18  am  
 35  16  42  1   
 36  16  43  1   
 37  17  44  1   
 38  18  19  2   
 39  18  20  1   
 40  20  21  1   
 41  20  45  1   
 42  20  46  1   
 43  21  22  1   
 44  21  47  1   
 45  21  48  1   
 46  22  23  1   
 47  22  24  1   
 48  23  25  2   
 49  23  49  1   
 50  24  26  2   
 51  24  50  1   
 52  25  26  1   
@<TRIPOS>SUBSTRUCTURE
  1 ****   7 GROUP 4 **** **** 0

# MOE 2024.06 (io_trps.svl 2023.06)
