@<TRIPOS>MOLECULE
NONAME
42 44 1 0 0 
SMALL
USER_CHARGES


@<TRIPOS>ATOM
  1 CL      -1.9190    -0.6910    -2.0420 Cl    1 <1>  -0.1770 
  2 C       -2.2010     0.5500    -0.8440 C.ar  1 <1>   0.1770 
  3 C       -2.8210     0.2260     0.3600 C.ar  1 <1>  -0.1440 
  4 C       -1.7920     1.8410    -1.1380 C.ar  1 <1>  -0.1500 
  5 C       -3.0150     1.2370     1.2940 C.ar  1 <1>  -0.1500 
  6 C       -3.2600    -1.1950     0.6710 C.3   1 <1>   0.4870 
  7 C       -1.9980     2.8480    -0.2100 C.ar  1 <1>  -0.1500 
  8 C       -2.6050     2.5230     0.9890 C.ar  1 <1>   0.1900 
  9 N       -4.2470    -1.6970    -0.3340 N.4   1 <1>  -0.9590 
 10 F       -2.8020     3.4640     1.8700 F     1 <1>  -0.1900 
 11 C       -5.6660    -1.3150    -0.0570 C.3   1 <1>   0.4230 
 12 C       -4.0790    -3.1770    -0.4860 C.3   1 <1>   0.2630 
 13 C       -6.6170    -1.8730    -1.1160 C.3   1 <1>  -0.1600 
 14 C       -5.9040     0.1920    -0.1230 C.3   1 <1>  -0.1600 
 15 C       -7.8500    -0.9650    -1.0770 C.3   1 <1>  -0.0800 
 16 C       -7.3920     0.3600    -0.4500 C.3   1 <1>  -0.0800 
 17 C       -8.9840    -1.4960    -0.1890 C.3   1 <1>  -0.1600 
 18 C       -8.2770     0.5850     0.7850 C.3   1 <1>  -0.1600 
 19 C       -9.5120    -0.2630     0.5270 C.3   1 <1>   0.2000 
 20 O      -10.1080    -0.6180     1.7160 O.3   1 <1>  -0.6800 
 21 H       -1.3170     2.0550    -2.0800 H     1 <1>   0.1500 
 22 H       -3.4740     1.0540     2.2500 H     1 <1>   0.1500 
 23 H       -3.6850    -1.2430     1.6610 H     1 <1>   0.0800 
 24 H       -2.3820    -1.8200     0.6570 H     1 <1>   0.0800 
 25 H       -1.6930     3.8620    -0.4050 H     1 <1>   0.1500 
 26 H       -3.9830    -1.2600    -1.2310 H     1 <1>   0.4500 
 27 H       -5.9740    -1.6770     0.9110 H     1 <1>   0.0800 
 28 H       -4.3610    -3.6850     0.4220 H     1 <1>   0.0800 
 29 H       -3.0510    -3.4160    -0.7120 H     1 <1>   0.0800 
 30 H       -4.6920    -3.5470    -1.2920 H     1 <1>   0.0800 
 31 H       -6.1700    -1.7860    -2.0920 H     1 <1>   0.0800 
 32 H       -6.8790    -2.9000    -0.9330 H     1 <1>   0.0800 
 33 H       -5.6530     0.6870     0.7970 H     1 <1>   0.0800 
 34 H       -5.3350     0.6210    -0.9300 H     1 <1>   0.0800 
 35 H       -8.2280    -0.7910    -2.0730 H     1 <1>   0.0800 
 36 H       -7.5400     1.1690    -1.1480 H     1 <1>   0.0800 
 37 H       -8.6060    -2.2000     0.5310 H     1 <1>   0.0800 
 38 H       -9.7580    -1.9610    -0.7750 H     1 <1>   0.0800 
 39 H       -8.5400     1.6230     0.8960 H     1 <1>   0.0800 
 40 H       -7.7820     0.2430     1.6760 H     1 <1>   0.0800 
 41 H      -10.2280     0.2650    -0.0820 H     1 <1>   0.0800 
 42 H       -9.4830    -1.0900     2.2930 H     1 <1>   0.4000 
@<TRIPOS>BOND
  1   1   2  1   
  2   2   3  ar  
  3   2   4  ar  
  4   3   5  ar  
  5   3   6  1   
  6   4   7  ar  
  7   4  21  1   
  8   5   8  ar  
  9   5  22  1   
 10   6   9  1   
 11   6  23  1   
 12   6  24  1   
 13   7   8  ar  
 14   7  25  1   
 15   8  10  1   
 16   9  11  1   
 17   9  12  1   
 18   9  26  1   
 19  11  13  1   
 20  11  14  1   
 21  11  27  1   
 22  12  28  1   
 23  12  29  1   
 24  12  30  1   
 25  13  15  1   
 26  13  31  1   
 27  13  32  1   
 28  14  16  1   
 29  14  33  1   
 30  14  34  1   
 31  15  16  1   
 32  15  17  1   
 33  15  35  1   
 34  16  18  1   
 35  16  36  1   
 36  17  19  1   
 37  17  37  1   
 38  17  38  1   
 39  18  19  1   
 40  18  39  1   
 41  18  40  1   
 42  19  20  1   
 43  19  41  1   
 44  20  42  1   
@<TRIPOS>SUBSTRUCTURE
  1 ****  14 GROUP 4 **** **** 0

# MOE 2024.06 (io_trps.svl 2023.06)
