@<TRIPOS>MOLECULE
NONAME
35 37 1 0 0 
SMALL
USER_CHARGES


@<TRIPOS>ATOM
  1 CL      -0.3840    -0.4280     0.6470 Cl    1 <1>  -0.1770 
  2 C       -1.8570    -1.1240    -0.0020 C.ar  1 <1>   0.1770 
  3 C       -2.9030    -0.3690    -0.5530 C.ar  1 <1>   0.0820 
  4 C       -1.9410    -2.5000     0.0710 C.ar  1 <1>  -0.1500 
  5 O       -2.9650     0.9790    -0.7100 O.3   1 <1>  -0.3630 
  6 C       -4.0220    -1.0530    -1.0070 C.ar  1 <1>  -0.1500 
  7 C       -3.0610    -3.1890    -0.3870 C.ar  1 <1>   0.0860 
  8 C       -1.8740     1.8550    -0.5460 C.3   1 <1>   0.0400 
  9 C       -4.0990    -2.4320    -0.9290 C.ar  1 <1>  -0.1500 
 10 C       -3.1170    -4.6340    -0.3210 C.2   1 <1>   0.5440 
 11 O       -2.2420    -5.2800    -0.8680 O.2   1 <1>  -0.5700 
 12 N       -4.1160    -5.2930     0.3480 N.am  1 <1>  -0.6600 
 13 C       -5.1700    -4.6870     1.2110 C.3   1 <1>   0.2350 
 14 C       -4.3860    -6.7500     0.1940 C.3   1 <1>   0.2350 
 15 C       -6.3640    -5.6120     1.0820 C.3   1 <1>  -0.2420 
 16 C       -5.8750    -6.9030     0.4670 C.3   1 <1>  -0.2420 
 17 C       -7.3850    -5.3130     2.1830 C.2   1 <1>   0.9470 
 18 C       -6.8730    -6.0460    -0.2700 C.3   1 <1>  -0.2000 
 19 C       -6.2270    -8.3600     0.7790 C.2   1 <1>   0.9470 
 20 O       -8.5340    -4.9720     1.8700 O.co2 1 <1>  -0.9000 
 21 O       -6.9940    -5.2370     3.3560 O.co2 1 <1>  -0.9000 
 22 O       -7.0580    -8.9510     0.0750 O.co2 1 <1>  -0.9000 
 23 O       -5.5630    -8.9680     1.6290 O.co2 1 <1>  -0.9000 
 24 H       -1.1250    -3.0630     0.4890 H     1 <1>   0.1500 
 25 H       -4.8390    -0.4930    -1.4270 H     1 <1>   0.1500 
 26 H       -2.1760     2.8290    -0.8870 H     1 <1>   0.0800 
 27 H       -1.0480     1.5040    -1.1390 H     1 <1>   0.0800 
 28 H       -1.6170     1.9030     0.4960 H     1 <1>   0.0800 
 29 H       -4.9750    -2.9430    -1.2940 H     1 <1>   0.1500 
 30 H       -4.8260    -4.6760     2.2320 H     1 <1>   0.0800 
 31 H       -5.4340    -3.6910     0.9110 H     1 <1>   0.0800 
 32 H       -4.1380    -7.0930    -0.7940 H     1 <1>   0.0800 
 33 H       -3.8130    -7.2970     0.9240 H     1 <1>   0.0800 
 34 H       -6.5660    -5.5170    -1.1520 H     1 <1>   0.1000 
 35 H       -7.8870    -6.4050    -0.3350 H     1 <1>   0.1000 
@<TRIPOS>BOND
  1   1   2  1   
  2   2   3  ar  
  3   2   4  ar  
  4   3   5  1   
  5   3   6  ar  
  6   4   7  ar  
  7   4  24  1   
  8   5   8  1   
  9   6   9  ar  
 10   6  25  1   
 11   7   9  ar  
 12   7  10  1   
 13   8  26  1   
 14   8  27  1   
 15   8  28  1   
 16   9  29  1   
 17  10  11  2   
 18  10  12  am  
 19  12  13  1   
 20  12  14  1   
 21  13  15  1   
 22  13  30  1   
 23  13  31  1   
 24  14  16  1   
 25  14  32  1   
 26  14  33  1   
 27  15  16  1   
 28  15  17  1   
 29  15  18  1   
 30  16  18  1   
 31  16  19  1   
 32  17  20  ar  
 33  17  21  ar  
 34  18  34  1   
 35  18  35  1   
 36  19  22  ar  
 37  19  23  ar  
@<TRIPOS>SUBSTRUCTURE
  1 ****  12 GROUP 4 **** **** 0

# MOE 2024.06 (io_trps.svl 2023.06)
