@<TRIPOS>MOLECULE
NONAME
41 42 1 0 0 
SMALL
USER_CHARGES


@<TRIPOS>ATOM
  1 O       -1.2980     0.6010    -2.0110 O.2   1 <1>  -0.5700 
  2 C       -1.5900     0.6780    -0.8430 C.2   1 <1>   0.5690 
  3 N       -2.0000    -0.4050    -0.1400 N.am  1 <1>  -0.7300 
  4 C       -1.5390     2.0300    -0.1310 C.3   1 <1>  -0.0190 
  5 C       -2.2950    -1.7220    -0.7310 C.3   1 <1>   0.2840 
  6 C       -2.6650     2.9570    -0.6270 C.3   1 <1>  -0.1600 
  7 C       -0.1580     2.7180    -0.2650 C.3   1 <1>  -0.1600 
  8 C       -3.7170    -2.0850    -0.3450 C.ar  1 <1>  -0.1440 
  9 C       -2.7460     4.2630     0.1930 C.3   1 <1>   0.2000 
 10 C       -0.2020     4.2440    -0.0410 C.3   1 <1>  -0.1600 
 11 C       -4.7790    -1.4930    -1.0130 C.ar  1 <1>  -0.1500 
 12 C       -3.9690    -2.9910     0.6770 C.ar  1 <1>  -0.1500 
 13 O       -3.1740     5.2970    -0.6590 O.3   1 <1>  -0.5600 
 14 C       -1.3880     4.6560     0.8340 C.3   1 <1>   0.2000 
 15 C       -6.0820    -1.8000    -0.6640 C.ar  1 <1>  -0.1500 
 16 C       -5.2720    -3.3000     1.0300 C.ar  1 <1>  -0.1500 
 17 C       -4.5390     5.3100    -0.9410 C.3   1 <1>   0.0400 
 18 O       -1.3440     6.0250     1.0000 O.3   1 <1>  -0.6800 
 19 C       -6.3240    -2.7000     0.3580 C.ar  1 <1>   0.0830 
 20 O       -7.5910    -2.9850     0.6910 O.3   1 <1>  -0.5330 
 21 H       -2.3310    -0.3010     0.8190 H     1 <1>   0.3700 
 22 H       -1.7110     1.8480     0.9150 H     1 <1>   0.0800 
 23 H       -2.2010    -1.6870    -1.8030 H     1 <1>   0.0800 
 24 H       -1.5990    -2.4500    -0.3520 H     1 <1>   0.0800 
 25 H       -3.6070     2.4420    -0.5680 H     1 <1>   0.0800 
 26 H       -2.4730     3.1910    -1.6610 H     1 <1>   0.0800 
 27 H        0.5180     2.2680     0.4410 H     1 <1>   0.0800 
 28 H        0.2460     2.5390    -1.2480 H     1 <1>   0.0800 
 29 H       -3.4630     4.1550     0.9890 H     1 <1>   0.0800 
 30 H       -0.3000     4.7310    -0.9970 H     1 <1>   0.0800 
 31 H        0.7190     4.5700     0.4100 H     1 <1>   0.0800 
 32 H       -4.5910    -0.7900    -1.8070 H     1 <1>   0.1500 
 33 H       -3.1540    -3.4570     1.2020 H     1 <1>   0.1500 
 34 H       -1.2880     4.2040     1.8050 H     1 <1>   0.0800 
 35 H       -6.9110    -1.3470    -1.1770 H     1 <1>   0.1500 
 36 H       -5.4600    -4.0020     1.8220 H     1 <1>   0.1500 
 37 H       -4.7410     6.1600    -1.5690 H     1 <1>   0.0800 
 38 H       -5.0930     5.4000    -0.0230 H     1 <1>   0.0800 
 39 H       -4.8090     4.4080    -1.4620 H     1 <1>   0.0800 
 40 H       -1.8800     6.3990     0.2640 H     1 <1>   0.4000 
 41 H       -7.6600    -3.6360     1.4110 H     1 <1>   0.4500 
@<TRIPOS>BOND
  1   1   2  2   
  2   2   3  am  
  3   2   4  1   
  4   3   5  1   
  5   3  21  1   
  6   4   6  1   
  7   4   7  1   
  8   4  22  1   
  9   5   8  1   
 10   5  23  1   
 11   5  24  1   
 12   6   9  1   
 13   6  25  1   
 14   6  26  1   
 15   7  10  1   
 16   7  27  1   
 17   7  28  1   
 18   8  11  ar  
 19   8  12  ar  
 20   9  13  1   
 21   9  14  1   
 22   9  29  1   
 23  10  14  1   
 24  10  30  1   
 25  10  31  1   
 26  11  15  ar  
 27  11  32  1   
 28  12  16  ar  
 29  12  33  1   
 30  13  17  1   
 31  14  18  1   
 32  14  34  1   
 33  15  19  ar  
 34  15  35  1   
 35  16  19  ar  
 36  16  36  1   
 37  17  37  1   
 38  17  38  1   
 39  17  39  1   
 40  18  40  1   
 41  19  20  1   
 42  20  41  1   
@<TRIPOS>SUBSTRUCTURE
  1 ****   2 GROUP 4 **** **** 0

# MOE 2024.06 (io_trps.svl 2023.06)
