@<TRIPOS>MOLECULE
NONAME
47 50 1 0 0 
SMALL
USER_CHARGES


@<TRIPOS>ATOM
  1 F       -0.8420     0.2850    -1.5360 F     1 <1>  -0.3400 
  2 C       -0.9760    -0.9790    -1.1470 C.3   1 <1>   1.2000 
  3 F       -0.6240    -1.7310    -2.1840 F     1 <1>  -0.3400 
  4 F       -0.0480    -1.1660    -0.2140 F     1 <1>  -0.3400 
  5 C       -2.3890    -1.2550    -0.6010 C.2   1 <1>   0.0060 
  6 N       -3.2610    -2.1120    -1.0370 N.2   1 <1>  -0.5650 
  7 N       -2.8370    -0.5440     0.4700 N.pl3 1 <1>   0.0330 
  8 C       -4.3380    -1.9660    -0.2170 C.ar  1 <1>   0.2270 
  9 C       -4.0900    -0.9880     0.7260 C.ar  1 <1>  -0.1520 
 10 C       -5.5550    -2.6340    -0.2280 C.ar  1 <1>  -0.1500 
 11 C       -5.0500    -0.6520     1.6820 C.ar  1 <1>  -0.1500 
 12 C       -6.5370    -2.3160     0.6980 C.ar  1 <1>   0.0860 
 13 C       -6.2540    -1.3180     1.6560 C.ar  1 <1>  -0.1500 
 14 C       -7.8200    -2.9870     0.6850 C.2   1 <1>   0.5440 
 15 O       -7.8610    -4.2020     0.7270 O.2   1 <1>  -0.5700 
 16 N       -9.0050    -2.2830     0.6140 N.am  1 <1>  -0.6600 
 17 C      -10.3050    -2.9900     0.8110 C.3   1 <1>   0.1400 
 18 C       -9.0660    -0.8550     0.1770 C.3   1 <1>   0.1400 
 19 C      -11.3960    -2.0020     1.2280 C.3   1 <1>  -0.1600 
 20 C      -10.3320    -0.6210    -0.6420 C.3   1 <1>  -0.1600 
 21 C      -11.5920    -0.8650     0.2070 C.3   1 <1>   0.4180 
 22 O      -11.8430     0.2840     0.9800 O.3   1 <1>  -0.5600 
 23 C      -12.7860    -1.1810    -0.6920 C.2   1 <1>  -0.2880 
 24 C      -12.5370     1.3430     0.3790 C.3   1 <1>   0.1200 
 25 C      -13.8660    -0.4050    -0.8110 C.2   1 <1>  -0.2760 
 26 C      -13.9430     0.9030    -0.0460 C.3   1 <1>  -0.0220 
 27 C      -15.0740    -0.7340    -1.6690 C.3   1 <1>  -0.1020 
 28 H       -2.3330     0.1830     0.9890 H     1 <1>   0.2700 
 29 H       -5.7220    -3.3990    -0.9640 H     1 <1>   0.1500 
 30 H       -4.8470     0.1060     2.4180 H     1 <1>   0.1500 
 31 H       -7.0130    -1.0880     2.3830 H     1 <1>   0.1500 
 32 H      -10.1920    -3.7440     1.5720 H     1 <1>   0.0800 
 33 H      -10.5790    -3.4810    -0.1070 H     1 <1>   0.0800 
 34 H       -8.2050    -0.6150    -0.4240 H     1 <1>   0.0800 
 35 H       -9.0720    -0.2160     1.0440 H     1 <1>   0.0800 
 36 H      -11.1160    -1.5920     2.1820 H     1 <1>   0.0800 
 37 H      -12.3220    -2.5300     1.3640 H     1 <1>   0.0800 
 38 H      -10.3200    -1.3000    -1.4750 H     1 <1>   0.0800 
 39 H      -10.3330     0.3720    -1.0450 H     1 <1>   0.0800 
 40 H      -12.6730    -2.1110    -1.2190 H     1 <1>   0.1500 
 41 H      -11.9790     1.6830    -0.4740 H     1 <1>   0.0800 
 42 H      -12.5970     2.1440     1.0950 H     1 <1>   0.0800 
 43 H      -14.3690     1.6720    -0.6640 H     1 <1>   0.0800 
 44 H      -14.5670     0.7830     0.8210 H     1 <1>   0.0800 
 45 H      -15.2150     0.0230    -2.4200 H     1 <1>   0.0800 
 46 H      -15.9570    -0.7880    -1.0580 H     1 <1>   0.0800 
 47 H      -14.9410    -1.6810    -2.1600 H     1 <1>   0.0800 
@<TRIPOS>BOND
  1   1   2  1   
  2   2   3  1   
  3   2   4  1   
  4   2   5  1   
  5   5   6  2   
  6   5   7  1   
  7   6   8  1   
  8   7   9  1   
  9   7  28  1   
 10   8   9  ar  
 11   8  10  ar  
 12   9  11  ar  
 13  10  12  ar  
 14  10  29  1   
 15  11  13  ar  
 16  11  30  1   
 17  12  13  ar  
 18  12  14  1   
 19  13  31  1   
 20  14  15  2   
 21  14  16  am  
 22  16  17  1   
 23  16  18  1   
 24  17  19  1   
 25  17  32  1   
 26  17  33  1   
 27  18  20  1   
 28  18  34  1   
 29  18  35  1   
 30  19  21  1   
 31  19  36  1   
 32  19  37  1   
 33  20  21  1   
 34  20  38  1   
 35  20  39  1   
 36  21  22  1   
 37  21  23  1   
 38  22  24  1   
 39  23  25  2   
 40  23  40  1   
 41  24  26  1   
 42  24  41  1   
 43  24  42  1   
 44  25  26  1   
 45  25  27  1   
 46  26  43  1   
 47  26  44  1   
 48  27  45  1   
 49  27  46  1   
 50  27  47  1   
@<TRIPOS>SUBSTRUCTURE
  1 ****  12 GROUP 4 **** **** 0

# MOE 2024.06 (io_trps.svl 2023.06)
