@<TRIPOS>MOLECULE
NONAME
47 49 1 0 0 
SMALL
USER_CHARGES


@<TRIPOS>ATOM
  1 F        2.3630    -0.0810    -2.4620 F     1 <1>  -0.1900 
  2 C        2.6600    -0.8760    -1.4710 C.ar  1 <1>   0.1900 
  3 C        3.4080    -0.3770    -0.4250 C.ar  1 <1>  -0.1500 
  4 C        2.2120    -2.1790    -1.5110 C.ar  1 <1>  -0.1500 
  5 C        3.7290    -1.2180     0.6330 C.ar  1 <1>   0.0730 
  6 C        2.5130    -3.0440    -0.4600 C.ar  1 <1>   0.0860 
  7 C        4.5070    -0.7390     1.7400 C.1   1 <1>   0.4840 
  8 C        3.2780    -2.5340     0.5930 C.ar  1 <1>  -0.1500 
  9 C        2.0660    -4.4270    -0.4550 C.2   1 <1>   0.5440 
 10 N        5.1170    -0.3550     2.6230 N.1   1 <1>  -0.5570 
 11 O        2.7350    -5.2860     0.0900 O.2   1 <1>  -0.5700 
 12 N        0.8730    -4.8220    -1.0210 N.am  1 <1>  -0.6600 
 13 C        0.6690    -6.2600    -1.3370 C.3   1 <1>   0.1400 
 14 C       -0.3900    -4.0970    -0.7170 C.3   1 <1>   0.1400 
 15 C        0.0520    -6.9560    -0.1030 C.3   1 <1>   0.4230 
 16 C       -1.0410    -4.7620     0.5050 C.3   1 <1>  -0.1600 
 17 N       -0.0100    -8.4730    -0.2110 N.4   1 <1>  -0.9590 
 18 C       -1.2900    -6.2910     0.3320 C.3   1 <1>   0.0000 
 19 C       -0.9530    -9.1170     0.7600 C.3   1 <1>   0.3430 
 20 C       -0.2410    -9.0170    -1.5900 C.3   1 <1>   0.2630 
 21 C       -1.7340    -6.8830     1.7030 C.3   1 <1>  -0.1600 
 22 C       -2.3840    -6.5400    -0.7470 C.3   1 <1>   0.1200 
 23 C       -1.1180    -8.2610     2.0150 C.3   1 <1>  -0.1600 
 24 O       -3.5300    -5.8040    -0.4950 O.3   1 <1>  -0.6800 
 25 H        3.7340     0.6490    -0.4390 H     1 <1>   0.1500 
 26 H        1.6410    -2.5190    -2.3560 H     1 <1>   0.1500 
 27 H        3.5300    -3.1940     1.4080 H     1 <1>   0.1500 
 28 H        0.0340    -6.3400    -2.2000 H     1 <1>   0.0800 
 29 H        1.6190    -6.7090    -1.5710 H     1 <1>   0.0800 
 30 H       -0.1920    -3.0620    -0.4990 H     1 <1>   0.0800 
 31 H       -1.0490    -4.1350    -1.5690 H     1 <1>   0.0800 
 32 H        0.7410    -6.7440     0.7000 H     1 <1>   0.0800 
 33 H       -0.3870    -4.5940     1.3440 H     1 <1>   0.0800 
 34 H       -1.9600    -4.2500     0.7290 H     1 <1>   0.0800 
 35 H        0.9340    -8.7790     0.0710 H     1 <1>   0.4500 
 36 H       -1.9210    -9.2400     0.3020 H     1 <1>   0.0800 
 37 H       -0.5880   -10.0960     1.0310 H     1 <1>   0.0800 
 38 H       -1.1990    -8.6980    -1.9670 H     1 <1>   0.0800 
 39 H       -0.2220   -10.0950    -1.5730 H     1 <1>   0.0800 
 40 H        0.5270    -8.6770    -2.2650 H     1 <1>   0.0800 
 41 H       -1.4590    -6.2220     2.5080 H     1 <1>   0.0800 
 42 H       -2.8060    -6.9650     1.7410 H     1 <1>   0.0800 
 43 H       -2.6710    -7.5750    -0.7880 H     1 <1>   0.0800 
 44 H       -2.0470    -6.2430    -1.7230 H     1 <1>   0.0800 
 45 H       -1.7500    -8.7780     2.7160 H     1 <1>   0.0800 
 46 H       -0.1580    -8.1410     2.4870 H     1 <1>   0.0800 
 47 H       -3.9620    -6.0640     0.3430 H     1 <1>   0.4000 
@<TRIPOS>BOND
  1   1   2  1   
  2   2   3  ar  
  3   2   4  ar  
  4   3   5  ar  
  5   3  25  1   
  6   4   6  ar  
  7   4  26  1   
  8   5   7  1   
  9   5   8  ar  
 10   6   8  ar  
 11   6   9  1   
 12   7  10  3   
 13   8  27  1   
 14   9  11  2   
 15   9  12  am  
 16  12  13  1   
 17  12  14  1   
 18  13  15  1   
 19  13  28  1   
 20  13  29  1   
 21  14  16  1   
 22  14  30  1   
 23  14  31  1   
 24  15  17  1   
 25  15  18  1   
 26  15  32  1   
 27  16  18  1   
 28  16  33  1   
 29  16  34  1   
 30  17  19  1   
 31  17  20  1   
 32  17  35  1   
 33  18  21  1   
 34  18  22  1   
 35  19  23  1   
 36  19  36  1   
 37  19  37  1   
 38  20  38  1   
 39  20  39  1   
 40  20  40  1   
 41  21  23  1   
 42  21  41  1   
 43  21  42  1   
 44  22  24  1   
 45  22  43  1   
 46  22  44  1   
 47  23  45  1   
 48  23  46  1   
 49  24  47  1   
@<TRIPOS>SUBSTRUCTURE
  1 ****  12 GROUP 4 **** **** 0

# MOE 2024.06 (io_trps.svl 2023.06)
