@<TRIPOS>MOLECULE
NONAME
48 50 1 0 0 
SMALL
USER_CHARGES


@<TRIPOS>ATOM
  1 CL      -3.3100     0.1470    -3.2450 Cl    1 <1>  -0.1770 
  2 C       -3.3840    -0.7360    -1.7360 C.ar  1 <1>   0.1770 
  3 C       -3.6090    -0.0740    -0.5350 C.ar  1 <1>   0.0820 
  4 C       -3.2120    -2.1070    -1.7890 C.ar  1 <1>  -0.1500 
  5 O       -3.7500     1.2760    -0.5390 O.3   1 <1>  -0.3630 
  6 C       -3.6840    -0.8300     0.6430 C.ar  1 <1>   0.0830 
  7 C       -3.2700    -2.8530    -0.6210 C.ar  1 <1>  -0.1440 
  8 C       -2.5530     2.0190    -0.4820 C.3   1 <1>   0.0400 
  9 O       -3.9320    -0.3410     1.8880 O.3   1 <1>  -0.3630 
 10 C       -3.4960    -2.2030     0.5840 C.ar  1 <1>  -0.1500 
 11 C       -3.1030    -4.3600    -0.6520 C.3   1 <1>   0.4860 
 12 C       -4.7350     0.8050     2.0790 C.3   1 <1>   0.0400 
 13 N       -4.4320    -4.9790    -0.3880 N.4   1 <1>  -0.9590 
 14 C       -4.3070    -6.4420    -0.0840 C.3   1 <1>   0.3430 
 15 C       -5.3900    -4.7130    -1.5030 C.3   1 <1>   0.3430 
 16 C       -5.6680    -7.0630     0.2870 C.3   1 <1>   0.0580 
 17 C       -6.7660    -5.2790    -1.1450 C.3   1 <1>  -0.1600 
 18 C       -5.5680    -8.5680     0.5370 C.2   1 <1>  -0.0380 
 19 C       -6.7090    -6.7770    -0.8090 C.3   1 <1>  -0.1600 
 20 N       -6.5880    -9.1680     1.2320 N.pl3 1 <1>  -0.5500 
 21 C       -4.5630    -9.3840     0.1340 C.2   1 <1>  -0.1360 
 22 C       -6.5770   -10.5110     1.4990 C.2   1 <1>   0.4400 
 23 C       -4.5950   -10.7710     0.4380 C.2   1 <1>   0.7670 
 24 N       -5.6410   -11.3050     1.1360 N.2   1 <1>  -0.6610 
 25 O       -3.6830   -11.4950     0.0800 O.2   1 <1>  -0.5700 
 26 H       -3.0330    -2.5640    -2.7470 H     1 <1>   0.1500 
 27 H       -2.8060     3.0640    -0.4620 H     1 <1>   0.0800 
 28 H       -1.9600     1.8030    -1.3540 H     1 <1>   0.0800 
 29 H       -2.0180     1.7510     0.4120 H     1 <1>   0.0800 
 30 H       -3.5330    -2.7460     1.5120 H     1 <1>   0.1500 
 31 H       -2.3980    -4.6510     0.1100 H     1 <1>   0.0800 
 32 H       -2.7230    -4.6760    -1.6100 H     1 <1>   0.0800 
 33 H       -5.0840     0.8050     3.0960 H     1 <1>   0.0800 
 34 H       -5.5720     0.7710     1.4030 H     1 <1>   0.0800 
 35 H       -4.1410     1.6830     1.9030 H     1 <1>   0.0800 
 36 H       -4.8070    -4.4990     0.4410 H     1 <1>   0.4500 
 37 H       -3.6200    -6.5920     0.7330 H     1 <1>   0.0800 
 38 H       -3.9170    -6.9520    -0.9500 H     1 <1>   0.0800 
 39 H       -5.0360    -5.1770    -2.4110 H     1 <1>   0.0800 
 40 H       -5.4760    -3.6510    -1.6770 H     1 <1>   0.0800 
 41 H       -5.9890    -6.6020     1.2050 H     1 <1>   0.0800 
 42 H       -7.4310    -5.1280    -1.9790 H     1 <1>   0.0800 
 43 H       -7.1720    -4.7280    -0.3140 H     1 <1>   0.0800 
 44 H       -7.6820    -7.1100    -0.4890 H     1 <1>   0.0800 
 45 H       -6.4540    -7.3330    -1.6970 H     1 <1>   0.0800 
 46 H       -7.3980    -8.6360     1.5670 H     1 <1>   0.4000 
 47 H       -3.7050    -9.0720    -0.4250 H     1 <1>   0.1500 
 48 H       -7.4170   -10.9020     2.0480 H     1 <1>   0.0600 
@<TRIPOS>BOND
  1   1   2  1   
  2   2   3  ar  
  3   2   4  ar  
  4   3   5  1   
  5   3   6  ar  
  6   4   7  ar  
  7   4  26  1   
  8   5   8  1   
  9   6   9  1   
 10   6  10  ar  
 11   7  10  ar  
 12   7  11  1   
 13   8  27  1   
 14   8  28  1   
 15   8  29  1   
 16   9  12  1   
 17  10  30  1   
 18  11  13  1   
 19  11  31  1   
 20  11  32  1   
 21  12  33  1   
 22  12  34  1   
 23  12  35  1   
 24  13  14  1   
 25  13  15  1   
 26  13  36  1   
 27  14  16  1   
 28  14  37  1   
 29  14  38  1   
 30  15  17  1   
 31  15  39  1   
 32  15  40  1   
 33  16  18  1   
 34  16  19  1   
 35  16  41  1   
 36  17  19  1   
 37  17  42  1   
 38  17  43  1   
 39  18  20  1   
 40  18  21  2   
 41  19  44  1   
 42  19  45  1   
 43  20  22  1   
 44  20  46  1   
 45  21  23  1   
 46  21  47  1   
 47  22  24  2   
 48  22  48  1   
 49  23  24  1   
 50  23  25  2   
@<TRIPOS>SUBSTRUCTURE
  1 ****  13 GROUP 4 **** **** 0

# MOE 2024.06 (io_trps.svl 2023.06)
