@<TRIPOS>MOLECULE
NONAME
47 48 1 0 0 
SMALL
USER_CHARGES


@<TRIPOS>ATOM
  1 S        0.1650    -0.3160     0.5570 S.o2  1 <1>   1.3330 
  2 O        0.7890    -1.1370     1.5700 O.2   1 <1>  -0.6500 
  3 O       -0.6700     0.7940     0.9550 O.2   1 <1>  -0.6500 
  4 N       -0.7490    -1.3380    -0.4450 N.am  1 <1>  -0.8490 
  5 C        1.4110     0.3180    -0.5660 C.3   1 <1>  -0.0550 
  6 C       -2.1500    -1.4250    -0.0210 C.3   1 <1>   0.1160 
  7 C       -0.1820    -2.6840    -0.5760 C.3   1 <1>   0.1160 
  8 C        2.3570     1.3510     0.0790 C.3   1 <1>  -0.0800 
  9 C        3.2270     2.0250    -0.9680 C.3   1 <1>   0.2200 
 10 C        3.4050     0.6860     0.9780 C.3   1 <1>   0.1200 
 11 N        3.6970     3.3280    -0.4460 N.am  1 <1>  -0.7300 
 12 C        4.4030     1.0590    -1.0710 C.3   1 <1>   0.1200 
 13 O        4.5330     0.4600     0.1840 O.3   1 <1>  -0.5600 
 14 C        3.4060     4.5300    -0.9980 C.2   1 <1>   0.5690 
 15 O        2.7330     4.6330    -1.9920 O.2   1 <1>  -0.5700 
 16 C        3.9600     5.7780    -0.3510 C.3   1 <1>  -0.0990 
 17 C        5.2860     6.1890    -1.0000 C.3   1 <1>  -0.0170 
 18 C        5.8540     7.4300    -0.3230 C.ar  1 <1>  -0.1440 
 19 C        6.5990     7.3460     0.8500 C.ar  1 <1>   0.1900 
 20 C        5.6310     8.6860    -0.8750 C.ar  1 <1>  -0.1500 
 21 F        6.8130     6.1760     1.3910 F     1 <1>  -0.1900 
 22 C        7.1250     8.4550     1.4820 C.ar  1 <1>  -0.1500 
 23 C        6.1460     9.8200    -0.2640 C.ar  1 <1>  -0.1500 
 24 C        6.8830     9.6830     0.9000 C.ar  1 <1>   0.1900 
 25 F        7.3640    10.7550     1.4700 F     1 <1>  -0.1900 
 26 H        1.9840    -0.4970    -0.9630 H     1 <1>   0.0800 
 27 H        0.9020     0.7890    -1.3850 H     1 <1>   0.0800 
 28 H       -2.7020    -2.0670    -0.6860 H     1 <1>   0.0800 
 29 H       -2.6040    -0.4480    -0.0440 H     1 <1>   0.0800 
 30 H       -2.2140    -1.8120     0.9830 H     1 <1>   0.0800 
 31 H       -0.7470    -3.2550    -1.2930 H     1 <1>   0.0800 
 32 H       -0.2020    -3.1950     0.3730 H     1 <1>   0.0800 
 33 H        0.8380    -2.6280    -0.9140 H     1 <1>   0.0800 
 34 H        1.7700     2.0730     0.6210 H     1 <1>   0.0800 
 35 H        2.7290     2.1570    -1.9140 H     1 <1>   0.0800 
 36 H        3.0850    -0.2510     1.4000 H     1 <1>   0.0800 
 37 H        3.6980     1.3490     1.7740 H     1 <1>   0.0800 
 38 H        4.3100     3.2650     0.3700 H     1 <1>   0.3700 
 39 H        5.3220     1.5520    -1.3350 H     1 <1>   0.0800 
 40 H        4.1920     0.2800    -1.7820 H     1 <1>   0.0800 
 41 H        3.2430     6.5710    -0.4650 H     1 <1>   0.0800 
 42 H        4.1010     5.6050     0.6990 H     1 <1>   0.0800 
 43 H        5.1250     6.3830    -2.0470 H     1 <1>   0.0800 
 44 H        5.9930     5.3800    -0.9300 H     1 <1>   0.0800 
 45 H        5.0560     8.7870    -1.7800 H     1 <1>   0.1500 
 46 H        7.6980     8.3680     2.3860 H     1 <1>   0.1500 
 47 H        5.9810    10.7980    -0.6810 H     1 <1>   0.1500 
@<TRIPOS>BOND
  1   1   2  2   
  2   1   3  2   
  3   1   4  am  
  4   1   5  1   
  5   4   6  1   
  6   4   7  1   
  7   5   8  1   
  8   5  26  1   
  9   5  27  1   
 10   6  28  1   
 11   6  29  1   
 12   6  30  1   
 13   7  31  1   
 14   7  32  1   
 15   7  33  1   
 16   8   9  1   
 17   8  10  1   
 18   8  34  1   
 19   9  11  1   
 20   9  12  1   
 21   9  35  1   
 22  10  13  1   
 23  10  36  1   
 24  10  37  1   
 25  11  14  am  
 26  11  38  1   
 27  12  13  1   
 28  12  39  1   
 29  12  40  1   
 30  14  15  2   
 31  14  16  1   
 32  16  17  1   
 33  16  41  1   
 34  16  42  1   
 35  17  18  1   
 36  17  43  1   
 37  17  44  1   
 38  18  19  ar  
 39  18  20  ar  
 40  19  21  1   
 41  19  22  ar  
 42  20  23  ar  
 43  20  45  1   
 44  22  24  ar  
 45  22  46  1   
 46  23  24  ar  
 47  23  47  1   
 48  24  25  1   
@<TRIPOS>SUBSTRUCTURE
  1 ****  11 GROUP 4 **** **** 0

# MOE 2024.06 (io_trps.svl 2023.06)
