@<TRIPOS>MOLECULE
NONAME
41 43 1 0 0 
SMALL
USER_CHARGES


@<TRIPOS>ATOM
  1 O        1.4920    -2.3730     1.4260 O.2   1 <1>  -0.5700 
  2 C        2.0100    -1.8600     0.4580 C.2   1 <1>   0.4230 
  3 C        2.1790    -0.4260     0.2990 C.ar  1 <1>   0.3960 
  4 C        2.4420    -2.8250    -0.6530 C.3   1 <1>  -0.0190 
  5 N        2.3040     0.0750    -0.9390 N.ar  1 <1>  -0.6200 
  6 C        2.1870     0.4000     1.4250 C.ar  1 <1>  -0.1500 
  7 C        1.1770    -3.5320    -1.1580 C.3   1 <1>   0.3430 
  8 C        3.5110    -3.8330    -0.1500 C.3   1 <1>  -0.1600 
  9 C        2.4450     1.3850    -1.0450 C.ar  1 <1>   0.1600 
 10 C        2.3340     1.7640     1.3020 C.ar  1 <1>  -0.1500 
 11 N        0.7940    -4.5630    -0.1460 N.4   1 <1>  -0.9590 
 12 C        3.1760    -5.2810    -0.5500 C.3   1 <1>  -0.1600 
 13 C        2.4670     2.2610     0.0260 C.ar  1 <1>  -0.1500 
 14 C        1.7610    -5.7120    -0.1230 C.3   1 <1>   0.3430 
 15 C       -0.6430    -4.9590    -0.2630 C.3   1 <1>   0.3430 
 16 C       -1.1580    -5.6490     1.0060 C.3   1 <1>   0.0960 
 17 N       -2.6000    -5.8880     0.8530 N.pl3 1 <1>   0.0480 
 18 C       -3.2220    -6.9480     0.3320 C.2   1 <1>   0.0360 
 19 C       -3.6110    -5.0670     1.1410 C.2   1 <1>   0.0360 
 20 N       -4.4960    -6.7800     0.2940 N.2   1 <1>  -0.3380 
 21 N       -4.7450    -5.5760     0.8110 N.2   1 <1>  -0.3380 
 22 H        2.8590    -2.2850    -1.4840 H     1 <1>   0.0800 
 23 H        2.0780    -0.0360     2.4020 H     1 <1>   0.1500 
 24 H        1.3680    -4.0010    -2.1100 H     1 <1>   0.0800 
 25 H        0.3880    -2.8070    -1.2830 H     1 <1>   0.0800 
 26 H        3.5920    -3.7880     0.9240 H     1 <1>   0.0800 
 27 H        4.4770    -3.5620    -0.5460 H     1 <1>   0.0800 
 28 H        2.5500     1.7910    -2.0380 H     1 <1>   0.1500 
 29 H        2.3440     2.4120     2.1630 H     1 <1>   0.1500 
 30 H        0.9210    -4.0460     0.7520 H     1 <1>   0.4500 
 31 H        3.8940    -5.9550    -0.1150 H     1 <1>   0.0800 
 32 H        3.2630    -5.3850    -1.6180 H     1 <1>   0.0800 
 33 H        2.5860     3.3170    -0.1400 H     1 <1>   0.1500 
 34 H        1.4240    -6.4950    -0.7830 H     1 <1>   0.0800 
 35 H        1.8030    -6.1150     0.8770 H     1 <1>   0.0800 
 36 H       -0.7710    -5.6140    -1.1100 H     1 <1>   0.0800 
 37 H       -1.2370    -4.0750    -0.4290 H     1 <1>   0.0800 
 38 H       -1.0050    -5.0200     1.8640 H     1 <1>   0.0800 
 39 H       -0.6660    -6.5930     1.1580 H     1 <1>   0.0800 
 40 H       -2.7180    -7.8320    -0.0160 H     1 <1>   0.1500 
 41 H       -3.4900    -4.0970     1.5900 H     1 <1>   0.1500 
@<TRIPOS>BOND
  1   1   2  2   
  2   2   3  1   
  3   2   4  1   
  4   3   5  ar  
  5   3   6  ar  
  6   4   7  1   
  7   4   8  1   
  8   4  22  1   
  9   5   9  ar  
 10   6  10  ar  
 11   6  23  1   
 12   7  11  1   
 13   7  24  1   
 14   7  25  1   
 15   8  12  1   
 16   8  26  1   
 17   8  27  1   
 18   9  13  ar  
 19   9  28  1   
 20  10  13  ar  
 21  10  29  1   
 22  11  14  1   
 23  11  15  1   
 24  11  30  1   
 25  12  14  1   
 26  12  31  1   
 27  12  32  1   
 28  13  33  1   
 29  14  34  1   
 30  14  35  1   
 31  15  16  1   
 32  15  36  1   
 33  15  37  1   
 34  16  17  1   
 35  16  38  1   
 36  16  39  1   
 37  17  18  1   
 38  17  19  1   
 39  18  20  2   
 40  18  40  1   
 41  19  21  2   
 42  19  41  1   
 43  20  21  1   
@<TRIPOS>SUBSTRUCTURE
  1 ****  11 GROUP 4 **** **** 0

# MOE 2024.06 (io_trps.svl 2023.06)
