@<TRIPOS>MOLECULE
NONAME
50 53 1 0 0 
SMALL
USER_CHARGES


@<TRIPOS>ATOM
  1 O       -0.5060    -0.4830     0.2980 O.2   1 <1>  -0.5700 
  2 C       -1.6620    -0.1600     0.1840 C.2   1 <1>   0.5690 
  3 N       -2.7600    -0.9740     0.2700 N.am  1 <1>  -0.4770 
  4 C       -2.0560     1.2680    -0.0820 C.3   1 <1>  -0.0990 
  5 C       -2.8000    -2.3670     0.4550 C.ar  1 <1>   0.1170 
  6 C       -4.0010    -0.1890     0.0990 C.3   1 <1>   0.1400 
  7 C       -3.5430     1.1710    -0.4400 C.3   1 <1>  -0.1600 
  8 C       -3.8390    -2.9720     1.1590 C.ar  1 <1>  -0.1500 
  9 C       -1.8090    -3.1970    -0.0610 C.ar  1 <1>  -0.1500 
 10 C       -3.8910    -4.3430     1.3240 C.ar  1 <1>  -0.1500 
 11 C       -1.8610    -4.5680     0.1060 C.ar  1 <1>  -0.1500 
 12 C       -2.9100    -5.1790     0.7900 C.ar  1 <1>   0.0860 
 13 C       -2.9650    -6.6190     0.9410 C.2   1 <1>   0.5440 
 14 O       -1.9990    -7.2230     1.3680 O.2   1 <1>  -0.5700 
 15 N       -4.0860    -7.3420     0.5940 N.am  1 <1>  -0.6600 
 16 C       -5.1380    -6.8640    -0.3420 C.3   1 <1>   0.1400 
 17 C       -4.1440    -8.8230     0.7120 C.3   1 <1>   0.1400 
 18 C       -6.0960    -8.0460    -0.4800 C.3   1 <1>   0.2000 
 19 C       -5.1890    -9.2700    -0.3170 C.3   1 <1>  -0.0800 
 20 O       -6.9970    -7.9920     0.5730 O.3   1 <1>  -0.6800 
 21 C       -5.9180   -10.5740     0.0580 C.3   1 <1>   0.0200 
 22 C       -5.0030   -11.7880     0.0720 C.2   1 <1>  -0.0400 
 23 O       -5.4820   -12.9260     0.4980 O.3   1 <1>  -0.0190 
 24 C       -3.7220   -11.9900    -0.2770 C.2   1 <1>  -0.1500 
 25 N       -4.5930   -13.8760     0.4560 N.2   1 <1>  -0.4100 
 26 C       -3.5210   -13.3410    -0.0060 C.2   1 <1>   0.1080 
 27 C       -2.2230   -14.0850    -0.2230 C.3   1 <1>  -0.0590 
 28 H       -1.9070     1.8410     0.8150 H     1 <1>   0.0800 
 29 H       -1.4730     1.6820    -0.8840 H     1 <1>   0.0800 
 30 H       -4.6690    -0.6790    -0.5890 H     1 <1>   0.0800 
 31 H       -4.4790    -0.0710     1.0560 H     1 <1>   0.0800 
 32 H       -3.6580     1.1780    -1.5100 H     1 <1>   0.0800 
 33 H       -4.1170     1.9800    -0.0240 H     1 <1>   0.0800 
 34 H       -4.6110    -2.3650     1.5940 H     1 <1>   0.1500 
 35 H       -0.9840    -2.7650    -0.6000 H     1 <1>   0.1500 
 36 H       -4.6990    -4.7820     1.8830 H     1 <1>   0.1500 
 37 H       -1.0750    -5.1850    -0.2950 H     1 <1>   0.1500 
 38 H       -5.6450    -5.9900     0.0260 H     1 <1>   0.0800 
 39 H       -4.6850    -6.6450    -1.2940 H     1 <1>   0.0800 
 40 H       -3.1810    -9.2620     0.5140 H     1 <1>   0.0800 
 41 H       -4.4480    -9.0810     1.7120 H     1 <1>   0.0800 
 42 H       -6.6480    -8.0390    -1.4040 H     1 <1>   0.0800 
 43 H       -4.6820    -9.4210    -1.2530 H     1 <1>   0.0800 
 44 H       -6.5000    -7.8710     1.4080 H     1 <1>   0.4000 
 45 H       -6.7100   -10.7550    -0.6480 H     1 <1>   0.0800 
 46 H       -6.3680   -10.4790     1.0310 H     1 <1>   0.0800 
 47 H       -2.9890   -11.3130    -0.6740 H     1 <1>   0.1500 
 48 H       -1.9460   -14.0420    -1.2600 H     1 <1>   0.0800 
 49 H       -2.3390   -15.1150     0.0640 H     1 <1>   0.0800 
 50 H       -1.4460   -13.6430     0.3730 H     1 <1>   0.0800 
@<TRIPOS>BOND
  1   1   2  2   
  2   2   3  am  
  3   2   4  1   
  4   3   5  1   
  5   3   6  1   
  6   4   7  1   
  7   4  28  1   
  8   4  29  1   
  9   5   8  ar  
 10   5   9  ar  
 11   6   7  1   
 12   6  30  1   
 13   6  31  1   
 14   7  32  1   
 15   7  33  1   
 16   8  10  ar  
 17   8  34  1   
 18   9  11  ar  
 19   9  35  1   
 20  10  12  ar  
 21  10  36  1   
 22  11  12  ar  
 23  11  37  1   
 24  12  13  1   
 25  13  14  2   
 26  13  15  am  
 27  15  16  1   
 28  15  17  1   
 29  16  18  1   
 30  16  38  1   
 31  16  39  1   
 32  17  19  1   
 33  17  40  1   
 34  17  41  1   
 35  18  19  1   
 36  18  20  1   
 37  18  42  1   
 38  19  21  1   
 39  19  43  1   
 40  20  44  1   
 41  21  22  1   
 42  21  45  1   
 43  21  46  1   
 44  22  23  1   
 45  22  24  2   
 46  23  25  1   
 47  24  26  1   
 48  24  47  1   
 49  25  26  2   
 50  26  27  1   
 51  27  48  1   
 52  27  49  1   
 53  27  50  1   
@<TRIPOS>SUBSTRUCTURE
  1 ****  13 GROUP 4 **** **** 0

# MOE 2024.06 (io_trps.svl 2023.06)
