@<TRIPOS>MOLECULE
NONAME
49 52 1 0 0 
SMALL
USER_CHARGES


@<TRIPOS>ATOM
  1 O       -0.8610     0.3490     0.3850 O.2   1 <1>  -0.5700 
  2 C       -1.1870     1.2970    -0.3160 C.2   1 <1>   0.7160 
  3 N       -2.3830     1.1780    -1.0120 N.am  1 <1>  -0.6600 
  4 C       -0.3180     2.4740    -0.3670 C.2   1 <1>   0.2030 
  5 C       -2.9930    -0.1680    -1.2220 C.3   1 <1>   0.1400 
  6 C       -3.1180     2.3570    -1.5540 C.3   1 <1>   0.1400 
  7 N       -0.3230     3.4570    -1.2560 N.2   1 <1>  -0.7070 
  8 C        0.6980     2.7010     0.5740 C.2   1 <1>  -0.1500 
  9 C       -3.9400    -0.5380    -0.0710 C.3   1 <1>   0.1400 
 10 C       -4.6440     2.2520    -1.4220 C.3   1 <1>  -0.1600 
 11 N        0.6650     4.2840    -0.8840 N.pl3 1 <1>   0.3000 
 12 C        1.2970     3.8530     0.2210 C.2   1 <1>  -0.2370 
 13 N       -5.2360     0.2140    -0.1350 N.am  1 <1>  -0.6600 
 14 C       -5.1110     1.7000    -0.0710 C.3   1 <1>   0.1400 
 15 C        2.4520     4.5920     0.8640 C.3   1 <1>  -0.0150 
 16 C       -6.4800    -0.3640    -0.2680 C.2   1 <1>   0.5690 
 17 C        2.6530     4.5270     2.3430 C.3   1 <1>  -0.2000 
 18 C        2.1770     5.7970     1.7020 C.3   1 <1>  -0.2000 
 19 O       -7.4510     0.3060    -0.5310 O.2   1 <1>  -0.5700 
 20 C       -6.6590    -1.8750    -0.1160 C.3   1 <1>   0.0440 
 21 C       -8.0880    -2.3490     0.1520 C.ar  1 <1>  -0.1430 
 22 C       -9.0730    -2.2250    -0.8200 C.ar  1 <1>   0.1600 
 23 C       -8.4240    -2.9280     1.3600 C.ar  1 <1>  -0.1500 
 24 N      -10.3250    -2.6410    -0.6940 N.ar  1 <1>  -0.6200 
 25 C       -9.7260    -3.3540     1.5140 C.ar  1 <1>  -0.1500 
 26 C      -10.6210    -3.1910     0.4710 C.ar  1 <1>   0.1600 
 27 H       -2.2050    -0.9010    -1.2670 H     1 <1>   0.0800 
 28 H       -3.5150    -0.2020    -2.1620 H     1 <1>   0.0800 
 29 H       -2.8480     2.4980    -2.5870 H     1 <1>   0.0800 
 30 H       -2.8120     3.2360    -1.0140 H     1 <1>   0.0800 
 31 H        0.9240     2.0530     1.4020 H     1 <1>   0.1500 
 32 H       -3.4540    -0.3400     0.8690 H     1 <1>   0.0800 
 33 H       -4.1140    -1.5950    -0.1270 H     1 <1>   0.0800 
 34 H       -5.0560     1.6640    -2.2230 H     1 <1>   0.0800 
 35 H       -5.0420     3.2440    -1.5350 H     1 <1>   0.0800 
 36 H        0.8950     5.1430    -1.3980 H     1 <1>   0.2700 
 37 H       -6.0680     2.1310     0.1710 H     1 <1>   0.0800 
 38 H       -4.4270     1.9790     0.7120 H     1 <1>   0.0800 
 39 H        3.3390     4.5960     0.2520 H     1 <1>   0.1000 
 40 H        3.6580     4.4790     2.7240 H     1 <1>   0.1000 
 41 H        1.9580     3.9600     2.9380 H     1 <1>   0.1000 
 42 H        1.1570     6.0980     1.8650 H     1 <1>   0.1000 
 43 H        2.8530     6.6330     1.6490 H     1 <1>   0.1000 
 44 H       -6.0410    -2.2090     0.6940 H     1 <1>   0.0800 
 45 H       -6.3070    -2.3420    -1.0160 H     1 <1>   0.0800 
 46 H       -8.8170    -1.7550    -1.7540 H     1 <1>   0.1500 
 47 H       -7.7100    -3.0460     2.1560 H     1 <1>   0.1500 
 48 H      -10.0480    -3.8100     2.4320 H     1 <1>   0.1500 
 49 H      -11.6340    -3.5310     0.6010 H     1 <1>   0.1500 
@<TRIPOS>BOND
  1   1   2  2   
  2   2   3  am  
  3   2   4  1   
  4   3   5  1   
  5   3   6  1   
  6   4   7  2   
  7   4   8  1   
  8   5   9  1   
  9   5  27  1   
 10   5  28  1   
 11   6  10  1   
 12   6  29  1   
 13   6  30  1   
 14   7  11  1   
 15   8  12  2   
 16   8  31  1   
 17   9  13  1   
 18   9  32  1   
 19   9  33  1   
 20  10  14  1   
 21  10  34  1   
 22  10  35  1   
 23  11  12  1   
 24  11  36  1   
 25  12  15  1   
 26  13  14  1   
 27  13  16  am  
 28  14  37  1   
 29  14  38  1   
 30  15  17  1   
 31  15  18  1   
 32  15  39  1   
 33  16  19  2   
 34  16  20  1   
 35  17  18  1   
 36  17  40  1   
 37  17  41  1   
 38  18  42  1   
 39  18  43  1   
 40  20  21  1   
 41  20  44  1   
 42  20  45  1   
 43  21  22  ar  
 44  21  23  ar  
 45  22  24  ar  
 46  22  46  1   
 47  23  25  ar  
 48  23  47  1   
 49  24  26  ar  
 50  25  26  ar  
 51  25  48  1   
 52  26  49  1   
@<TRIPOS>SUBSTRUCTURE
  1 ****   9 GROUP 4 **** **** 0

# MOE 2024.06 (io_trps.svl 2023.06)
