@<TRIPOS>MOLECULE
NONAME
43 46 1 0 0 
SMALL
USER_CHARGES


@<TRIPOS>ATOM
  1 CL      -2.0820    -3.0450    -1.1680 Cl    1 <1>  -0.1770 
  2 C       -2.5850    -1.4620    -0.6330 C.ar  1 <1>   0.1770 
  3 C       -1.7460    -0.6990     0.1610 C.ar  1 <1>   0.1600 
  4 C       -3.8190    -0.9820    -1.0030 C.ar  1 <1>  -0.1500 
  5 N       -2.0530     0.5120     0.6070 N.ar  1 <1>  -0.6200 
  6 C       -4.1770     0.2790    -0.5430 C.ar  1 <1>   0.0860 
  7 C       -3.2450     0.9650     0.2380 C.ar  1 <1>   0.1600 
  8 C       -5.4520     0.8880    -0.8510 C.2   1 <1>   0.5440 
  9 O       -5.4750     2.0460    -1.2200 O.2   1 <1>  -0.5700 
 10 N       -6.6390     0.2000    -0.7220 N.am  1 <1>  -0.6600 
 11 C       -7.9250     0.7660    -1.2380 C.3   1 <1>   0.1400 
 12 C       -6.7940    -1.0130     0.1410 C.3   1 <1>   0.1400 
 13 C       -8.8400     1.2250    -0.0790 C.3   1 <1>   0.1430 
 14 C       -8.1880    -1.0880     0.7880 C.3   1 <1>  -0.1600 
 15 C      -10.2600     1.2750    -0.6190 C.ar  1 <1>   0.1670 
 16 C       -8.7070     0.3080     1.1650 C.3   1 <1>  -0.1600 
 17 C       -8.5860     2.7090     0.2930 C.3   1 <1>  -0.1600 
 18 N      -11.0280     0.2330    -0.8510 N.ar  1 <1>  -0.6200 
 19 C      -10.6600     2.5560    -0.8610 C.ar  1 <1>  -0.1430 
 20 C       -9.5810     3.5530    -0.5220 C.3   1 <1>  -0.0170 
 21 C      -12.2270     0.5310    -1.3290 C.ar  1 <1>   0.4770 
 22 C      -11.9240     2.7490    -1.3600 C.ar  1 <1>   0.1600 
 23 N      -12.7250     1.7310    -1.6000 N.ar  1 <1>  -0.6200 
 24 C      -13.1380    -0.6400    -1.6060 C.3   1 <1>  -0.0970 
 25 H       -0.7870    -1.1020     0.4350 H     1 <1>   0.1500 
 26 H       -4.4760    -1.5600    -1.6280 H     1 <1>   0.1500 
 27 H       -3.5140     1.9530     0.5760 H     1 <1>   0.1500 
 28 H       -8.4250    -0.0050    -1.7990 H     1 <1>   0.0800 
 29 H       -7.7440     1.5820    -1.9160 H     1 <1>   0.0800 
 30 H       -6.0550    -0.9820     0.9230 H     1 <1>   0.0800 
 31 H       -6.6250    -1.8980    -0.4490 H     1 <1>   0.0800 
 32 H       -8.1410    -1.7130     1.6620 H     1 <1>   0.0800 
 33 H       -8.8770    -1.5520     0.1020 H     1 <1>   0.0800 
 34 H       -9.6560     0.2290     1.6660 H     1 <1>   0.0800 
 35 H       -8.0060     0.7410     1.8580 H     1 <1>   0.0800 
 36 H       -7.5680     3.0070     0.1160 H     1 <1>   0.0800 
 37 H       -8.8060     2.8600     1.3360 H     1 <1>   0.0800 
 38 H       -9.1210     3.9120    -1.4260 H     1 <1>   0.0800 
 39 H       -9.9630     4.3800     0.0510 H     1 <1>   0.0800 
 40 H      -12.2840     3.7420    -1.5660 H     1 <1>   0.1500 
 41 H      -12.9220    -1.4440    -0.9280 H     1 <1>   0.0800 
 42 H      -12.9850    -0.9750    -2.6140 H     1 <1>   0.0800 
 43 H      -14.1640    -0.3460    -1.4820 H     1 <1>   0.0800 
@<TRIPOS>BOND
  1   1   2  1   
  2   2   3  ar  
  3   2   4  ar  
  4   3   5  ar  
  5   3  25  1   
  6   4   6  ar  
  7   4  26  1   
  8   5   7  ar  
  9   6   7  ar  
 10   6   8  1   
 11   7  27  1   
 12   8   9  2   
 13   8  10  am  
 14  10  11  1   
 15  10  12  1   
 16  11  13  1   
 17  11  28  1   
 18  11  29  1   
 19  12  14  1   
 20  12  30  1   
 21  12  31  1   
 22  13  15  1   
 23  13  16  1   
 24  13  17  1   
 25  14  16  1   
 26  14  32  1   
 27  14  33  1   
 28  15  18  ar  
 29  15  19  ar  
 30  16  34  1   
 31  16  35  1   
 32  17  20  1   
 33  17  36  1   
 34  17  37  1   
 35  18  21  ar  
 36  19  20  1   
 37  19  22  ar  
 38  20  38  1   
 39  20  39  1   
 40  21  23  ar  
 41  21  24  1   
 42  22  23  ar  
 43  22  40  1   
 44  24  41  1   
 45  24  42  1   
 46  24  43  1   
@<TRIPOS>SUBSTRUCTURE
  1 ****  10 GROUP 4 **** **** 0

# MOE 2024.06 (io_trps.svl 2023.06)
