@<TRIPOS>MOLECULE
NONAME
47 50 1 0 0 
SMALL
USER_CHARGES


@<TRIPOS>ATOM
  1 O        4.4890    -1.5840    -1.8860 O.2   1 <1>  -0.5700 
  2 C        3.5810    -1.5870    -1.0730 C.2   1 <1>   0.5440 
  3 N        3.3690    -0.4050    -0.4100 N.am  1 <1>  -0.6600 
  4 C        2.8210    -2.7900    -0.7740 C.ar  1 <1>   0.0860 
  5 C        4.0360    -0.2450     0.9310 C.3   1 <1>   0.2200 
  6 C        3.0790     0.8150    -1.2270 C.3   1 <1>   0.1400 
  7 C        3.2420    -4.0400    -1.2320 C.ar  1 <1>  -0.1500 
  8 C        1.6460    -2.7570    -0.0200 C.ar  1 <1>  -0.1500 
  9 C        3.3870     0.8440     1.8000 C.3   1 <1>   0.1200 
 10 C        5.5600     0.0100     0.7760 C.3   1 <1>   0.3430 
 11 C        3.9330     2.0520    -0.8880 C.3   1 <1>  -0.0800 
 12 C        2.5390    -5.1940    -0.9450 C.ar  1 <1>  -0.1500 
 13 C        0.9370    -3.9080     0.2700 C.ar  1 <1>  -0.1500 
 14 O        3.9530     2.0920     1.5290 O.3   1 <1>  -0.5600 
 15 N        5.9410     0.4750    -0.6030 N.4   1 <1>  -0.9590 
 16 C        3.4690     2.7430     0.4040 C.3   1 <1>   0.1200 
 17 C        5.4640     1.8540    -0.9340 C.3   1 <1>   0.3430 
 18 C        1.3750    -5.1470    -0.1870 C.ar  1 <1>  -0.0230 
 19 C        7.3990     0.3180    -0.8560 C.3   1 <1>   0.2630 
 20 N        0.6550    -6.3310     0.1100 N.pl3 1 <1>   0.3260 
 21 C       -0.6860    -6.5500     0.0490 C.2   1 <1>   0.0360 
 22 C        1.1450    -7.5180     0.5360 C.2   1 <1>  -0.3020 
 23 N       -1.0590    -7.7390     0.3940 N.2   1 <1>  -0.5650 
 24 C        0.0990    -8.3530     0.7020 C.2   1 <1>   0.0770 
 25 H        3.9130    -1.1710     1.4670 H     1 <1>   0.0800 
 26 H        3.2200     0.5790    -2.2700 H     1 <1>   0.0800 
 27 H        2.0380     1.0620    -1.1060 H     1 <1>   0.0800 
 28 H        4.1380    -4.1070    -1.8270 H     1 <1>   0.1500 
 29 H        1.2740    -1.8150     0.3420 H     1 <1>   0.1500 
 30 H        3.5930     0.6380     2.8360 H     1 <1>   0.0800 
 31 H        2.3190     0.8820     1.6700 H     1 <1>   0.0800 
 32 H        6.0680    -0.9170     0.9830 H     1 <1>   0.0800 
 33 H        5.8830     0.7270     1.5130 H     1 <1>   0.0800 
 34 H        3.7130     2.7670    -1.6600 H     1 <1>   0.0800 
 35 H        2.8950    -6.1400    -1.3190 H     1 <1>   0.1500 
 36 H        0.0370    -3.8440     0.8590 H     1 <1>   0.1500 
 37 H        5.4280    -0.1770    -1.2400 H     1 <1>   0.4500 
 38 H        2.3940     2.8010     0.4650 H     1 <1>   0.0800 
 39 H        3.8560     3.7480     0.4390 H     1 <1>   0.0800 
 40 H        5.9260     2.5640    -0.2670 H     1 <1>   0.0800 
 41 H        5.7930     2.0890    -1.9330 H     1 <1>   0.0800 
 42 H        7.9650     0.9580    -0.1990 H     1 <1>   0.0800 
 43 H        7.6290     0.5750    -1.8770 H     1 <1>   0.0800 
 44 H        7.6970    -0.7050    -0.6880 H     1 <1>   0.0800 
 45 H       -1.3610    -5.7760    -0.2690 H     1 <1>   0.1500 
 46 H        2.1930    -7.6900     0.6950 H     1 <1>   0.1500 
 47 H        0.1130    -9.3800     1.0320 H     1 <1>   0.1500 
@<TRIPOS>BOND
  1   1   2  2   
  2   2   3  am  
  3   2   4  1   
  4   3   5  1   
  5   3   6  1   
  6   4   7  ar  
  7   4   8  ar  
  8   5   9  1   
  9   5  10  1   
 10   5  25  1   
 11   6  11  1   
 12   6  26  1   
 13   6  27  1   
 14   7  12  ar  
 15   7  28  1   
 16   8  13  ar  
 17   8  29  1   
 18   9  14  1   
 19   9  30  1   
 20   9  31  1   
 21  10  15  1   
 22  10  32  1   
 23  10  33  1   
 24  11  16  1   
 25  11  17  1   
 26  11  34  1   
 27  12  18  ar  
 28  12  35  1   
 29  13  18  ar  
 30  13  36  1   
 31  14  16  1   
 32  15  17  1   
 33  15  19  1   
 34  15  37  1   
 35  16  38  1   
 36  16  39  1   
 37  17  40  1   
 38  17  41  1   
 39  18  20  1   
 40  19  42  1   
 41  19  43  1   
 42  19  44  1   
 43  20  21  1   
 44  20  22  1   
 45  21  23  2   
 46  21  45  1   
 47  22  24  2   
 48  22  46  1   
 49  23  24  1   
 50  24  47  1   
@<TRIPOS>SUBSTRUCTURE
  1 ****   4 GROUP 4 **** **** 0

# MOE 2024.06 (io_trps.svl 2023.06)
