@<TRIPOS>MOLECULE
NONAME
58 61 1 0 0 
SMALL
USER_CHARGES


@<TRIPOS>ATOM
  1 O        0.3000     3.3570     1.7810 O.2   1 <1>  -0.5700 
  2 C        0.4040     2.5640     0.8630 C.2   1 <1>   0.5440 
  3 N        0.9700     2.9840    -0.3160 N.am  1 <1>  -0.6600 
  4 C       -0.0610     1.2000     1.0290 C.ar  1 <1>   0.0860 
  5 C        0.8610     4.4100    -0.7890 C.3   1 <1>   0.2810 
  6 C        1.8640     2.1270    -1.1310 C.3   1 <1>   0.1400 
  7 C        0.2060     0.4820     2.1940 C.ar  1 <1>  -0.1500 
  8 C       -0.8030     0.5630     0.0340 C.ar  1 <1>  -0.1500 
  9 C       -0.3200     4.5810    -1.7830 C.2   1 <1>   0.5690 
 10 C        2.2160     4.8890    -1.3740 C.3   1 <1>  -0.1600 
 11 C        3.3100     2.6380    -1.0030 C.3   1 <1>  -0.1600 
 12 C       -0.2350    -0.8200     2.3540 C.ar  1 <1>  -0.1500 
 13 C       -1.2480    -0.7370     0.1870 C.ar  1 <1>  -0.1500 
 14 O       -0.1260     4.2960    -2.9470 O.2   1 <1>  -0.5700 
 15 N       -1.5600     5.0300    -1.3740 N.am  1 <1>  -0.6600 
 16 C        3.4110     4.1550    -0.7460 C.3   1 <1>  -0.1600 
 17 C       -0.9620    -1.4320     1.3490 C.ar  1 <1>  -0.1500 
 18 C       -2.7160     5.0220    -2.3140 C.3   1 <1>   0.1400 
 19 C       -1.8970     5.3360     0.0520 C.3   1 <1>   0.1400 
 20 C       -3.7810     4.0130    -1.8560 C.3   1 <1>  -0.1600 
 21 C       -3.3980     5.2040     0.3370 C.3   1 <1>  -0.1600 
 22 C       -3.9720     3.9460    -0.3280 C.3   1 <1>   0.4180 
 23 O       -3.2490     2.8200     0.1100 O.3   1 <1>  -0.5600 
 24 C       -5.4500     3.7790     0.0200 C.2   1 <1>  -0.2880 
 25 C       -3.5450     2.3160     1.3830 C.3   1 <1>   0.1200 
 26 C       -5.9320     2.8080     0.8010 C.2   1 <1>  -0.2760 
 27 C       -4.9880     1.7980     1.4290 C.3   1 <1>  -0.0220 
 28 C       -7.4020     2.6120     1.1240 C.3   1 <1>  -0.1020 
 29 H        0.6720     5.0290     0.0670 H     1 <1>   0.0800 
 30 H        1.5460     2.1840    -2.1590 H     1 <1>   0.0800 
 31 H        1.8100     1.0980    -0.8200 H     1 <1>   0.0800 
 32 H        0.7660     0.9610     2.9790 H     1 <1>   0.1500 
 33 H       -1.0440     1.1090    -0.8630 H     1 <1>   0.1500 
 34 H        2.3070     5.9490    -1.2160 H     1 <1>   0.0800 
 35 H        2.2430     4.7270    -2.4370 H     1 <1>   0.0800 
 36 H        3.8330     2.3900    -1.9100 H     1 <1>   0.0800 
 37 H        3.7990     2.1140    -0.2010 H     1 <1>   0.0800 
 38 H       -0.0150    -1.3550     3.2620 H     1 <1>   0.1500 
 39 H       -1.8200    -1.2050    -0.5960 H     1 <1>   0.1500 
 40 H        3.4030     4.3330     0.3160 H     1 <1>   0.0800 
 41 H        4.3380     4.5360    -1.1400 H     1 <1>   0.0800 
 42 H       -1.3060    -2.4450     1.4700 H     1 <1>   0.1500 
 43 H       -2.4050     4.7830    -3.3160 H     1 <1>   0.0800 
 44 H       -3.1390     6.0110    -2.3370 H     1 <1>   0.0800 
 45 H       -1.5620     6.3280     0.2990 H     1 <1>   0.0800 
 46 H       -1.3910     4.6390     0.6910 H     1 <1>   0.0800 
 47 H       -3.5270     3.0360    -2.2260 H     1 <1>   0.0800 
 48 H       -4.7050     4.2920    -2.3270 H     1 <1>   0.0800 
 49 H       -3.9100     6.0700    -0.0380 H     1 <1>   0.0800 
 50 H       -3.5680     5.1800     1.3960 H     1 <1>   0.0800 
 51 H       -6.0740     4.5270    -0.4330 H     1 <1>   0.1500 
 52 H       -3.3940     3.0950     2.1080 H     1 <1>   0.0800 
 53 H       -2.8570     1.5170     1.5930 H     1 <1>   0.0800 
 54 H       -5.2540     1.6230     2.4560 H     1 <1>   0.0800 
 55 H       -5.0510     0.8630     0.9010 H     1 <1>   0.0800 
 56 H       -7.7260     1.6420     0.7930 H     1 <1>   0.0800 
 57 H       -7.9990     3.3580     0.6290 H     1 <1>   0.0800 
 58 H       -7.5650     2.6920     2.1840 H     1 <1>   0.0800 
@<TRIPOS>BOND
  1   1   2  2   
  2   2   3  am  
  3   2   4  1   
  4   3   5  1   
  5   3   6  1   
  6   4   7  ar  
  7   4   8  ar  
  8   5   9  1   
  9   5  10  1   
 10   5  29  1   
 11   6  11  1   
 12   6  30  1   
 13   6  31  1   
 14   7  12  ar  
 15   7  32  1   
 16   8  13  ar  
 17   8  33  1   
 18   9  14  2   
 19   9  15  am  
 20  10  16  1   
 21  10  34  1   
 22  10  35  1   
 23  11  16  1   
 24  11  36  1   
 25  11  37  1   
 26  12  17  ar  
 27  12  38  1   
 28  13  17  ar  
 29  13  39  1   
 30  15  18  1   
 31  15  19  1   
 32  16  40  1   
 33  16  41  1   
 34  17  42  1   
 35  18  20  1   
 36  18  43  1   
 37  18  44  1   
 38  19  21  1   
 39  19  45  1   
 40  19  46  1   
 41  20  22  1   
 42  20  47  1   
 43  20  48  1   
 44  21  22  1   
 45  21  49  1   
 46  21  50  1   
 47  22  23  1   
 48  22  24  1   
 49  23  25  1   
 50  24  26  2   
 51  24  51  1   
 52  25  27  1   
 53  25  52  1   
 54  25  53  1   
 55  26  27  1   
 56  26  28  1   
 57  27  54  1   
 58  27  55  1   
 59  28  56  1   
 60  28  57  1   
 61  28  58  1   
@<TRIPOS>SUBSTRUCTURE
  1 ****  23 GROUP 4 **** **** 0

# MOE 2024.06 (io_trps.svl 2023.06)
