@<TRIPOS>MOLECULE
NONAME
42 44 1 0 0 
SMALL
USER_CHARGES


@<TRIPOS>ATOM
  1 CL      -4.3290    -0.0800     2.6220 Cl    1 <1>  -0.1770 
  2 C       -4.1030     0.8870     1.1850 C.ar  1 <1>   0.1770 
  3 C       -3.6370     0.3000     0.0120 C.ar  1 <1>   0.0860 
  4 C       -4.3980     2.2330     1.2560 C.ar  1 <1>  -0.1500 
  5 C       -3.3310    -1.1080    -0.0630 C.2   1 <1>   0.5440 
  6 C       -3.4640     1.1300    -1.0950 C.ar  1 <1>  -0.1500 
  7 C       -4.2270     3.0330     0.1400 C.ar  1 <1>  -0.1500 
  8 O       -2.1730    -1.4640    -0.1500 O.2   1 <1>  -0.5700 
  9 N       -4.3160    -2.0660    -0.0690 N.am  1 <1>  -0.6600 
 10 C       -3.7560     2.4900    -1.0530 C.ar  1 <1>  -0.1430 
 11 C       -5.7830    -1.8360    -0.0570 C.3   1 <1>   0.1400 
 12 C       -4.0200    -3.5110     0.0890 C.3   1 <1>   0.1400 
 13 C       -3.5530     3.3810    -2.2920 C.3   1 <1>   1.1640 
 14 C       -6.3480    -3.0870     0.6120 C.3   1 <1>   0.2000 
 15 C       -5.3890    -4.1990     0.1700 C.3   1 <1>  -0.0800 
 16 F       -3.6640     2.7100    -3.4320 F     1 <1>  -0.3400 
 17 F       -2.3550     3.9470    -2.3030 F     1 <1>  -0.3400 
 18 F       -4.4360     4.3700    -2.3580 F     1 <1>  -0.3400 
 19 O       -6.2650    -2.9140     1.9850 O.3   1 <1>  -0.6800 
 20 C       -5.4020    -5.4570     1.0600 C.3   1 <1>   0.0200 
 21 C       -4.5600    -6.5930     0.5020 C.2   1 <1>  -0.0400 
 22 O       -4.4180    -7.6760     1.2190 O.3   1 <1>  -0.0190 
 23 C       -3.8750    -6.7690    -0.6400 C.2   1 <1>  -0.1500 
 24 N       -3.6760    -8.5630     0.6220 N.2   1 <1>  -0.4100 
 25 C       -3.3330    -8.0430    -0.5010 C.2   1 <1>   0.1080 
 26 C       -2.4590    -8.7300    -1.5250 C.3   1 <1>  -0.0590 
 27 H       -4.7580     2.6520     2.1810 H     1 <1>   0.1500 
 28 H       -3.0840     0.6820    -2.0000 H     1 <1>   0.1500 
 29 H       -4.4590     4.0850     0.2090 H     1 <1>   0.1500 
 30 H       -6.0620    -0.9440     0.4760 H     1 <1>   0.0800 
 31 H       -6.1340    -1.7750    -1.0720 H     1 <1>   0.0800 
 32 H       -3.4390    -3.8670    -0.7450 H     1 <1>   0.0800 
 33 H       -3.4580    -3.6550     0.9970 H     1 <1>   0.0800 
 34 H       -7.3750    -3.2800     0.3530 H     1 <1>   0.0800 
 35 H       -5.6690    -4.4860    -0.8280 H     1 <1>   0.0800 
 36 H       -5.3850    -2.5440     2.2080 H     1 <1>   0.4000 
 37 H       -6.4140    -5.8060     1.1660 H     1 <1>   0.0800 
 38 H       -5.0380    -5.2160     2.0430 H     1 <1>   0.0800 
 39 H       -3.7470    -6.1190    -1.4850 H     1 <1>   0.1500 
 40 H       -1.5710    -8.1500    -1.6950 H     1 <1>   0.0800 
 41 H       -2.9950    -8.8390    -2.4490 H     1 <1>   0.0800 
 42 H       -2.1750    -9.7050    -1.1700 H     1 <1>   0.0800 
@<TRIPOS>BOND
  1   1   2  1   
  2   2   3  ar  
  3   2   4  ar  
  4   3   5  1   
  5   3   6  ar  
  6   4   7  ar  
  7   4  27  1   
  8   5   8  2   
  9   5   9  am  
 10   6  10  ar  
 11   6  28  1   
 12   7  10  ar  
 13   7  29  1   
 14   9  11  1   
 15   9  12  1   
 16  10  13  1   
 17  11  14  1   
 18  11  30  1   
 19  11  31  1   
 20  12  15  1   
 21  12  32  1   
 22  12  33  1   
 23  13  16  1   
 24  13  17  1   
 25  13  18  1   
 26  14  15  1   
 27  14  19  1   
 28  14  34  1   
 29  15  20  1   
 30  15  35  1   
 31  19  36  1   
 32  20  21  1   
 33  20  37  1   
 34  20  38  1   
 35  21  22  1   
 36  21  23  2   
 37  22  24  1   
 38  23  25  1   
 39  23  39  1   
 40  24  25  2   
 41  25  26  1   
 42  26  40  1   
 43  26  41  1   
 44  26  42  1   
@<TRIPOS>SUBSTRUCTURE
  1 ****   9 GROUP 4 **** **** 0

# MOE 2024.06 (io_trps.svl 2023.06)
