@<TRIPOS>MOLECULE
NONAME
41 43 1 0 0 
SMALL
USER_CHARGES


@<TRIPOS>ATOM
  1 S       -0.0930    -0.2410     0.1570 S.o2  1 <1>   1.3330 
  2 O       -0.8290     1.0020     0.1470 O.2   1 <1>  -0.6500 
  3 O        0.0650    -0.9670     1.3980 O.2   1 <1>  -0.6500 
  4 N       -0.8010    -1.2930    -0.9730 N.am  1 <1>  -0.8490 
  5 C        1.5200     0.0720    -0.5620 C.3   1 <1>  -0.0550 
  6 C       -2.2570    -1.1400    -1.0420 C.3   1 <1>   0.1160 
  7 C       -0.4570    -2.7030    -0.7540 C.3   1 <1>   0.1160 
  8 C        2.3380     1.1340     0.1990 C.3   1 <1>  -0.0800 
  9 C        3.6200     1.4730    -0.5480 C.3   1 <1>   0.2200 
 10 C        2.8480     0.6240     1.5570 C.3   1 <1>   0.1200 
 11 N        3.9910     2.8730    -0.2550 N.am  1 <1>  -0.7300 
 12 C        4.6220     0.5390     0.1140 C.3   1 <1>   0.1200 
 13 O        4.2350     0.4880     1.4490 O.3   1 <1>  -0.5600 
 14 C        3.9780     3.9060    -1.1520 C.2   1 <1>   0.7160 
 15 O        3.6250     3.6530    -2.2900 O.2   1 <1>  -0.5700 
 16 C        4.3800     5.2420    -0.7220 C.2   1 <1>   0.1410 
 17 N        4.3860     6.3440    -1.5440 N.2   1 <1>  -0.5650 
 18 C        4.8050     5.6160     0.5310 C.2   1 <1>  -0.3020 
 19 C        4.8000     7.2770    -0.7630 C.2   1 <1>   0.2420 
 20 N        5.0770     6.9320     0.5060 N.pl3 1 <1>   0.3340 
 21 S        5.1000     9.0090    -1.0060 S.3   1 <1>  -0.1570 
 22 C        5.5280     7.9920     1.3230 C.2   1 <1>  -0.1810 
 23 C        5.6060     9.1780     0.6960 C.2   1 <1>  -0.0490 
 24 H        2.0730    -0.8450    -0.6130 H     1 <1>   0.0800 
 25 H        1.3690     0.4200    -1.5660 H     1 <1>   0.0800 
 26 H       -2.6690    -1.8090    -1.7780 H     1 <1>   0.0800 
 27 H       -2.5090    -0.1320    -1.3280 H     1 <1>   0.0800 
 28 H       -2.7020    -1.3480    -0.0830 H     1 <1>   0.0800 
 29 H       -0.8540    -3.3080    -1.5510 H     1 <1>   0.0800 
 30 H       -0.8630    -3.0480     0.1840 H     1 <1>   0.0800 
 31 H        0.6120    -2.8260    -0.7330 H     1 <1>   0.0800 
 32 H        1.7240     2.0100     0.3240 H     1 <1>   0.0800 
 33 H        3.5550     1.3090    -1.6110 H     1 <1>   0.0800 
 34 H        2.4410    -0.3350     1.8270 H     1 <1>   0.0800 
 35 H        2.6450     1.3300     2.3430 H     1 <1>   0.0800 
 36 H        4.2900     3.0370     0.7060 H     1 <1>   0.3700 
 37 H        5.6350     0.8940     0.0410 H     1 <1>   0.0800 
 38 H        4.5500    -0.4550    -0.2910 H     1 <1>   0.0800 
 39 H        4.9240     5.0250     1.4180 H     1 <1>   0.1500 
 40 H        5.7650     7.7740     2.3480 H     1 <1>   0.1500 
 41 H        5.9030    10.1620     1.0170 H     1 <1>   0.1500 
@<TRIPOS>BOND
  1   1   2  2   
  2   1   3  2   
  3   1   4  am  
  4   1   5  1   
  5   4   6  1   
  6   4   7  1   
  7   5   8  1   
  8   5  24  1   
  9   5  25  1   
 10   6  26  1   
 11   6  27  1   
 12   6  28  1   
 13   7  29  1   
 14   7  30  1   
 15   7  31  1   
 16   8   9  1   
 17   8  10  1   
 18   8  32  1   
 19   9  11  1   
 20   9  12  1   
 21   9  33  1   
 22  10  13  1   
 23  10  34  1   
 24  10  35  1   
 25  11  14  am  
 26  11  36  1   
 27  12  13  1   
 28  12  37  1   
 29  12  38  1   
 30  14  15  2   
 31  14  16  1   
 32  16  17  1   
 33  16  18  2   
 34  17  19  2   
 35  18  20  1   
 36  18  39  1   
 37  19  20  1   
 38  19  21  1   
 39  20  22  1   
 40  21  23  1   
 41  22  23  2   
 42  22  40  1   
 43  23  41  1   
@<TRIPOS>SUBSTRUCTURE
  1 ****  11 GROUP 4 **** **** 0

# MOE 2024.06 (io_trps.svl 2023.06)
