@<TRIPOS>MOLECULE
NONAME
46 47 1 0 0 
SMALL
USER_CHARGES


@<TRIPOS>ATOM
  1 CL      -4.7450    -1.7300    -3.4150 Cl    1 <1>  -0.1770 
  2 C       -3.8740    -1.9990    -1.9190 C.ar  1 <1>   0.1770 
  3 C       -2.9360    -1.0730    -1.4760 C.ar  1 <1>   0.0820 
  4 C       -4.1490    -3.1480    -1.2060 C.ar  1 <1>  -0.1500 
  5 O       -2.7150     0.0410    -2.2320 O.3   1 <1>  -0.3630 
  6 C       -2.2690    -1.3320    -0.2820 C.ar  1 <1>  -0.1500 
  7 C       -3.4870    -3.4080    -0.0140 C.ar  1 <1>   0.1170 
  8 C       -1.7880     1.0250    -1.8320 C.3   1 <1>   0.0400 
  9 C       -2.5450    -2.4860     0.4330 C.ar  1 <1>  -0.1500 
 10 N       -3.7960    -4.5890     0.6770 N.am  1 <1>  -0.5470 
 11 C       -3.5080    -5.0440     1.9320 C.2   1 <1>   0.5690 
 12 O       -2.8610    -4.4350     2.7490 O.2   1 <1>  -0.5700 
 13 C       -4.0550    -6.4270     2.2940 C.3   1 <1>   0.1710 
 14 N       -5.1630    -6.8910     1.4010 N.3   1 <1>  -0.8100 
 15 C       -5.3370    -8.3630     1.5130 C.3   1 <1>   0.2530 
 16 C       -6.4270    -6.2080     1.7440 C.3   1 <1>   0.0300 
 17 C       -6.3490    -8.9260     0.5170 C.ar  1 <1>   0.1670 
 18 N       -7.3220    -9.6780     1.0130 N.ar  1 <1>  -0.6200 
 19 C       -6.2090    -8.6380    -0.8330 C.ar  1 <1>  -0.1500 
 20 C       -8.1830   -10.1570     0.1280 C.ar  1 <1>   0.1600 
 21 C       -7.1140    -9.1450    -1.7400 C.ar  1 <1>  -0.1500 
 22 C       -8.1320    -9.9300    -1.2390 C.ar  1 <1>  -0.1430 
 23 C       -9.1730   -10.5320    -2.1690 C.3   1 <1>  -0.0170 
 24 C      -10.3550    -9.5760    -2.3460 C.3   1 <1>  -0.2400 
 25 H       -4.8820    -3.8350    -1.5840 H     1 <1>   0.1500 
 26 H       -1.5340    -0.6530     0.1080 H     1 <1>   0.1500 
 27 H       -1.7890     1.8040    -2.5730 H     1 <1>   0.0800 
 28 H       -0.8100     0.5810    -1.7710 H     1 <1>   0.0800 
 29 H       -2.0920     1.4260    -0.8810 H     1 <1>   0.0800 
 30 H       -2.0140    -2.6650     1.3510 H     1 <1>   0.1500 
 31 H       -4.4180    -5.2490     0.1960 H     1 <1>   0.3700 
 32 H       -4.3850    -6.4150     3.3180 H     1 <1>   0.0800 
 33 H       -3.2290    -7.1120     2.2240 H     1 <1>   0.0800 
 34 H       -5.6490    -8.6160     2.5120 H     1 <1>   0.0800 
 35 H       -4.3950    -8.8500     1.3300 H     1 <1>   0.0800 
 36 H       -6.3070    -5.1390     1.6960 H     1 <1>   0.0800 
 37 H       -6.7460    -6.4770     2.7370 H     1 <1>   0.0800 
 38 H       -7.2020    -6.4870     1.0490 H     1 <1>   0.0800 
 39 H       -5.3970    -8.0170    -1.1650 H     1 <1>   0.1500 
 40 H       -8.9800   -10.7670     0.5180 H     1 <1>   0.1500 
 41 H       -7.0270    -8.9340    -2.7910 H     1 <1>   0.1500 
 42 H       -9.5230   -11.4680    -1.7680 H     1 <1>   0.0800 
 43 H       -8.7280   -10.7360    -3.1280 H     1 <1>   0.0800 
 44 H      -10.8180    -9.3770    -1.3950 H     1 <1>   0.0800 
 45 H      -11.0870   -10.0100    -3.0030 H     1 <1>   0.0800 
 46 H      -10.0200    -8.6450    -2.7670 H     1 <1>   0.0800 
@<TRIPOS>BOND
  1   1   2  1   
  2   2   3  ar  
  3   2   4  ar  
  4   3   5  1   
  5   3   6  ar  
  6   4   7  ar  
  7   4  25  1   
  8   5   8  1   
  9   6   9  ar  
 10   6  26  1   
 11   7   9  ar  
 12   7  10  1   
 13   8  27  1   
 14   8  28  1   
 15   8  29  1   
 16   9  30  1   
 17  10  11  am  
 18  10  31  1   
 19  11  12  2   
 20  11  13  1   
 21  13  14  1   
 22  13  32  1   
 23  13  33  1   
 24  14  15  1   
 25  14  16  1   
 26  15  17  1   
 27  15  34  1   
 28  15  35  1   
 29  16  36  1   
 30  16  37  1   
 31  16  38  1   
 32  17  18  ar  
 33  17  19  ar  
 34  18  20  ar  
 35  19  21  ar  
 36  19  39  1   
 37  20  22  ar  
 38  20  40  1   
 39  21  22  ar  
 40  21  41  1   
 41  22  23  1   
 42  23  24  1   
 43  23  42  1   
 44  23  43  1   
 45  24  44  1   
 46  24  45  1   
 47  24  46  1   
@<TRIPOS>SUBSTRUCTURE
  1 ****  10 GROUP 4 **** **** 0

# MOE 2024.06 (io_trps.svl 2023.06)
