@<TRIPOS>MOLECULE
NONAME
45 47 1 0 0 
SMALL
USER_CHARGES


@<TRIPOS>ATOM
  1 CL       4.3740    -1.5210     1.8530 Cl    1 <1>  -0.1400 
  2 C        3.2890    -2.4410     0.8410 C.2   1 <1>   0.1400 
  3 C        2.8680    -3.6830     1.2210 C.2   1 <1>   0.2290 
  4 C        2.8650    -1.8630    -0.3730 C.2   1 <1>  -0.1500 
  5 N        2.0060    -4.3940     0.4010 N.pl3 1 <1>  -0.6290 
  6 C        2.0120    -2.5790    -1.1730 C.2   1 <1>  -0.1410 
  7 C        1.5840    -3.8590    -0.7720 C.cat 1 <1>   0.7910 
  8 C        1.4250    -5.6390     0.5100 C.2   1 <1>   0.2000 
  9 N        0.7690    -4.7350    -1.3680 N.pl3 1 <1>  -0.7000 
 10 C        0.6510    -5.8690    -0.5790 C.2   1 <1>   0.2770 
 11 C       -0.1560    -7.0280    -0.9250 C.2   1 <1>   0.7030 
 12 O       -0.7610    -7.0300    -1.9780 O.2   1 <1>  -0.5700 
 13 N       -0.2700    -8.1110    -0.1010 N.am  1 <1>  -0.7300 
 14 C       -0.9990    -9.3590    -0.4350 C.3   1 <1>   0.2200 
 15 C       -2.4060    -9.2780     0.1590 C.3   1 <1>  -0.0800 
 16 C       -0.3840   -10.4900     0.3800 C.3   1 <1>   0.1200 
 17 C       -2.2590    -9.9640     1.5290 C.3   1 <1>   0.1200 
 18 C       -3.5310    -9.8380    -0.7510 C.3   1 <1>  -0.0550 
 19 O       -0.9100   -10.2980     1.6520 O.3   1 <1>  -0.5600 
 20 S       -3.3870   -11.5010    -1.4370 S.o2  1 <1>   1.3330 
 21 O       -4.5650   -11.7650    -2.2290 O.2   1 <1>  -0.6500 
 22 O       -2.0830   -11.6420    -2.0440 O.2   1 <1>  -0.6500 
 23 N       -3.4510   -12.5320    -0.0900 N.am  1 <1>  -0.8490 
 24 C       -4.8170   -12.7910     0.3810 C.3   1 <1>   0.1160 
 25 C       -2.7690   -13.8070    -0.3320 C.3   1 <1>   0.1160 
 26 H        3.1900    -4.1290     2.1490 H     1 <1>   0.1500 
 27 H        3.2200    -0.8800    -0.6380 H     1 <1>   0.1500 
 28 H        1.6580    -2.1880    -2.1090 H     1 <1>   0.1500 
 29 H        1.5980    -6.2870     1.3550 H     1 <1>   0.1500 
 30 H        0.2920    -4.6330    -2.2710 H     1 <1>   0.4500 
 31 H        0.0760    -8.1280     0.8610 H     1 <1>   0.3700 
 32 H       -0.9720    -9.5410    -1.4960 H     1 <1>   0.0800 
 33 H       -2.6610    -8.2480     0.3360 H     1 <1>   0.0800 
 34 H        0.6900   -10.4510     0.4160 H     1 <1>   0.0800 
 35 H       -0.7000   -11.4570     0.0290 H     1 <1>   0.0800 
 36 H       -2.8360   -10.8660     1.6160 H     1 <1>   0.0800 
 37 H       -2.5170    -9.3030     2.3380 H     1 <1>   0.0800 
 38 H       -3.6170    -9.1650    -1.5840 H     1 <1>   0.0800 
 39 H       -4.4570    -9.7720    -0.2160 H     1 <1>   0.0800 
 40 H       -4.7920   -13.3720     1.2880 H     1 <1>   0.0800 
 41 H       -5.3770   -13.3320    -0.3650 H     1 <1>   0.0800 
 42 H       -5.3240   -11.8640     0.5860 H     1 <1>   0.0800 
 43 H       -2.8150   -14.4290     0.5460 H     1 <1>   0.0800 
 44 H       -1.7310   -13.6350    -0.5650 H     1 <1>   0.0800 
 45 H       -3.2260   -14.3260    -1.1590 H     1 <1>   0.0800 
@<TRIPOS>BOND
  1   1   2  1   
  2   2   3  2   
  3   2   4  1   
  4   3   5  1   
  5   3  26  1   
  6   4   6  2   
  7   4  27  1   
  8   5   7  ar  
  9   5   8  1   
 10   6   7  1   
 11   6  28  1   
 12   7   9  ar  
 13   8  10  2   
 14   8  29  1   
 15   9  10  1   
 16   9  30  1   
 17  10  11  1   
 18  11  12  2   
 19  11  13  am  
 20  13  14  1   
 21  13  31  1   
 22  14  15  1   
 23  14  16  1   
 24  14  32  1   
 25  15  17  1   
 26  15  18  1   
 27  15  33  1   
 28  16  19  1   
 29  16  34  1   
 30  16  35  1   
 31  17  19  1   
 32  17  36  1   
 33  17  37  1   
 34  18  20  1   
 35  18  38  1   
 36  18  39  1   
 37  20  21  2   
 38  20  22  2   
 39  20  23  am  
 40  23  24  1   
 41  23  25  1   
 42  24  40  1   
 43  24  41  1   
 44  24  42  1   
 45  25  43  1   
 46  25  44  1   
 47  25  45  1   
@<TRIPOS>SUBSTRUCTURE
  1 ****  13 GROUP 4 **** **** 0

# MOE 2024.06 (io_trps.svl 2023.06)
