@<TRIPOS>MOLECULE
NONAME
64 67 1 0 0 
SMALL
USER_CHARGES


@<TRIPOS>ATOM
  1 O       -0.5220     0.1640     1.2790 O.2   1 <1>  -0.5700 
  2 C       -1.5780     0.1640     0.6770 C.2   1 <1>   0.5440 
  3 N       -2.2510    -1.0240     0.5360 N.am  1 <1>  -0.6600 
  4 C       -2.1070     1.4000     0.1370 C.ar  1 <1>   0.0860 
  5 C       -1.8800    -2.3130     1.1150 C.3   1 <1>   0.2200 
  6 C       -3.6580    -1.2770     0.2800 C.3   1 <1>   0.2200 
  7 C       -2.5890     1.4840    -1.1700 C.ar  1 <1>  -0.1500 
  8 C       -2.1480     2.5590     0.9120 C.ar  1 <1>  -0.1500 
  9 C       -2.2630    -3.2490    -0.0590 C.3   1 <1>   0.0610 
 10 C       -2.8950    -2.3560     2.2750 C.3   1 <1>  -0.1600 
 11 C       -3.5660    -2.5540    -0.5700 C.3   1 <1>  -0.1600 
 12 C       -4.1300    -1.6540     1.6860 C.3   1 <1>  -0.1600 
 13 C       -3.1060     2.6640    -1.6710 C.ar  1 <1>  -0.1500 
 14 C       -2.6630     3.7440     0.4200 C.ar  1 <1>  -0.1500 
 15 C       -2.4680    -4.7140     0.3610 C.2   1 <1>   0.5690 
 16 C       -1.1870    -3.2010    -1.1760 C.3   1 <1>  -0.0220 
 17 C       -3.1520     3.8020    -0.8820 C.ar  1 <1>   0.0820 
 18 O       -1.9670    -5.1450     1.3730 O.2   1 <1>  -0.5700 
 19 N       -3.2220    -5.5270    -0.4330 N.am  1 <1>  -0.7300 
 20 C        0.1680    -3.7370    -0.7300 C.2   1 <1>  -0.2880 
 21 O       -3.6760     4.9150    -1.4420 O.3   1 <1>  -0.3620 
 22 C       -3.4080    -6.9800    -0.2040 C.3   1 <1>   0.1400 
 23 C        0.7340    -4.9160    -1.0110 C.2   1 <1>  -0.2760 
 24 C       -3.7480     6.1360    -0.7400 C.3   1 <1>   0.0400 
 25 C       -4.4970    -7.2190     0.8450 C.3   1 <1>   0.0200 
 26 C        2.1070    -5.2790    -0.4710 C.3   1 <1>  -0.1020 
 27 C        0.1330    -6.0370    -1.8480 C.3   1 <1>  -0.1020 
 28 C       -4.8170    -8.6980     1.0180 C.2   1 <1>  -0.3320 
 29 N       -5.6770    -9.1470     1.9520 N.pl3 1 <1>   0.0330 
 30 C       -4.3740    -9.7960     0.3620 C.2   1 <1>   0.0770 
 31 C       -5.7030   -10.4870     1.7990 C.2   1 <1>   0.0360 
 32 N       -4.9350   -10.9170     0.8530 N.2   1 <1>  -0.5650 
 33 H       -0.8530    -2.3750     1.4340 H     1 <1>   0.0800 
 34 H       -4.1970    -0.4600    -0.1710 H     1 <1>   0.0800 
 35 H       -2.5490     0.6120    -1.7980 H     1 <1>   0.1500 
 36 H       -1.7640     2.5160     1.9170 H     1 <1>   0.1500 
 37 H       -3.1130    -3.3490     2.6200 H     1 <1>   0.0800 
 38 H       -2.5020    -1.7910     3.1030 H     1 <1>   0.0800 
 39 H       -4.4450    -3.1570    -0.4310 H     1 <1>   0.0800 
 40 H       -3.4970    -2.2890    -1.6100 H     1 <1>   0.0800 
 41 H       -4.3620    -0.7650     2.2470 H     1 <1>   0.0800 
 42 H       -4.9950    -2.2920     1.6670 H     1 <1>   0.0800 
 43 H       -3.4770     2.7160    -2.6790 H     1 <1>   0.1500 
 44 H       -2.6750     4.6070     1.0580 H     1 <1>   0.1500 
 45 H       -1.5380    -3.7540    -2.0250 H     1 <1>   0.0800 
 46 H       -1.0430    -2.1880    -1.5120 H     1 <1>   0.0800 
 47 H       -3.6170    -5.1570    -1.2980 H     1 <1>   0.3700 
 48 H        0.6770    -3.0160    -0.1100 H     1 <1>   0.1500 
 49 H       -3.6810    -7.4520    -1.1330 H     1 <1>   0.0800 
 50 H       -2.4810    -7.4100     0.1390 H     1 <1>   0.0800 
 51 H       -4.1900     6.8700    -1.3890 H     1 <1>   0.0800 
 52 H       -2.7530     6.4410    -0.4670 H     1 <1>   0.0800 
 53 H       -4.3630     6.0010     0.1320 H     1 <1>   0.0800 
 54 H       -5.3920    -6.7010     0.5510 H     1 <1>   0.0800 
 55 H       -4.1600    -6.8190     1.7860 H     1 <1>   0.0800 
 56 H        2.0400    -6.1520     0.1530 H     1 <1>   0.0800 
 57 H        2.5110    -4.4750     0.1180 H     1 <1>   0.0800 
 58 H        2.7850    -5.4790    -1.2820 H     1 <1>   0.0800 
 59 H        0.7600    -6.2370    -2.6980 H     1 <1>   0.0800 
 60 H       -0.8500    -5.7990    -2.2030 H     1 <1>   0.0800 
 61 H        0.0590    -6.9310    -1.2550 H     1 <1>   0.0800 
 62 H       -6.1990    -8.5970     2.6400 H     1 <1>   0.2700 
 63 H       -3.6700    -9.8500    -0.4510 H     1 <1>   0.1500 
 64 H       -6.3120   -11.1220     2.4180 H     1 <1>   0.1500 
@<TRIPOS>BOND
  1   1   2  2   
  2   2   3  am  
  3   2   4  1   
  4   3   5  1   
  5   3   6  1   
  6   4   7  ar  
  7   4   8  ar  
  8   5   9  1   
  9   5  10  1   
 10   5  33  1   
 11   6  11  1   
 12   6  12  1   
 13   6  34  1   
 14   7  13  ar  
 15   7  35  1   
 16   8  14  ar  
 17   8  36  1   
 18   9  11  1   
 19   9  15  1   
 20   9  16  1   
 21  10  12  1   
 22  10  37  1   
 23  10  38  1   
 24  11  39  1   
 25  11  40  1   
 26  12  41  1   
 27  12  42  1   
 28  13  17  ar  
 29  13  43  1   
 30  14  17  ar  
 31  14  44  1   
 32  15  18  2   
 33  15  19  am  
 34  16  20  1   
 35  16  45  1   
 36  16  46  1   
 37  17  21  1   
 38  19  22  1   
 39  19  47  1   
 40  20  23  2   
 41  20  48  1   
 42  21  24  1   
 43  22  25  1   
 44  22  49  1   
 45  22  50  1   
 46  23  26  1   
 47  23  27  1   
 48  24  51  1   
 49  24  52  1   
 50  24  53  1   
 51  25  28  1   
 52  25  54  1   
 53  25  55  1   
 54  26  56  1   
 55  26  57  1   
 56  26  58  1   
 57  27  59  1   
 58  27  60  1   
 59  27  61  1   
 60  28  29  1   
 61  28  30  2   
 62  29  31  1   
 63  29  62  1   
 64  30  32  1   
 65  30  63  1   
 66  31  32  2   
 67  31  64  1   
@<TRIPOS>SUBSTRUCTURE
  1 ****   9 GROUP 4 **** **** 0

# MOE 2024.06 (io_trps.svl 2023.06)
