@<TRIPOS>MOLECULE
NONAME
46 47 1 0 0 
SMALL
USER_CHARGES


@<TRIPOS>ATOM
  1 S       -0.1080     0.7470    -0.4070 S.o2  1 <1>   1.3330 
  2 O       -1.1760     1.4730     0.2410 O.2   1 <1>  -0.6500 
  3 O        0.0260     0.8210    -1.8450 O.2   1 <1>  -0.6500 
  4 N       -0.2690    -0.8870     0.0210 N.am  1 <1>  -0.8490 
  5 C        1.4550     1.2750     0.2980 C.3   1 <1>  -0.0550 
  6 C       -0.6710    -1.0820     1.4200 C.3   1 <1>   0.1160 
  7 C       -1.2000    -1.5940    -0.8620 C.3   1 <1>   0.1160 
  8 C        2.7050     0.5670    -0.2890 C.3   1 <1>  -0.0800 
  9 C        4.0200     1.2890    -0.0060 C.3   1 <1>   0.2200 
 10 C        2.9750    -0.7380     0.4560 C.3   1 <1>   0.1200 
 11 N        3.9220     2.7670    -0.1400 N.am  1 <1>  -0.7300 
 12 C        4.3730     0.8010     1.4050 C.3   1 <1>   0.1200 
 13 O        3.6020    -0.3470     1.6330 O.3   1 <1>  -0.5600 
 14 C        4.9050     3.6520     0.2070 C.2   1 <1>   0.5440 
 15 O        5.9270     3.2190     0.7000 O.2   1 <1>  -0.5700 
 16 C        4.7400     5.0740    -0.0340 C.ar  1 <1>   0.0860 
 17 C        3.5000     5.6870    -0.1670 C.ar  1 <1>  -0.1500 
 18 C        5.8250     5.9310    -0.1480 C.ar  1 <1>  -0.1500 
 19 C        3.4100     7.0450    -0.4110 C.ar  1 <1>   0.1670 
 20 C        5.6370     7.2780    -0.3910 C.ar  1 <1>   0.1670 
 21 N        4.4530     7.8450    -0.5280 N.ar  1 <1>  -0.6200 
 22 C        2.0580     7.7090    -0.5580 C.3   1 <1>  -0.0970 
 23 C        6.8280     8.2040    -0.5160 C.3   1 <1>  -0.0970 
 24 H        1.5210     2.3270     0.1150 H     1 <1>   0.0800 
 25 H        1.4350     1.1490     1.3630 H     1 <1>   0.0800 
 26 H       -0.6890    -2.1320     1.6560 H     1 <1>   0.0800 
 27 H       -1.6500    -0.6660     1.5940 H     1 <1>   0.0800 
 28 H        0.0310    -0.6010     2.0800 H     1 <1>   0.0800 
 29 H       -1.2680    -2.6310    -0.5810 H     1 <1>   0.0800 
 30 H       -0.8520    -1.5440    -1.8810 H     1 <1>   0.0800 
 31 H       -2.1790    -1.1470    -0.8100 H     1 <1>   0.0800 
 32 H        2.5880     0.3900    -1.3440 H     1 <1>   0.0800 
 33 H        4.7800     0.9340    -0.6820 H     1 <1>   0.0800 
 34 H        3.6600    -1.3630    -0.0930 H     1 <1>   0.0800 
 35 H        2.0960    -1.3060     0.6980 H     1 <1>   0.0800 
 36 H        3.2180     3.0860    -0.8050 H     1 <1>   0.3700 
 37 H        4.1150     1.5290     2.1530 H     1 <1>   0.0800 
 38 H        5.4150     0.5420     1.4810 H     1 <1>   0.0800 
 39 H        2.6030     5.1060    -0.0740 H     1 <1>   0.1500 
 40 H        6.8180     5.5320    -0.0440 H     1 <1>   0.1500 
 41 H        1.2580     7.0000    -0.4520 H     1 <1>   0.0800 
 42 H        1.9890     8.1710    -1.5260 H     1 <1>   0.0800 
 43 H        1.9500     8.4700     0.1940 H     1 <1>   0.0800 
 44 H        7.7520     7.6710    -0.3900 H     1 <1>   0.0800 
 45 H        6.7640     8.9730     0.2330 H     1 <1>   0.0800 
 46 H        6.8220     8.6670    -1.4860 H     1 <1>   0.0800 
@<TRIPOS>BOND
  1   1   2  2   
  2   1   3  2   
  3   1   4  am  
  4   1   5  1   
  5   4   6  1   
  6   4   7  1   
  7   5   8  1   
  8   5  24  1   
  9   5  25  1   
 10   6  26  1   
 11   6  27  1   
 12   6  28  1   
 13   7  29  1   
 14   7  30  1   
 15   7  31  1   
 16   8   9  1   
 17   8  10  1   
 18   8  32  1   
 19   9  11  1   
 20   9  12  1   
 21   9  33  1   
 22  10  13  1   
 23  10  34  1   
 24  10  35  1   
 25  11  14  am  
 26  11  36  1   
 27  12  13  1   
 28  12  37  1   
 29  12  38  1   
 30  14  15  2   
 31  14  16  1   
 32  16  17  ar  
 33  16  18  ar  
 34  17  19  ar  
 35  17  39  1   
 36  18  20  ar  
 37  18  40  1   
 38  19  21  ar  
 39  19  22  1   
 40  20  21  ar  
 41  20  23  1   
 42  22  41  1   
 43  22  42  1   
 44  22  43  1   
 45  23  44  1   
 46  23  45  1   
 47  23  46  1   
@<TRIPOS>SUBSTRUCTURE
  1 ****  11 GROUP 4 **** **** 0

# MOE 2024.06 (io_trps.svl 2023.06)
