@<TRIPOS>MOLECULE
NONAME
44 46 1 0 0 
SMALL
USER_CHARGES


@<TRIPOS>ATOM
  1 O        2.2970    -1.7370     2.4990 O.2   1 <1>  -0.5700 
  2 C        1.6920    -0.9740     1.7860 C.2   1 <1>   0.5690 
  3 N        2.3120     0.1390     1.2610 N.am  1 <1>  -0.6600 
  4 C        0.2870    -1.3860     1.3690 C.3   1 <1>   0.0440 
  5 C        3.8220     0.1600     1.2630 C.3   1 <1>   0.2200 
  6 C        1.6150     1.1990     0.4660 C.3   1 <1>   0.1400 
  7 C        0.3580    -1.9660    -0.0410 C.ar  1 <1>  -0.1440 
  8 C        4.4350     1.5660     1.3630 C.3   1 <1>   0.1200 
  9 C        4.3500    -0.5930     0.0170 C.3   1 <1>   0.3430 
 10 C        2.3830     1.6780    -0.7830 C.3   1 <1>  -0.0800 
 11 C       -0.2070    -1.3130    -1.1290 C.ar  1 <1>  -0.1500 
 12 C        1.0290    -3.1660    -0.2400 C.ar  1 <1>  -0.1500 
 13 O        4.5820     2.1350     0.0950 O.3   1 <1>  -0.5600 
 14 N        3.3280    -0.7100    -1.0920 N.4   1 <1>  -0.9590 
 15 C        3.4460     2.7300    -0.4310 C.3   1 <1>   0.1200 
 16 C        2.9410     0.5900    -1.7290 C.3   1 <1>   0.3430 
 17 C       -0.0610    -1.8310    -2.4030 C.ar  1 <1>  -0.1500 
 18 C        1.1620    -3.6970    -1.5100 C.ar  1 <1>  -0.1500 
 19 C        3.7590    -1.6920    -2.1250 C.3   1 <1>   0.2630 
 20 C        0.6300    -3.0140    -2.5900 C.ar  1 <1>   0.0830 
 21 O        0.7780    -3.4920    -3.8320 O.3   1 <1>  -0.5330 
 22 H       -0.0700    -2.1420     2.0460 H     1 <1>   0.0800 
 23 H       -0.3900    -0.5560     1.4320 H     1 <1>   0.0800 
 24 H        4.1730    -0.3640     2.1360 H     1 <1>   0.0800 
 25 H        0.6520     0.8540     0.1480 H     1 <1>   0.0800 
 26 H        1.4350     2.0410     1.1140 H     1 <1>   0.0800 
 27 H        5.4270     1.4850     1.7730 H     1 <1>   0.0800 
 28 H        3.8610     2.2130     2.0040 H     1 <1>   0.0800 
 29 H        4.6330    -1.5820     0.3350 H     1 <1>   0.0800 
 30 H        5.2390    -0.1040    -0.3460 H     1 <1>   0.0800 
 31 H        1.6640     2.2250    -1.3660 H     1 <1>   0.0800 
 32 H       -0.7710    -0.4060    -0.9970 H     1 <1>   0.1500 
 33 H        1.4500    -3.6940     0.6020 H     1 <1>   0.1500 
 34 H        2.4730    -1.0770    -0.6370 H     1 <1>   0.4500 
 35 H        3.0750     3.4590     0.2700 H     1 <1>   0.0800 
 36 H        3.7540     3.2530    -1.3210 H     1 <1>   0.0800 
 37 H        3.7920     0.9960    -2.2510 H     1 <1>   0.0800 
 38 H        2.1840     0.3810    -2.4680 H     1 <1>   0.0800 
 39 H       -0.4920    -1.3330    -3.2550 H     1 <1>   0.1500 
 40 H        1.6740    -4.6330    -1.6500 H     1 <1>   0.1500 
 41 H        4.6560    -1.3520    -2.6160 H     1 <1>   0.0800 
 42 H        2.9840    -1.8190    -2.8640 H     1 <1>   0.0800 
 43 H        3.9530    -2.6500    -1.6690 H     1 <1>   0.0800 
 44 H        1.0300    -4.4340    -3.8640 H     1 <1>   0.4500 
@<TRIPOS>BOND
  1   1   2  2   
  2   2   3  am  
  3   2   4  1   
  4   3   5  1   
  5   3   6  1   
  6   4   7  1   
  7   4  22  1   
  8   4  23  1   
  9   5   8  1   
 10   5   9  1   
 11   5  24  1   
 12   6  10  1   
 13   6  25  1   
 14   6  26  1   
 15   7  11  ar  
 16   7  12  ar  
 17   8  13  1   
 18   8  27  1   
 19   8  28  1   
 20   9  14  1   
 21   9  29  1   
 22   9  30  1   
 23  10  15  1   
 24  10  16  1   
 25  10  31  1   
 26  11  17  ar  
 27  11  32  1   
 28  12  18  ar  
 29  12  33  1   
 30  13  15  1   
 31  14  16  1   
 32  14  19  1   
 33  14  34  1   
 34  15  35  1   
 35  15  36  1   
 36  16  37  1   
 37  16  38  1   
 38  17  20  ar  
 39  17  39  1   
 40  18  20  ar  
 41  18  40  1   
 42  19  41  1   
 43  19  42  1   
 44  19  43  1   
 45  20  21  1   
 46  21  44  1   
@<TRIPOS>SUBSTRUCTURE
  1 ****  14 GROUP 4 **** **** 0

# MOE 2024.06 (io_trps.svl 2023.06)
