@<TRIPOS>MOLECULE
NONAME
47 50 1 0 0 
SMALL
USER_CHARGES


@<TRIPOS>ATOM
  1 S        0.6880    -0.3560    -1.4880 S.o2  1 <1>   1.4470 
  2 O        1.7810    -1.2650    -1.2110 O.2   1 <1>  -0.6500 
  3 O        0.4400     0.0420    -2.8520 O.2   1 <1>  -0.6500 
  4 N        1.1180     1.0540    -0.6450 N.am  1 <1>  -0.8490 
  5 C       -0.8530    -0.9150    -0.7120 C.ar  1 <1>  -0.0090 
  6 C        1.4400     0.8640     0.7980 C.3   1 <1>   0.2760 
  7 C        1.9160     1.9960    -1.4580 C.3   1 <1>   0.1960 
  8 C       -1.0560    -2.2590    -0.4120 C.ar  1 <1>  -0.1500 
  9 C       -1.8740    -0.0170    -0.4160 C.ar  1 <1>  -0.1500 
 10 C        1.2790     2.1710     1.5930 C.3   1 <1>   0.1200 
 11 C        2.8290     0.2310     1.0960 C.3   1 <1>   0.3430 
 12 C        3.0940     2.6880    -0.7540 C.3   1 <1>  -0.0800 
 13 C       -2.2320    -2.7000     0.1760 C.ar  1 <1>   0.1170 
 14 C       -3.0530    -0.4390     0.1750 C.ar  1 <1>  -0.1500 
 15 O        2.4490     2.9300     1.5520 O.3   1 <1>  -0.5600 
 16 N        3.8180     0.3370    -0.0310 N.4   1 <1>  -0.9590 
 17 C        2.6560     3.6330     0.3740 C.3   1 <1>   0.1200 
 18 C        4.2360     1.7440    -0.3310 C.3   1 <1>   0.3430 
 19 N       -2.4350    -4.0460     0.4850 N.am  1 <1>  -0.5470 
 20 C       -3.2360    -1.7760     0.4720 C.ar  1 <1>   0.0830 
 21 C        5.0000    -0.5360     0.2190 C.3   1 <1>   0.2630 
 22 C       -3.6180    -4.5080     0.9580 C.2   1 <1>   0.5690 
 23 O       -4.4040    -2.1560     1.0610 O.3   1 <1>  -0.3630 
 24 O       -3.7500    -5.6650     1.2690 O.2   1 <1>  -0.5700 
 25 C       -4.7910    -3.5340     1.0610 C.3   1 <1>   0.1810 
 26 H        0.7000     0.1990     1.2090 H     1 <1>   0.0800 
 27 H        2.3180     1.4860    -2.3190 H     1 <1>   0.0800 
 28 H        1.2460     2.7490    -1.8400 H     1 <1>   0.0800 
 29 H       -0.2870    -2.9760    -0.6440 H     1 <1>   0.1500 
 30 H       -1.7510     1.0270    -0.6550 H     1 <1>   0.1500 
 31 H        1.1050     1.9370     2.6290 H     1 <1>   0.0800 
 32 H        0.4460     2.7540     1.2370 H     1 <1>   0.0800 
 33 H        2.6680    -0.8120     1.3120 H     1 <1>   0.0800 
 34 H        3.2380     0.6820     1.9850 H     1 <1>   0.0800 
 35 H        3.5210     3.3390    -1.4950 H     1 <1>   0.0800 
 36 H       -3.8360     0.2630     0.4040 H     1 <1>   0.1500 
 37 H        3.3100    -0.0530    -0.8490 H     1 <1>   0.4500 
 38 H        1.7630     4.1790     0.1190 H     1 <1>   0.0800 
 39 H        3.4370     4.3470     0.5750 H     1 <1>   0.0800 
 40 H        4.7300     2.1640     0.5310 H     1 <1>   0.0800 
 41 H        4.9560     1.7170    -1.1330 H     1 <1>   0.0800 
 42 H       -1.6920    -4.7370     0.3840 H     1 <1>   0.3700 
 43 H        5.5340    -0.2030     1.0940 H     1 <1>   0.0800 
 44 H        5.6680    -0.5110    -0.6260 H     1 <1>   0.0800 
 45 H        4.6840    -1.5560     0.3720 H     1 <1>   0.0800 
 46 H       -5.3340    -3.7210     1.9690 H     1 <1>   0.0800 
 47 H       -5.4470    -3.6870     0.2250 H     1 <1>   0.0800 
@<TRIPOS>BOND
  1   1   2  2   
  2   1   3  2   
  3   1   4  am  
  4   1   5  1   
  5   4   6  1   
  6   4   7  1   
  7   5   8  ar  
  8   5   9  ar  
  9   6  10  1   
 10   6  11  1   
 11   6  26  1   
 12   7  12  1   
 13   7  27  1   
 14   7  28  1   
 15   8  13  ar  
 16   8  29  1   
 17   9  14  ar  
 18   9  30  1   
 19  10  15  1   
 20  10  31  1   
 21  10  32  1   
 22  11  16  1   
 23  11  33  1   
 24  11  34  1   
 25  12  17  1   
 26  12  18  1   
 27  12  35  1   
 28  13  19  1   
 29  13  20  ar  
 30  14  20  ar  
 31  14  36  1   
 32  15  17  1   
 33  16  18  1   
 34  16  21  1   
 35  16  37  1   
 36  17  38  1   
 37  17  39  1   
 38  18  40  1   
 39  18  41  1   
 40  19  22  am  
 41  19  42  1   
 42  20  23  1   
 43  21  43  1   
 44  21  44  1   
 45  21  45  1   
 46  22  24  2   
 47  22  25  1   
 48  23  25  1   
 49  25  46  1   
 50  25  47  1   
@<TRIPOS>SUBSTRUCTURE
  1 ****   5 GROUP 4 **** **** 0

# MOE 2024.06 (io_trps.svl 2023.06)
