@<TRIPOS>MOLECULE
NONAME
59 63 1 0 0 
SMALL
USER_CHARGES


@<TRIPOS>ATOM
  1 N        0.5620     0.1210     0.2680 N.ar  1 <1>  -0.6200 
  2 C       -0.3170     0.8730     0.9470 C.ar  1 <1>   0.6200 
  3 C        1.4880     0.7790    -0.3830 C.ar  1 <1>   0.1660 
  4 N       -0.2920     2.2120     1.0120 N.ar  1 <1>  -0.6200 
  5 C       -1.3690     0.1800     1.6760 C.ar  1 <1>   0.0000 
  6 C        1.5930     2.1340    -0.3660 C.ar  1 <1>  -0.1430 
  7 C        2.5810     0.1320    -1.2010 C.3   1 <1>   0.1440 
  8 C        0.6610     2.8330     0.3550 C.ar  1 <1>   0.1600 
  9 C       -1.9130     0.7040     2.8530 C.ar  1 <1>  -0.1500 
 10 C       -1.8840    -1.0420     1.2340 C.ar  1 <1>  -0.1500 
 11 C        2.7750     2.6230    -1.1630 C.3   1 <1>  -0.0160 
 12 C        3.4750    -0.6350    -0.2140 C.3   1 <1>   0.3430 
 13 C        2.0170    -0.8400    -2.2610 C.3   1 <1>  -0.1600 
 14 C        3.3120     1.3470    -1.8410 C.3   1 <1>  -0.1600 
 15 C       -2.9090     0.0460     3.5520 C.ar  1 <1>  -0.1500 
 16 C       -2.8790    -1.7070     1.9280 C.ar  1 <1>  -0.1500 
 17 N        4.5410    -1.4110    -0.9260 N.4   1 <1>  -0.9590 
 18 C        3.1350    -1.6610    -2.9300 C.3   1 <1>  -0.1600 
 19 C       -3.3940    -1.1630     3.0900 C.ar  1 <1>  -0.1500 
 20 C        4.0070    -2.3920    -1.9030 C.3   1 <1>   0.3430 
 21 C        5.5280    -1.9690     0.0320 C.3   1 <1>   0.5240 
 22 C        6.3510    -0.7860     0.5250 C.2   1 <1>   0.0460 
 23 N        6.6920     0.1880    -0.3490 N.2   1 <1>  -0.5650 
 24 C        6.8060    -0.5030     1.7670 C.2   1 <1>  -0.3320 
 25 C        7.3530     1.0350     0.3710 C.2   1 <1>   0.0060 
 26 N        7.4590     0.6710     1.6670 N.pl3 1 <1>   0.0330 
 27 C        6.6840    -1.2560     3.0820 C.3   1 <1>  -0.0600 
 28 C        7.9600     2.3180    -0.1680 C.3   1 <1>   0.0200 
 29 C        7.1650     3.5440     0.2910 C.3   1 <1>  -0.2400 
 30 H        0.6950     3.9090     0.3990 H     1 <1>   0.1500 
 31 H       -1.5480     1.6450     3.2280 H     1 <1>   0.1500 
 32 H       -1.5000    -1.4790     0.3300 H     1 <1>   0.1500 
 33 H        3.5130     3.0470    -0.5030 H     1 <1>   0.0800 
 34 H        2.4760     3.3580    -1.8910 H     1 <1>   0.0800 
 35 H        2.8560    -1.3060     0.3590 H     1 <1>   0.0800 
 36 H        3.9230     0.0700     0.4680 H     1 <1>   0.0800 
 37 H        1.4570    -0.2960    -3.0030 H     1 <1>   0.0800 
 38 H        1.3300    -1.5190    -1.7840 H     1 <1>   0.0800 
 39 H        3.0850     1.4050    -2.8910 H     1 <1>   0.0800 
 40 H        4.3820     1.2870    -1.7350 H     1 <1>   0.0800 
 41 H       -3.3070     0.4750     4.4550 H     1 <1>   0.1500 
 42 H       -3.2550    -2.6460     1.5630 H     1 <1>   0.1500 
 43 H        5.1220    -0.7070    -1.4170 H     1 <1>   0.4500 
 44 H        3.7560    -1.0220    -3.5330 H     1 <1>   0.0800 
 45 H        2.6920    -2.3880    -3.5900 H     1 <1>   0.0800 
 46 H       -4.1690    -1.6780     3.6320 H     1 <1>   0.1500 
 47 H        3.4130    -3.1310    -1.3890 H     1 <1>   0.0800 
 48 H        4.8170    -2.8930    -2.4090 H     1 <1>   0.0800 
 49 H        6.1850    -2.6580    -0.4720 H     1 <1>   0.0800 
 50 H        5.0420    -2.4690     0.8510 H     1 <1>   0.0800 
 51 H        7.9410     1.1880     2.4090 H     1 <1>   0.2700 
 52 H        6.1340    -2.1710     2.9550 H     1 <1>   0.0800 
 53 H        6.1730    -0.6500     3.8110 H     1 <1>   0.0800 
 54 H        7.6610    -1.4980     3.4620 H     1 <1>   0.0800 
 55 H        7.9640     2.2790    -1.2440 H     1 <1>   0.0800 
 56 H        8.9820     2.3980     0.1590 H     1 <1>   0.0800 
 57 H        6.1460     3.4680    -0.0420 H     1 <1>   0.0800 
 58 H        7.5970     4.4380    -0.1250 H     1 <1>   0.0800 
 59 H        7.1760     3.6240     1.3630 H     1 <1>   0.0800 
@<TRIPOS>BOND
  1   1   2  ar  
  2   1   3  ar  
  3   2   4  ar  
  4   2   5  1   
  5   3   6  ar  
  6   3   7  1   
  7   4   8  ar  
  8   5   9  ar  
  9   5  10  ar  
 10   6   8  ar  
 11   6  11  1   
 12   7  12  1   
 13   7  13  1   
 14   7  14  1   
 15   8  30  1   
 16   9  15  ar  
 17   9  31  1   
 18  10  16  ar  
 19  10  32  1   
 20  11  14  1   
 21  11  33  1   
 22  11  34  1   
 23  12  17  1   
 24  12  35  1   
 25  12  36  1   
 26  13  18  1   
 27  13  37  1   
 28  13  38  1   
 29  14  39  1   
 30  14  40  1   
 31  15  19  ar  
 32  15  41  1   
 33  16  19  ar  
 34  16  42  1   
 35  17  20  1   
 36  17  21  1   
 37  17  43  1   
 38  18  20  1   
 39  18  44  1   
 40  18  45  1   
 41  19  46  1   
 42  20  47  1   
 43  20  48  1   
 44  21  22  1   
 45  21  49  1   
 46  21  50  1   
 47  22  23  1   
 48  22  24  2   
 49  23  25  2   
 50  24  26  1   
 51  24  27  1   
 52  25  26  1   
 53  25  28  1   
 54  26  51  1   
 55  27  52  1   
 56  27  53  1   
 57  27  54  1   
 58  28  29  1   
 59  28  55  1   
 60  28  56  1   
 61  29  57  1   
 62  29  58  1   
 63  29  59  1   
@<TRIPOS>SUBSTRUCTURE
  1 ****  12 GROUP 4 **** **** 0

# MOE 2024.06 (io_trps.svl 2023.06)
