@<TRIPOS>MOLECULE
NONAME
50 51 1 0 0 
SMALL
USER_CHARGES


@<TRIPOS>ATOM
  1 F        0.5020    -1.4610     1.6960 F     1 <1>  -0.1900 
  2 C        0.1040    -2.6510     1.3330 C.ar  1 <1>   0.1900 
  3 C       -0.2910    -3.5470     2.3070 C.ar  1 <1>  -0.1500 
  4 C        0.0920    -2.9690    -0.0110 C.ar  1 <1>  -0.1500 
  5 C       -0.7140    -4.8070     1.9160 C.ar  1 <1>  -0.1500 
  6 C       -0.3330    -4.2320    -0.3890 C.ar  1 <1>  -0.1500 
  7 C       -0.7350    -5.1530     0.5700 C.ar  1 <1>  -0.1430 
  8 C       -1.2020    -6.5350     0.1400 C.3   1 <1>  -0.0160 
  9 C       -2.6690    -6.4940    -0.2830 C.3   1 <1>   0.1400 
 10 N       -3.1110    -7.8430    -0.6950 N.am  1 <1>  -0.7300 
 11 C       -3.2510    -8.2850    -1.9710 C.2   1 <1>   0.5690 
 12 O       -2.9920    -7.5910    -2.9250 O.2   1 <1>  -0.5700 
 13 C       -3.7410    -9.7210    -2.1900 C.3   1 <1>   0.1710 
 14 N       -4.5090   -10.2970    -1.0440 N.3   1 <1>  -0.8100 
 15 C       -4.6200   -11.7660    -1.1890 C.3   1 <1>   0.1100 
 16 C       -5.8480    -9.6870    -0.9550 C.3   1 <1>   0.1100 
 17 C       -5.3350   -12.3960     0.0150 C.3   1 <1>   0.2000 
 18 C       -6.5860   -10.2220     0.2760 C.3   1 <1>  -0.1600 
 19 O       -5.5000   -13.7550    -0.2540 O.3   1 <1>  -0.5600 
 20 C       -6.7120   -11.7530     0.2360 C.3   1 <1>  -0.1600 
 21 C       -5.6280   -14.5710     0.8650 C.3   1 <1>   0.1200 
 22 C       -5.7690   -16.0110     0.3780 C.3   1 <1>  -0.1600 
 23 C       -5.9110   -16.9870     1.5510 C.3   1 <1>  -0.2400 
 24 H       -0.2670    -3.2620     3.3430 H     1 <1>   0.1500 
 25 H        0.4070    -2.2440    -0.7410 H     1 <1>   0.1500 
 26 H       -1.0240    -5.5160     2.6640 H     1 <1>   0.1500 
 27 H       -0.3490    -4.4960    -1.4330 H     1 <1>   0.1500 
 28 H       -1.0780    -7.2310     0.9500 H     1 <1>   0.0800 
 29 H       -0.6040    -6.8720    -0.6890 H     1 <1>   0.0800 
 30 H       -2.7870    -5.8090    -1.1070 H     1 <1>   0.0800 
 31 H       -3.2810    -6.1490     0.5330 H     1 <1>   0.0800 
 32 H       -3.3960    -8.5060     0.0350 H     1 <1>   0.3700 
 33 H       -2.8660   -10.3210    -2.3640 H     1 <1>   0.0800 
 34 H       -4.3400    -9.7490    -3.0830 H     1 <1>   0.0800 
 35 H       -3.6350   -12.1940    -1.2610 H     1 <1>   0.0800 
 36 H       -5.1670   -12.0010    -2.0860 H     1 <1>   0.0800 
 37 H       -6.4130    -9.9110    -1.8450 H     1 <1>   0.0800 
 38 H       -5.7600    -8.6160    -0.8740 H     1 <1>   0.0800 
 39 H       -4.7100   -12.2790     0.8840 H     1 <1>   0.0800 
 40 H       -7.5660    -9.7820     0.3210 H     1 <1>   0.0800 
 41 H       -6.0490    -9.9220     1.1590 H     1 <1>   0.0800 
 42 H       -7.1420   -12.0970     1.1580 H     1 <1>   0.0800 
 43 H       -7.3610   -12.0300    -0.5760 H     1 <1>   0.0800 
 44 H       -6.5000   -14.2740     1.4210 H     1 <1>   0.0800 
 45 H       -4.7470   -14.4630     1.4760 H     1 <1>   0.0800 
 46 H       -4.9000   -16.2740    -0.2000 H     1 <1>   0.0800 
 47 H       -6.6370   -16.0850    -0.2530 H     1 <1>   0.0800 
 48 H       -5.0440   -16.9410     2.1870 H     1 <1>   0.0800 
 49 H       -6.0090   -17.9930     1.1810 H     1 <1>   0.0800 
 50 H       -6.7840   -16.7510     2.1340 H     1 <1>   0.0800 
@<TRIPOS>BOND
  1   1   2  1   
  2   2   3  ar  
  3   2   4  ar  
  4   3   5  ar  
  5   3  24  1   
  6   4   6  ar  
  7   4  25  1   
  8   5   7  ar  
  9   5  26  1   
 10   6   7  ar  
 11   6  27  1   
 12   7   8  1   
 13   8   9  1   
 14   8  28  1   
 15   8  29  1   
 16   9  10  1   
 17   9  30  1   
 18   9  31  1   
 19  10  11  am  
 20  10  32  1   
 21  11  12  2   
 22  11  13  1   
 23  13  14  1   
 24  13  33  1   
 25  13  34  1   
 26  14  15  1   
 27  14  16  1   
 28  15  17  1   
 29  15  35  1   
 30  15  36  1   
 31  16  18  1   
 32  16  37  1   
 33  16  38  1   
 34  17  19  1   
 35  17  20  1   
 36  17  39  1   
 37  18  20  1   
 38  18  40  1   
 39  18  41  1   
 40  19  21  1   
 41  20  42  1   
 42  20  43  1   
 43  21  22  1   
 44  21  44  1   
 45  21  45  1   
 46  22  23  1   
 47  22  46  1   
 48  22  47  1   
 49  23  48  1   
 50  23  49  1   
 51  23  50  1   
@<TRIPOS>SUBSTRUCTURE
  1 ****  10 GROUP 4 **** **** 0

# MOE 2024.06 (io_trps.svl 2023.06)
