@<TRIPOS>MOLECULE
NONAME
57 60 1 0 0 
SMALL
USER_CHARGES


@<TRIPOS>ATOM
  1 O        0.6980    -1.0570    -1.8910 O.2   1 <1>  -0.5700 
  2 C       -0.0380    -0.1160    -1.6970 C.2   1 <1>   0.5690 
  3 N       -1.2040    -0.2710    -0.9920 N.am  1 <1>  -0.6600 
  4 C        0.3700     1.2440    -2.2930 C.3   1 <1>   0.1710 
  5 C       -2.1750     0.7970    -0.6430 C.3   1 <1>   0.1400 
  6 C       -1.6140    -1.5500    -0.3790 C.3   1 <1>   0.1400 
  7 N        0.3970     2.4030    -1.3550 N.3   1 <1>  -0.8100 
  8 C       -3.1830     0.1440     0.3150 C.3   1 <1>   0.2000 
  9 C       -3.0870    -1.3500    -0.0150 C.3   1 <1>  -0.0800 
 10 C        1.3210     2.1520    -0.2230 C.3   1 <1>   0.1100 
 11 C        0.8090     3.6390    -2.0530 C.3   1 <1>   0.1100 
 12 O       -2.7820     0.3360     1.6430 O.3   1 <1>  -0.5600 
 13 C       -3.5760    -2.2860     1.1050 C.3   1 <1>   0.0200 
 14 C        1.3560     3.3220     0.7770 C.3   1 <1>   0.2090 
 15 C        0.8080     4.8630    -1.1190 C.3   1 <1>   0.2090 
 16 C       -3.1310     1.5650     2.2020 C.3   1 <1>   0.0400 
 17 C       -3.6320    -3.7460     0.6850 C.2   1 <1>  -0.0400 
 18 N        1.6480     4.6260     0.0980 N.pl3 1 <1>  -0.8380 
 19 O       -3.9480    -4.6440     1.5800 O.3   1 <1>  -0.0190 
 20 C       -3.4210    -4.3870    -0.4760 C.2   1 <1>  -0.1500 
 21 C        2.3940     5.6230     0.6930 C.ar  1 <1>   0.7200 
 22 N       -3.9590    -5.8470     1.0830 N.2   1 <1>  -0.4100 
 23 C       -3.6440    -5.7220    -0.1550 C.2   1 <1>   0.1080 
 24 N        2.5690     6.7500     0.0010 N.ar  1 <1>  -0.6200 
 25 N        2.8760     5.3800     1.9130 N.ar  1 <1>  -0.6200 
 26 C       -3.5310    -6.8780    -1.1240 C.3   1 <1>  -0.0590 
 27 C        3.2790     7.6880     0.5790 C.ar  1 <1>   0.1600 
 28 C        3.5810     6.3350     2.4660 C.ar  1 <1>   0.1600 
 29 C        3.8170     7.5290     1.8310 C.ar  1 <1>  -0.1500 
 30 H       -0.3170     1.4610    -3.0900 H     1 <1>   0.0800 
 31 H        1.3460     1.1270    -2.7310 H     1 <1>   0.0800 
 32 H       -1.6860     1.6340    -0.1810 H     1 <1>   0.0800 
 33 H       -2.6720     1.1190    -1.5400 H     1 <1>   0.0800 
 34 H       -1.4680    -2.3680    -1.0630 H     1 <1>   0.0800 
 35 H       -1.0230    -1.7130     0.5070 H     1 <1>   0.0800 
 36 H       -4.1830     0.5220     0.1880 H     1 <1>   0.0800 
 37 H       -3.6730    -1.5280    -0.8990 H     1 <1>   0.0800 
 38 H        1.0120     1.2670     0.3070 H     1 <1>   0.0800 
 39 H        2.3180     1.9850    -0.5940 H     1 <1>   0.0800 
 40 H        1.8000     3.5190    -2.4590 H     1 <1>   0.0800 
 41 H        0.1350     3.8310    -2.8690 H     1 <1>   0.0800 
 42 H       -4.5620    -1.9860     1.4140 H     1 <1>   0.0800 
 43 H       -2.9280    -2.2010     1.9600 H     1 <1>   0.0800 
 44 H        2.1010     3.1030     1.5210 H     1 <1>   0.0800 
 45 H        0.4040     3.3910     1.2720 H     1 <1>   0.0800 
 46 H       -0.2010     5.0700    -0.8100 H     1 <1>   0.0800 
 47 H        1.1640     5.7120    -1.6750 H     1 <1>   0.0800 
 48 H       -2.7800     1.5790     3.2180 H     1 <1>   0.0800 
 49 H       -4.2020     1.6710     2.1890 H     1 <1>   0.0800 
 50 H       -2.6640     2.3610     1.6500 H     1 <1>   0.0800 
 51 H       -3.1490    -4.0080    -1.4430 H     1 <1>   0.1500 
 52 H       -4.2050    -6.7300    -1.9480 H     1 <1>   0.0800 
 53 H       -3.7820    -7.7980    -0.6280 H     1 <1>   0.0800 
 54 H       -2.5250    -6.9450    -1.4950 H     1 <1>   0.0800 
 55 H        3.4350     8.6060     0.0390 H     1 <1>   0.1500 
 56 H        3.9810     6.1610     3.4500 H     1 <1>   0.1500 
 57 H        4.3970     8.3040     2.2940 H     1 <1>   0.1500 
@<TRIPOS>BOND
  1   1   2  2   
  2   2   3  am  
  3   2   4  1   
  4   3   5  1   
  5   3   6  1   
  6   4   7  1   
  7   4  30  1   
  8   4  31  1   
  9   5   8  1   
 10   5  32  1   
 11   5  33  1   
 12   6   9  1   
 13   6  34  1   
 14   6  35  1   
 15   7  10  1   
 16   7  11  1   
 17   8   9  1   
 18   8  12  1   
 19   8  36  1   
 20   9  13  1   
 21   9  37  1   
 22  10  14  1   
 23  10  38  1   
 24  10  39  1   
 25  11  15  1   
 26  11  40  1   
 27  11  41  1   
 28  12  16  1   
 29  13  17  1   
 30  13  42  1   
 31  13  43  1   
 32  14  18  1   
 33  14  44  1   
 34  14  45  1   
 35  15  18  1   
 36  15  46  1   
 37  15  47  1   
 38  16  48  1   
 39  16  49  1   
 40  16  50  1   
 41  17  19  1   
 42  17  20  2   
 43  18  21  1   
 44  19  22  1   
 45  20  23  1   
 46  20  51  1   
 47  21  24  ar  
 48  21  25  ar  
 49  22  23  2   
 50  23  26  1   
 51  24  27  ar  
 52  25  28  ar  
 53  26  52  1   
 54  26  53  1   
 55  26  54  1   
 56  27  29  ar  
 57  27  55  1   
 58  28  29  ar  
 59  28  56  1   
 60  29  57  1   
@<TRIPOS>SUBSTRUCTURE
  1 ****   3 GROUP 4 **** **** 0

# MOE 2024.06 (io_trps.svl 2023.06)
