@<TRIPOS>MOLECULE
NONAME
43 45 1 0 0 
SMALL
USER_CHARGES


@<TRIPOS>ATOM
  1 F       -2.6660    -0.7060    -2.3040 F     1 <1>  -0.1900 
  2 C       -2.5650    -0.3090    -1.0640 C.ar  1 <1>   0.1900 
  3 C       -3.7220    -0.1160    -0.3120 C.ar  1 <1>   0.0860 
  4 C       -1.2940    -0.1070    -0.5640 C.ar  1 <1>  -0.1500 
  5 C       -3.5520     0.3110     1.0120 C.ar  1 <1>  -0.1440 
  6 C       -5.0270    -0.3590    -0.8880 C.2   1 <1>   0.5440 
  7 C       -1.1520     0.3100     0.7450 C.ar  1 <1>  -0.1500 
  8 C       -2.2790     0.5180     1.5250 C.ar  1 <1>  -0.1500 
  9 C       -4.7630     0.5570     1.9020 C.3   1 <1>  -0.0960 
 10 O       -5.7460     0.5730    -1.1930 O.2   1 <1>  -0.5700 
 11 N       -5.4960    -1.6380    -1.0630 N.am  1 <1>  -0.6600 
 12 C       -6.8120    -1.9630    -1.6670 C.3   1 <1>   0.1400 
 13 C       -4.7960    -2.8800    -0.6520 C.3   1 <1>   0.1400 
 14 C       -7.1300    -3.3580    -1.1330 C.3   1 <1>   0.2000 
 15 C       -5.7510    -4.0190    -1.0270 C.3   1 <1>  -0.0800 
 16 O       -7.6740    -3.2120     0.1350 O.3   1 <1>  -0.6800 
 17 C       -5.6630    -5.2360    -0.0870 C.3   1 <1>   0.0210 
 18 C       -4.2410    -5.7600     0.0030 C.2   1 <1>   0.1080 
 19 N       -3.5230    -6.0480    -1.0390 N.2   1 <1>  -0.7070 
 20 C       -3.5520    -5.9810     1.1910 C.2   1 <1>  -0.1500 
 21 N       -2.3470    -6.4670    -0.5370 N.pl3 1 <1>   0.3000 
 22 C       -2.3390    -6.4330     0.8120 C.2   1 <1>  -0.3320 
 23 C       -1.1550    -6.8450     1.6680 C.3   1 <1>  -0.0600 
 24 H       -0.4360    -0.2720    -1.1910 H     1 <1>   0.1500 
 25 H       -0.1710     0.4760     1.1580 H     1 <1>   0.1500 
 26 H       -2.1530     0.8470     2.5430 H     1 <1>   0.1500 
 27 H       -4.4670     0.8610     2.8900 H     1 <1>   0.0800 
 28 H       -5.3510    -0.3400     1.9840 H     1 <1>   0.0800 
 29 H       -5.3770     1.3330     1.4790 H     1 <1>   0.0800 
 30 H       -7.5670    -1.2420    -1.4010 H     1 <1>   0.0800 
 31 H       -6.7030    -1.9900    -2.7370 H     1 <1>   0.0800 
 32 H       -3.8560    -2.9850    -1.1680 H     1 <1>   0.0800 
 33 H       -4.6230    -2.8580     0.4110 H     1 <1>   0.0800 
 34 H       -7.8240    -3.9050    -1.7470 H     1 <1>   0.0800 
 35 H       -5.4730    -4.3460    -2.0140 H     1 <1>   0.0800 
 36 H       -7.1820    -2.5010     0.5930 H     1 <1>   0.4000 
 37 H       -6.2970    -6.0210    -0.4580 H     1 <1>   0.0800 
 38 H       -5.9980    -4.9770     0.9000 H     1 <1>   0.0800 
 39 H       -3.9310    -5.8180     2.1840 H     1 <1>   0.1500 
 40 H       -1.5730    -6.7700    -1.1410 H     1 <1>   0.2700 
 41 H       -1.3960    -6.7330     2.7100 H     1 <1>   0.0800 
 42 H       -0.3020    -6.2300     1.4450 H     1 <1>   0.0800 
 43 H       -0.9040    -7.8750     1.4850 H     1 <1>   0.0800 
@<TRIPOS>BOND
  1   1   2  1   
  2   2   3  ar  
  3   2   4  ar  
  4   3   5  ar  
  5   3   6  1   
  6   4   7  ar  
  7   4  24  1   
  8   5   8  ar  
  9   5   9  1   
 10   6  10  2   
 11   6  11  am  
 12   7   8  ar  
 13   7  25  1   
 14   8  26  1   
 15   9  27  1   
 16   9  28  1   
 17   9  29  1   
 18  11  12  1   
 19  11  13  1   
 20  12  14  1   
 21  12  30  1   
 22  12  31  1   
 23  13  15  1   
 24  13  32  1   
 25  13  33  1   
 26  14  15  1   
 27  14  16  1   
 28  14  34  1   
 29  15  17  1   
 30  15  35  1   
 31  16  36  1   
 32  17  18  1   
 33  17  37  1   
 34  17  38  1   
 35  18  19  2   
 36  18  20  1   
 37  19  21  1   
 38  20  22  2   
 39  20  39  1   
 40  21  22  1   
 41  21  40  1   
 42  22  23  1   
 43  23  41  1   
 44  23  42  1   
 45  23  43  1   
@<TRIPOS>SUBSTRUCTURE
  1 ****  13 GROUP 4 **** **** 0

# MOE 2024.06 (io_trps.svl 2023.06)
