@<TRIPOS>MOLECULE
NONAME
57 59 1 0 0 
SMALL
USER_CHARGES


@<TRIPOS>ATOM
  1 S       -0.1760    -0.2290     0.4810 S.3   1 <1>  -0.0800 
  2 C        0.3840    -1.8150    -0.0740 C.2   1 <1>  -0.0130 
  3 C       -1.8620    -0.6860     0.3580 C.2   1 <1>  -0.1400 
  4 C        1.8040    -2.0660    -0.1880 C.ar  1 <1>   0.3630 
  5 C       -0.7110    -2.5850    -0.3160 C.2   1 <1>  -0.1500 
  6 C       -1.9670    -1.9540    -0.0740 C.2   1 <1>  -0.1500 
  7 C       -2.8920     0.3560     0.7370 C.3   1 <1>  -0.0600 
  8 N        2.6550    -1.0740     0.0750 N.ar  1 <1>  -0.6200 
  9 C        2.2520    -3.3320    -0.5670 C.ar  1 <1>  -0.1500 
 10 C        3.9460    -1.3280    -0.0360 C.ar  1 <1>   0.4100 
 11 C        3.5950    -3.5960    -0.6880 C.ar  1 <1>  -0.1500 
 12 N        4.7570    -0.2550     0.2720 N.pl3 1 <1>  -0.8380 
 13 C        4.4760    -2.5640    -0.4220 C.ar  1 <1>  -0.1790 
 14 C        5.3730     0.4720    -0.8910 C.3   1 <1>   0.2090 
 15 C        5.5270    -0.3410     1.5610 C.3   1 <1>   0.2090 
 16 C        5.8950    -2.7160    -0.5270 C.2   1 <1>   0.9790 
 17 C        6.8580     0.8820    -0.6880 C.3   1 <1>   0.4230 
 18 C        7.0700    -0.4380     1.4190 C.3   1 <1>   0.3430 
 19 O        6.5240    -2.2560    -1.4990 O.co2 1 <1>  -0.9000 
 20 O        6.5770    -3.1340     0.4220 O.co2 1 <1>  -0.9000 
 21 N        7.5830    -0.2150     0.0310 N.4   1 <1>  -0.9590 
 22 C        6.9000     2.2670     0.0060 C.3   1 <1>  -0.1600 
 23 C        9.0650    -0.2450    -0.0320 C.3   1 <1>   0.3430 
 24 C        8.2750     2.8770     0.2890 C.3   1 <1>   0.1200 
 25 C        9.5730    -0.6640    -1.4210 C.3   1 <1>  -0.0800 
 26 O        8.7460     2.3980     1.5000 O.3   1 <1>  -0.6800 
 27 C        9.8680    -2.1700    -1.4540 C.3   1 <1>  -0.2400 
 28 C       10.8450     0.1150    -1.7830 C.3   1 <1>  -0.2400 
 29 H       -0.6830    -3.6000    -0.6650 H     1 <1>   0.1500 
 30 H       -2.8920    -2.4800    -0.2350 H     1 <1>   0.1500 
 31 H       -2.7510     0.6530     1.7600 H     1 <1>   0.0800 
 32 H       -3.8830    -0.0420     0.6210 H     1 <1>   0.0800 
 33 H       -2.7850     1.2200     0.1050 H     1 <1>   0.0800 
 34 H        1.5440    -4.1120    -0.7660 H     1 <1>   0.1500 
 35 H        3.9630    -4.5650    -0.9800 H     1 <1>   0.1500 
 36 H        4.7760     1.3420    -1.1010 H     1 <1>   0.0800 
 37 H        5.3110    -0.1500    -1.7670 H     1 <1>   0.0800 
 38 H        5.1890    -1.1990     2.1180 H     1 <1>   0.0800 
 39 H        5.2860     0.5220     2.1550 H     1 <1>   0.0800 
 40 H        7.2940     0.9910    -1.6670 H     1 <1>   0.0800 
 41 H        7.3710    -1.4220     1.7420 H     1 <1>   0.0800 
 42 H        7.5220     0.2730     2.0880 H     1 <1>   0.0800 
 43 H        7.2830    -1.0920    -0.4760 H     1 <1>   0.4500 
 44 H        6.3080     2.2670     0.9030 H     1 <1>   0.0800 
 45 H        6.4090     2.9470    -0.6660 H     1 <1>   0.0800 
 46 H        9.4380    -0.9510     0.6920 H     1 <1>   0.0800 
 47 H        9.4650     0.7180     0.2200 H     1 <1>   0.0800 
 48 H        8.2120     3.9500     0.3640 H     1 <1>   0.0800 
 49 H        8.9820     2.6250    -0.4830 H     1 <1>   0.0800 
 50 H        8.8260    -0.4500    -2.1660 H     1 <1>   0.0800 
 51 H        8.4120     2.9470     2.2390 H     1 <1>   0.4000 
 52 H       10.6580    -2.4250    -0.7710 H     1 <1>   0.0800 
 53 H       10.1570    -2.4730    -2.4450 H     1 <1>   0.0800 
 54 H        8.9930    -2.7330    -1.1800 H     1 <1>   0.0800 
 55 H       11.6280    -0.0810    -1.0710 H     1 <1>   0.0800 
 56 H       10.6480     1.1720    -1.7980 H     1 <1>   0.0800 
 57 H       11.1920    -0.1760    -2.7590 H     1 <1>   0.0800 
@<TRIPOS>BOND
  1   1   2  1   
  2   1   3  1   
  3   2   4  1   
  4   2   5  2   
  5   3   6  2   
  6   3   7  1   
  7   4   8  ar  
  8   4   9  ar  
  9   5   6  1   
 10   5  29  1   
 11   6  30  1   
 12   7  31  1   
 13   7  32  1   
 14   7  33  1   
 15   8  10  ar  
 16   9  11  ar  
 17   9  34  1   
 18  10  12  1   
 19  10  13  ar  
 20  11  13  ar  
 21  11  35  1   
 22  12  14  1   
 23  12  15  1   
 24  13  16  1   
 25  14  17  1   
 26  14  36  1   
 27  14  37  1   
 28  15  18  1   
 29  15  38  1   
 30  15  39  1   
 31  16  19  ar  
 32  16  20  ar  
 33  17  21  1   
 34  17  22  1   
 35  17  40  1   
 36  18  21  1   
 37  18  41  1   
 38  18  42  1   
 39  21  23  1   
 40  21  43  1   
 41  22  24  1   
 42  22  44  1   
 43  22  45  1   
 44  23  25  1   
 45  23  46  1   
 46  23  47  1   
 47  24  26  1   
 48  24  48  1   
 49  24  49  1   
 50  25  27  1   
 51  25  28  1   
 52  25  50  1   
 53  26  51  1   
 54  27  52  1   
 55  27  53  1   
 56  27  54  1   
 57  28  55  1   
 58  28  56  1   
 59  28  57  1   
@<TRIPOS>SUBSTRUCTURE
  1 ****  12 GROUP 4 **** **** 0

# MOE 2024.06 (io_trps.svl 2023.06)
