@<TRIPOS>MOLECULE
NONAME
50 52 1 0 0 
SMALL
USER_CHARGES


@<TRIPOS>ATOM
  1 O       -0.0960     0.3860     0.7350 O.2   1 <1>  -0.5700 
  2 C       -0.1350     1.5780     0.5340 C.2   1 <1>   0.5690 
  3 N       -1.2550     2.3190     0.8180 N.am  1 <1>  -0.6600 
  4 C        1.1020     2.2540    -0.0380 C.3   1 <1>  -0.0990 
  5 C       -2.5000     1.6790     1.3300 C.3   1 <1>   0.1400 
  6 C       -1.3880     3.7940     0.6490 C.3   1 <1>   0.1400 
  7 C        2.2040     1.2770    -0.4670 C.3   1 <1>   0.0210 
  8 C       -3.6430     1.9470     0.3480 C.3   1 <1>  -0.1600 
  9 C       -2.5080     4.0790    -0.3530 C.3   1 <1>  -0.1600 
 10 C        3.4150     2.0410    -0.9660 C.2   1 <1>   0.1080 
 11 C       -3.8340     3.4450     0.0910 C.3   1 <1>   0.4180 
 12 N        3.4470     2.5840    -2.1430 N.2   1 <1>  -0.7070 
 13 C        4.5940     2.2590    -0.2520 C.2   1 <1>  -0.1810 
 14 O       -4.2320     4.0070     1.3190 O.3   1 <1>  -0.5600 
 15 C       -4.9180     3.6490    -0.9650 C.2   1 <1>  -0.2880 
 16 N        4.6590     3.1610    -2.2170 N.pl3 1 <1>   0.3000 
 17 C        5.3740     2.9820    -1.0870 C.2   1 <1>  -0.3320 
 18 C        4.8890     1.7700     1.1550 C.3   1 <1>  -0.0590 
 19 C       -4.8850     5.2450     1.2830 C.3   1 <1>   0.1200 
 20 C       -6.0090     4.3970    -0.7860 C.2   1 <1>  -0.2760 
 21 C        6.7780     3.5350    -0.9100 C.3   1 <1>  -0.0600 
 22 C       -6.2150     5.1340     0.5250 C.3   1 <1>  -0.0220 
 23 C       -7.1110     4.5740    -1.8150 C.3   1 <1>  -0.1020 
 24 H        1.4990     2.9220     0.7040 H     1 <1>   0.0800 
 25 H        0.8170     2.8300    -0.8990 H     1 <1>   0.0800 
 26 H       -2.7390     2.0930     2.2950 H     1 <1>   0.0800 
 27 H       -2.3670     0.6170     1.4470 H     1 <1>   0.0800 
 28 H       -0.4720     4.2380     0.3050 H     1 <1>   0.0800 
 29 H       -1.6310     4.2340     1.6020 H     1 <1>   0.0800 
 30 H        1.8390     0.6450    -1.2580 H     1 <1>   0.0800 
 31 H        2.4820     0.6470     0.3570 H     1 <1>   0.0800 
 32 H       -4.5580     1.5360     0.7330 H     1 <1>   0.0800 
 33 H       -3.4220     1.4460    -0.5760 H     1 <1>   0.0800 
 34 H       -2.2250     3.6730    -1.3070 H     1 <1>   0.0800 
 35 H       -2.6280     5.1380    -0.4830 H     1 <1>   0.0800 
 36 H       -4.7150     3.1160    -1.8760 H     1 <1>   0.1500 
 37 H        4.9690     3.6680    -3.0540 H     1 <1>   0.2700 
 38 H        4.1180     2.1030     1.8260 H     1 <1>   0.0800 
 39 H        5.8310     2.1470     1.5050 H     1 <1>   0.0800 
 40 H        4.9230     0.6960     1.1660 H     1 <1>   0.0800 
 41 H       -4.2400     5.9620     0.8080 H     1 <1>   0.0800 
 42 H       -5.0590     5.5550     2.2980 H     1 <1>   0.0800 
 43 H        7.1790     3.2680     0.0490 H     1 <1>   0.0800 
 44 H        6.7630     4.6080    -0.9850 H     1 <1>   0.0800 
 45 H        7.4280     3.1400    -1.6700 H     1 <1>   0.0800 
 46 H       -6.5870     6.1260     0.3410 H     1 <1>   0.0800 
 47 H       -6.9350     4.6110     1.1280 H     1 <1>   0.0800 
 48 H       -8.0490     4.2310    -1.4140 H     1 <1>   0.0800 
 49 H       -6.8920     4.0070    -2.7020 H     1 <1>   0.0800 
 50 H       -7.2050     5.6100    -2.0860 H     1 <1>   0.0800 
@<TRIPOS>BOND
  1   1   2  2   
  2   2   3  am  
  3   2   4  1   
  4   3   5  1   
  5   3   6  1   
  6   4   7  1   
  7   4  24  1   
  8   4  25  1   
  9   5   8  1   
 10   5  26  1   
 11   5  27  1   
 12   6   9  1   
 13   6  28  1   
 14   6  29  1   
 15   7  10  1   
 16   7  30  1   
 17   7  31  1   
 18   8  11  1   
 19   8  32  1   
 20   8  33  1   
 21   9  11  1   
 22   9  34  1   
 23   9  35  1   
 24  10  12  2   
 25  10  13  1   
 26  11  14  1   
 27  11  15  1   
 28  12  16  1   
 29  13  17  2   
 30  13  18  1   
 31  14  19  1   
 32  15  20  2   
 33  15  36  1   
 34  16  17  1   
 35  16  37  1   
 36  17  21  1   
 37  18  38  1   
 38  18  39  1   
 39  18  40  1   
 40  19  22  1   
 41  19  41  1   
 42  19  42  1   
 43  20  22  1   
 44  20  23  1   
 45  21  43  1   
 46  21  44  1   
 47  21  45  1   
 48  22  46  1   
 49  22  47  1   
 50  23  48  1   
 51  23  49  1   
 52  23  50  1   
@<TRIPOS>SUBSTRUCTURE
  1 ****   3 GROUP 4 **** **** 0

# MOE 2024.06 (io_trps.svl 2023.06)
