@<TRIPOS>MOLECULE
NONAME
62 65 1 0 0 
SMALL
USER_CHARGES


@<TRIPOS>ATOM
  1 O       -1.8660    -4.7970     1.7750 O.2   1 <1>  -0.5700 
  2 C       -0.7210    -4.7270     1.4040 C.2   1 <1>   0.5690 
  3 N        0.0930    -5.8150     1.2480 N.am  1 <1>  -0.6600 
  4 C       -0.1340    -3.3660     1.0910 C.3   1 <1>  -0.0990 
  5 C        1.4990    -5.6530     0.8090 C.3   1 <1>   0.1400 
  6 C       -0.3570    -7.1980     1.5630 C.3   1 <1>   0.0600 
  7 C        0.6540    -3.4140    -0.2310 C.3   1 <1>  -0.0800 
  8 C        1.5760    -4.6500    -0.3610 C.3   1 <1>  -0.0800 
  9 C        1.5360    -2.1790    -0.4590 C.3   1 <1>  -0.1600 
 10 C        2.9890    -4.0980    -0.5950 C.3   1 <1>  -0.1600 
 11 C        2.7530    -2.7160    -1.2030 C.3   1 <1>   0.4230 
 12 N        3.9270    -1.8000    -1.1390 N.4   1 <1>  -0.9590 
 13 C        4.5170    -1.5910     0.2180 C.3   1 <1>   0.4860 
 14 C        4.9800    -2.2050    -2.1220 C.3   1 <1>   0.2630 
 15 C        5.4120    -0.3700     0.1620 C.ar  1 <1>  -0.1440 
 16 C        6.7940    -0.5080     0.1670 C.ar  1 <1>  -0.1500 
 17 C        4.8540     0.9000     0.1030 C.ar  1 <1>  -0.1500 
 18 C        7.6100     0.6080     0.0990 C.ar  1 <1>  -0.1500 
 19 C        5.6700     2.0140     0.0340 C.ar  1 <1>  -0.1500 
 20 C        7.0480     1.8790     0.0290 C.ar  1 <1>   0.0820 
 21 O        7.7700     3.0230    -0.0420 O.3   1 <1>  -0.3620 
 22 C        9.1800     3.0100     0.0190 C.3   1 <1>   0.1200 
 23 C        9.6840     4.4500    -0.0410 C.3   1 <1>  -0.0170 
 24 C       11.2020     4.4730     0.0230 C.ar  1 <1>  -0.1440 
 25 C       11.9520     4.4290    -1.1420 C.ar  1 <1>  -0.1500 
 26 C       11.8500     4.5300     1.2470 C.ar  1 <1>  -0.1500 
 27 C       13.3350     4.4420    -1.0840 C.ar  1 <1>  -0.1500 
 28 C       13.2330     4.5430     1.3070 C.ar  1 <1>  -0.1500 
 29 C       13.9770     4.4990     0.1410 C.ar  1 <1>  -0.1500 
 30 H       -0.9280    -2.6430     1.0250 H     1 <1>   0.0800 
 31 H        0.5030    -3.0930     1.9120 H     1 <1>   0.0800 
 32 H        2.0720    -5.3000     1.6500 H     1 <1>   0.0800 
 33 H        1.9030    -6.6030     0.5010 H     1 <1>   0.0800 
 34 H        0.2570    -7.6150     2.3410 H     1 <1>   0.0800 
 35 H       -0.2870    -7.8140     0.6840 H     1 <1>   0.0800 
 36 H       -1.3810    -7.1960     1.8980 H     1 <1>   0.0800 
 37 H       -0.0690    -3.4720    -1.0300 H     1 <1>   0.0800 
 38 H        1.2740    -5.1810    -1.2500 H     1 <1>   0.0800 
 39 H        1.8120    -1.7600     0.4910 H     1 <1>   0.0800 
 40 H        1.0140    -1.4370    -1.0380 H     1 <1>   0.0800 
 41 H        3.5450    -4.7370    -1.2580 H     1 <1>   0.0800 
 42 H        3.4970    -4.0240     0.3490 H     1 <1>   0.0800 
 43 H        2.4660    -2.8520    -2.2340 H     1 <1>   0.0800 
 44 H        3.5990    -0.8690    -1.4300 H     1 <1>   0.4500 
 45 H        3.7440    -1.4230     0.9480 H     1 <1>   0.0800 
 46 H        5.0870    -2.4560     0.5170 H     1 <1>   0.0800 
 47 H        5.4020    -3.1590    -1.8500 H     1 <1>   0.0800 
 48 H        5.7720    -1.4720    -2.1470 H     1 <1>   0.0800 
 49 H        4.5600    -2.2830    -3.1120 H     1 <1>   0.0800 
 50 H        7.2540    -1.4800     0.2260 H     1 <1>   0.1500 
 51 H        3.7870     1.0430     0.1150 H     1 <1>   0.1500 
 52 H        8.6760     0.4720     0.1040 H     1 <1>   0.1500 
 53 H        5.2470     3.0020    -0.0130 H     1 <1>   0.1500 
 54 H        9.4790     2.5480     0.9440 H     1 <1>   0.0800 
 55 H        9.5560     2.4470    -0.8170 H     1 <1>   0.0800 
 56 H        9.3520     4.9090    -0.9550 H     1 <1>   0.0800 
 57 H        9.2790     5.0070     0.7850 H     1 <1>   0.0800 
 58 H       11.4640     4.3860    -2.1000 H     1 <1>   0.1500 
 59 H       11.2810     4.5640     2.1600 H     1 <1>   0.1500 
 60 H       13.9120     4.4090    -1.9920 H     1 <1>   0.1500 
 61 H       13.7300     4.5880     2.2600 H     1 <1>   0.1500 
 62 H       15.0520     4.5100     0.1860 H     1 <1>   0.1500 
@<TRIPOS>BOND
  1   1   2  2   
  2   2   3  am  
  3   2   4  1   
  4   3   5  1   
  5   3   6  1   
  6   4   7  1   
  7   4  30  1   
  8   4  31  1   
  9   5   8  1   
 10   5  32  1   
 11   5  33  1   
 12   6  34  1   
 13   6  35  1   
 14   6  36  1   
 15   7   8  1   
 16   7   9  1   
 17   7  37  1   
 18   8  10  1   
 19   8  38  1   
 20   9  11  1   
 21   9  39  1   
 22   9  40  1   
 23  10  11  1   
 24  10  41  1   
 25  10  42  1   
 26  11  12  1   
 27  11  43  1   
 28  12  13  1   
 29  12  14  1   
 30  12  44  1   
 31  13  15  1   
 32  13  45  1   
 33  13  46  1   
 34  14  47  1   
 35  14  48  1   
 36  14  49  1   
 37  15  16  ar  
 38  15  17  ar  
 39  16  18  ar  
 40  16  50  1   
 41  17  19  ar  
 42  17  51  1   
 43  18  20  ar  
 44  18  52  1   
 45  19  20  ar  
 46  19  53  1   
 47  20  21  1   
 48  21  22  1   
 49  22  23  1   
 50  22  54  1   
 51  22  55  1   
 52  23  24  1   
 53  23  56  1   
 54  23  57  1   
 55  24  25  ar  
 56  24  26  ar  
 57  25  27  ar  
 58  25  58  1   
 59  26  28  ar  
 60  26  59  1   
 61  27  29  ar  
 62  27  60  1   
 63  28  29  ar  
 64  28  61  1   
 65  29  62  1   
@<TRIPOS>SUBSTRUCTURE
  1 ****  15 GROUP 4 **** **** 0

# MOE 2024.06 (io_trps.svl 2023.06)
