@<TRIPOS>MOLECULE
NONAME
58 61 1 0 0 
SMALL
USER_CHARGES


@<TRIPOS>ATOM
  1 O       -1.9950     0.1490    -1.1960 O.2   1 <1>  -0.5700 
  2 C       -2.7520     0.2570    -0.2530 C.2   1 <1>   0.7800 
  3 O       -3.4010     1.4030    -0.0500 O.3   1 <1>  -0.4300 
  4 N       -2.9980    -0.7800     0.6140 N.am  1 <1>  -0.6600 
  5 C       -3.1850     2.5150    -0.8900 C.3   1 <1>   0.1200 
  6 C       -4.0090    -0.7130     1.6940 C.3   1 <1>   0.1400 
  7 C       -2.3030    -2.0820     0.4770 C.3   1 <1>   0.1400 
  8 C       -4.0770     3.6530    -0.4050 C.3   1 <1>  -0.2400 
  9 C       -5.0920    -1.7500     1.3890 C.3   1 <1>  -0.1600 
 10 C       -3.3520    -3.1400     0.1390 C.3   1 <1>  -0.1600 
 11 C       -4.4730    -3.1400     1.1870 C.3   1 <1>   0.4230 
 12 N       -5.5390    -4.1180     0.8520 N.4   1 <1>  -0.9060 
 13 C       -6.2130    -3.9810    -0.4750 C.3   1 <1>   0.4230 
 14 C       -7.6560    -4.4800    -0.3960 C.3   1 <1>  -0.0800 
 15 C       -5.6380    -5.0430    -1.4070 C.3   1 <1>   0.1200 
 16 C       -7.5140    -6.0010    -0.5760 C.3   1 <1>   0.1200 
 17 C       -8.4840    -4.0670     0.8400 C.3   1 <1>  -0.0170 
 18 O       -6.1690    -6.2170    -0.8890 O.3   1 <1>  -0.5600 
 19 C       -9.9300    -4.5200     0.6850 C.ar  1 <1>  -0.1440 
 20 C      -10.8550    -3.8330    -0.1400 C.ar  1 <1>   0.0000 
 21 C      -10.3760    -5.6290     1.3440 C.ar  1 <1>  -0.1500 
 22 C      -12.1640    -4.3660    -0.2440 C.ar  1 <1>   0.3100 
 23 C      -10.5650    -2.6520    -0.8640 C.ar  1 <1>  -0.1500 
 24 C      -11.6970    -6.0640     1.1820 C.ar  1 <1>   0.1600 
 25 N      -12.5650    -5.4770     0.4210 N.ar  1 <1>  -0.6200 
 26 C      -13.0990    -3.7220    -1.0690 C.ar  1 <1>  -0.1500 
 27 C      -11.5020    -2.0470    -1.6580 C.ar  1 <1>  -0.1500 
 28 C      -12.7840    -2.5890    -1.7660 C.ar  1 <1>  -0.1500 
 29 H       -2.1450     2.7880    -0.8330 H     1 <1>   0.0800 
 30 H       -3.4300     2.2350    -1.9010 H     1 <1>   0.0800 
 31 H       -3.5330    -0.9230     2.6380 H     1 <1>   0.0800 
 32 H       -4.4470     0.2690     1.7580 H     1 <1>   0.0800 
 33 H       -1.5570    -2.0390    -0.3010 H     1 <1>   0.0800 
 34 H       -1.8020    -2.3170     1.4020 H     1 <1>   0.0800 
 35 H       -3.8270     3.9160     0.6070 H     1 <1>   0.0800 
 36 H       -5.1120     3.3650    -0.4590 H     1 <1>   0.0800 
 37 H       -3.9300     4.5170    -1.0280 H     1 <1>   0.0800 
 38 H       -5.6120    -1.4250     0.5060 H     1 <1>   0.0800 
 39 H       -5.7860    -1.7680     2.2100 H     1 <1>   0.0800 
 40 H       -2.8700    -4.1010     0.1080 H     1 <1>   0.0800 
 41 H       -3.7290    -2.9070    -0.8410 H     1 <1>   0.0800 
 42 H       -4.0290    -3.4300     2.1270 H     1 <1>   0.0800 
 43 H       -6.2470    -4.0970     1.5880 H     1 <1>   0.4500 
 44 H       -5.1630    -5.0800     0.8570 H     1 <1>   0.4500 
 45 H       -6.1360    -2.9820    -0.8710 H     1 <1>   0.0800 
 46 H       -8.1660    -4.1150    -1.2710 H     1 <1>   0.0800 
 47 H       -4.5650    -5.0990    -1.4070 H     1 <1>   0.0800 
 48 H       -5.9970    -4.9220    -2.4160 H     1 <1>   0.0800 
 49 H       -8.1230    -6.3630    -1.3890 H     1 <1>   0.0800 
 50 H       -7.7430    -6.5550     0.3180 H     1 <1>   0.0800 
 51 H       -8.4570    -3.0000     0.9780 H     1 <1>   0.0800 
 52 H       -8.0820    -4.5160     1.7310 H     1 <1>   0.0800 
 53 H       -9.7440    -6.2010     1.9980 H     1 <1>   0.1500 
 54 H       -9.5930    -2.2070    -0.7940 H     1 <1>   0.1500 
 55 H      -12.0110    -6.9430     1.7190 H     1 <1>   0.1500 
 56 H      -14.0800    -4.1550    -1.1340 H     1 <1>   0.1500 
 57 H      -11.2700    -1.1490    -2.2060 H     1 <1>   0.1500 
 58 H      -13.5120    -2.1050    -2.3950 H     1 <1>   0.1500 
@<TRIPOS>BOND
  1   1   2  2   
  2   2   3  1   
  3   2   4  am  
  4   3   5  1   
  5   4   6  1   
  6   4   7  1   
  7   5   8  1   
  8   5  29  1   
  9   5  30  1   
 10   6   9  1   
 11   6  31  1   
 12   6  32  1   
 13   7  10  1   
 14   7  33  1   
 15   7  34  1   
 16   8  35  1   
 17   8  36  1   
 18   8  37  1   
 19   9  11  1   
 20   9  38  1   
 21   9  39  1   
 22  10  11  1   
 23  10  40  1   
 24  10  41  1   
 25  11  12  1   
 26  11  42  1   
 27  12  13  1   
 28  12  43  1   
 29  12  44  1   
 30  13  14  1   
 31  13  15  1   
 32  13  45  1   
 33  14  16  1   
 34  14  17  1   
 35  14  46  1   
 36  15  18  1   
 37  15  47  1   
 38  15  48  1   
 39  16  18  1   
 40  16  49  1   
 41  16  50  1   
 42  17  19  1   
 43  17  51  1   
 44  17  52  1   
 45  19  20  ar  
 46  19  21  ar  
 47  20  22  ar  
 48  20  23  ar  
 49  21  24  ar  
 50  21  53  1   
 51  22  25  ar  
 52  22  26  ar  
 53  23  27  ar  
 54  23  54  1   
 55  24  25  ar  
 56  24  55  1   
 57  26  28  ar  
 58  26  56  1   
 59  27  28  ar  
 60  27  57  1   
 61  28  58  1   
@<TRIPOS>SUBSTRUCTURE
  1 ****  13 GROUP 4 **** **** 0

# MOE 2024.06 (io_trps.svl 2023.06)
