@<TRIPOS>MOLECULE
NONAME
47 49 1 0 0 
SMALL
USER_CHARGES


@<TRIPOS>ATOM
  1 O        0.6890     0.0520     0.5360 O.2   1 <1>  -0.5700 
  2 C        1.5930    -0.6270     0.0870 C.2   1 <1>   0.5440 
  3 N        2.8060    -0.0240    -0.1820 N.am  1 <1>  -0.6600 
  4 C        1.3600    -2.0360    -0.1390 C.ar  1 <1>   0.0860 
  5 C        4.1080    -0.7670    -0.2040 C.3   1 <1>   0.1400 
  6 C        2.8910     1.4550    -0.3370 C.3   1 <1>   0.1400 
  7 C        1.7490    -2.6550    -1.3240 C.ar  1 <1>   0.1600 
  8 C        0.7240    -2.8340     0.8040 C.ar  1 <1>  -0.1500 
  9 C        5.0810    -0.2890     0.8860 C.3   1 <1>   0.1400 
 10 C        3.3340     2.1000     0.9800 C.3   1 <1>  -0.1600 
 11 N        1.5940    -3.9330    -1.6220 N.ar  1 <1>  -0.6200 
 12 C        0.5410    -4.1670     0.5140 C.ar  1 <1>  -0.1500 
 13 N        5.6170     1.0740     0.5880 N.am  1 <1>  -0.6600 
 14 C        4.8550     2.2320     1.1410 C.3   1 <1>   0.1400 
 15 C        0.9910    -4.6750    -0.7040 C.ar  1 <1>   0.3930 
 16 C        6.6980     1.2160    -0.2600 C.2   1 <1>   0.5440 
 17 O        0.8420    -5.9680    -1.0460 O.3   1 <1>  -0.3630 
 18 O        7.0480     0.2580    -0.9230 O.2   1 <1>  -0.5700 
 19 C        7.4220     2.4670    -0.3980 C.ar  1 <1>   0.0860 
 20 C        0.1550    -6.9090    -0.2510 C.3   1 <1>   0.0400 
 21 C        7.6660     3.0140    -1.6560 C.ar  1 <1>  -0.1500 
 22 C        7.9140     3.1620     0.7060 C.ar  1 <1>  -0.1500 
 23 C        8.3540     4.2050    -1.8050 C.ar  1 <1>  -0.1500 
 24 C        8.6020     4.3530     0.5600 C.ar  1 <1>  -0.1500 
 25 C        8.8330     4.8970    -0.6980 C.ar  1 <1>   0.0730 
 26 C        9.5470     6.1330    -0.8510 C.1   1 <1>   0.4840 
 27 N       10.1100     7.1170    -0.9700 N.1   1 <1>  -0.5570 
 28 H        4.5710    -0.6570    -1.1700 H     1 <1>   0.0800 
 29 H        3.9360    -1.8150    -0.0440 H     1 <1>   0.0800 
 30 H        1.9190     1.8360    -0.6050 H     1 <1>   0.0800 
 31 H        3.5690     1.7040    -1.1350 H     1 <1>   0.0800 
 32 H        2.2220    -2.0430    -2.0730 H     1 <1>   0.1500 
 33 H        0.3830    -2.4040     1.7310 H     1 <1>   0.1500 
 34 H        5.9050    -0.9800     0.9320 H     1 <1>   0.0800 
 35 H        4.5940    -0.3010     1.8450 H     1 <1>   0.0800 
 36 H        2.9160     1.5540     1.8070 H     1 <1>   0.0800 
 37 H        2.9180     3.0900     1.0280 H     1 <1>   0.0800 
 38 H        0.0520    -4.7960     1.2320 H     1 <1>   0.1500 
 39 H        5.0950     2.3470     2.1840 H     1 <1>   0.0800 
 40 H        5.1600     3.1310     0.6340 H     1 <1>   0.0800 
 41 H        0.1590    -7.8490    -0.7720 H     1 <1>   0.0800 
 42 H       -0.8570    -6.5740    -0.1090 H     1 <1>   0.0800 
 43 H        0.6660    -7.0120     0.6900 H     1 <1>   0.0800 
 44 H        7.3100     2.4860    -2.5260 H     1 <1>   0.1500 
 45 H        7.7570     2.7520     1.6900 H     1 <1>   0.1500 
 46 H        8.5240     4.5990    -2.7930 H     1 <1>   0.1500 
 47 H        8.9690     4.8650     1.4340 H     1 <1>   0.1500 
@<TRIPOS>BOND
  1   1   2  2   
  2   2   3  am  
  3   2   4  1   
  4   3   5  1   
  5   3   6  1   
  6   4   7  ar  
  7   4   8  ar  
  8   5   9  1   
  9   5  28  1   
 10   5  29  1   
 11   6  10  1   
 12   6  30  1   
 13   6  31  1   
 14   7  11  ar  
 15   7  32  1   
 16   8  12  ar  
 17   8  33  1   
 18   9  13  1   
 19   9  34  1   
 20   9  35  1   
 21  10  14  1   
 22  10  36  1   
 23  10  37  1   
 24  11  15  ar  
 25  12  15  ar  
 26  12  38  1   
 27  13  14  1   
 28  13  16  am  
 29  14  39  1   
 30  14  40  1   
 31  15  17  1   
 32  16  18  2   
 33  16  19  1   
 34  17  20  1   
 35  19  21  ar  
 36  19  22  ar  
 37  20  41  1   
 38  20  42  1   
 39  20  43  1   
 40  21  23  ar  
 41  21  44  1   
 42  22  24  ar  
 43  22  45  1   
 44  23  25  ar  
 45  23  46  1   
 46  24  25  ar  
 47  24  47  1   
 48  25  26  1   
 49  26  27  3   
@<TRIPOS>SUBSTRUCTURE
  1 ****   5 GROUP 4 **** **** 0

# MOE 2024.06 (io_trps.svl 2023.06)
