@<TRIPOS>MOLECULE
NONAME
40 42 1 0 0 
SMALL
USER_CHARGES


@<TRIPOS>ATOM
  1 O       -0.3620     0.0940    -0.1120 O.2   1 <1>  -0.5700 
  2 C       -1.3780     0.6950     0.1850 C.2   1 <1>   0.7030 
  3 N       -2.5630    -0.0100     0.2440 N.am  1 <1>  -0.6600 
  4 C       -1.3040     2.1260     0.4640 C.2   1 <1>   0.2770 
  5 C       -3.9180     0.5560     0.0050 C.3   1 <1>   0.1400 
  6 C       -2.5940    -1.4880     0.0460 C.3   1 <1>   0.1400 
  7 N       -0.4180     3.0550    -0.0940 N.pl3 1 <1>  -0.7640 
  8 C       -2.0670     2.8380     1.3340 C.2   1 <1>   0.2000 
  9 C       -4.7530    -0.6080    -0.5280 C.3   1 <1>   0.2000 
 10 C       -4.0760    -1.8690    -0.0020 C.3   1 <1>  -0.0800 
 11 C       -0.6710     4.2430     0.4350 C.cat 1 <1>   0.6500 
 12 C        0.6460     2.7070    -1.0810 C.3   1 <1>   0.2740 
 13 N       -1.6690     4.1460     1.2990 N.pl3 1 <1>  -0.7000 
 14 O       -6.0600    -0.5350    -0.0750 O.3   1 <1>  -0.6800 
 15 C       -4.3790    -3.1090    -0.8610 C.3   1 <1>  -0.0160 
 16 C       -3.7310    -4.3600    -0.2910 C.ar  1 <1>   0.1670 
 17 N       -2.4420    -4.5210    -0.5460 N.ar  1 <1>  -0.6200 
 18 C       -4.4920    -5.2530     0.4500 C.ar  1 <1>  -0.1500 
 19 C       -1.8880    -5.6130    -0.0430 C.ar  1 <1>   0.1600 
 20 C       -3.9020    -6.3850     0.9690 C.ar  1 <1>  -0.1500 
 21 C       -2.5610    -6.5610     0.7100 C.ar  1 <1>  -0.1500 
 22 H       -4.3290     0.9060     0.9360 H     1 <1>   0.0800 
 23 H       -3.8840     1.3530    -0.7180 H     1 <1>   0.0800 
 24 H       -2.1090    -1.7350    -0.8850 H     1 <1>   0.0800 
 25 H       -2.0840    -1.9980     0.8480 H     1 <1>   0.0800 
 26 H       -2.8560     2.4760     1.9740 H     1 <1>   0.1500 
 27 H       -4.7650    -0.5860    -1.6050 H     1 <1>   0.0800 
 28 H       -4.3900    -2.0540     1.0100 H     1 <1>   0.0800 
 29 H       -0.1390     5.1560     0.2010 H     1 <1>   0.1500 
 30 H        0.2120     2.2060    -1.9300 H     1 <1>   0.0800 
 31 H        1.3670     2.0480    -0.6260 H     1 <1>   0.0800 
 32 H        1.1530     3.5930    -1.4220 H     1 <1>   0.0800 
 33 H       -2.0610     4.9150     1.8550 H     1 <1>   0.4500 
 34 H       -6.1170    -0.7700     0.8710 H     1 <1>   0.4000 
 35 H       -4.0240    -2.9610    -1.8660 H     1 <1>   0.0800 
 36 H       -5.4440    -3.2510    -0.9150 H     1 <1>   0.0800 
 37 H       -5.5370    -5.0690     0.6220 H     1 <1>   0.1500 
 38 H       -0.8400    -5.7610    -0.2420 H     1 <1>   0.1500 
 39 H       -4.4620    -7.0990     1.5490 H     1 <1>   0.1500 
 40 H       -2.0380    -7.4220     1.0840 H     1 <1>   0.1500 
@<TRIPOS>BOND
  1   1   2  2   
  2   2   3  am  
  3   2   4  1   
  4   3   5  1   
  5   3   6  1   
  6   4   7  1   
  7   4   8  2   
  8   5   9  1   
  9   5  22  1   
 10   5  23  1   
 11   6  10  1   
 12   6  24  1   
 13   6  25  1   
 14   7  11  ar  
 15   7  12  1   
 16   8  13  1   
 17   8  26  1   
 18   9  10  1   
 19   9  14  1   
 20   9  27  1   
 21  10  15  1   
 22  10  28  1   
 23  11  13  ar  
 24  11  29  1   
 25  12  30  1   
 26  12  31  1   
 27  12  32  1   
 28  13  33  1   
 29  14  34  1   
 30  15  16  1   
 31  15  35  1   
 32  15  36  1   
 33  16  17  ar  
 34  16  18  ar  
 35  17  19  ar  
 36  18  20  ar  
 37  18  37  1   
 38  19  21  ar  
 39  19  38  1   
 40  20  21  ar  
 41  20  39  1   
 42  21  40  1   
@<TRIPOS>SUBSTRUCTURE
  1 ****   6 GROUP 4 **** **** 0

# MOE 2024.06 (io_trps.svl 2023.06)
