@<TRIPOS>MOLECULE
NONAME
44 46 1 0 0 
SMALL
USER_CHARGES


@<TRIPOS>ATOM
  1 O       -0.5320    -0.8100    -1.2950 O.3   1 <1>  -0.5320 
  2 C       -1.7120    -1.2850    -0.8710 C.ar  1 <1>   0.0820 
  3 C       -1.8230    -1.7520     0.4250 C.ar  1 <1>  -0.1500 
  4 C       -2.8050    -1.3050    -1.7220 C.ar  1 <1>  -0.1500 
  5 C       -3.0330    -2.2480     0.8760 C.ar  1 <1>  -0.1500 
  6 C       -4.0140    -1.8030    -1.2680 C.ar  1 <1>  -0.1500 
  7 C       -4.1340    -2.2800     0.0310 C.ar  1 <1>  -0.1430 
  8 C       -5.4520    -2.8450     0.5230 C.3   1 <1>  -0.0170 
  9 C       -5.4560    -4.3550     0.2790 C.3   1 <1>   0.3430 
 10 N       -6.6940    -5.0010     0.8060 N.4   1 <1>  -0.9590 
 11 C       -7.9640    -4.6240     0.1310 C.3   1 <1>   0.3430 
 12 C       -6.6470    -6.4900     0.7450 C.3   1 <1>   0.3430 
 13 C       -8.9430    -5.7020     0.5970 C.3   1 <1>   0.2000 
 14 C       -8.1000    -6.9800     0.5870 C.3   1 <1>  -0.0800 
 15 O       -9.2780    -5.4210     1.9170 O.3   1 <1>  -0.6800 
 16 C       -8.3020    -7.7810    -0.7180 C.3   1 <1>  -0.0170 
 17 C       -7.5010    -9.0760    -0.7320 C.ar  1 <1>   0.1670 
 18 N       -6.1920    -8.9520    -0.8870 N.ar  1 <1>  -0.6200 
 19 C       -8.1470   -10.3040    -0.5910 C.ar  1 <1>   0.1600 
 20 C       -5.5800   -10.1280    -0.9030 C.ar  1 <1>   0.1600 
 21 N       -7.5340   -11.4740    -0.5940 N.ar  1 <1>  -0.6200 
 22 C       -6.2300   -11.3480    -0.7600 C.ar  1 <1>   0.1600 
 23 H       -0.5520    -0.4850    -2.2120 H     1 <1>   0.4500 
 24 H       -0.9630    -1.7220     1.0700 H     1 <1>   0.1500 
 25 H       -2.7180    -0.9370    -2.7280 H     1 <1>   0.1500 
 26 H       -3.1020    -2.6030     1.8900 H     1 <1>   0.1500 
 27 H       -4.8570    -1.8110    -1.9370 H     1 <1>   0.1500 
 28 H       -6.2600    -2.3720    -0.0050 H     1 <1>   0.0800 
 29 H       -5.5570    -2.6390     1.5730 H     1 <1>   0.0800 
 30 H       -4.5940    -4.7810     0.7670 H     1 <1>   0.0800 
 31 H       -5.3620    -4.5460    -0.7780 H     1 <1>   0.0800 
 32 H       -6.8340    -4.7580     1.8000 H     1 <1>   0.4500 
 33 H       -8.3020    -3.6410     0.4170 H     1 <1>   0.0800 
 34 H       -7.8450    -4.6760    -0.9380 H     1 <1>   0.0800 
 35 H       -6.0600    -6.7960    -0.1050 H     1 <1>   0.0800 
 36 H       -6.2000    -6.8970     1.6380 H     1 <1>   0.0800 
 37 H       -9.8420    -5.7430     0.0060 H     1 <1>   0.0800 
 38 H       -8.3610    -7.6190     1.4140 H     1 <1>   0.0800 
 39 H      -10.0160    -5.9870     2.2300 H     1 <1>   0.4000 
 40 H       -8.0100    -7.1920    -1.5700 H     1 <1>   0.0800 
 41 H       -9.3460    -8.0150    -0.8330 H     1 <1>   0.0800 
 42 H       -9.2150   -10.3260    -0.4700 H     1 <1>   0.1500 
 43 H       -4.5120   -10.1300    -1.0370 H     1 <1>   0.1500 
 44 H       -5.6470   -12.2520    -0.7850 H     1 <1>   0.1500 
@<TRIPOS>BOND
  1   1   2  1   
  2   1  23  1   
  3   2   3  ar  
  4   2   4  ar  
  5   3   5  ar  
  6   3  24  1   
  7   4   6  ar  
  8   4  25  1   
  9   5   7  ar  
 10   5  26  1   
 11   6   7  ar  
 12   6  27  1   
 13   7   8  1   
 14   8   9  1   
 15   8  28  1   
 16   8  29  1   
 17   9  10  1   
 18   9  30  1   
 19   9  31  1   
 20  10  11  1   
 21  10  12  1   
 22  10  32  1   
 23  11  13  1   
 24  11  33  1   
 25  11  34  1   
 26  12  14  1   
 27  12  35  1   
 28  12  36  1   
 29  13  14  1   
 30  13  15  1   
 31  13  37  1   
 32  14  16  1   
 33  14  38  1   
 34  15  39  1   
 35  16  17  1   
 36  16  40  1   
 37  16  41  1   
 38  17  18  ar  
 39  17  19  ar  
 40  18  20  ar  
 41  19  21  ar  
 42  19  42  1   
 43  20  22  ar  
 44  20  43  1   
 45  21  22  ar  
 46  22  44  1   
@<TRIPOS>SUBSTRUCTURE
  1 ****   9 GROUP 4 **** **** 0

# MOE 2024.06 (io_trps.svl 2023.06)
