@<TRIPOS>MOLECULE
NONAME
46 48 1 0 0 
SMALL
USER_CHARGES


@<TRIPOS>ATOM
  1 S       -0.7390     0.9340     0.6680 S.o2  1 <1>   1.4470 
  2 O       -1.5680     2.1070     0.4790 O.2   1 <1>  -0.6500 
  3 O       -0.2990     0.6480     2.0200 O.2   1 <1>  -0.6500 
  4 N       -1.6030    -0.4250     0.1510 N.am  1 <1>  -0.8490 
  5 C        0.6890     0.9830    -0.4360 C.ar  1 <1>  -0.0090 
  6 C       -0.9950    -1.6940     0.5970 C.3   1 <1>   0.1960 
  7 C       -3.0450    -0.3320     0.3290 C.3   1 <1>   0.1960 
  8 C        0.5450     1.2750    -1.7810 C.ar  1 <1>   0.1900 
  9 C        1.9770     0.7080     0.0140 C.ar  1 <1>  -0.1500 
 10 C       -1.6440    -2.9470    -0.0210 C.3   1 <1>  -0.1060 
 11 C       -3.7260    -1.5090    -0.3690 C.3   1 <1>  -0.1600 
 12 F       -0.6360     1.5630    -2.2610 F     1 <1>  -0.1900 
 13 C        1.6090     1.2930    -2.6640 C.ar  1 <1>  -0.1500 
 14 C        3.0660     0.7250    -0.8470 C.ar  1 <1>  -0.1440 
 15 C       -1.2920    -3.0250    -1.5120 C.2   1 <1>   0.9060 
 16 C       -3.1830    -2.8510     0.1250 C.3   1 <1>   0.2000 
 17 C       -1.1300    -4.2420     0.6760 C.3   1 <1>  -0.0650 
 18 C        2.8780     1.0160    -2.1890 C.ar  1 <1>  -0.1500 
 19 C        4.4520     0.4050    -0.3200 C.3   1 <1>  -0.0970 
 20 O       -0.2530    -2.5040    -1.9400 O.co2 1 <1>  -0.9000 
 21 O       -2.0440    -3.6580    -2.2660 O.co2 1 <1>  -0.9000 
 22 O       -3.5570    -2.9630     1.4620 O.3   1 <1>  -0.6800 
 23 C        0.3960    -4.4280     0.6750 C.3   1 <1>  -0.1950 
 24 C        1.0920    -5.0420    -0.4960 C.3   1 <1>  -0.2000 
 25 C        0.9880    -5.7960     0.8000 C.3   1 <1>  -0.2000 
 26 H        0.0520    -1.6850     0.3410 H     1 <1>   0.0800 
 27 H       -1.0630    -1.7560     1.6690 H     1 <1>   0.0800 
 28 H       -3.2850    -0.3150     1.3790 H     1 <1>   0.0800 
 29 H       -3.4060     0.5810    -0.1150 H     1 <1>   0.0800 
 30 H        2.1240     0.4680     1.0530 H     1 <1>   0.1500 
 31 H       -3.5530    -1.4280    -1.4280 H     1 <1>   0.0800 
 32 H       -4.7880    -1.4700    -0.2150 H     1 <1>   0.0800 
 33 H        1.4370     1.5120    -3.7020 H     1 <1>   0.1500 
 34 H       -3.6590    -3.6570    -0.4090 H     1 <1>   0.0800 
 35 H       -1.4490    -4.2640     1.7020 H     1 <1>   0.0800 
 36 H       -1.5850    -5.0870     0.1860 H     1 <1>   0.0800 
 37 H        3.7120     1.0200    -2.8690 H     1 <1>   0.1500 
 38 H        5.2060     0.8560    -0.9390 H     1 <1>   0.0800 
 39 H        4.5990    -0.6600    -0.3160 H     1 <1>   0.0800 
 40 H        4.5680     0.7760     0.6830 H     1 <1>   0.0800 
 41 H       -3.0770    -2.2910     1.9770 H     1 <1>   0.4000 
 42 H        0.9150    -3.6380     1.1880 H     1 <1>   0.1000 
 43 H        0.4860    -5.3280    -1.3400 H     1 <1>   0.1000 
 44 H        2.0210    -4.5950    -0.8020 H     1 <1>   0.1000 
 45 H        1.8780    -5.9260     1.3900 H     1 <1>   0.1000 
 46 H        0.3370    -6.6510     0.8360 H     1 <1>   0.1000 
@<TRIPOS>BOND
  1   1   2  2   
  2   1   3  2   
  3   1   4  am  
  4   1   5  1   
  5   4   6  1   
  6   4   7  1   
  7   5   8  ar  
  8   5   9  ar  
  9   6  10  1   
 10   6  26  1   
 11   6  27  1   
 12   7  11  1   
 13   7  28  1   
 14   7  29  1   
 15   8  12  1   
 16   8  13  ar  
 17   9  14  ar  
 18   9  30  1   
 19  10  15  1   
 20  10  16  1   
 21  10  17  1   
 22  11  16  1   
 23  11  31  1   
 24  11  32  1   
 25  13  18  ar  
 26  13  33  1   
 27  14  18  ar  
 28  14  19  1   
 29  15  20  ar  
 30  15  21  ar  
 31  16  22  1   
 32  16  34  1   
 33  17  23  1   
 34  17  35  1   
 35  17  36  1   
 36  18  37  1   
 37  19  38  1   
 38  19  39  1   
 39  19  40  1   
 40  22  41  1   
 41  23  24  1   
 42  23  25  1   
 43  23  42  1   
 44  24  25  1   
 45  24  43  1   
 46  24  44  1   
 47  25  45  1   
 48  25  46  1   
@<TRIPOS>SUBSTRUCTURE
  1 ****   6 GROUP 4 **** **** 0

# MOE 2024.06 (io_trps.svl 2023.06)
