@<TRIPOS>MOLECULE
NONAME
35 36 1 0 0 
SMALL
USER_CHARGES


@<TRIPOS>ATOM
  1 F       -2.7300    -1.3980     2.2000 F     1 <1>  -0.1900 
  2 C       -2.8620    -0.2470     1.5860 C.ar  1 <1>   0.1900 
  3 C       -3.4440    -0.2220     0.3200 C.ar  1 <1>   0.1170 
  4 C       -2.4140     0.8870     2.2340 C.ar  1 <1>  -0.1500 
  5 N       -3.8750    -1.4200    -0.2820 N.am  1 <1>  -0.5470 
  6 C       -3.5590     1.0240    -0.2910 C.ar  1 <1>  -0.1500 
  7 C       -2.5460     2.1110     1.6010 C.ar  1 <1>  -0.1500 
  8 C       -4.6450    -1.7000    -1.3730 C.2   1 <1>   0.5690 
  9 C       -3.1200     2.1800     0.3390 C.ar  1 <1>  -0.1440 
 10 O       -5.1310    -0.8640    -2.0970 O.2   1 <1>  -0.5700 
 11 C       -4.9010    -3.1790    -1.6720 C.3   1 <1>   0.1710 
 12 C       -3.2610     3.5240    -0.3540 C.3   1 <1>  -0.0960 
 13 N       -4.7700    -4.0750    -0.4840 N.3   1 <1>  -0.8100 
 14 C       -4.8110    -5.4960    -0.8610 C.3   1 <1>   0.1100 
 15 C       -5.8480    -3.8830     0.5060 C.3   1 <1>   0.1100 
 16 C       -5.1890    -6.2180     0.4260 C.3   1 <1>   0.2000 
 17 C       -6.2040    -5.2720     1.0460 C.3   1 <1>  -0.1600 
 18 O       -4.0770    -6.2340     1.2430 O.3   1 <1>  -0.6800 
 19 H       -1.9720     0.8130     3.2110 H     1 <1>   0.1500 
 20 H       -3.6320    -2.2740     0.2330 H     1 <1>   0.3700 
 21 H       -3.9940     1.0950    -1.2710 H     1 <1>   0.1500 
 22 H       -2.2020     3.0060     2.0900 H     1 <1>   0.1500 
 23 H       -4.1860    -3.4800    -2.4170 H     1 <1>   0.0800 
 24 H       -5.8830    -3.2780    -2.1000 H     1 <1>   0.0800 
 25 H       -4.0480     3.4910    -1.0870 H     1 <1>   0.0800 
 26 H       -2.3400     3.7780    -0.8460 H     1 <1>   0.0800 
 27 H       -3.4980     4.2910     0.3610 H     1 <1>   0.0800 
 28 H       -3.8640    -5.8340    -1.2470 H     1 <1>   0.0800 
 29 H       -5.5800    -5.6620    -1.5970 H     1 <1>   0.0800 
 30 H       -6.7180    -3.4340     0.0530 H     1 <1>   0.0800 
 31 H       -5.5010    -3.2440     1.3010 H     1 <1>   0.0800 
 32 H       -5.5430    -7.2250     0.2870 H     1 <1>   0.0800 
 33 H       -7.1890    -5.5330     0.7050 H     1 <1>   0.0800 
 34 H       -6.1950    -5.3080     2.1210 H     1 <1>   0.0800 
 35 H       -3.6930    -5.3330     1.2100 H     1 <1>   0.4000 
@<TRIPOS>BOND
  1   1   2  1   
  2   2   3  ar  
  3   2   4  ar  
  4   3   5  1   
  5   3   6  ar  
  6   4   7  ar  
  7   4  19  1   
  8   5   8  am  
  9   5  20  1   
 10   6   9  ar  
 11   6  21  1   
 12   7   9  ar  
 13   7  22  1   
 14   8  10  2   
 15   8  11  1   
 16   9  12  1   
 17  11  13  1   
 18  11  23  1   
 19  11  24  1   
 20  12  25  1   
 21  12  26  1   
 22  12  27  1   
 23  13  14  1   
 24  13  15  1   
 25  14  16  1   
 26  14  28  1   
 27  14  29  1   
 28  15  17  1   
 29  15  30  1   
 30  15  31  1   
 31  16  17  1   
 32  16  18  1   
 33  16  32  1   
 34  17  33  1   
 35  17  34  1   
 36  18  35  1   
@<TRIPOS>SUBSTRUCTURE
  1 ****   5 GROUP 4 **** **** 0

# MOE 2024.06 (io_trps.svl 2023.06)
