@<TRIPOS>MOLECULE
NONAME
49 52 1 0 0 
SMALL
USER_CHARGES


@<TRIPOS>ATOM
  1 S        0.1240     0.5810    -2.1350 S.3   1 <1>  -0.0800 
  2 C       -1.0000     1.2320    -0.9510 C.2   1 <1>  -0.1400 
  3 C       -1.1030    -0.5250    -2.7380 C.2   1 <1>  -0.1100 
  4 C       -2.1950     0.6360    -1.0560 C.2   1 <1>  -0.1810 
  5 C       -0.6160     2.3280     0.0370 C.3   1 <1>   0.4600 
  6 C       -2.2620    -0.3720    -2.0680 C.2   1 <1>  -0.1500 
  7 C       -3.3210     1.0580    -0.1400 C.3   1 <1>   0.0210 
  8 O       -1.6890     2.5140     0.9420 O.3   1 <1>  -0.5600 
  9 C       -0.3310     3.6570    -0.6780 C.3   1 <1>  -0.1600 
 10 C        0.5900     1.9050     0.8840 C.3   1 <1>  -0.1600 
 11 C       -3.0030     2.4520     0.4380 C.3   1 <1>   0.1200 
 12 C        0.0970     4.7410     0.3120 C.3   1 <1>   0.1400 
 13 C        1.0240     3.0120     1.8480 C.3   1 <1>   0.1400 
 14 N        1.2780     4.2590     1.0760 N.am  1 <1>  -0.6600 
 15 C        2.4590     4.9450     1.2010 C.2   1 <1>   0.6900 
 16 O        3.2470     4.6750     2.0890 O.2   1 <1>  -0.5700 
 17 N        2.7560     5.9170     0.3060 N.am  1 <1>  -0.7300 
 18 C        4.0010     6.6960     0.2780 C.3   1 <1>   0.2200 
 19 C        3.6530     8.1750     0.0840 C.3   1 <1>  -0.1600 
 20 C        4.8850     6.1780    -0.8620 C.3   1 <1>  -0.1600 
 21 C        4.9210     9.0290    -0.0630 C.3   1 <1>  -0.1600 
 22 C        6.1550     7.0280    -1.0120 C.3   1 <1>  -0.1600 
 23 C        5.8100     8.5120    -1.2030 C.3   1 <1>  -0.1600 
 24 H       -0.8230    -1.1830    -3.5420 H     1 <1>   0.1500 
 25 H       -3.1660    -0.9290    -2.2440 H     1 <1>   0.1500 
 26 H       -3.4260     0.3470     0.6590 H     1 <1>   0.0800 
 27 H       -4.2460     1.1010    -0.6840 H     1 <1>   0.0800 
 28 H       -1.1960     3.9750    -1.2270 H     1 <1>   0.0800 
 29 H        0.4620     3.5100    -1.3890 H     1 <1>   0.0800 
 30 H        1.4200     1.6720     0.2430 H     1 <1>   0.0800 
 31 H        0.3430     1.0160     1.4340 H     1 <1>   0.0800 
 32 H       -3.6750     2.6790     1.2470 H     1 <1>   0.0800 
 33 H       -3.1130     3.2050    -0.3220 H     1 <1>   0.0800 
 34 H       -0.7050     4.9410     1.0040 H     1 <1>   0.0800 
 35 H        0.3150     5.6540    -0.2110 H     1 <1>   0.0800 
 36 H        1.9110     2.7020     2.3740 H     1 <1>   0.0800 
 37 H        0.2510     3.1970     2.5740 H     1 <1>   0.0800 
 38 H        2.1860     5.9660    -0.5290 H     1 <1>   0.3700 
 39 H        4.5260     6.5780     1.2130 H     1 <1>   0.0800 
 40 H        3.0900     8.5190     0.9340 H     1 <1>   0.0800 
 41 H        3.0490     8.2920    -0.7980 H     1 <1>   0.0800 
 42 H        4.3340     6.2030    -1.7860 H     1 <1>   0.0800 
 43 H        5.1620     5.1580    -0.6560 H     1 <1>   0.0800 
 44 H        5.4760     9.0030     0.8600 H     1 <1>   0.0800 
 45 H        4.6480    10.0530    -0.2540 H     1 <1>   0.0800 
 46 H        6.7270     6.6780    -1.8540 H     1 <1>   0.0800 
 47 H        6.7630     6.9150    -0.1300 H     1 <1>   0.0800 
 48 H        6.7170     9.0900    -1.2430 H     1 <1>   0.0800 
 49 H        5.2970     8.6400    -2.1410 H     1 <1>   0.0800 
@<TRIPOS>BOND
  1   1   2  1   
  2   1   3  1   
  3   2   4  2   
  4   2   5  1   
  5   3   6  2   
  6   3  24  1   
  7   4   6  1   
  8   4   7  1   
  9   5   8  1   
 10   5   9  1   
 11   5  10  1   
 12   6  25  1   
 13   7  11  1   
 14   7  26  1   
 15   7  27  1   
 16   8  11  1   
 17   9  12  1   
 18   9  28  1   
 19   9  29  1   
 20  10  13  1   
 21  10  30  1   
 22  10  31  1   
 23  11  32  1   
 24  11  33  1   
 25  12  14  1   
 26  12  34  1   
 27  12  35  1   
 28  13  14  1   
 29  13  36  1   
 30  13  37  1   
 31  14  15  am  
 32  15  16  2   
 33  15  17  am  
 34  17  18  1   
 35  17  38  1   
 36  18  19  1   
 37  18  20  1   
 38  18  39  1   
 39  19  21  1   
 40  19  40  1   
 41  19  41  1   
 42  20  22  1   
 43  20  42  1   
 44  20  43  1   
 45  21  23  1   
 46  21  44  1   
 47  21  45  1   
 48  22  23  1   
 49  22  46  1   
 50  22  47  1   
 51  23  48  1   
 52  23  49  1   
@<TRIPOS>SUBSTRUCTURE
  1 ****  14 GROUP 4 **** **** 0

# MOE 2024.06 (io_trps.svl 2023.06)
