@<TRIPOS>MOLECULE
NONAME
30 31 1 0 0 
SMALL
USER_CHARGES


@<TRIPOS>ATOM
  1 F       -0.8330    -0.5400    -0.0610 F     1 <1>  -0.3400 
  2 C       -0.8360    -1.8450    -0.2890 C.3   1 <1>   1.3000 
  3 F       -2.0230    -2.3190     0.0710 F     1 <1>  -0.3400 
  4 F       -0.6930    -2.0320    -1.5950 F     1 <1>  -0.3400 
  5 O        0.2050    -2.4680     0.4360 O.3   1 <1>  -0.3630 
  6 C        0.3300    -3.8060     0.3200 C.ar  1 <1>   0.0830 
  7 C       -0.3270    -4.6400     1.2100 C.ar  1 <1>  -0.1500 
  8 C        1.1310    -4.3430    -0.6730 C.ar  1 <1>  -0.1500 
  9 C       -0.1940    -6.0120     1.0970 C.ar  1 <1>  -0.1500 
 10 C        1.2630    -5.7160    -0.7850 C.ar  1 <1>  -0.1500 
 11 C        0.6010    -6.5620     0.0950 C.ar  1 <1>  -0.1430 
 12 C        0.7610    -8.0640    -0.0650 C.3   1 <1>   0.5670 
 13 N       -0.5550    -8.6030    -0.5010 N.4   1 <1>  -0.9060 
 14 C        1.2600    -8.7510     1.2260 C.3   1 <1>   0.1200 
 15 C       -0.5880   -10.1020    -0.5050 C.3   1 <1>   0.3430 
 16 O        1.2250   -10.1450     1.0840 O.3   1 <1>  -0.5600 
 17 C       -0.0380   -10.6820     0.8130 C.3   1 <1>   0.1200 
 18 H       -0.9350    -4.2110     1.9890 H     1 <1>   0.1500 
 19 H        1.6510    -3.6880    -1.3520 H     1 <1>   0.1500 
 20 H       -0.7170    -6.6290     1.8090 H     1 <1>   0.1500 
 21 H        1.8940    -6.1070    -1.5680 H     1 <1>   0.1500 
 22 H        1.4930    -8.2530    -0.8340 H     1 <1>   0.0800 
 23 H       -0.7690    -8.2180    -1.4270 H     1 <1>   0.4500 
 24 H       -1.2600    -8.2290     0.1410 H     1 <1>   0.4500 
 25 H        0.6640    -8.4790     2.0790 H     1 <1>   0.0800 
 26 H        2.2800    -8.4660     1.4210 H     1 <1>   0.0800 
 27 H        0.0160   -10.4770    -1.3150 H     1 <1>   0.0800 
 28 H       -1.5970   -10.4520    -0.6590 H     1 <1>   0.0800 
 29 H        0.0720   -11.7500     0.7320 H     1 <1>   0.0800 
 30 H       -0.6930   -10.4690     1.6410 H     1 <1>   0.0800 
@<TRIPOS>BOND
  1   1   2  1   
  2   2   3  1   
  3   2   4  1   
  4   2   5  1   
  5   5   6  1   
  6   6   7  ar  
  7   6   8  ar  
  8   7   9  ar  
  9   7  18  1   
 10   8  10  ar  
 11   8  19  1   
 12   9  11  ar  
 13   9  20  1   
 14  10  11  ar  
 15  10  21  1   
 16  11  12  1   
 17  12  13  1   
 18  12  14  1   
 19  12  22  1   
 20  13  15  1   
 21  13  23  1   
 22  13  24  1   
 23  14  16  1   
 24  14  25  1   
 25  14  26  1   
 26  15  17  1   
 27  15  27  1   
 28  15  28  1   
 29  16  17  1   
 30  17  29  1   
 31  17  30  1   
@<TRIPOS>SUBSTRUCTURE
  1 ****  11 GROUP 4 **** **** 0

# MOE 2024.06 (io_trps.svl 2023.06)
