@<TRIPOS>MOLECULE
NONAME
45 47 1 0 0 
SMALL
USER_CHARGES


@<TRIPOS>ATOM
  1 O       -0.5720     0.4310     1.0760 O.2   1 <1>  -0.5700 
  2 C       -1.6160     0.9590     0.7320 C.2   1 <1>   0.7160 
  3 N       -2.7890     0.2600     0.9530 N.am  1 <1>  -0.6600 
  4 C       -1.5640     2.2730     0.1100 C.2   1 <1>   0.1410 
  5 C       -2.8170    -1.2340     1.0160 C.3   1 <1>   0.1400 
  6 C       -4.1630     0.8390     0.9000 C.3   1 <1>   0.1400 
  7 N       -2.4440     2.7220    -0.8180 N.2   1 <1>  -0.2270 
  8 C       -0.6480     3.2530     0.2990 C.2   1 <1>  -0.3020 
  9 C       -3.7010    -1.8050    -0.1110 C.3   1 <1>   0.3440 
 10 C       -4.9480     0.2090    -0.2730 C.3   1 <1>   0.2000 
 11 N       -2.1090     3.9090    -1.1740 N.2   1 <1>  -0.4180 
 12 N       -1.0080     4.2480    -0.5020 N.pl3 1 <1>   0.3000 
 13 O       -4.9640    -1.1880    -0.1060 O.3   1 <1>  -0.5600 
 14 C       -3.8710    -3.3130     0.0510 C.ar  1 <1>  -0.1440 
 15 C       -6.4080     0.7290    -0.4360 C.3   1 <1>   0.0000 
 16 C       -3.0000    -4.1770    -0.5980 C.ar  1 <1>  -0.1500 
 17 C       -4.8750    -3.8430     0.8490 C.ar  1 <1>  -0.1500 
 18 C       -7.0560     0.0600    -1.6620 C.3   1 <1>  -0.2400 
 19 C       -7.2760     0.4210     0.7990 C.3   1 <1>  -0.2400 
 20 C       -6.4200     2.2500    -0.6760 C.3   1 <1>  -0.2400 
 21 C       -3.1290    -5.5470    -0.4510 C.ar  1 <1>  -0.1500 
 22 C       -5.0060    -5.2130     0.9980 C.ar  1 <1>  -0.1500 
 23 C       -4.1330    -6.0660     0.3480 C.ar  1 <1>  -0.1500 
 24 H       -1.8250    -1.6390     0.9230 H     1 <1>   0.0800 
 25 H       -3.2110    -1.5440     1.9680 H     1 <1>   0.0800 
 26 H       -4.6670     0.6180     1.8230 H     1 <1>   0.0800 
 27 H       -4.1250     1.9070     0.8050 H     1 <1>   0.0800 
 28 H        0.2100     3.2670     0.9450 H     1 <1>   0.1500 
 29 H       -3.2430    -1.6010    -1.0640 H     1 <1>   0.0800 
 30 H       -4.4190     0.4230    -1.1870 H     1 <1>   0.0800 
 31 H       -0.5430     5.1540    -0.6260 H     1 <1>   0.2700 
 32 H       -2.2140    -3.7880    -1.2220 H     1 <1>   0.1500 
 33 H       -5.5620    -3.1860     1.3550 H     1 <1>   0.1500 
 34 H       -8.0550     0.4280    -1.8170 H     1 <1>   0.0800 
 35 H       -7.1100    -1.0060    -1.5260 H     1 <1>   0.0800 
 36 H       -6.4800     0.2570    -2.5480 H     1 <1>   0.0800 
 37 H       -8.2910     0.7360     0.6320 H     1 <1>   0.0800 
 38 H       -6.9090     0.9300     1.6710 H     1 <1>   0.0800 
 39 H       -7.2810    -0.6360     0.9980 H     1 <1>   0.0800 
 40 H       -7.4170     2.5880    -0.9020 H     1 <1>   0.0800 
 41 H       -5.7830     2.5070    -1.5050 H     1 <1>   0.0800 
 42 H       -6.0830     2.7880     0.1910 H     1 <1>   0.0800 
 43 H       -2.4500    -6.2100    -0.9580 H     1 <1>   0.1500 
 44 H       -5.7900    -5.6130     1.6170 H     1 <1>   0.1500 
 45 H       -4.2340    -7.1310     0.4630 H     1 <1>   0.1500 
@<TRIPOS>BOND
  1   1   2  2   
  2   2   3  am  
  3   2   4  1   
  4   3   5  1   
  5   3   6  1   
  6   4   7  1   
  7   4   8  2   
  8   5   9  1   
  9   5  24  1   
 10   5  25  1   
 11   6  10  1   
 12   6  26  1   
 13   6  27  1   
 14   7  11  2   
 15   8  12  1   
 16   8  28  1   
 17   9  13  1   
 18   9  14  1   
 19   9  29  1   
 20  10  13  1   
 21  10  15  1   
 22  10  30  1   
 23  11  12  1   
 24  12  31  1   
 25  14  16  ar  
 26  14  17  ar  
 27  15  18  1   
 28  15  19  1   
 29  15  20  1   
 30  16  21  ar  
 31  16  32  1   
 32  17  22  ar  
 33  17  33  1   
 34  18  34  1   
 35  18  35  1   
 36  18  36  1   
 37  19  37  1   
 38  19  38  1   
 39  19  39  1   
 40  20  40  1   
 41  20  41  1   
 42  20  42  1   
 43  21  23  ar  
 44  21  43  1   
 45  22  23  ar  
 46  22  44  1   
 47  23  45  1   
@<TRIPOS>SUBSTRUCTURE
  1 ****   9 GROUP 4 **** **** 0

# MOE 2024.06 (io_trps.svl 2023.06)
