@<TRIPOS>MOLECULE
NONAME
48 50 1 0 0 
SMALL
USER_CHARGES


@<TRIPOS>ATOM
  1 O       -4.4650    -0.7580    -1.1180 O.2   1 <1>  -0.5700 
  2 C       -3.6500    -0.6820    -0.2160 C.2   1 <1>   0.7150 
  3 N       -3.4210     0.5340     0.3700 N.am  1 <1>  -0.7300 
  4 C       -2.9410    -1.8600     0.2370 C.2   1 <1>   0.0550 
  5 C       -4.0860     1.8130     0.0040 C.3   1 <1>   0.0600 
  6 O       -3.0670    -3.0060    -0.4230 O.3   1 <1>  -0.2800 
  7 C       -2.1040    -2.0760     1.2910 C.2   1 <1>  -0.1500 
  8 C       -2.3570    -3.9380     0.1670 C.2   1 <1>  -0.0400 
  9 C       -1.7300    -3.4210     1.2460 C.2   1 <1>  -0.1500 
 10 C       -2.3760    -5.3420    -0.4140 C.3   1 <1>   0.5230 
 11 N       -3.7950    -5.7340    -0.6720 N.4   1 <1>  -0.9590 
 12 C       -3.9760    -7.2070    -0.4930 C.3   1 <1>   0.3430 
 13 C       -4.2420    -5.2480    -2.0190 C.3   1 <1>   0.2630 
 14 C       -5.4500    -7.6260    -0.4110 C.3   1 <1>   0.0200 
 15 C       -5.5220    -9.1210    -0.1710 C.2   1 <1>   0.0060 
 16 N       -6.6950    -9.7870     0.0110 N.pl3 1 <1>   0.0330 
 17 N       -4.4820    -9.8780    -0.1210 N.2   1 <1>  -0.5650 
 18 C       -6.3580   -11.0860     0.1930 C.ar  1 <1>  -0.1520 
 19 C       -4.9800   -11.1270     0.1070 C.ar  1 <1>   0.2270 
 20 C       -7.1020   -12.2440     0.4240 C.ar  1 <1>  -0.1500 
 21 C       -4.3090   -12.3390     0.2530 C.ar  1 <1>  -0.1500 
 22 C       -6.4400   -13.4450     0.5690 C.ar  1 <1>   0.0830 
 23 C       -5.0340   -13.4890     0.4820 C.ar  1 <1>  -0.1500 
 24 O       -7.2080   -14.5430     0.7930 O.3   1 <1>  -0.3620 
 25 C       -6.6300   -15.8190     0.9550 C.3   1 <1>   0.0400 
 26 H       -2.7130     0.5970     1.1010 H     1 <1>   0.3700 
 27 H       -4.8150     1.6540    -0.7730 H     1 <1>   0.0800 
 28 H       -3.3520     2.5160    -0.3520 H     1 <1>   0.0800 
 29 H       -4.5830     2.2250     0.8640 H     1 <1>   0.0800 
 30 H       -1.7780    -1.3710     2.0360 H     1 <1>   0.1500 
 31 H       -1.0730    -3.9030     1.9520 H     1 <1>   0.1500 
 32 H       -1.9210    -6.0170     0.2920 H     1 <1>   0.0800 
 33 H       -1.8100    -5.3690    -1.3310 H     1 <1>   0.0800 
 34 H       -4.3350    -5.2230     0.0420 H     1 <1>   0.4500 
 35 H       -3.4950    -7.5240     0.4190 H     1 <1>   0.0800 
 36 H       -3.5070    -7.7400    -1.3050 H     1 <1>   0.0800 
 37 H       -3.6810    -5.7340    -2.8010 H     1 <1>   0.0800 
 38 H       -4.0960    -4.1820    -2.1050 H     1 <1>   0.0800 
 39 H       -5.2890    -5.4530    -2.1670 H     1 <1>   0.0800 
 40 H       -5.9580    -7.4010    -1.3310 H     1 <1>   0.0800 
 41 H       -5.9310    -7.1170     0.4040 H     1 <1>   0.0800 
 42 H       -7.6490    -9.4140     0.0160 H     1 <1>   0.2700 
 43 H       -8.1740   -12.2090     0.4900 H     1 <1>   0.1500 
 44 H       -3.2380   -12.3500     0.1830 H     1 <1>   0.1500 
 45 H       -4.5070   -14.4170     0.5930 H     1 <1>   0.1500 
 46 H       -7.4240   -16.5260     1.1190 H     1 <1>   0.0800 
 47 H       -5.9760   -15.8010     1.8080 H     1 <1>   0.0800 
 48 H       -6.0930   -16.0760     0.0590 H     1 <1>   0.0800 
@<TRIPOS>BOND
  1   1   2  2   
  2   2   3  am  
  3   2   4  1   
  4   3   5  1   
  5   3  26  1   
  6   4   6  1   
  7   4   7  2   
  8   5  27  1   
  9   5  28  1   
 10   5  29  1   
 11   6   8  1   
 12   7   9  1   
 13   7  30  1   
 14   8   9  2   
 15   8  10  1   
 16   9  31  1   
 17  10  11  1   
 18  10  32  1   
 19  10  33  1   
 20  11  12  1   
 21  11  13  1   
 22  11  34  1   
 23  12  14  1   
 24  12  35  1   
 25  12  36  1   
 26  13  37  1   
 27  13  38  1   
 28  13  39  1   
 29  14  15  1   
 30  14  40  1   
 31  14  41  1   
 32  15  16  1   
 33  15  17  2   
 34  16  18  1   
 35  16  42  1   
 36  17  19  1   
 37  18  19  ar  
 38  18  20  ar  
 39  19  21  ar  
 40  20  22  ar  
 41  20  43  1   
 42  21  23  ar  
 43  21  44  1   
 44  22  23  ar  
 45  22  24  1   
 46  23  45  1   
 47  24  25  1   
 48  25  46  1   
 49  25  47  1   
 50  25  48  1   
@<TRIPOS>SUBSTRUCTURE
  1 ****  12 GROUP 4 **** **** 0

# MOE 2024.06 (io_trps.svl 2023.06)
