@<TRIPOS>MOLECULE
NONAME
46 48 1 0 0 
SMALL
USER_CHARGES


@<TRIPOS>ATOM
  1 O       -0.5640     0.0400     0.1970 O.2   1 <1>  -0.5700 
  2 C       -1.5530     0.6700    -0.1290 C.2   1 <1>   0.6160 
  3 N       -2.7580     0.0120    -0.2020 N.am  1 <1>  -0.6600 
  4 C       -1.4330     2.0870    -0.4140 C.2   1 <1>   0.0140 
  5 C       -4.0910     0.6570    -0.1740 C.3   1 <1>   0.1400 
  6 C       -2.8820    -1.4410     0.0560 C.3   1 <1>   0.1400 
  7 C       -2.0500     2.7040    -1.4700 C.2   1 <1>  -0.1360 
  8 C       -0.6200     2.9070     0.4280 C.2   1 <1>  -0.1500 
  9 C       -5.0020    -0.3400     0.5550 C.3   1 <1>  -0.0800 
 10 C       -4.3760    -1.7150     0.2540 C.3   1 <1>  -0.0800 
 11 C       -1.9150     4.0930    -1.7080 C.2   1 <1>   0.6160 
 12 C       -0.4820     4.2400     0.2060 C.2   1 <1>  -0.0290 
 13 C       -6.5280    -0.2280     0.2490 C.3   1 <1>   0.2800 
 14 C       -5.0250    -2.3590    -0.9810 C.3   1 <1>  -0.1600 
 15 O       -2.4620     4.6740    -2.6320 O.2   1 <1>  -0.5700 
 16 N       -1.1350     4.8170    -0.8550 N.am  1 <1>  -0.5390 
 17 C        0.3670     5.1510     1.0680 C.3   1 <1>  -0.1020 
 18 O       -6.7260     0.2970    -1.0140 O.3   1 <1>  -0.6800 
 19 C       -7.1720    -1.6270     0.2450 C.3   1 <1>  -0.1600 
 20 C       -7.2720     0.6920     1.2410 C.3   1 <1>  -0.1600 
 21 C       -6.5310    -2.6010    -0.7680 C.3   1 <1>  -0.1600 
 22 C       -6.7870     2.1520     1.2900 C.3   1 <1>  -0.2400 
 23 H       -4.0570     1.6040     0.3350 H     1 <1>   0.0800 
 24 H       -4.4070     0.8070    -1.1910 H     1 <1>   0.0800 
 25 H       -2.4750    -2.0000    -0.7690 H     1 <1>   0.0800 
 26 H       -2.3360    -1.6880     0.9510 H     1 <1>   0.0800 
 27 H       -2.6590     2.1620    -2.1670 H     1 <1>   0.1500 
 28 H       -0.1170     2.4210     1.2470 H     1 <1>   0.1500 
 29 H       -4.8640    -0.1770     1.6090 H     1 <1>   0.0800 
 30 H       -4.5040    -2.3790     1.0910 H     1 <1>   0.0800 
 31 H       -4.8940    -1.6990    -1.8230 H     1 <1>   0.0800 
 32 H       -4.5400    -3.2890    -1.2190 H     1 <1>   0.0800 
 33 H       -1.0650     5.8110    -1.0730 H     1 <1>   0.3700 
 34 H        1.1380     5.6070     0.4730 H     1 <1>   0.0800 
 35 H        0.8320     4.5950     1.8620 H     1 <1>   0.0800 
 36 H       -0.2440     5.9220     1.5020 H     1 <1>   0.0800 
 37 H       -7.6780     0.2960    -1.2180 H     1 <1>   0.4000 
 38 H       -7.0570    -2.0450     1.2300 H     1 <1>   0.0800 
 39 H       -8.2290    -1.5580     0.0600 H     1 <1>   0.0800 
 40 H       -8.3200     0.6900     0.9990 H     1 <1>   0.0800 
 41 H       -7.1830     0.2760     2.2290 H     1 <1>   0.0800 
 42 H       -6.6890    -3.6090    -0.4240 H     1 <1>   0.0800 
 43 H       -7.0260    -2.5050    -1.7190 H     1 <1>   0.0800 
 44 H       -6.8020     2.5940     0.3080 H     1 <1>   0.0800 
 45 H       -5.7890     2.2130     1.6830 H     1 <1>   0.0800 
 46 H       -7.4310     2.7290     1.9290 H     1 <1>   0.0800 
@<TRIPOS>BOND
  1   1   2  2   
  2   2   3  am  
  3   2   4  1   
  4   3   5  1   
  5   3   6  1   
  6   4   7  2   
  7   4   8  1   
  8   5   9  1   
  9   5  23  1   
 10   5  24  1   
 11   6  10  1   
 12   6  25  1   
 13   6  26  1   
 14   7  11  1   
 15   7  27  1   
 16   8  12  2   
 17   8  28  1   
 18   9  10  1   
 19   9  13  1   
 20   9  29  1   
 21  10  14  1   
 22  10  30  1   
 23  11  15  2   
 24  11  16  am  
 25  12  16  1   
 26  12  17  1   
 27  13  18  1   
 28  13  19  1   
 29  13  20  1   
 30  14  21  1   
 31  14  31  1   
 32  14  32  1   
 33  16  33  1   
 34  17  34  1   
 35  17  35  1   
 36  17  36  1   
 37  18  37  1   
 38  19  21  1   
 39  19  38  1   
 40  19  39  1   
 41  20  22  1   
 42  20  40  1   
 43  20  41  1   
 44  21  42  1   
 45  21  43  1   
 46  22  44  1   
 47  22  45  1   
 48  22  46  1   
@<TRIPOS>SUBSTRUCTURE
  1 ****   5 GROUP 4 **** **** 0

# MOE 2024.06 (io_trps.svl 2023.06)
