@<TRIPOS>MOLECULE
NONAME
45 46 1 0 0 
SMALL
USER_CHARGES


@<TRIPOS>ATOM
  1 O        0.0450     0.7780     2.8050 O.2   1 <1>  -0.5700 
  2 C        0.0670     0.0980     1.8060 C.2   1 <1>   0.5690 
  3 N        0.6650     0.5080     0.6590 N.am  1 <1>  -0.7300 
  4 C       -0.6010    -1.2810     1.8230 C.3   1 <1>   0.1710 
  5 C        1.3670     1.7920     0.4440 C.3   1 <1>   0.1400 
  6 N       -0.0570    -2.2460     0.8190 N.3   1 <1>  -0.8100 
  7 C        2.8770     1.5810     0.5440 C.3   1 <1>  -0.0170 
  8 C       -0.9780    -3.3950     0.6200 C.3   1 <1>   0.2900 
  9 C        1.2950    -2.6980     1.1980 C.3   1 <1>   0.0300 
 10 C        3.6140     2.8930     0.2980 C.ar  1 <1>  -0.1440 
 11 C       -0.6290    -4.3200    -0.5490 C.2   1 <1>   0.2980 
 12 C        3.8230     3.3700    -0.9950 C.ar  1 <1>   0.0820 
 13 C        4.0780     3.6240     1.3810 C.ar  1 <1>  -0.1500 
 14 O       -1.1240    -5.5160    -0.5640 O.3   1 <1>  -0.2800 
 15 N        0.1050    -4.0940    -1.5760 N.2   1 <1>  -0.3380 
 16 O        3.3420     2.6280    -2.0280 O.3   1 <1>  -0.3630 
 17 C        4.5020     4.5720    -1.1830 C.ar  1 <1>  -0.1500 
 18 C        4.7510     4.8170     1.1870 C.ar  1 <1>  -0.1500 
 19 C       -0.6570    -6.0300    -1.6540 C.2   1 <1>   0.2980 
 20 N        0.0870    -5.2170    -2.2970 N.2   1 <1>  -0.3380 
 21 C        3.5340     3.0110    -3.3710 C.3   1 <1>   0.0400 
 22 C        4.9640     5.2900    -0.0950 C.ar  1 <1>  -0.1500 
 23 C       -1.0140    -7.4480    -2.0360 C.3   1 <1>  -0.0600 
 24 H        0.6950    -0.1800    -0.1040 H     1 <1>   0.3700 
 25 H       -1.6450    -1.1160     1.6280 H     1 <1>   0.0800 
 26 H       -0.5110    -1.6930     2.8130 H     1 <1>   0.0800 
 27 H        1.0540     2.5060     1.1870 H     1 <1>   0.0800 
 28 H        1.1130     2.1790    -0.5280 H     1 <1>   0.0800 
 29 H        3.1910     0.8500    -0.1790 H     1 <1>   0.0800 
 30 H        3.1150     1.2060     1.5240 H     1 <1>   0.0800 
 31 H       -1.9700    -3.0210     0.4380 H     1 <1>   0.0800 
 32 H       -1.0090    -3.9830     1.5210 H     1 <1>   0.0800 
 33 H        1.9500    -1.8530     1.3250 H     1 <1>   0.0800 
 34 H        1.7110    -3.3220     0.4250 H     1 <1>   0.0800 
 35 H        1.2650    -3.2550     2.1190 H     1 <1>   0.0800 
 36 H        3.9160     3.2670     2.3830 H     1 <1>   0.1500 
 37 H        4.6810     4.9650    -2.1650 H     1 <1>   0.1500 
 38 H        5.1080     5.3770     2.0350 H     1 <1>   0.1500 
 39 H        3.0810     2.2650    -3.9990 H     1 <1>   0.0800 
 40 H        4.5900     3.0640    -3.5710 H     1 <1>   0.0800 
 41 H        3.0600     3.9620    -3.5340 H     1 <1>   0.0800 
 42 H        5.4880     6.2180    -0.2440 H     1 <1>   0.1500 
 43 H       -0.6800    -8.1240    -1.2710 H     1 <1>   0.0800 
 44 H       -0.5400    -7.7050    -2.9650 H     1 <1>   0.0800 
 45 H       -2.0790    -7.5350    -2.1480 H     1 <1>   0.0800 
@<TRIPOS>BOND
  1   1   2  2   
  2   2   3  am  
  3   2   4  1   
  4   3   5  1   
  5   3  24  1   
  6   4   6  1   
  7   4  25  1   
  8   4  26  1   
  9   5   7  1   
 10   5  27  1   
 11   5  28  1   
 12   6   8  1   
 13   6   9  1   
 14   7  10  1   
 15   7  29  1   
 16   7  30  1   
 17   8  11  1   
 18   8  31  1   
 19   8  32  1   
 20   9  33  1   
 21   9  34  1   
 22   9  35  1   
 23  10  12  ar  
 24  10  13  ar  
 25  11  14  1   
 26  11  15  2   
 27  12  16  1   
 28  12  17  ar  
 29  13  18  ar  
 30  13  36  1   
 31  14  19  1   
 32  15  20  1   
 33  16  21  1   
 34  17  22  ar  
 35  17  37  1   
 36  18  22  ar  
 37  18  38  1   
 38  19  20  2   
 39  19  23  1   
 40  21  39  1   
 41  21  40  1   
 42  21  41  1   
 43  22  42  1   
 44  23  43  1   
 45  23  44  1   
 46  23  45  1   
@<TRIPOS>SUBSTRUCTURE
  1 ****   3 GROUP 4 **** **** 0

# MOE 2024.06 (io_trps.svl 2023.06)
