@<TRIPOS>MOLECULE
NONAME
46 47 1 0 0 
SMALL
USER_CHARGES


@<TRIPOS>ATOM
  1 S        2.1100    -1.6270    -1.4630 S.3   1 <1>  -0.4600 
  2 C        0.6120    -2.5890    -1.1050 C.3   1 <1>   0.2140 
  3 C        1.5910    -0.4640    -2.7790 C.3   1 <1>   0.1310 
  4 C       -0.3930    -1.6700    -0.4340 C.ar  1 <1>  -0.1440 
  5 C        1.4450     0.9630    -2.2660 C.2   1 <1>   0.5690 
  6 C       -1.4840    -1.1790    -1.1340 C.ar  1 <1>  -0.1500 
  7 C       -0.2180    -1.3130     0.8930 C.ar  1 <1>  -0.1500 
  8 O        2.0280     1.8450    -2.8500 O.2   1 <1>  -0.5700 
  9 N        0.6480     1.2180    -1.1960 N.am  1 <1>  -0.7300 
 10 C       -2.3880    -0.3300    -0.5190 C.ar  1 <1>  -0.1430 
 11 C       -1.1220    -0.4740     1.5220 C.ar  1 <1>  -0.1430 
 12 C        0.4620     2.5400    -0.5630 C.3   1 <1>   0.1400 
 13 C       -2.2030     0.0180     0.8090 C.ar  1 <1>  -0.1500 
 14 C       -3.5700     0.2150    -1.2980 C.3   1 <1>  -0.0970 
 15 C       -0.9300    -0.0990     2.9810 C.3   1 <1>  -0.0970 
 16 C        0.9710     2.5200     0.8830 C.3   1 <1>  -0.0800 
 17 C        0.7440     3.8910     1.5380 C.3   1 <1>   0.1200 
 18 C        2.4560     2.1260     0.9820 C.3   1 <1>  -0.1600 
 19 O        1.2050     3.8680     2.8560 O.3   1 <1>  -0.5600 
 20 C        2.9430     2.2800     2.4280 C.3   1 <1>  -0.1600 
 21 C        2.5790     3.6610     2.9850 C.3   1 <1>   0.1200 
 22 H        0.9000    -3.3930    -0.4520 H     1 <1>   0.0800 
 23 H        0.2460    -2.9860    -2.0350 H     1 <1>   0.0800 
 24 H        0.6620    -0.8130    -3.1850 H     1 <1>   0.0800 
 25 H        2.3520    -0.4990    -3.5370 H     1 <1>   0.0800 
 26 H       -1.6320    -1.4530    -2.1640 H     1 <1>   0.1500 
 27 H        0.6290    -1.6900     1.4400 H     1 <1>   0.1500 
 28 H        0.1960     0.4310    -0.7060 H     1 <1>   0.3700 
 29 H       -0.5860     2.7850    -0.5790 H     1 <1>   0.0800 
 30 H        0.9920     3.2910    -1.1260 H     1 <1>   0.0800 
 31 H       -2.9050     0.6730     1.2940 H     1 <1>   0.1500 
 32 H       -3.9620    -0.5380    -1.9570 H     1 <1>   0.0800 
 33 H       -3.2600     1.0630    -1.8830 H     1 <1>   0.0800 
 34 H       -4.3560     0.5230    -0.6310 H     1 <1>   0.0800 
 35 H        0.1150    -0.0910     3.2340 H     1 <1>   0.0800 
 36 H       -1.4350    -0.8100     3.6090 H     1 <1>   0.0800 
 37 H       -1.3290     0.8810     3.1750 H     1 <1>   0.0800 
 38 H        0.3830     1.8090     1.4290 H     1 <1>   0.0800 
 39 H       -0.3050     4.1270     1.5670 H     1 <1>   0.0800 
 40 H        1.2650     4.6700     1.0070 H     1 <1>   0.0800 
 41 H        3.0400     2.7610     0.3370 H     1 <1>   0.0800 
 42 H        2.5970     1.1080     0.6610 H     1 <1>   0.0800 
 43 H        4.0080     2.1430     2.4710 H     1 <1>   0.0800 
 44 H        2.4870     1.5280     3.0480 H     1 <1>   0.0800 
 45 H        2.8230     3.7230     4.0310 H     1 <1>   0.0800 
 46 H        3.0960     4.4440     2.4560 H     1 <1>   0.0800 
@<TRIPOS>BOND
  1   1   2  1   
  2   1   3  1   
  3   2   4  1   
  4   2  22  1   
  5   2  23  1   
  6   3   5  1   
  7   3  24  1   
  8   3  25  1   
  9   4   6  ar  
 10   4   7  ar  
 11   5   8  2   
 12   5   9  am  
 13   6  10  ar  
 14   6  26  1   
 15   7  11  ar  
 16   7  27  1   
 17   9  12  1   
 18   9  28  1   
 19  10  13  ar  
 20  10  14  1   
 21  11  13  ar  
 22  11  15  1   
 23  12  16  1   
 24  12  29  1   
 25  12  30  1   
 26  13  31  1   
 27  14  32  1   
 28  14  33  1   
 29  14  34  1   
 30  15  35  1   
 31  15  36  1   
 32  15  37  1   
 33  16  17  1   
 34  16  18  1   
 35  16  38  1   
 36  17  19  1   
 37  17  39  1   
 38  17  40  1   
 39  18  20  1   
 40  18  41  1   
 41  18  42  1   
 42  19  21  1   
 43  20  21  1   
 44  20  43  1   
 45  20  44  1   
 46  21  45  1   
 47  21  46  1   
@<TRIPOS>SUBSTRUCTURE
  1 ****   9 GROUP 4 **** **** 0

# MOE 2024.06 (io_trps.svl 2023.06)
