@<TRIPOS>MOLECULE
NONAME
56 58 1 0 0 
SMALL
USER_CHARGES


@<TRIPOS>ATOM
  1 O       -1.6070     0.6060     2.0740 O.2   1 <1>  -0.5700 
  2 C       -1.8970     0.9400     0.9410 C.2   1 <1>   0.5440 
  3 N       -2.3480    -0.0090     0.0520 N.am  1 <1>  -0.6600 
  4 C       -1.7710     2.3280     0.5590 C.ar  1 <1>   0.0860 
  5 C       -2.3250    -1.4710     0.3970 C.3   1 <1>   0.3640 
  6 C       -2.9400     0.3740    -1.2670 C.3   1 <1>   0.1400 
  7 C       -0.8070     2.7760    -0.3550 C.ar  1 <1>   0.0830 
  8 C       -2.6480     3.2720     1.0900 C.ar  1 <1>  -0.1500 
  9 C       -1.0260    -2.1430    -0.0760 C.ar  1 <1>  -0.1440 
 10 C       -3.5680    -2.2480    -0.1430 C.3   1 <1>   0.2000 
 11 C       -3.4890    -0.8340    -2.0380 C.3   1 <1>   0.1200 
 12 O        0.1100     1.9500    -0.9020 O.3   1 <1>  -0.3630 
 13 C       -0.7690     4.1050    -0.7450 C.ar  1 <1>  -0.1500 
 14 C       -2.6040     4.6030     0.7130 C.ar  1 <1>  -0.1440 
 15 C       -0.6360    -3.3150     0.5610 C.ar  1 <1>  -0.1500 
 16 C       -0.2240    -1.6480    -1.1000 C.ar  1 <1>  -0.1500 
 17 O       -4.2700    -1.6060    -1.1840 O.3   1 <1>  -0.5600 
 18 C       -4.5870    -2.5180     0.9700 C.3   1 <1>   0.1200 
 19 C        1.0680     1.3580    -0.0460 C.3   1 <1>   0.0400 
 20 C       -1.6620     5.0160    -0.2150 C.ar  1 <1>  -0.1500 
 21 C       -3.5730     5.6120     1.3020 C.3   1 <1>  -0.0970 
 22 C        0.5120    -3.9910     0.1830 C.ar  1 <1>   0.0830 
 23 C        0.9370    -2.3050    -1.4730 C.ar  1 <1>  -0.1500 
 24 O       -4.0910    -3.4680     1.8600 O.3   1 <1>  -0.6800 
 25 O        0.7900    -5.1520     0.8260 O.3   1 <1>  -0.3630 
 26 C        1.3220    -3.4660    -0.8290 C.ar  1 <1>   0.0830 
 27 C        0.7750    -6.3250     0.0420 C.3   1 <1>   0.0400 
 28 O        2.4900    -4.0370    -1.2140 O.3   1 <1>  -0.3630 
 29 C        3.5250    -4.0480    -0.2550 C.3   1 <1>   0.0400 
 30 H       -2.3310    -1.5670     1.4690 H     1 <1>   0.0800 
 31 H       -3.7440     1.0690    -1.1000 H     1 <1>   0.0800 
 32 H       -2.1970     0.8680    -1.8690 H     1 <1>   0.0800 
 33 H       -3.3750     2.9390     1.8110 H     1 <1>   0.1500 
 34 H       -3.2460    -3.1960    -0.5380 H     1 <1>   0.0800 
 35 H       -2.6960    -1.4430    -2.4360 H     1 <1>   0.0800 
 36 H       -4.1110    -0.5040    -2.8500 H     1 <1>   0.0800 
 37 H       -0.0320     4.4210    -1.4610 H     1 <1>   0.1500 
 38 H       -1.2280    -3.7210     1.3630 H     1 <1>   0.1500 
 39 H       -0.4820    -0.7420    -1.6140 H     1 <1>   0.1500 
 40 H       -5.5080    -2.8950     0.5600 H     1 <1>   0.0800 
 41 H       -4.7810    -1.6140     1.5220 H     1 <1>   0.0800 
 42 H        1.8630     0.9640    -0.6520 H     1 <1>   0.0800 
 43 H        0.6130     0.5580     0.5100 H     1 <1>   0.0800 
 44 H        1.4510     2.1070     0.6240 H     1 <1>   0.0800 
 45 H       -1.6200     6.0470    -0.5210 H     1 <1>   0.1500 
 46 H       -3.0340     6.3370     1.8860 H     1 <1>   0.0800 
 47 H       -4.2940     5.1290     1.9370 H     1 <1>   0.0800 
 48 H       -4.0990     6.1220     0.5150 H     1 <1>   0.0800 
 49 H        1.5530    -1.9130    -2.2610 H     1 <1>   0.1500 
 50 H       -4.1500    -4.3660     1.4770 H     1 <1>   0.4000 
 51 H        0.8830    -7.1690     0.6990 H     1 <1>   0.0800 
 52 H        1.5910    -6.2990    -0.6560 H     1 <1>   0.0800 
 53 H       -0.1630    -6.3810    -0.4810 H     1 <1>   0.0800 
 54 H        4.4140    -4.4290    -0.7240 H     1 <1>   0.0800 
 55 H        3.2440    -4.6800     0.5670 H     1 <1>   0.0800 
 56 H        3.6900    -3.0420     0.0880 H     1 <1>   0.0800 
@<TRIPOS>BOND
  1   1   2  2   
  2   2   3  am  
  3   2   4  1   
  4   3   5  1   
  5   3   6  1   
  6   4   7  ar  
  7   4   8  ar  
  8   5   9  1   
  9   5  10  1   
 10   5  30  1   
 11   6  11  1   
 12   6  31  1   
 13   6  32  1   
 14   7  12  1   
 15   7  13  ar  
 16   8  14  ar  
 17   8  33  1   
 18   9  15  ar  
 19   9  16  ar  
 20  10  17  1   
 21  10  18  1   
 22  10  34  1   
 23  11  17  1   
 24  11  35  1   
 25  11  36  1   
 26  12  19  1   
 27  13  20  ar  
 28  13  37  1   
 29  14  20  ar  
 30  14  21  1   
 31  15  22  ar  
 32  15  38  1   
 33  16  23  ar  
 34  16  39  1   
 35  18  24  1   
 36  18  40  1   
 37  18  41  1   
 38  19  42  1   
 39  19  43  1   
 40  19  44  1   
 41  20  45  1   
 42  21  46  1   
 43  21  47  1   
 44  21  48  1   
 45  22  25  1   
 46  22  26  ar  
 47  23  26  ar  
 48  23  49  1   
 49  24  50  1   
 50  25  27  1   
 51  26  28  1   
 52  27  51  1   
 53  27  52  1   
 54  27  53  1   
 55  28  29  1   
 56  29  54  1   
 57  29  55  1   
 58  29  56  1   
@<TRIPOS>SUBSTRUCTURE
  1 ****   3 GROUP 4 **** **** 0

# MOE 2024.06 (io_trps.svl 2023.06)
