@<TRIPOS>MOLECULE
NONAME
42 43 1 0 0 
SMALL
USER_CHARGES


@<TRIPOS>ATOM
  1 F       -2.4740    -1.7190     3.3540 F     1 <1>  -0.1900 
  2 C       -2.4830    -1.9070     2.0580 C.ar  1 <1>   0.1900 
  3 C       -2.0730    -0.8860     1.2080 C.ar  1 <1>   0.0820 
  4 C       -2.9130    -3.1350     1.5940 C.ar  1 <1>  -0.1500 
  5 O       -1.6700     0.2970     1.7470 O.3   1 <1>  -0.3630 
  6 C       -2.0990    -1.1350    -0.1620 C.ar  1 <1>  -0.1500 
  7 C       -2.9500    -3.3650     0.2260 C.ar  1 <1>  -0.1430 
  8 C       -1.1970     1.3580     0.9460 C.3   1 <1>   0.0400 
  9 C       -2.5320    -2.3630    -0.6430 C.ar  1 <1>  -0.1500 
 10 C       -3.4450    -4.6960    -0.3070 C.3   1 <1>   0.4870 
 11 N       -4.9350    -4.7160    -0.2160 N.4   1 <1>  -0.9590 
 12 C       -5.4650    -6.0850    -0.4210 C.3   1 <1>   0.5230 
 13 C       -5.5580    -3.7150    -1.1430 C.3   1 <1>   0.3430 
 14 C       -4.9510    -6.9580     0.6980 C.2   1 <1>  -0.3320 
 15 C       -7.0230    -3.4070    -0.7980 C.3   1 <1>   0.1200 
 16 N       -4.5360    -8.2360     0.5400 N.pl3 1 <1>   0.0480 
 17 C       -4.8130    -6.6730     2.0150 C.2   1 <1>   0.0770 
 18 O       -7.5410    -2.6560    -1.8350 O.3   1 <1>  -0.6800 
 19 C       -4.1540    -8.6240     1.7760 C.2   1 <1>   0.0360 
 20 C       -4.5080    -9.0740    -0.6760 C.3   1 <1>   0.0160 
 21 N       -4.2990    -7.7130     2.6810 N.2   1 <1>  -0.5650 
 22 H       -3.2020    -3.8840     2.3110 H     1 <1>   0.1500 
 23 H       -1.7860    -0.3860    -0.8650 H     1 <1>   0.1500 
 24 H       -0.9250     2.1690     1.5970 H     1 <1>   0.0800 
 25 H       -1.9820     1.6730     0.2820 H     1 <1>   0.0800 
 26 H       -0.3340     1.0250     0.3980 H     1 <1>   0.0800 
 27 H       -2.5350    -2.5220    -1.7090 H     1 <1>   0.1500 
 28 H       -3.0210    -5.4890     0.2910 H     1 <1>   0.0800 
 29 H       -3.1260    -4.8310    -1.3270 H     1 <1>   0.0800 
 30 H       -5.1520    -4.4430     0.7490 H     1 <1>   0.4500 
 31 H       -5.1360    -6.4670    -1.3740 H     1 <1>   0.0800 
 32 H       -6.5430    -6.0850    -0.4050 H     1 <1>   0.0800 
 33 H       -5.5090    -4.0790    -2.1560 H     1 <1>   0.0800 
 34 H       -5.0140    -2.7860    -1.0950 H     1 <1>   0.0800 
 35 H       -7.0910    -2.8260     0.1060 H     1 <1>   0.0800 
 36 H       -7.6160    -4.3010    -0.7170 H     1 <1>   0.0800 
 37 H       -5.0540    -5.7680     2.5480 H     1 <1>   0.1500 
 38 H       -8.4580    -2.3580    -1.6510 H     1 <1>   0.4000 
 39 H       -3.7680    -9.6100     1.9760 H     1 <1>   0.1500 
 40 H       -5.4980    -9.1440    -1.0900 H     1 <1>   0.0800 
 41 H       -4.1660   -10.0630    -0.4230 H     1 <1>   0.0800 
 42 H       -3.8380    -8.6460    -1.3980 H     1 <1>   0.0800 
@<TRIPOS>BOND
  1   1   2  1   
  2   2   3  ar  
  3   2   4  ar  
  4   3   5  1   
  5   3   6  ar  
  6   4   7  ar  
  7   4  22  1   
  8   5   8  1   
  9   6   9  ar  
 10   6  23  1   
 11   7   9  ar  
 12   7  10  1   
 13   8  24  1   
 14   8  25  1   
 15   8  26  1   
 16   9  27  1   
 17  10  11  1   
 18  10  28  1   
 19  10  29  1   
 20  11  12  1   
 21  11  13  1   
 22  11  30  1   
 23  12  14  1   
 24  12  31  1   
 25  12  32  1   
 26  13  15  1   
 27  13  33  1   
 28  13  34  1   
 29  14  16  1   
 30  14  17  2   
 31  15  18  1   
 32  15  35  1   
 33  15  36  1   
 34  16  19  1   
 35  16  20  1   
 36  17  21  1   
 37  17  37  1   
 38  18  38  1   
 39  19  21  2   
 40  19  39  1   
 41  20  40  1   
 42  20  41  1   
 43  20  42  1   
@<TRIPOS>SUBSTRUCTURE
  1 ****  10 GROUP 4 **** **** 0

# MOE 2024.06 (io_trps.svl 2023.06)
