@<TRIPOS>MOLECULE
NONAME
47 51 1 0 0 
SMALL
USER_CHARGES


@<TRIPOS>ATOM
  1 O       -0.2810    -0.9460     1.5410 O.3   1 <1>  -0.0190 
  2 N        0.8000    -0.2300     1.5150 N.2   1 <1>  -0.4100 
  3 C       -0.0660    -1.8900     0.6610 C.2   1 <1>   0.2980 
  4 C        1.5980    -0.7580     0.6540 C.2   1 <1>   0.5150 
  5 N        1.0670    -1.8460     0.0880 N.2   1 <1>  -0.5650 
  6 C       -1.1460    -2.9470     0.4340 C.3   1 <1>   0.2900 
  7 C        2.9150    -0.2520     0.3300 C.2   1 <1>   0.1410 
  8 N       -2.2750    -2.4920    -0.4170 N.3   1 <1>  -0.8100 
  9 O        3.6870    -0.8500    -0.5750 O.3   1 <1>  -0.2800 
 10 C        3.5850     0.8270     0.8220 C.2   1 <1>  -0.1500 
 11 C       -3.1340    -1.4940     0.2680 C.3   1 <1>   0.1100 
 12 C       -3.0710    -3.6370    -0.8830 C.3   1 <1>   0.1100 
 13 C        4.8190    -0.1840    -0.6700 C.2   1 <1>  -0.0100 
 14 C        4.8210     0.8690     0.1720 C.2   1 <1>  -0.1500 
 15 C       -4.2240    -0.9400    -0.6690 C.3   1 <1>   0.1440 
 16 C       -4.1500    -3.1720    -1.8690 C.3   1 <1>  -0.1600 
 17 C       -5.0690     0.0570     0.1040 C.ar  1 <1>   0.1670 
 18 C       -5.0590    -2.1040    -1.2400 C.3   1 <1>  -0.1600 
 19 C       -3.6070    -0.0580    -1.7880 C.3   1 <1>  -0.1600 
 20 N       -5.9580    -0.2440     1.0260 N.ar  1 <1>  -0.6200 
 21 C       -4.7870     1.3400    -0.2590 C.ar  1 <1>  -0.1430 
 22 C       -3.7150     1.4030    -1.3180 C.3   1 <1>  -0.0160 
 23 C       -6.5660     0.8040     1.5630 C.ar  1 <1>   0.4770 
 24 C       -5.4770     2.3490     0.3650 C.ar  1 <1>   0.1600 
 25 N       -6.3810     2.0880     1.2870 N.ar  1 <1>  -0.6200 
 26 C       -7.6010     0.4980     2.6180 C.3   1 <1>  -0.0970 
 27 H       -1.5180    -3.2850     1.3850 H     1 <1>   0.0800 
 28 H       -0.6680    -3.7810    -0.0480 H     1 <1>   0.0800 
 29 H        3.2440     1.5220     1.5680 H     1 <1>   0.1500 
 30 H       -2.5400    -0.6660     0.6110 H     1 <1>   0.0800 
 31 H       -3.6030    -1.9460     1.1260 H     1 <1>   0.0800 
 32 H       -3.5340    -4.1280    -0.0430 H     1 <1>   0.0800 
 33 H       -2.4290    -4.3440    -1.3810 H     1 <1>   0.0800 
 34 H        5.5680    -0.5300    -1.3620 H     1 <1>   0.1500 
 35 H        5.5920     1.6030     0.3310 H     1 <1>   0.1500 
 36 H       -4.7430    -4.0170    -2.1700 H     1 <1>   0.0800 
 37 H       -3.6700    -2.7790    -2.7480 H     1 <1>   0.0800 
 38 H       -5.7660    -1.7390    -1.9630 H     1 <1>   0.0800 
 39 H       -5.6190    -2.5550    -0.4390 H     1 <1>   0.0800 
 40 H       -4.1840    -0.1640    -2.6890 H     1 <1>   0.0800 
 41 H       -2.5890    -0.3300    -2.0070 H     1 <1>   0.0800 
 42 H       -3.9880     2.0590    -2.1270 H     1 <1>   0.0800 
 43 H       -2.7880     1.7270    -0.8770 H     1 <1>   0.0800 
 44 H       -5.2890     3.3780     0.1100 H     1 <1>   0.1500 
 45 H       -7.3510    -0.4140     3.1280 H     1 <1>   0.0800 
 46 H       -8.5600     0.3900     2.1500 H     1 <1>   0.0800 
 47 H       -7.6450     1.2970     3.3340 H     1 <1>   0.0800 
@<TRIPOS>BOND
  1   1   2  1   
  2   1   3  1   
  3   2   4  2   
  4   3   5  2   
  5   3   6  1   
  6   4   5  1   
  7   4   7  1   
  8   6   8  1   
  9   6  27  1   
 10   6  28  1   
 11   7   9  1   
 12   7  10  2   
 13   8  11  1   
 14   8  12  1   
 15   9  13  1   
 16  10  14  1   
 17  10  29  1   
 18  11  15  1   
 19  11  30  1   
 20  11  31  1   
 21  12  16  1   
 22  12  32  1   
 23  12  33  1   
 24  13  14  2   
 25  13  34  1   
 26  14  35  1   
 27  15  17  1   
 28  15  18  1   
 29  15  19  1   
 30  16  18  1   
 31  16  36  1   
 32  16  37  1   
 33  17  20  ar  
 34  17  21  ar  
 35  18  38  1   
 36  18  39  1   
 37  19  22  1   
 38  19  40  1   
 39  19  41  1   
 40  20  23  ar  
 41  21  22  1   
 42  21  24  ar  
 43  22  42  1   
 44  22  43  1   
 45  23  25  ar  
 46  23  26  1   
 47  24  25  ar  
 48  24  44  1   
 49  26  45  1   
 50  26  46  1   
 51  26  47  1   
@<TRIPOS>SUBSTRUCTURE
  1 ****  11 GROUP 4 **** **** 0

# MOE 2024.06 (io_trps.svl 2023.06)
