@<TRIPOS>MOLECULE
NONAME
42 45 1 0 0 
SMALL
USER_CHARGES


@<TRIPOS>ATOM
  1 O        0.4330     0.8440     0.3160 O.2   1 <1>  -0.5700 
  2 C       -0.1940     1.7790    -0.1890 C.2   1 <1>   0.5440 
  3 N       -1.5780     1.6040    -0.2950 N.am  1 <1>  -0.6600 
  4 C        0.4870     3.0200    -0.5220 C.ar  1 <1>   0.3960 
  5 C       -2.4720     2.5860    -0.9840 C.3   1 <1>   0.1400 
  6 C       -2.3030     0.4750     0.3390 C.3   1 <1>   0.1400 
  7 N        1.0430     3.7290     0.4930 N.ar  1 <1>  -0.6200 
  8 C        0.5530     3.5020    -1.8680 C.ar  1 <1>  -0.1710 
  9 C       -3.4680     3.1960     0.0190 C.3   1 <1>   0.1440 
 10 C       -3.3020     1.0290     1.3650 C.3   1 <1>  -0.1600 
 11 C        1.6720     4.8380     0.1910 C.ar  1 <1>   0.1600 
 12 O        0.0200     2.9240    -2.8460 O.3   1 <1>  -0.8290 
 13 C        1.2310     4.6930    -2.1360 C.ar  1 <1>  -0.1500 
 14 C       -4.3760     4.1710    -0.7140 C.ar  1 <1>   0.1660 
 15 C       -4.2470     2.0730     0.7410 C.3   1 <1>  -0.1600 
 16 C       -2.7330     4.1390     1.0090 C.3   1 <1>  -0.1600 
 17 C        1.7970     5.3610    -1.0920 C.ar  1 <1>  -0.1500 
 18 N       -5.4270     3.8580    -1.4370 N.ar  1 <1>  -0.6200 
 19 C       -3.9610     5.4580    -0.5300 C.ar  1 <1>  -0.1440 
 20 C       -2.7360     5.5270     0.3510 C.3   1 <1>  -0.0170 
 21 C       -6.0460     4.9020    -1.9660 C.ar  1 <1>   0.7200 
 22 C       -4.6790     6.4580    -1.1390 C.ar  1 <1>   0.1600 
 23 N       -5.7390     6.1890    -1.8700 N.ar  1 <1>  -0.6200 
 24 N       -7.1070     4.6180    -2.7220 N.pl3 1 <1>  -0.9000 
 25 H       -3.0050     2.0760    -1.7670 H     1 <1>   0.0800 
 26 H       -1.9100     3.3720    -1.4480 H     1 <1>   0.0800 
 27 H       -1.6170    -0.1960     0.8260 H     1 <1>   0.0800 
 28 H       -2.8210    -0.0750    -0.4260 H     1 <1>   0.0800 
 29 H       -2.7470     1.4720     2.1740 H     1 <1>   0.0800 
 30 H       -3.8770     0.2160     1.7700 H     1 <1>   0.0800 
 31 H        2.1240     5.3810     1.0010 H     1 <1>   0.1500 
 32 H        1.2800     5.0300    -3.1540 H     1 <1>   0.1500 
 33 H       -4.8760     1.5780     0.0210 H     1 <1>   0.0800 
 34 H       -4.8880     2.4940     1.4950 H     1 <1>   0.0800 
 35 H       -1.7360     3.8100     1.2420 H     1 <1>   0.0800 
 36 H       -3.2920     4.1970     1.9260 H     1 <1>   0.0800 
 37 H        2.3330     6.2770    -1.2490 H     1 <1>   0.1500 
 38 H       -1.8560     5.6530    -0.2580 H     1 <1>   0.0800 
 39 H       -2.7990     6.3140     1.0810 H     1 <1>   0.0800 
 40 H       -4.3810     7.4850    -1.0250 H     1 <1>   0.1500 
 41 H       -7.3640     5.3510    -3.3760 H     1 <1>   0.4000 
 42 H       -7.1160     3.6670    -3.0780 H     1 <1>   0.4000 
@<TRIPOS>BOND
  1   1   2  2   
  2   2   3  am  
  3   2   4  1   
  4   3   5  1   
  5   3   6  1   
  6   4   7  ar  
  7   4   8  ar  
  8   5   9  1   
  9   5  25  1   
 10   5  26  1   
 11   6  10  1   
 12   6  27  1   
 13   6  28  1   
 14   7  11  ar  
 15   8  12  1   
 16   8  13  ar  
 17   9  14  1   
 18   9  15  1   
 19   9  16  1   
 20  10  15  1   
 21  10  29  1   
 22  10  30  1   
 23  11  17  ar  
 24  11  31  1   
 25  13  17  ar  
 26  13  32  1   
 27  14  18  ar  
 28  14  19  ar  
 29  15  33  1   
 30  15  34  1   
 31  16  20  1   
 32  16  35  1   
 33  16  36  1   
 34  17  37  1   
 35  18  21  ar  
 36  19  20  1   
 37  19  22  ar  
 38  20  38  1   
 39  20  39  1   
 40  21  23  ar  
 41  21  24  1   
 42  22  23  ar  
 43  22  40  1   
 44  24  41  1   
 45  24  42  1   
@<TRIPOS>SUBSTRUCTURE
  1 ****   5 GROUP 4 **** **** 0

# MOE 2024.06 (io_trps.svl 2023.06)
