@<TRIPOS>MOLECULE
NONAME
55 57 1 0 0 
SMALL
USER_CHARGES


@<TRIPOS>ATOM
  1 O        1.7690    -1.1480     1.2060 O.co2 1 <1>  -0.9000 
  2 C        1.5860    -0.1120     0.5570 C.2   1 <1>   0.9060 
  3 O        0.8570     0.7860     0.9690 O.co2 1 <1>  -0.9000 
  4 C        2.5320     0.1490    -0.6260 C.3   1 <1>  -0.1060 
  5 C        3.9380     0.1420    -0.0010 C.3   1 <1>   0.4230 
  6 C        2.3320     1.5560    -1.2610 C.3   1 <1>  -0.1600 
  7 C        2.3760    -0.9560    -1.7130 C.3   1 <1>  -0.1600 
  8 N        4.2850    -1.2660     0.4060 N.4   1 <1>  -0.9590 
  9 C        3.9810     1.2230     1.1190 C.3   1 <1>   0.3430 
 10 C        2.4540     2.7120    -0.2530 C.3   1 <1>   0.3430 
 11 C        3.7030    -1.6720    -2.0160 C.3   1 <1>  -0.1600 
 12 C        4.3820    -2.2140    -0.7490 C.3   1 <1>   0.3430 
 13 C        5.4000    -1.4480     1.3770 C.3   1 <1>   0.2630 
 14 N        3.6920     2.5990     0.5820 N.4   1 <1>  -0.9590 
 15 C        3.6270     3.6040     1.6720 C.3   1 <1>   0.5240 
 16 C        4.2660     4.8660     1.1110 C.2   1 <1>   0.0460 
 17 N        5.3330     4.7660     0.2850 N.2   1 <1>  -0.5650 
 18 C        3.9210     6.1590     1.2960 C.2   1 <1>  -0.3020 
 19 C        5.6190     5.9950    -0.0040 C.2   1 <1>   0.0060 
 20 N        4.7940     6.8920     0.5810 N.pl3 1 <1>   0.0330 
 21 C        6.7660     6.4150    -0.9080 C.3   1 <1>   0.0200 
 22 C        7.8870     7.0910    -0.1070 C.3   1 <1>  -0.1600 
 23 C        9.0560     7.5030    -1.0110 C.3   1 <1>  -0.1600 
 24 C       10.1660     8.1780    -0.2010 C.3   1 <1>  -0.2400 
 25 H        4.6460     0.4430    -0.7530 H     1 <1>   0.0800 
 26 H        1.3460     1.6070    -1.6900 H     1 <1>   0.0800 
 27 H        3.0360     1.7110    -2.0600 H     1 <1>   0.0800 
 28 H        1.6660    -1.6940    -1.3720 H     1 <1>   0.0800 
 29 H        1.9720    -0.5480    -2.6240 H     1 <1>   0.0800 
 30 H        3.3910    -1.5560     0.8960 H     1 <1>   0.4500 
 31 H        4.9560     1.2230     1.5750 H     1 <1>   0.0800 
 32 H        3.2500     0.9770     1.8730 H     1 <1>   0.0800 
 33 H        1.5870     2.7100     0.3890 H     1 <1>   0.0800 
 34 H        2.4550     3.6520    -0.7820 H     1 <1>   0.0800 
 35 H        4.3740    -0.9970    -2.5180 H     1 <1>   0.0800 
 36 H        3.5220    -2.4910    -2.6900 H     1 <1>   0.0800 
 37 H        5.4160    -2.4220    -0.9710 H     1 <1>   0.0800 
 38 H        3.9100    -3.1430    -0.4700 H     1 <1>   0.0800 
 39 H        6.3310    -1.1170     0.9480 H     1 <1>   0.0800 
 40 H        5.4910    -2.4900     1.6400 H     1 <1>   0.0800 
 41 H        5.2070    -0.8930     2.2800 H     1 <1>   0.0800 
 42 H        4.4870     2.9660     0.0230 H     1 <1>   0.4500 
 43 H        2.6110     3.7810     1.9850 H     1 <1>   0.0800 
 44 H        4.2070     3.2740     2.5180 H     1 <1>   0.0800 
 45 H        3.1290     6.5970     1.8790 H     1 <1>   0.1500 
 46 H        4.8400     7.9130     0.4960 H     1 <1>   0.2700 
 47 H        7.1580     5.5430    -1.4010 H     1 <1>   0.0800 
 48 H        6.3970     7.0840    -1.6650 H     1 <1>   0.0800 
 49 H        7.5000     7.9630     0.3920 H     1 <1>   0.0800 
 50 H        8.2400     6.4070     0.6460 H     1 <1>   0.0800 
 51 H        9.4590     6.6330    -1.5030 H     1 <1>   0.0800 
 52 H        8.7090     8.1840    -1.7700 H     1 <1>   0.0800 
 53 H       10.5450     7.5070     0.5500 H     1 <1>   0.0800 
 54 H        9.7960     9.0650     0.2820 H     1 <1>   0.0800 
 55 H       10.9780     8.4560    -0.8500 H     1 <1>   0.0800 
@<TRIPOS>BOND
  1   1   2  ar  
  2   2   3  ar  
  3   2   4  1   
  4   4   5  1   
  5   4   6  1   
  6   4   7  1   
  7   5   8  1   
  8   5   9  1   
  9   5  25  1   
 10   6  10  1   
 11   6  26  1   
 12   6  27  1   
 13   7  11  1   
 14   7  28  1   
 15   7  29  1   
 16   8  12  1   
 17   8  13  1   
 18   8  30  1   
 19   9  14  1   
 20   9  31  1   
 21   9  32  1   
 22  10  14  1   
 23  10  33  1   
 24  10  34  1   
 25  11  12  1   
 26  11  35  1   
 27  11  36  1   
 28  12  37  1   
 29  12  38  1   
 30  13  39  1   
 31  13  40  1   
 32  13  41  1   
 33  14  15  1   
 34  14  42  1   
 35  15  16  1   
 36  15  43  1   
 37  15  44  1   
 38  16  17  1   
 39  16  18  2   
 40  17  19  2   
 41  18  20  1   
 42  18  45  1   
 43  19  20  1   
 44  19  21  1   
 45  20  46  1   
 46  21  22  1   
 47  21  47  1   
 48  21  48  1   
 49  22  23  1   
 50  22  49  1   
 51  22  50  1   
 52  23  24  1   
 53  23  51  1   
 54  23  52  1   
 55  24  53  1   
 56  24  54  1   
 57  24  55  1   
@<TRIPOS>SUBSTRUCTURE
  1 ****  14 GROUP 4 **** **** 0

# MOE 2024.06 (io_trps.svl 2023.06)
