@<TRIPOS>MOLECULE
NONAME
59 62 1 0 0 
SMALL
USER_CHARGES


@<TRIPOS>ATOM
  1 O       -0.9960    -0.7590    -1.6970 O.2   1 <1>  -0.5700 
  2 C       -1.6940    -1.3200    -0.8700 C.2   1 <1>   0.6160 
  3 N       -1.4120    -2.6350    -0.5580 N.am  1 <1>  -0.6600 
  4 C       -2.7910    -0.6120    -0.2760 C.2   1 <1>   0.0290 
  5 C       -0.0290    -3.2290    -0.6810 C.3   1 <1>   0.2200 
  6 C       -2.5300    -3.5590    -0.1970 C.3   1 <1>   0.1400 
  7 C       -2.8610    -0.5440     1.1500 C.2   1 <1>   0.6160 
  8 C       -3.7640     0.0140    -1.0150 C.2   1 <1>  -0.1500 
  9 C        0.1920    -4.3850     0.3420 C.3   1 <1>   0.0000 
 10 C        1.0940    -2.1590    -0.6040 C.3   1 <1>   0.3430 
 11 C       -2.1790    -5.0010    -0.5630 C.3   1 <1>  -0.1600 
 12 O       -2.0350    -1.0370     1.9090 O.2   1 <1>  -0.5700 
 13 N       -3.9150     0.1150     1.7200 N.am  1 <1>  -0.5390 
 14 C       -4.8320     0.6880    -0.3830 C.2   1 <1>  -0.1380 
 15 C        1.6220    -4.9930     0.1610 C.3   1 <1>  -0.1600 
 16 C       -0.8690    -5.4990     0.0790 C.3   1 <1>  -0.1600 
 17 C        0.0040    -3.8980     1.8180 C.3   1 <1>   0.1200 
 18 N        2.4010    -2.6730    -0.0720 N.4   1 <1>  -0.9590 
 19 C       -4.8890     0.7320     0.9810 C.2   1 <1>  -0.0290 
 20 C       -5.8850     1.3550    -1.2600 C.3   1 <1>  -0.0220 
 21 C        2.6580    -4.0640    -0.4900 C.3   1 <1>   0.3430 
 22 O        1.0290    -3.0690     2.2690 O.3   1 <1>  -0.6800 
 23 C        3.5370    -1.7570    -0.3210 C.3   1 <1>   0.3430 
 24 C       -5.9990     1.4360     1.7500 C.3   1 <1>  -0.0220 
 25 C       -7.1630     1.6890    -0.4790 C.3   1 <1>  -0.1600 
 26 C        3.3480    -0.4750     0.4820 C.3   1 <1>  -0.2400 
 27 C       -6.8240     2.3680     0.8530 C.3   1 <1>  -0.1600 
 28 H        0.0320    -3.6560    -1.6670 H     1 <1>   0.0800 
 29 H       -2.7350    -3.4890     0.8570 H     1 <1>   0.0800 
 30 H       -3.4230    -3.2700    -0.7260 H     1 <1>   0.0800 
 31 H       -3.7210     0.0000    -2.0910 H     1 <1>   0.1500 
 32 H        0.7540    -1.3670     0.0430 H     1 <1>   0.0800 
 33 H        1.2340    -1.7450    -1.5880 H     1 <1>   0.0800 
 34 H       -2.9890    -5.6490    -0.2740 H     1 <1>   0.0800 
 35 H       -2.0980    -5.0600    -1.6350 H     1 <1>   0.0800 
 36 H       -3.9120     0.1370     2.7400 H     1 <1>   0.3700 
 37 H        1.5960    -5.8750    -0.4520 H     1 <1>   0.0800 
 38 H        2.0010    -5.3150     1.1150 H     1 <1>   0.0800 
 39 H       -0.4860    -6.2560    -0.5820 H     1 <1>   0.0800 
 40 H       -1.1040    -6.0050     1.0000 H     1 <1>   0.0800 
 41 H       -0.0240    -4.7430     2.4850 H     1 <1>   0.0800 
 42 H       -0.9170    -3.3570     1.9370 H     1 <1>   0.0800 
 43 H        2.2340    -2.7250     0.9550 H     1 <1>   0.4500 
 44 H       -5.4670     2.2610    -1.6640 H     1 <1>   0.0800 
 45 H       -6.1370     0.7100    -2.0840 H     1 <1>   0.0800 
 46 H        2.5880    -4.1330    -1.5640 H     1 <1>   0.0800 
 47 H        3.6490    -4.3700    -0.1930 H     1 <1>   0.0800 
 48 H        0.7560    -2.6610     3.1220 H     1 <1>   0.4000 
 49 H        4.4560    -2.2290    -0.0120 H     1 <1>   0.0800 
 50 H        3.6090    -1.5290    -1.3730 H     1 <1>   0.0800 
 51 H       -6.6440     0.6880     2.1760 H     1 <1>   0.0800 
 52 H       -5.5770     2.0110     2.5560 H     1 <1>   0.0800 
 53 H       -7.7880     2.3330    -1.0720 H     1 <1>   0.0800 
 54 H       -7.7100     0.7810    -0.2860 H     1 <1>   0.0800 
 55 H        3.2320    -0.6950     1.5280 H     1 <1>   0.0800 
 56 H        2.4970     0.0830     0.1340 H     1 <1>   0.0800 
 57 H        4.2170     0.1470     0.3650 H     1 <1>   0.0800 
 58 H       -7.7280     2.6510     1.3630 H     1 <1>   0.0800 
 59 H       -6.2590     3.2640     0.6580 H     1 <1>   0.0800 
@<TRIPOS>BOND
  1   1   2  2   
  2   2   3  am  
  3   2   4  1   
  4   3   5  1   
  5   3   6  1   
  6   4   7  1   
  7   4   8  2   
  8   5   9  1   
  9   5  10  1   
 10   5  28  1   
 11   6  11  1   
 12   6  29  1   
 13   6  30  1   
 14   7  12  2   
 15   7  13  am  
 16   8  14  1   
 17   8  31  1   
 18   9  15  1   
 19   9  16  1   
 20   9  17  1   
 21  10  18  1   
 22  10  32  1   
 23  10  33  1   
 24  11  16  1   
 25  11  34  1   
 26  11  35  1   
 27  13  19  1   
 28  13  36  1   
 29  14  19  2   
 30  14  20  1   
 31  15  21  1   
 32  15  37  1   
 33  15  38  1   
 34  16  39  1   
 35  16  40  1   
 36  17  22  1   
 37  17  41  1   
 38  17  42  1   
 39  18  21  1   
 40  18  23  1   
 41  18  43  1   
 42  19  24  1   
 43  20  25  1   
 44  20  44  1   
 45  20  45  1   
 46  21  46  1   
 47  21  47  1   
 48  22  48  1   
 49  23  26  1   
 50  23  49  1   
 51  23  50  1   
 52  24  27  1   
 53  24  51  1   
 54  24  52  1   
 55  25  27  1   
 56  25  53  1   
 57  25  54  1   
 58  26  55  1   
 59  26  56  1   
 60  26  57  1   
 61  27  58  1   
 62  27  59  1   
@<TRIPOS>SUBSTRUCTURE
  1 ****   2 GROUP 4 **** **** 0

# MOE 2024.06 (io_trps.svl 2023.06)
