@<TRIPOS>MOLECULE
NONAME
53 56 1 0 0 
SMALL
USER_CHARGES


@<TRIPOS>ATOM
  1 O       -0.2760     0.0350     1.1420 O.3   1 <1>  -0.2800 
  2 C        0.7680    -0.5660     0.6000 C.2   1 <1>   0.4250 
  3 C       -1.0030    -0.8900     1.6950 C.2   1 <1>  -0.0400 
  4 N        0.7450    -1.8550     0.7760 N.2   1 <1>  -0.5650 
  5 C        1.7720     0.2100    -0.0980 C.ar  1 <1>   0.0530 
  6 C       -0.3860    -2.0610     1.4820 C.2   1 <1>   0.0460 
  7 C       -2.2830    -0.4870     2.4000 C.3   1 <1>  -0.0600 
  8 C        1.6080     1.5750    -0.3340 C.ar  1 <1>  -0.1500 
  9 C        2.9470    -0.3810    -0.5670 C.ar  1 <1>  -0.1500 
 10 C       -0.7960    -3.4670     1.8870 C.3   1 <1>   0.5240 
 11 C        2.5600     2.3210    -1.0060 C.ar  1 <1>   0.0820 
 12 C        3.9080     0.3520    -1.2390 C.ar  1 <1>  -0.1500 
 13 N       -0.6420    -4.3520     0.6990 N.4   1 <1>  -0.9590 
 14 O        2.2900     3.6390    -1.1790 O.3   1 <1>  -0.3620 
 15 C        3.7200     1.7030    -1.4630 C.ar  1 <1>  -0.1500 
 16 C       -1.6850    -4.0410    -0.3240 C.3   1 <1>   0.3430 
 17 C       -0.7800    -5.7950     1.0570 C.3   1 <1>   0.3430 
 18 C        3.1920     4.4910    -1.8490 C.3   1 <1>   0.0400 
 19 C       -2.7520    -5.1240    -0.1470 C.3   1 <1>   0.2000 
 20 C       -1.9310    -6.3620     0.2080 C.3   1 <1>  -0.0800 
 21 O       -3.5370    -4.7930     0.9540 O.3   1 <1>  -0.6800 
 22 C       -1.4270    -7.0880    -1.0600 C.3   1 <1>  -0.0170 
 23 C       -0.6710    -8.3670    -0.7300 C.ar  1 <1>   0.1670 
 24 N        0.5570    -8.2180    -0.2620 N.ar  1 <1>  -0.6200 
 25 C       -1.2730    -9.6090    -0.9300 C.ar  1 <1>   0.1600 
 26 C        1.1420    -9.3820    -0.0190 C.ar  1 <1>   0.1600 
 27 N       -0.6940   -10.7690    -0.6760 N.ar  1 <1>  -0.6200 
 28 C        0.5360   -10.6160    -0.2190 C.ar  1 <1>   0.1600 
 29 H       -2.7900    -1.3440     2.8020 H     1 <1>   0.0800 
 30 H       -2.9370     0.0120     1.7070 H     1 <1>   0.0800 
 31 H       -2.0560     0.1910     3.2030 H     1 <1>   0.0800 
 32 H        0.7220     2.0770     0.0090 H     1 <1>   0.1500 
 33 H        3.1110    -1.4310    -0.4000 H     1 <1>   0.1500 
 34 H       -1.8140    -3.4770     2.2400 H     1 <1>   0.0800 
 35 H       -0.1450    -3.8000     2.6780 H     1 <1>   0.0800 
 36 H        4.8050    -0.1290    -1.5900 H     1 <1>   0.1500 
 37 H        0.2910    -4.1210     0.3200 H     1 <1>   0.4500 
 38 H        4.4780     2.2520    -1.9870 H     1 <1>   0.1500 
 39 H       -2.1000    -3.0540    -0.2030 H     1 <1>   0.0800 
 40 H       -1.2540    -4.1220    -1.3080 H     1 <1>   0.0800 
 41 H        0.1450    -6.3180     0.8870 H     1 <1>   0.0800 
 42 H       -1.0360    -5.8890     2.1000 H     1 <1>   0.0800 
 43 H        2.7690     5.4790    -1.8630 H     1 <1>   0.0800 
 44 H        3.3250     4.1360    -2.8550 H     1 <1>   0.0800 
 45 H        4.1250     4.5010    -1.3150 H     1 <1>   0.0800 
 46 H       -3.3860    -5.2340    -1.0110 H     1 <1>   0.0800 
 47 H       -2.5120    -7.0610     0.7860 H     1 <1>   0.0800 
 48 H       -4.3370    -5.3600     1.0030 H     1 <1>   0.4000 
 49 H       -0.7760    -6.4490    -1.6320 H     1 <1>   0.0800 
 50 H       -2.2660    -7.3320    -1.6870 H     1 <1>   0.0800 
 51 H       -2.2760    -9.6510    -1.3170 H     1 <1>   0.1500 
 52 H        2.1510    -9.3620     0.3550 H     1 <1>   0.1500 
 53 H        1.0910   -11.5100     0.0080 H     1 <1>   0.1500 
@<TRIPOS>BOND
  1   1   2  1   
  2   1   3  1   
  3   2   4  2   
  4   2   5  1   
  5   3   6  2   
  6   3   7  1   
  7   4   6  1   
  8   5   8  ar  
  9   5   9  ar  
 10   6  10  1   
 11   7  29  1   
 12   7  30  1   
 13   7  31  1   
 14   8  11  ar  
 15   8  32  1   
 16   9  12  ar  
 17   9  33  1   
 18  10  13  1   
 19  10  34  1   
 20  10  35  1   
 21  11  14  1   
 22  11  15  ar  
 23  12  15  ar  
 24  12  36  1   
 25  13  16  1   
 26  13  17  1   
 27  13  37  1   
 28  14  18  1   
 29  15  38  1   
 30  16  19  1   
 31  16  39  1   
 32  16  40  1   
 33  17  20  1   
 34  17  41  1   
 35  17  42  1   
 36  18  43  1   
 37  18  44  1   
 38  18  45  1   
 39  19  20  1   
 40  19  21  1   
 41  19  46  1   
 42  20  22  1   
 43  20  47  1   
 44  21  48  1   
 45  22  23  1   
 46  22  49  1   
 47  22  50  1   
 48  23  24  ar  
 49  23  25  ar  
 50  24  26  ar  
 51  25  27  ar  
 52  25  51  1   
 53  26  28  ar  
 54  26  52  1   
 55  27  28  ar  
 56  28  53  1   
@<TRIPOS>SUBSTRUCTURE
  1 ****  13 GROUP 4 **** **** 0

# MOE 2024.06 (io_trps.svl 2023.06)
