@<TRIPOS>MOLECULE
NONAME
62 65 1 0 0 
SMALL
USER_CHARGES


@<TRIPOS>ATOM
  1 O        1.0120    -1.2440    -1.5560 O.2   1 <1>  -0.5700 
  2 C        1.2710    -2.1760    -0.8350 C.2   1 <1>   0.5690 
  3 N        2.5650    -2.5050    -0.6220 N.am  1 <1>  -0.7300 
  4 C        0.1560    -2.9910    -0.1810 C.3   1 <1>  -0.0190 
  5 C        3.3920    -1.8480     0.4140 C.3   1 <1>   0.3000 
  6 C       -0.6580    -3.8180    -1.1770 C.3   1 <1>  -0.1600 
  7 C       -0.9110    -2.1600     0.5370 C.3   1 <1>  -0.1600 
  8 C        3.5590    -0.3420     0.0790 C.3   1 <1>   0.2000 
  9 C        4.7820    -2.5070     0.3650 C.3   1 <1>  -0.1600 
 10 C        2.7480    -2.0800     1.7880 C.3   1 <1>  -0.2400 
 11 C       -1.9680    -4.1400    -0.4550 C.3   1 <1>  -0.1600 
 12 C       -2.1250    -3.0850     0.6480 C.3   1 <1>  -0.1600 
 13 O        4.3540     0.2850     1.0470 O.3   1 <1>  -0.6800 
 14 C        4.2270    -0.1670    -1.3030 C.3   1 <1>   0.1200 
 15 C        5.6390    -2.0910    -0.8660 C.3   1 <1>   0.2800 
 16 O        4.8830    -1.3340    -1.7590 O.3   1 <1>  -0.5600 
 17 C        6.8970    -1.2840    -0.5010 C.3   1 <1>  -0.1600 
 18 C        6.0610    -3.3230    -1.6770 C.3   1 <1>  -0.1600 
 19 C        7.9400    -2.1390     0.2100 C.3   1 <1>   0.3430 
 20 C        7.1080    -4.1600    -0.9480 C.3   1 <1>   0.3430 
 21 N        8.2960    -3.3170    -0.6370 N.4   1 <1>  -0.9590 
 22 C        9.3930    -4.1270    -0.0330 C.3   1 <1>   0.4860 
 23 C       10.6440    -3.2820     0.0720 C.ar  1 <1>  -0.1440 
 24 C       11.4320    -3.0660    -1.0490 C.ar  1 <1>   0.1600 
 25 C       11.0230    -2.7120     1.2740 C.ar  1 <1>  -0.1500 
 26 N       12.5250    -2.3270    -1.0690 N.ar  1 <1>  -0.6200 
 27 C       12.1680    -1.9440     1.2670 C.ar  1 <1>  -0.1500 
 28 C       12.8720    -1.7830     0.0860 C.ar  1 <1>   0.1600 
 29 H        3.0980    -2.3970    -1.4920 H     1 <1>   0.3700 
 30 H        0.5920    -3.6680     0.5320 H     1 <1>   0.0800 
 31 H       -0.8710    -3.2180    -2.0470 H     1 <1>   0.0800 
 32 H       -0.1340    -4.7060    -1.4850 H     1 <1>   0.0800 
 33 H       -0.5800    -1.8160     1.5000 H     1 <1>   0.0800 
 34 H       -1.1720    -1.3090    -0.0690 H     1 <1>   0.0800 
 35 H        2.6020     0.1490     0.0950 H     1 <1>   0.0800 
 36 H        4.6540    -3.5730     0.4160 H     1 <1>   0.0800 
 37 H        5.3100    -2.2320     1.2590 H     1 <1>   0.0800 
 38 H        3.3830    -1.6980     2.5680 H     1 <1>   0.0800 
 39 H        2.5930    -3.1290     1.9640 H     1 <1>   0.0800 
 40 H        1.8100    -1.5620     1.8570 H     1 <1>   0.0800 
 41 H       -2.7970    -4.1160    -1.1420 H     1 <1>   0.0800 
 42 H       -1.9120    -5.1190    -0.0120 H     1 <1>   0.0800 
 43 H       -2.1310    -3.5690     1.6100 H     1 <1>   0.0800 
 44 H       -3.0410    -2.5300     0.5330 H     1 <1>   0.0800 
 45 H        4.2010     1.2520     1.0310 H     1 <1>   0.4000 
 46 H        4.9300     0.6470    -1.2990 H     1 <1>   0.0800 
 47 H        3.4640     0.0520    -2.0310 H     1 <1>   0.0800 
 48 H        7.3340    -0.8700    -1.3930 H     1 <1>   0.0800 
 49 H        6.6420    -0.4650     0.1450 H     1 <1>   0.0800 
 50 H        5.1980    -3.9340    -1.8760 H     1 <1>   0.0800 
 51 H        6.4620    -3.0130    -2.6260 H     1 <1>   0.0800 
 52 H        7.5510    -2.4710     1.1590 H     1 <1>   0.0800 
 53 H        8.8170    -1.5380     0.3960 H     1 <1>   0.0800 
 54 H        7.3950    -4.9910    -1.5720 H     1 <1>   0.0800 
 55 H        6.6860    -4.5510    -0.0360 H     1 <1>   0.0800 
 56 H        8.6540    -2.9360    -1.5240 H     1 <1>   0.4500 
 57 H        9.1050    -4.4740     0.9460 H     1 <1>   0.0800 
 58 H        9.6000    -4.9880    -0.6490 H     1 <1>   0.0800 
 59 H       11.1590    -3.5180    -1.9880 H     1 <1>   0.1500 
 60 H       10.4670    -2.8510     2.1860 H     1 <1>   0.1500 
 61 H       12.5210    -1.4720     2.1680 H     1 <1>   0.1500 
 62 H       13.7660    -1.1800     0.0920 H     1 <1>   0.1500 
@<TRIPOS>BOND
  1   1   2  2   
  2   2   3  am  
  3   2   4  1   
  4   3   5  1   
  5   3  29  1   
  6   4   6  1   
  7   4   7  1   
  8   4  30  1   
  9   5   8  1   
 10   5   9  1   
 11   5  10  1   
 12   6  11  1   
 13   6  31  1   
 14   6  32  1   
 15   7  12  1   
 16   7  33  1   
 17   7  34  1   
 18   8  13  1   
 19   8  14  1   
 20   8  35  1   
 21   9  15  1   
 22   9  36  1   
 23   9  37  1   
 24  10  38  1   
 25  10  39  1   
 26  10  40  1   
 27  11  12  1   
 28  11  41  1   
 29  11  42  1   
 30  12  43  1   
 31  12  44  1   
 32  13  45  1   
 33  14  16  1   
 34  14  46  1   
 35  14  47  1   
 36  15  16  1   
 37  15  17  1   
 38  15  18  1   
 39  17  19  1   
 40  17  48  1   
 41  17  49  1   
 42  18  20  1   
 43  18  50  1   
 44  18  51  1   
 45  19  21  1   
 46  19  52  1   
 47  19  53  1   
 48  20  21  1   
 49  20  54  1   
 50  20  55  1   
 51  21  22  1   
 52  21  56  1   
 53  22  23  1   
 54  22  57  1   
 55  22  58  1   
 56  23  24  ar  
 57  23  25  ar  
 58  24  26  ar  
 59  24  59  1   
 60  25  27  ar  
 61  25  60  1   
 62  26  28  ar  
 63  27  28  ar  
 64  27  61  1   
 65  28  62  1   
@<TRIPOS>SUBSTRUCTURE
  1 ****  15 GROUP 4 **** **** 0

# MOE 2024.06 (io_trps.svl 2023.06)
