@<TRIPOS>MOLECULE
NONAME
52 55 1 0 0 
SMALL
USER_CHARGES


@<TRIPOS>ATOM
  1 S        0.5680     0.8840    -1.0140 S.o2  1 <1>   1.3330 
  2 O        0.6630     2.0060    -1.9200 O.2   1 <1>  -0.6500 
  3 O        0.1170    -0.4020    -1.4850 O.2   1 <1>  -0.6500 
  4 N        2.0920     0.6750    -0.2960 N.am  1 <1>  -0.8490 
  5 C       -0.4720     1.4030     0.3610 C.3   1 <1>  -0.0550 
  6 C        2.2270    -0.6200     0.3940 C.3   1 <1>   0.1160 
  7 C        3.1740     0.7840    -1.2860 C.3   1 <1>   0.1160 
  8 C       -0.3270     2.8680     0.8490 C.3   1 <1>  -0.0800 
  9 C       -0.7910     3.9100    -0.1840 C.3   1 <1>   0.2000 
 10 C        1.1060     3.2780     1.2400 C.3   1 <1>   0.3430 
 11 O       -1.6380     4.8060     0.4620 O.3   1 <1>  -0.6800 
 12 C        0.4840     4.6570    -0.5940 C.3   1 <1>   0.3430 
 13 N        1.3800     4.5880     0.5950 N.4   1 <1>  -0.9590 
 14 C        1.1360     5.7360     1.5090 C.3   1 <1>   0.4860 
 15 C        1.6000     7.0020     0.8230 C.ar  1 <1>  -0.1440 
 16 C        2.9210     7.1160     0.4140 C.ar  1 <1>   0.1400 
 17 C        0.7490     8.0660     0.5770 C.ar  1 <1>  -0.1500 
 18 O        3.8800     6.1860     0.5460 O.3   1 <1>  -0.2800 
 19 C        3.4020     8.2460    -0.2200 C.ar  1 <1>   0.0000 
 20 C        1.2190     9.2130    -0.0620 C.ar  1 <1>  -0.1500 
 21 C        4.9970     6.7060     0.0130 C.ar  1 <1>   0.1400 
 22 C        4.7700     7.9790    -0.4790 C.ar  1 <1>   0.0000 
 23 C        2.5400     9.3110    -0.4620 C.ar  1 <1>  -0.1500 
 24 C        6.2410     6.1010    -0.0660 C.ar  1 <1>  -0.1500 
 25 C        5.8150     8.6820    -1.0720 C.ar  1 <1>  -0.1500 
 26 C        7.2750     6.8030    -0.6580 C.ar  1 <1>  -0.1500 
 27 C        7.0610     8.0880    -1.1580 C.ar  1 <1>  -0.1500 
 28 H       -1.4950     1.2570     0.0710 H     1 <1>   0.0800 
 29 H       -0.2980     0.7440     1.1900 H     1 <1>   0.0800 
 30 H        3.1830    -0.6800     0.8870 H     1 <1>   0.0800 
 31 H        2.1500    -1.4340    -0.3100 H     1 <1>   0.0800 
 32 H        1.4560    -0.7370     1.1360 H     1 <1>   0.0800 
 33 H        4.1320     0.6510    -0.8130 H     1 <1>   0.0800 
 34 H        3.1610     1.7560    -1.7500 H     1 <1>   0.0800 
 35 H        3.0560     0.0370    -2.0550 H     1 <1>   0.0800 
 36 H       -0.9380     2.9520     1.7320 H     1 <1>   0.0800 
 37 H       -1.3080     3.5030    -1.0380 H     1 <1>   0.0800 
 38 H        1.8180     2.5580     0.8810 H     1 <1>   0.0800 
 39 H        1.2080     3.3460     2.3110 H     1 <1>   0.0800 
 40 H       -2.5630     4.4770     0.4690 H     1 <1>   0.4000 
 41 H        0.2660     5.6700    -0.8890 H     1 <1>   0.0800 
 42 H        0.9490     4.1480    -1.4220 H     1 <1>   0.0800 
 43 H        2.3650     4.6670     0.2950 H     1 <1>   0.4500 
 44 H        0.0880     5.8080     1.7530 H     1 <1>   0.0800 
 45 H        1.6960     5.6070     2.4210 H     1 <1>   0.0800 
 46 H       -0.2870     8.0250     0.8730 H     1 <1>   0.1500 
 47 H        0.5440    10.0320    -0.2450 H     1 <1>   0.1500 
 48 H        2.9070    10.1950    -0.9540 H     1 <1>   0.1500 
 49 H        6.3890     5.1120     0.3270 H     1 <1>   0.1500 
 50 H        5.6460     9.6730    -1.4560 H     1 <1>   0.1500 
 51 H        8.2530     6.3600    -0.7350 H     1 <1>   0.1500 
 52 H        7.8790     8.6190    -1.6140 H     1 <1>   0.1500 
@<TRIPOS>BOND
  1   1   2  2   
  2   1   3  2   
  3   1   4  am  
  4   1   5  1   
  5   4   6  1   
  6   4   7  1   
  7   5   8  1   
  8   5  28  1   
  9   5  29  1   
 10   6  30  1   
 11   6  31  1   
 12   6  32  1   
 13   7  33  1   
 14   7  34  1   
 15   7  35  1   
 16   8   9  1   
 17   8  10  1   
 18   8  36  1   
 19   9  11  1   
 20   9  12  1   
 21   9  37  1   
 22  10  13  1   
 23  10  38  1   
 24  10  39  1   
 25  11  40  1   
 26  12  13  1   
 27  12  41  1   
 28  12  42  1   
 29  13  14  1   
 30  13  43  1   
 31  14  15  1   
 32  14  44  1   
 33  14  45  1   
 34  15  16  ar  
 35  15  17  ar  
 36  16  18  1   
 37  16  19  ar  
 38  17  20  ar  
 39  17  46  1   
 40  18  21  1   
 41  19  22  1   
 42  19  23  ar  
 43  20  23  ar  
 44  20  47  1   
 45  21  22  ar  
 46  21  24  ar  
 47  22  25  ar  
 48  23  48  1   
 49  24  26  ar  
 50  24  49  1   
 51  25  27  ar  
 52  25  50  1   
 53  26  27  ar  
 54  26  51  1   
 55  27  52  1   
@<TRIPOS>SUBSTRUCTURE
  1 ****  13 GROUP 4 **** **** 0

# MOE 2024.06 (io_trps.svl 2023.06)
