@<TRIPOS>MOLECULE
NONAME
55 58 1 0 0 
SMALL
USER_CHARGES


@<TRIPOS>ATOM
  1 O        0.7510    -0.5660     1.9400 O.2   1 <1>  -0.5700 
  2 C        1.1370    -1.5140     1.2990 C.2   1 <1>   0.5690 
  3 N        1.9340    -1.3300     0.1960 N.am  1 <1>  -0.6600 
  4 C        0.6620    -2.8710     1.7940 C.3   1 <1>  -0.0990 
  5 C        2.3520    -2.4130    -0.7400 C.3   1 <1>   0.1400 
  6 C        2.4420     0.0360    -0.1410 C.3   1 <1>   0.1400 
  7 C        1.2110    -4.1350     1.1310 C.3   1 <1>   0.1200 
  8 C        3.2110    -3.5180    -0.0650 C.3   1 <1>   0.2800 
  9 C        1.4340     0.7840    -1.0120 C.3   1 <1>   0.1200 
 10 O        2.6030    -4.0710     1.0730 O.3   1 <1>  -0.5600 
 11 C        3.4860    -4.6730    -1.0430 C.3   1 <1>  -0.1600 
 12 C        4.5460    -2.9340     0.4170 C.3   1 <1>  -0.1600 
 13 O        2.0820     1.8660    -1.6030 O.3   1 <1>  -0.5600 
 14 C        4.4140    -5.7200    -0.4220 C.3   1 <1>   0.2090 
 15 C        5.4740    -3.9990     1.0010 C.3   1 <1>   0.2090 
 16 C        1.2380     2.6920    -2.3380 C.3   1 <1>   0.0400 
 17 N        5.7060    -5.0770    -0.0160 N.pl3 1 <1>  -0.8380 
 18 C        6.9330    -5.4230    -0.4690 C.ar  1 <1>   0.4610 
 19 N        7.0140    -5.7800    -1.7540 N.ar  1 <1>  -0.1790 
 20 C        8.1580    -5.3800     0.2950 C.ar  1 <1>   0.0000 
 21 C        8.2010    -5.9500    -2.4290 C.ar  1 <1>   0.2110 
 22 C        9.3900    -5.4940    -0.3860 C.ar  1 <1>   0.0000 
 23 C        8.2140    -5.2880     1.6990 C.ar  1 <1>  -0.1500 
 24 C        9.3730    -5.7900    -1.7760 C.ar  1 <1>  -0.1500 
 25 C       10.5950    -5.3690     0.3150 C.ar  1 <1>  -0.1500 
 26 C        9.4050    -5.1900     2.3760 C.ar  1 <1>  -0.1500 
 27 C       10.6060    -5.2110     1.6770 C.ar  1 <1>  -0.1500 
 28 H       -0.4090    -2.8860     1.7200 H     1 <1>   0.0800 
 29 H        0.8980    -2.9230     2.8410 H     1 <1>   0.0800 
 30 H        2.9250    -1.9840    -1.5430 H     1 <1>   0.0800 
 31 H        1.4770    -2.8380    -1.1960 H     1 <1>   0.0800 
 32 H        3.3810    -0.0420    -0.6600 H     1 <1>   0.0800 
 33 H        2.6060     0.5970     0.7630 H     1 <1>   0.0800 
 34 H        0.7980    -4.2990     0.1530 H     1 <1>   0.0800 
 35 H        0.9590    -4.9860     1.7410 H     1 <1>   0.0800 
 36 H        0.6210     1.1450    -0.4040 H     1 <1>   0.0800 
 37 H        1.0620     0.1460    -1.7950 H     1 <1>   0.0800 
 38 H        3.9350    -4.2870    -1.9390 H     1 <1>   0.0800 
 39 H        2.5570    -5.1390    -1.3200 H     1 <1>   0.0800 
 40 H        4.3560    -2.1880     1.1680 H     1 <1>   0.0800 
 41 H        5.0500    -2.4460    -0.3970 H     1 <1>   0.0800 
 42 H        4.5780    -6.5300    -1.1110 H     1 <1>   0.0800 
 43 H        3.9450    -6.1400     0.4540 H     1 <1>   0.0800 
 44 H        5.0340    -4.4230     1.8890 H     1 <1>   0.0800 
 45 H        6.3980    -3.5190     1.2730 H     1 <1>   0.0800 
 46 H        1.8290     3.4870    -2.7570 H     1 <1>   0.0800 
 47 H        0.4880     3.1050    -1.6840 H     1 <1>   0.0800 
 48 H        0.7800     2.1230    -3.1280 H     1 <1>   0.0800 
 49 H        6.1310    -5.8070    -2.2560 H     1 <1>   0.4570 
 50 H        8.1550    -6.1940    -3.4790 H     1 <1>   0.1500 
 51 H        7.3070    -5.3080     2.2740 H     1 <1>   0.1500 
 52 H       10.3180    -5.8960    -2.2820 H     1 <1>   0.1500 
 53 H       11.5280    -5.4090    -0.2200 H     1 <1>   0.1500 
 54 H        9.4220    -5.1020     3.4500 H     1 <1>   0.1500 
 55 H       11.5350    -5.1180     2.2150 H     1 <1>   0.1500 
@<TRIPOS>BOND
  1   1   2  2   
  2   2   3  am  
  3   2   4  1   
  4   3   5  1   
  5   3   6  1   
  6   4   7  1   
  7   4  28  1   
  8   4  29  1   
  9   5   8  1   
 10   5  30  1   
 11   5  31  1   
 12   6   9  1   
 13   6  32  1   
 14   6  33  1   
 15   7  10  1   
 16   7  34  1   
 17   7  35  1   
 18   8  10  1   
 19   8  11  1   
 20   8  12  1   
 21   9  13  1   
 22   9  36  1   
 23   9  37  1   
 24  11  14  1   
 25  11  38  1   
 26  11  39  1   
 27  12  15  1   
 28  12  40  1   
 29  12  41  1   
 30  13  16  1   
 31  14  17  1   
 32  14  42  1   
 33  14  43  1   
 34  15  17  1   
 35  15  44  1   
 36  15  45  1   
 37  16  46  1   
 38  16  47  1   
 39  16  48  1   
 40  17  18  1   
 41  18  19  ar  
 42  18  20  ar  
 43  19  21  ar  
 44  19  49  1   
 45  20  22  ar  
 46  20  23  ar  
 47  21  24  ar  
 48  21  50  1   
 49  22  24  ar  
 50  22  25  ar  
 51  23  26  ar  
 52  23  51  1   
 53  24  52  1   
 54  25  27  ar  
 55  25  53  1   
 56  26  27  ar  
 57  26  54  1   
 58  27  55  1   
@<TRIPOS>SUBSTRUCTURE
  1 ****  12 GROUP 4 **** **** 0

# MOE 2024.06 (io_trps.svl 2023.06)
