@<TRIPOS>MOLECULE
NONAME
30 32 1 0 0 
SMALL
USER_CHARGES


@<TRIPOS>ATOM
  1 CL      -0.0210    -0.1340    -0.9200 Cl    1 <1>  -0.1770 
  2 C       -0.0850    -1.8520    -0.6300 C.ar  1 <1>   0.1770 
  3 C        0.2600    -2.7420    -1.6320 C.ar  1 <1>   0.1600 
  4 C       -0.4750    -2.3230     0.6020 C.ar  1 <1>  -0.1500 
  5 N        0.2440    -4.0580    -1.4970 N.ar  1 <1>  -0.6200 
  6 C       -0.4970    -3.6950     0.7490 C.ar  1 <1>  -0.1500 
  7 C       -0.1440    -4.5480    -0.3030 C.ar  1 <1>   0.3960 
  8 C       -0.2020    -5.9930    -0.0740 C.2   1 <1>   0.5440 
  9 O        0.8280    -6.6490    -0.0600 O.2   1 <1>  -0.5700 
 10 N       -1.3910    -6.6270     0.2120 N.am  1 <1>  -0.6600 
 11 C       -2.6970    -5.9970     0.3830 C.3   1 <1>   0.2350 
 12 C       -1.5550    -8.0620     0.4410 C.3   1 <1>   0.2350 
 13 C       -3.7680    -7.0190     0.0210 C.3   1 <1>  -0.2420 
 14 C       -2.9920    -8.4340     0.0610 C.3   1 <1>  -0.2420 
 15 C       -4.9360    -6.0510    -0.1770 C.2   1 <1>   0.9470 
 16 C       -4.4300    -8.3040    -0.1890 C.3   1 <1>  -0.2000 
 17 C       -2.8250    -9.9510    -0.0680 C.2   1 <1>   0.9470 
 18 O       -5.2380    -5.6650    -1.3130 O.co2 1 <1>  -0.9000 
 19 O       -5.4800    -5.5760     0.8290 O.co2 1 <1>  -0.9000 
 20 O       -2.6530   -10.4660    -1.1800 O.co2 1 <1>  -0.9000 
 21 O       -2.8020   -10.6300     0.9680 O.co2 1 <1>  -0.9000 
 22 H        0.5610    -2.3460    -2.5850 H     1 <1>   0.1500 
 23 H       -0.7490    -1.6520     1.3960 H     1 <1>   0.1500 
 24 H       -0.7930    -4.1300     1.6870 H     1 <1>   0.1500 
 25 H       -2.8130    -5.7420     1.4230 H     1 <1>   0.0800 
 26 H       -2.7820    -5.1030    -0.2130 H     1 <1>   0.0800 
 27 H       -0.8280    -8.6280    -0.1190 H     1 <1>   0.0800 
 28 H       -1.4120    -8.2550     1.4900 H     1 <1>   0.0800 
 29 H       -4.7960    -8.5330    -1.1770 H     1 <1>   0.1000 
 30 H       -5.1080    -8.6560     0.5690 H     1 <1>   0.1000 
@<TRIPOS>BOND
  1   1   2  1   
  2   2   3  ar  
  3   2   4  ar  
  4   3   5  ar  
  5   3  22  1   
  6   4   6  ar  
  7   4  23  1   
  8   5   7  ar  
  9   6   7  ar  
 10   6  24  1   
 11   7   8  1   
 12   8   9  2   
 13   8  10  am  
 14  10  11  1   
 15  10  12  1   
 16  11  13  1   
 17  11  25  1   
 18  11  26  1   
 19  12  14  1   
 20  12  27  1   
 21  12  28  1   
 22  13  14  1   
 23  13  15  1   
 24  13  16  1   
 25  14  16  1   
 26  14  17  1   
 27  15  18  ar  
 28  15  19  ar  
 29  16  29  1   
 30  16  30  1   
 31  17  20  ar  
 32  17  21  ar  
@<TRIPOS>SUBSTRUCTURE
  1 ****  11 GROUP 4 **** **** 0

# MOE 2024.06 (io_trps.svl 2023.06)
