@<TRIPOS>MOLECULE
NONAME
57 60 1 0 0 
SMALL
USER_CHARGES


@<TRIPOS>ATOM
  1 O       -1.4180     1.6750     2.1190 O.3   1 <1>  -0.0190 
  2 N       -1.3240     2.9520     2.1110 N.2   1 <1>  -0.4100 
  3 C       -1.4350     1.2110     0.8990 C.2   1 <1>   0.4250 
  4 C       -1.2790     3.2410     0.8660 C.2   1 <1>   0.3350 
  5 N       -1.3510     2.1780     0.0510 N.2   1 <1>  -0.5650 
  6 C       -1.5370    -0.2090     0.6370 C.ar  1 <1>   0.0530 
  7 C       -1.1760     4.6660     0.3120 C.3   1 <1>   0.2910 
  8 C       -1.5920    -0.6970    -0.6700 C.ar  1 <1>  -0.1500 
  9 C       -1.5840    -1.1480     1.6710 C.ar  1 <1>  -0.1500 
 10 N        0.2190     5.1620     0.1270 N.3   1 <1>  -0.8100 
 11 C       -1.6900    -2.0500    -0.9350 C.ar  1 <1>  -0.1500 
 12 C       -1.6820    -2.5030     1.4130 C.ar  1 <1>  -0.1500 
 13 C        0.2230     6.5760    -0.2320 C.3   1 <1>   0.1100 
 14 C        0.9680     4.3520    -0.8350 C.3   1 <1>   0.1100 
 15 C       -1.7350    -2.9580     0.1080 C.ar  1 <1>  -0.1500 
 16 C        1.6580     7.0940    -0.1560 C.3   1 <1>  -0.1600 
 17 C        2.4340     4.7730    -0.7920 C.3   1 <1>  -0.1600 
 18 C        2.6020     6.2770    -1.0500 C.3   1 <1>   0.4230 
 19 N        4.0190     6.6770    -0.7950 N.4   1 <1>  -0.9590 
 20 C        4.3120     8.1460    -0.9230 C.3   1 <1>   0.3430 
 21 C        5.0540     5.8950    -1.5580 C.3   1 <1>   0.3430 
 22 C        5.7390     8.4810    -0.4240 C.3   1 <1>   0.1100 
 23 C        6.4920     6.2890    -1.1380 C.3   1 <1>   0.1100 
 24 N        6.5050     7.2710    -0.0290 N.3   1 <1>  -0.8100 
 25 C        7.8910     7.5940     0.3710 C.3   1 <1>   0.1100 
 26 C        7.9420     8.2860     1.7390 C.3   1 <1>   0.1200 
 27 O        9.2640     8.5330     2.0720 O.3   1 <1>  -0.6800 
 28 H       -1.6840     5.3120     1.0060 H     1 <1>   0.0800 
 29 H       -1.7050     4.7080    -0.6240 H     1 <1>   0.0800 
 30 H       -1.5590    -0.0010    -1.4910 H     1 <1>   0.1500 
 31 H       -1.5440    -0.8170     2.6940 H     1 <1>   0.1500 
 32 H       -1.7310    -2.3990    -1.9520 H     1 <1>   0.1500 
 33 H       -1.7170    -3.2070     2.2270 H     1 <1>   0.1500 
 34 H       -0.3860     7.1290     0.4640 H     1 <1>   0.0800 
 35 H       -0.1820     6.7100    -1.2220 H     1 <1>   0.0800 
 36 H        0.5580     4.4720    -1.8250 H     1 <1>   0.0800 
 37 H        0.9100     3.3090    -0.5700 H     1 <1>   0.0800 
 38 H       -1.8120    -4.0120    -0.0960 H     1 <1>   0.1500 
 39 H        1.9760     7.0370     0.8700 H     1 <1>   0.0800 
 40 H        1.6430     8.1230    -0.4610 H     1 <1>   0.0800 
 41 H        2.9530     4.1990    -1.5350 H     1 <1>   0.0800 
 42 H        2.8200     4.5180     0.1790 H     1 <1>   0.0800 
 43 H        2.3510     6.4740    -2.0800 H     1 <1>   0.0800 
 44 H        4.2380     6.4700     0.1920 H     1 <1>   0.4500 
 45 H        3.6110     8.7200    -0.3410 H     1 <1>   0.0800 
 46 H        4.2130     8.4510    -1.9510 H     1 <1>   0.0800 
 47 H        4.9360     6.0560    -2.6160 H     1 <1>   0.0800 
 48 H        4.9300     4.8420    -1.3720 H     1 <1>   0.0800 
 49 H        5.6530     9.1440     0.4200 H     1 <1>   0.0800 
 50 H        6.2650     9.0150    -1.1980 H     1 <1>   0.0800 
 51 H        7.0110     6.6930    -1.9910 H     1 <1>   0.0800 
 52 H        7.0170     5.3980    -0.8350 H     1 <1>   0.0800 
 53 H        8.3530     8.2250    -0.3710 H     1 <1>   0.0800 
 54 H        8.4570     6.6810     0.4420 H     1 <1>   0.0800 
 55 H        7.5090     7.6650     2.5040 H     1 <1>   0.0800 
 56 H        7.4390     9.2360     1.7100 H     1 <1>   0.0800 
 57 H        9.7280     7.7080     2.3110 H     1 <1>   0.4000 
@<TRIPOS>BOND
  1   1   2  1   
  2   1   3  1   
  3   2   4  2   
  4   3   5  2   
  5   3   6  1   
  6   4   5  1   
  7   4   7  1   
  8   6   8  ar  
  9   6   9  ar  
 10   7  10  1   
 11   7  28  1   
 12   7  29  1   
 13   8  11  ar  
 14   8  30  1   
 15   9  12  ar  
 16   9  31  1   
 17  10  13  1   
 18  10  14  1   
 19  11  15  ar  
 20  11  32  1   
 21  12  15  ar  
 22  12  33  1   
 23  13  16  1   
 24  13  34  1   
 25  13  35  1   
 26  14  17  1   
 27  14  36  1   
 28  14  37  1   
 29  15  38  1   
 30  16  18  1   
 31  16  39  1   
 32  16  40  1   
 33  17  18  1   
 34  17  41  1   
 35  17  42  1   
 36  18  19  1   
 37  18  43  1   
 38  19  20  1   
 39  19  21  1   
 40  19  44  1   
 41  20  22  1   
 42  20  45  1   
 43  20  46  1   
 44  21  23  1   
 45  21  47  1   
 46  21  48  1   
 47  22  24  1   
 48  22  49  1   
 49  22  50  1   
 50  23  24  1   
 51  23  51  1   
 52  23  52  1   
 53  24  25  1   
 54  25  26  1   
 55  25  53  1   
 56  25  54  1   
 57  26  27  1   
 58  26  55  1   
 59  26  56  1   
 60  27  57  1   
@<TRIPOS>SUBSTRUCTURE
  1 ****  14 GROUP 4 **** **** 0

# MOE 2024.06 (io_trps.svl 2023.06)
