@<TRIPOS>MOLECULE
NONAME
53 57 1 0 0 
SMALL
USER_CHARGES


@<TRIPOS>ATOM
  1 O       -1.8730     2.2410     3.4020 O.2   1 <1>  -0.5700 
  2 C       -2.2870     2.2580     2.2540 C.2   1 <1>   0.5440 
  3 N       -3.4250     1.5190     1.9660 N.am  1 <1>  -0.6600 
  4 C       -1.5690     3.0690     1.2650 C.ar  1 <1>   0.3960 
  5 C       -4.2240     1.6390     0.7160 C.3   1 <1>   0.1400 
  6 C       -3.9650     0.4950     2.9040 C.3   1 <1>   0.1400 
  7 N       -1.3280     2.5890     0.0320 N.ar  1 <1>  -0.6200 
  8 C       -1.1290     4.3380     1.6410 C.ar  1 <1>  -0.1500 
  9 C       -4.1960     0.2960    -0.0160 C.3   1 <1>  -0.1600 
 10 C       -3.9580    -0.8680     2.2080 C.3   1 <1>  -0.1600 
 11 C       -0.6620     3.3590    -0.8240 C.ar  1 <1>   0.2870 
 12 C       -0.4380     5.1410     0.7630 C.ar  1 <1>  -0.1500 
 13 C       -4.7230    -0.8430     0.8760 C.3   1 <1>   0.4240 
 14 N       -0.4200     2.8330    -2.1210 N.pl3 1 <1>   0.3260 
 15 C       -0.2040     4.6310    -0.4920 C.ar  1 <1>  -0.1500 
 16 O       -6.0550    -0.5420     1.2230 O.3   1 <1>  -0.5600 
 17 C       -4.6120    -2.2110     0.1660 C.ar  1 <1>  -0.1440 
 18 C       -0.2080     3.4640    -3.2860 C.2   1 <1>   0.0360 
 19 C       -0.3500     1.5490    -2.5030 C.2   1 <1>   0.0370 
 20 C       -7.0540    -0.8960     0.3190 C.3   1 <1>   0.1200 
 21 C       -5.7450    -2.9600    -0.1380 C.ar  1 <1>  -0.1430 
 22 C       -3.3670    -2.7210    -0.1890 C.ar  1 <1>  -0.1500 
 23 N       -0.0190     2.6500    -4.2650 N.2   1 <1>  -0.3380 
 24 N       -0.1100     1.4190    -3.7610 N.2   1 <1>  -0.3380 
 25 C       -7.1130    -2.4170     0.2230 C.3   1 <1>  -0.0170 
 26 C       -5.6340    -4.1900    -0.7670 C.ar  1 <1>  -0.1500 
 27 C       -3.2550    -3.9470    -0.8190 C.ar  1 <1>  -0.1500 
 28 C       -4.3840    -4.6920    -1.1110 C.ar  1 <1>   0.0830 
 29 O       -4.1880    -5.8860    -1.7250 O.3   1 <1>  -0.3630 
 30 C       -5.2700    -6.7340    -2.0400 C.3   1 <1>   0.0400 
 31 H       -3.8460     2.4180     0.0810 H     1 <1>   0.0800 
 32 H       -5.2390     1.8920     0.9740 H     1 <1>   0.0800 
 33 H       -4.9700     0.7640     3.1820 H     1 <1>   0.0800 
 34 H       -3.3740     0.4430     3.8020 H     1 <1>   0.0800 
 35 H       -1.3340     4.6830     2.6400 H     1 <1>   0.1500 
 36 H       -3.1810     0.0920    -0.3020 H     1 <1>   0.0800 
 37 H       -4.7710     0.3550    -0.9200 H     1 <1>   0.0800 
 38 H       -4.3960    -1.6090     2.8510 H     1 <1>   0.0800 
 39 H       -2.9350    -1.1490     2.0430 H     1 <1>   0.0800 
 40 H       -0.0950     6.1210     1.0510 H     1 <1>   0.1500 
 41 H        0.3420     5.2230    -1.2050 H     1 <1>   0.1500 
 42 H       -0.2030     4.5340    -3.3780 H     1 <1>   0.1500 
 43 H       -0.4840     0.7400    -1.8100 H     1 <1>   0.1500 
 44 H       -6.8400    -0.4550    -0.6390 H     1 <1>   0.0800 
 45 H       -7.9870    -0.5060     0.6870 H     1 <1>   0.0800 
 46 H       -2.4690    -2.1690     0.0230 H     1 <1>   0.1500 
 47 H       -7.8340    -2.6960    -0.5240 H     1 <1>   0.0800 
 48 H       -7.4270    -2.8230     1.1680 H     1 <1>   0.0800 
 49 H       -6.5260    -4.7450    -0.9830 H     1 <1>   0.1500 
 50 H       -2.2900    -4.3340    -1.0890 H     1 <1>   0.1500 
 51 H       -4.8750    -7.6190    -2.5060 H     1 <1>   0.0800 
 52 H       -5.9260    -6.2240    -2.7220 H     1 <1>   0.0800 
 53 H       -5.7820    -6.9970    -1.1320 H     1 <1>   0.0800 
@<TRIPOS>BOND
  1   1   2  2   
  2   2   3  am  
  3   2   4  1   
  4   3   5  1   
  5   3   6  1   
  6   4   7  ar  
  7   4   8  ar  
  8   5   9  1   
  9   5  31  1   
 10   5  32  1   
 11   6  10  1   
 12   6  33  1   
 13   6  34  1   
 14   7  11  ar  
 15   8  12  ar  
 16   8  35  1   
 17   9  13  1   
 18   9  36  1   
 19   9  37  1   
 20  10  13  1   
 21  10  38  1   
 22  10  39  1   
 23  11  14  1   
 24  11  15  ar  
 25  12  15  ar  
 26  12  40  1   
 27  13  16  1   
 28  13  17  1   
 29  14  18  1   
 30  14  19  1   
 31  15  41  1   
 32  16  20  1   
 33  17  21  ar  
 34  17  22  ar  
 35  18  23  2   
 36  18  42  1   
 37  19  24  2   
 38  19  43  1   
 39  20  25  1   
 40  20  44  1   
 41  20  45  1   
 42  21  25  1   
 43  21  26  ar  
 44  22  27  ar  
 45  22  46  1   
 46  23  24  1   
 47  25  47  1   
 48  25  48  1   
 49  26  28  ar  
 50  26  49  1   
 51  27  28  ar  
 52  27  50  1   
 53  28  29  1   
 54  29  30  1   
 55  30  51  1   
 56  30  52  1   
 57  30  53  1   
@<TRIPOS>SUBSTRUCTURE
  1 ****   9 GROUP 4 **** **** 0

# MOE 2024.06 (io_trps.svl 2023.06)
