@<TRIPOS>MOLECULE
NONAME
45 47 1 0 0 
SMALL
USER_CHARGES


@<TRIPOS>ATOM
  1 CL      -0.6520    -1.3310     1.9050 Cl    1 <1>  -0.1770 
  2 C       -1.9440    -1.5400     0.7470 C.ar  1 <1>   0.1770 
  3 C       -2.2780    -2.7980     0.2750 C.ar  1 <1>   0.1900 
  4 C       -2.6440    -0.4340     0.3030 C.ar  1 <1>  -0.1500 
  5 F       -1.6240    -3.8470     0.7070 F     1 <1>  -0.1900 
  6 C       -3.3040    -2.9870    -0.6390 C.ar  1 <1>  -0.1440 
  7 C       -3.6740    -0.6040    -0.6120 C.ar  1 <1>  -0.1500 
  8 C       -4.0020    -1.8690    -1.0800 C.ar  1 <1>  -0.1500 
  9 C       -3.6450    -4.3790    -1.1360 C.3   1 <1>   0.4870 
 10 N       -4.2140    -5.1730    -0.0180 N.4   1 <1>  -0.9590 
 11 C       -5.4680    -4.5830     0.5280 C.3   1 <1>   0.3430 
 12 C       -4.5530    -6.5570    -0.4110 C.3   1 <1>   0.3430 
 13 C       -6.3350    -5.7410     1.0290 C.3   1 <1>  -0.0800 
 14 C       -5.5520    -7.0150     0.6410 C.3   1 <1>  -0.0800 
 15 C       -7.7740    -5.6830     0.4550 C.3   1 <1>   0.2800 
 16 C       -6.4100    -8.1870     0.1310 C.3   1 <1>  -0.1600 
 17 O       -7.6540    -5.5870    -0.9200 O.3   1 <1>  -0.6800 
 18 C       -8.5550    -6.9830     0.7730 C.3   1 <1>  -0.1600 
 19 C       -8.6180    -4.4740     0.9310 C.3   1 <1>  -0.1600 
 20 C       -7.7140    -8.2650     0.9200 C.3   1 <1>  -0.1600 
 21 C       -8.1940    -3.0590     0.4930 C.3   1 <1>  -0.2400 
 22 H       -2.3850     0.5460     0.6680 H     1 <1>   0.1500 
 23 H       -4.2200     0.2580    -0.9620 H     1 <1>   0.1500 
 24 H       -4.8050    -1.9660    -1.7940 H     1 <1>   0.1500 
 25 H       -2.7520    -4.8550    -1.5080 H     1 <1>   0.0800 
 26 H       -4.3590    -4.3150    -1.9410 H     1 <1>   0.0800 
 27 H       -3.5150    -5.2030     0.7370 H     1 <1>   0.4500 
 28 H       -5.2550    -3.8830     1.3190 H     1 <1>   0.0800 
 29 H       -5.9900    -4.0680    -0.2610 H     1 <1>   0.0800 
 30 H       -5.0400    -6.5510    -1.3740 H     1 <1>   0.0800 
 31 H       -3.6840    -7.1940    -0.4450 H     1 <1>   0.0800 
 32 H       -6.4070    -5.6900     2.1010 H     1 <1>   0.0800 
 33 H       -5.0010    -7.3490     1.5040 H     1 <1>   0.0800 
 34 H       -6.6490    -8.0600    -0.9120 H     1 <1>   0.0800 
 35 H       -5.8660    -9.1110     0.2300 H     1 <1>   0.0800 
 36 H       -8.5460    -5.6180    -1.3200 H     1 <1>   0.4000 
 37 H       -9.0820    -6.8570     1.7030 H     1 <1>   0.0800 
 38 H       -9.3080    -7.1370     0.0200 H     1 <1>   0.0800 
 39 H       -9.6290    -4.6230     0.5900 H     1 <1>   0.0800 
 40 H       -8.6640    -4.4900     2.0070 H     1 <1>   0.0800 
 41 H       -7.4790    -8.4200     1.9600 H     1 <1>   0.0800 
 42 H       -8.2910    -9.1140     0.5920 H     1 <1>   0.0800 
 43 H       -8.0420    -3.0090    -0.5710 H     1 <1>   0.0800 
 44 H       -7.3050    -2.7360     1.0020 H     1 <1>   0.0800 
 45 H       -8.9750    -2.3620     0.7450 H     1 <1>   0.0800 
@<TRIPOS>BOND
  1   1   2  1   
  2   2   3  ar  
  3   2   4  ar  
  4   3   5  1   
  5   3   6  ar  
  6   4   7  ar  
  7   4  22  1   
  8   6   8  ar  
  9   6   9  1   
 10   7   8  ar  
 11   7  23  1   
 12   8  24  1   
 13   9  10  1   
 14   9  25  1   
 15   9  26  1   
 16  10  11  1   
 17  10  12  1   
 18  10  27  1   
 19  11  13  1   
 20  11  28  1   
 21  11  29  1   
 22  12  14  1   
 23  12  30  1   
 24  12  31  1   
 25  13  14  1   
 26  13  15  1   
 27  13  32  1   
 28  14  16  1   
 29  14  33  1   
 30  15  17  1   
 31  15  18  1   
 32  15  19  1   
 33  16  20  1   
 34  16  34  1   
 35  16  35  1   
 36  17  36  1   
 37  18  20  1   
 38  18  37  1   
 39  18  38  1   
 40  19  21  1   
 41  19  39  1   
 42  19  40  1   
 43  20  41  1   
 44  20  42  1   
 45  21  43  1   
 46  21  44  1   
 47  21  45  1   
@<TRIPOS>SUBSTRUCTURE
  1 ****  11 GROUP 4 **** **** 0

# MOE 2024.06 (io_trps.svl 2023.06)
