@<TRIPOS>MOLECULE
NONAME
45 48 1 0 0 
SMALL
USER_CHARGES


@<TRIPOS>ATOM
  1 S        0.2560    -0.2580     0.5090 S.3   1 <1>   0.1810 
  2 N        0.1790     1.2160    -0.3290 N.2   1 <1>  -0.2210 
  3 C       -1.3400    -0.0740     1.1410 C.2   1 <1>  -0.1400 
  4 N       -0.9340     1.7780    -0.1490 N.2   1 <1>  -0.2270 
  5 C       -1.8060     1.0830     0.6630 C.2   1 <1>   0.0460 
  6 C       -1.8930    -1.1560     2.0380 C.3   1 <1>   0.3200 
  7 C       -3.1720     1.6930     0.9050 C.3   1 <1>  -0.0590 
  8 N       -2.4340    -2.2300     1.1890 N.am  1 <1>  -0.7300 
  9 C       -3.7460    -2.3890     0.8770 C.2   1 <1>   0.5690 
 10 O       -4.5970    -1.7130     1.4040 O.2   1 <1>  -0.5700 
 11 C       -4.1450    -3.4390    -0.1670 C.3   1 <1>   0.2610 
 12 O       -3.0320    -4.2660    -0.4740 O.3   1 <1>  -0.5600 
 13 C       -5.3790    -4.2420     0.3300 C.3   1 <1>   0.3640 
 14 C       -3.3100    -5.2830    -1.4010 C.3   1 <1>   0.1810 
 15 N       -5.3540    -5.6940    -0.0340 N.am  1 <1>  -0.5090 
 16 C       -6.6630    -3.6110    -0.2100 C.ar  1 <1>  -0.1440 
 17 C       -4.4440    -6.1890    -0.9300 C.2   1 <1>   0.5690 
 18 C       -6.4500    -6.5160     0.5330 C.3   1 <1>   0.0490 
 19 C       -7.4160    -2.7700     0.6000 C.ar  1 <1>   0.1600 
 20 C       -7.1080    -3.8520    -1.4990 C.ar  1 <1>  -0.1500 
 21 O       -4.5050    -7.3040    -1.3930 O.2   1 <1>  -0.5700 
 22 C       -6.5470    -6.6530     2.0210 C.3   1 <1>  -0.2000 
 23 C       -6.1310    -7.8220     1.1880 C.3   1 <1>  -0.2000 
 24 N       -8.5420    -2.1760     0.2410 N.ar  1 <1>  -0.6200 
 25 C       -8.2780    -3.2390    -1.8890 C.ar  1 <1>  -0.1500 
 26 C       -8.9470    -2.4240    -0.9930 C.ar  1 <1>   0.1600 
 27 H       -2.6760    -0.7500     2.6560 H     1 <1>   0.0800 
 28 H       -1.1240    -1.5460     2.6810 H     1 <1>   0.0800 
 29 H       -3.7800     1.0470     1.5130 H     1 <1>   0.0800 
 30 H       -3.6700     1.8460    -0.0350 H     1 <1>   0.0800 
 31 H       -3.0650     2.6410     1.3990 H     1 <1>   0.0800 
 32 H       -1.7560    -2.8110     0.6870 H     1 <1>   0.3700 
 33 H       -4.4040    -2.9120    -1.0680 H     1 <1>   0.0800 
 34 H       -5.3970    -4.1860     1.4050 H     1 <1>   0.0800 
 35 H       -3.5660    -4.8360    -2.3440 H     1 <1>   0.0800 
 36 H       -2.4170    -5.8690    -1.5240 H     1 <1>   0.0800 
 37 H       -7.3600    -6.4470    -0.0400 H     1 <1>   0.1000 
 38 H       -7.0750    -2.5680     1.6020 H     1 <1>   0.1500 
 39 H       -6.5770    -4.4980    -2.1780 H     1 <1>   0.1500 
 40 H       -5.8040    -6.2060     2.6570 H     1 <1>   0.1000 
 41 H       -7.5220    -6.6790     2.4760 H     1 <1>   0.1000 
 42 H       -6.8190    -8.6380     1.0630 H     1 <1>   0.1000 
 43 H       -5.1050    -8.1480     1.2070 H     1 <1>   0.1000 
 44 H       -8.6740    -3.3910    -2.8760 H     1 <1>   0.1500 
 45 H       -9.8620    -1.9510    -1.3070 H     1 <1>   0.1500 
@<TRIPOS>BOND
  1   1   2  1   
  2   1   3  1   
  3   2   4  2   
  4   3   5  2   
  5   3   6  1   
  6   4   5  1   
  7   5   7  1   
  8   6   8  1   
  9   6  27  1   
 10   6  28  1   
 11   7  29  1   
 12   7  30  1   
 13   7  31  1   
 14   8   9  am  
 15   8  32  1   
 16   9  10  2   
 17   9  11  1   
 18  11  12  1   
 19  11  13  1   
 20  11  33  1   
 21  12  14  1   
 22  13  15  1   
 23  13  16  1   
 24  13  34  1   
 25  14  17  1   
 26  14  35  1   
 27  14  36  1   
 28  15  17  am  
 29  15  18  1   
 30  16  19  ar  
 31  16  20  ar  
 32  17  21  2   
 33  18  22  1   
 34  18  23  1   
 35  18  37  1   
 36  19  24  ar  
 37  19  38  1   
 38  20  25  ar  
 39  20  39  1   
 40  22  23  1   
 41  22  40  1   
 42  22  41  1   
 43  23  42  1   
 44  23  43  1   
 45  24  26  ar  
 46  25  26  ar  
 47  25  44  1   
 48  26  45  1   
@<TRIPOS>SUBSTRUCTURE
  1 ****  11 GROUP 4 **** **** 0

# MOE 2024.06 (io_trps.svl 2023.06)
