@<TRIPOS>MOLECULE
NONAME
47 50 1 0 0 
SMALL
USER_CHARGES


@<TRIPOS>ATOM
  1 S       -0.1070     0.1240    -1.5650 S.3   1 <1>  -0.0800 
  2 C       -1.0430    -1.2670    -2.0600 C.2   1 <1>  -0.1100 
  3 C        0.1780    -0.5830     0.0110 C.2   1 <1>  -0.1100 
  4 C       -1.1420    -2.1920    -1.0750 C.2   1 <1>  -0.0860 
  5 C       -0.4200    -1.7840     0.1060 C.2   1 <1>  -0.1500 
  6 C       -1.8550    -3.4490    -1.1750 C.2   1 <1>   0.7160 
  7 O       -1.7520    -4.1100    -2.1910 O.2   1 <1>  -0.5700 
  8 N       -2.6640    -3.9210    -0.1590 N.am  1 <1>  -0.6600 
  9 C       -3.1180    -5.3440    -0.1760 C.3   1 <1>   0.1400 
 10 C       -3.2360    -3.0310     0.8940 C.3   1 <1>   0.1400 
 11 C       -4.3670    -5.5280    -1.0530 C.3   1 <1>   0.1400 
 12 C       -4.7410    -3.2220     1.1250 C.3   1 <1>  -0.1600 
 13 N       -5.5950    -4.9670    -0.4040 N.am  1 <1>  -0.6600 
 14 C       -5.5490    -3.4990    -0.1480 C.3   1 <1>   0.1400 
 15 C       -6.6900    -5.7010     0.0040 C.2   1 <1>   0.5690 
 16 O       -7.5540    -5.1870     0.6780 O.2   1 <1>  -0.5700 
 17 C       -6.8330    -7.1900    -0.3580 C.3   1 <1>   0.1240 
 18 C       -8.2380    -7.7640    -0.3430 C.ar  1 <1>  -0.1430 
 19 C       -6.0830    -8.1170     0.6250 C.3   1 <1>  -0.1600 
 20 C       -8.2580    -9.0130     0.2290 C.ar  1 <1>  -0.1430 
 21 C       -9.4040    -7.1980    -0.8290 C.ar  1 <1>  -0.1500 
 22 C       -6.8850    -9.4270     0.6930 C.3   1 <1>  -0.0170 
 23 C       -9.4350    -9.7310     0.3270 C.ar  1 <1>  -0.1500 
 24 C      -10.5900    -7.9090    -0.7350 C.ar  1 <1>  -0.1500 
 25 C      -10.6060    -9.1710    -0.1600 C.ar  1 <1>  -0.1500 
 26 H       -1.4410    -1.2690    -3.0600 H     1 <1>   0.1500 
 27 H        0.7760    -0.0190     0.7050 H     1 <1>   0.1500 
 28 H       -0.3820    -2.4240     0.9700 H     1 <1>   0.1500 
 29 H       -3.3140    -5.6870     0.8250 H     1 <1>   0.0800 
 30 H       -2.3260    -5.9520    -0.5790 H     1 <1>   0.0800 
 31 H       -3.0800    -2.0040     0.6100 H     1 <1>   0.0800 
 32 H       -2.7100    -3.1960     1.8200 H     1 <1>   0.0800 
 33 H       -4.4810    -6.5760    -1.2420 H     1 <1>   0.0800 
 34 H       -4.2130    -5.0490    -2.0040 H     1 <1>   0.0800 
 35 H       -5.1160    -2.3180     1.5700 H     1 <1>   0.0800 
 36 H       -4.9140    -4.0070     1.8400 H     1 <1>   0.0800 
 37 H       -5.1240    -2.9870    -0.9940 H     1 <1>   0.0800 
 38 H       -6.5520    -3.1260    -0.0170 H     1 <1>   0.0800 
 39 H       -6.4680    -7.3450    -1.3550 H     1 <1>   0.0800 
 40 H       -6.0950    -7.6620     1.6010 H     1 <1>   0.0800 
 41 H       -5.0630    -8.2860     0.3300 H     1 <1>   0.0800 
 42 H       -9.3900    -6.2150    -1.2680 H     1 <1>   0.1500 
 43 H       -6.9090    -9.8240     1.6930 H     1 <1>   0.0800 
 44 H       -6.4830   -10.1590     0.0150 H     1 <1>   0.0800 
 45 H       -9.4440   -10.7080     0.7770 H     1 <1>   0.1500 
 46 H      -11.5020    -7.4770    -1.1070 H     1 <1>   0.1500 
 47 H      -11.5300    -9.7160    -0.0900 H     1 <1>   0.1500 
@<TRIPOS>BOND
  1   1   2  1   
  2   1   3  1   
  3   2   4  2   
  4   2  26  1   
  5   3   5  2   
  6   3  27  1   
  7   4   5  1   
  8   4   6  1   
  9   5  28  1   
 10   6   7  2   
 11   6   8  am  
 12   8   9  1   
 13   8  10  1   
 14   9  11  1   
 15   9  29  1   
 16   9  30  1   
 17  10  12  1   
 18  10  31  1   
 19  10  32  1   
 20  11  13  1   
 21  11  33  1   
 22  11  34  1   
 23  12  14  1   
 24  12  35  1   
 25  12  36  1   
 26  13  14  1   
 27  13  15  am  
 28  14  37  1   
 29  14  38  1   
 30  15  16  2   
 31  15  17  1   
 32  17  18  1   
 33  17  19  1   
 34  17  39  1   
 35  18  20  ar  
 36  18  21  ar  
 37  19  22  1   
 38  19  40  1   
 39  19  41  1   
 40  20  22  1   
 41  20  23  ar  
 42  21  24  ar  
 43  21  42  1   
 44  22  43  1   
 45  22  44  1   
 46  23  25  ar  
 47  23  45  1   
 48  24  25  ar  
 49  24  46  1   
 50  25  47  1   
@<TRIPOS>SUBSTRUCTURE
  1 ****  13 GROUP 4 **** **** 0

# MOE 2024.06 (io_trps.svl 2023.06)
