@<TRIPOS>MOLECULE
NONAME
45 46 1 0 0 
SMALL
USER_CHARGES


@<TRIPOS>ATOM
  1 N        0.0350    -0.0060     0.0120 N.ar  1 <1>  -0.6200 
  2 C        1.0420     0.7910    -0.2990 C.ar  1 <1>   0.7710 
  3 C       -1.1260     0.5420     0.3010 C.ar  1 <1>   0.4100 
  4 N        0.9030     2.1240    -0.3100 N.ar  1 <1>  -0.1790 
  5 N        2.2540     0.2510    -0.6120 N.pl3 1 <1>  -0.8380 
  6 N       -2.1280    -0.2950     0.6390 N.pl3 1 <1>  -0.8690 
  7 C       -1.3360     1.9430     0.2750 C.ar  1 <1>  -0.1430 
  8 C       -0.2690     2.7390    -0.0230 C.ar  1 <1>   0.2170 
  9 C        2.5120    -1.2190    -0.4440 C.3   1 <1>   0.1290 
 10 C        3.4320     0.9620    -1.2020 C.3   1 <1>   0.1290 
 11 C       -2.1170    -1.7650     0.5740 C.3   1 <1>   0.4330 
 12 C       -2.7420     2.4800     0.5750 C.3   1 <1>  -0.0970 
 13 C       -0.2650     4.2630    -0.0670 C.3   1 <1>  -0.0970 
 14 C       -3.5380    -2.2060     0.2400 C.ar  1 <1>  -0.1430 
 15 C       -1.6000    -2.3260     1.9070 C.3   1 <1>  -0.1600 
 16 C       -4.5930    -2.0980     1.1280 C.ar  1 <1>  -0.1500 
 17 C       -3.8460    -2.7360    -0.9990 C.ar  1 <1>  -0.1500 
 18 C       -1.5640    -3.8620     1.9410 C.3   1 <1>  -0.2400 
 19 C       -5.8580    -2.5140     0.7480 C.ar  1 <1>   0.1600 
 20 C       -5.1460    -3.1210    -1.2790 C.ar  1 <1>   0.1600 
 21 N       -6.1590    -3.0220    -0.4350 N.ar  1 <1>  -0.6200 
 22 H        1.7440     2.6400    -0.5250 H     1 <1>   0.4570 
 23 H       -3.0620     0.0650     0.8340 H     1 <1>   0.4000 
 24 H        1.8620    -1.6520     0.2970 H     1 <1>   0.0800 
 25 H        3.5270    -1.3860    -0.1260 H     1 <1>   0.0800 
 26 H        2.3520    -1.7270    -1.3810 H     1 <1>   0.0800 
 27 H        3.1540     1.9000    -1.6480 H     1 <1>   0.0800 
 28 H        3.8730     0.3540    -1.9750 H     1 <1>   0.0800 
 29 H        4.1760     1.1330    -0.4410 H     1 <1>   0.0800 
 30 H       -1.4550    -2.0830    -0.2140 H     1 <1>   0.0800 
 31 H       -3.4720     1.9500    -0.0120 H     1 <1>   0.0800 
 32 H       -2.8530     3.5210     0.3390 H     1 <1>   0.0800 
 33 H       -2.9740     2.3400     1.6160 H     1 <1>   0.0800 
 34 H        0.6760     4.6520     0.2810 H     1 <1>   0.0800 
 35 H       -1.0270     4.6790     0.5660 H     1 <1>   0.0800 
 36 H       -0.4300     4.6040    -1.0740 H     1 <1>   0.0800 
 37 H       -2.2110    -1.9690     2.7160 H     1 <1>   0.0800 
 38 H       -0.6010    -1.9590     2.0630 H     1 <1>   0.0800 
 39 H       -4.4480    -1.6960     2.1140 H     1 <1>   0.1500 
 40 H       -3.0880    -2.8530    -1.7520 H     1 <1>   0.1500 
 41 H       -2.5540    -4.2710     1.8350 H     1 <1>   0.0800 
 42 H       -1.1580    -4.1990     2.8790 H     1 <1>   0.0800 
 43 H       -0.9470    -4.2430     1.1460 H     1 <1>   0.0800 
 44 H       -6.6660    -2.4260     1.4550 H     1 <1>   0.1500 
 45 H       -5.3640    -3.5310    -2.2510 H     1 <1>   0.1500 
@<TRIPOS>BOND
  1   1   2  ar  
  2   1   3  ar  
  3   2   4  ar  
  4   2   5  1   
  5   3   6  1   
  6   3   7  ar  
  7   4   8  ar  
  8   4  22  1   
  9   5   9  1   
 10   5  10  1   
 11   6  11  1   
 12   6  23  1   
 13   7   8  ar  
 14   7  12  1   
 15   8  13  1   
 16   9  24  1   
 17   9  25  1   
 18   9  26  1   
 19  10  27  1   
 20  10  28  1   
 21  10  29  1   
 22  11  14  1   
 23  11  15  1   
 24  11  30  1   
 25  12  31  1   
 26  12  32  1   
 27  12  33  1   
 28  13  34  1   
 29  13  35  1   
 30  13  36  1   
 31  14  16  ar  
 32  14  17  ar  
 33  15  18  1   
 34  15  37  1   
 35  15  38  1   
 36  16  19  ar  
 37  16  39  1   
 38  17  20  ar  
 39  17  40  1   
 40  18  41  1   
 41  18  42  1   
 42  18  43  1   
 43  19  21  ar  
 44  19  44  1   
 45  20  21  ar  
 46  20  45  1   
@<TRIPOS>SUBSTRUCTURE
  1 ****   6 GROUP 4 **** **** 0

# MOE 2024.06 (io_trps.svl 2023.06)
