@<TRIPOS>MOLECULE
NONAME
45 47 1 0 0 
SMALL
USER_CHARGES


@<TRIPOS>ATOM
  1 O        1.3520     0.5320    -1.0630 O.3   1 <1>  -0.6800 
  2 C        1.4450     0.2140     0.2790 C.3   1 <1>   0.2800 
  3 C        2.9450     0.1350     0.6660 C.3   1 <1>  -0.0800 
  4 C        0.7830    -1.1600     0.4810 C.3   1 <1>  -0.1600 
  5 C        0.6650     1.2930     1.0620 C.3   1 <1>  -0.1600 
  6 C        3.6350    -1.2200     0.3960 C.3   1 <1>  -0.0800 
  7 C        3.8180     1.1490    -0.0610 C.3   1 <1>   0.3430 
  8 C        1.4370    -2.3120    -0.3090 C.3   1 <1>  -0.1600 
  9 C        1.1560     2.7440     0.9090 C.3   1 <1>  -0.2400 
 10 C        2.9100    -2.0600    -0.6680 C.3   1 <1>  -0.1600 
 11 C        5.0580    -0.8830    -0.0650 C.3   1 <1>   0.3430 
 12 N        5.1920     0.5930     0.0280 N.4   1 <1>  -0.9590 
 13 C        6.1040     1.1830    -0.9840 C.3   1 <1>   0.4860 
 14 C        6.2690     2.6560    -0.6680 C.ar  1 <1>  -0.1440 
 15 C        5.5500     3.6080    -1.3770 C.ar  1 <1>  -0.1500 
 16 C        7.1330     3.0620     0.3390 C.ar  1 <1>  -0.1500 
 17 C        5.6870     4.9510    -1.0750 C.ar  1 <1>  -0.1500 
 18 C        7.2680     4.4060     0.6400 C.ar  1 <1>  -0.1500 
 19 C        6.5440     5.3510    -0.0660 C.ar  1 <1>  -0.1500 
 20 H        0.4140     0.5010    -1.3350 H     1 <1>   0.4000 
 21 H        3.0240     0.3280     1.7210 H     1 <1>   0.0800 
 22 H        0.8450    -1.4010     1.5280 H     1 <1>   0.0800 
 23 H       -0.2660    -1.1110     0.2420 H     1 <1>   0.0800 
 24 H       -0.3680     1.2560     0.7590 H     1 <1>   0.0800 
 25 H        0.6820     1.0420     2.1080 H     1 <1>   0.0800 
 26 H        3.6790    -1.7920     1.3070 H     1 <1>   0.0800 
 27 H        3.7570     2.1300     0.3800 H     1 <1>   0.0800 
 28 H        3.5180     1.2070    -1.0950 H     1 <1>   0.0800 
 29 H        1.3560    -3.2160     0.2720 H     1 <1>   0.0800 
 30 H        0.8890    -2.4730    -1.2220 H     1 <1>   0.0800 
 31 H        1.2300     3.0200    -0.1280 H     1 <1>   0.0800 
 32 H        2.1090     2.8850     1.3860 H     1 <1>   0.0800 
 33 H        0.4560     3.4110     1.3800 H     1 <1>   0.0800 
 34 H        2.9430    -1.5400    -1.6120 H     1 <1>   0.0800 
 35 H        3.4070    -3.0060    -0.8060 H     1 <1>   0.0800 
 36 H        5.1830    -1.2000    -1.0870 H     1 <1>   0.0800 
 37 H        5.7920    -1.3790     0.5490 H     1 <1>   0.0800 
 38 H        5.5550     0.8460     0.9540 H     1 <1>   0.4500 
 39 H        7.0670     0.6990    -0.9460 H     1 <1>   0.0800 
 40 H        5.6950     1.0600    -1.9740 H     1 <1>   0.0800 
 41 H        4.8800     3.3210    -2.1700 H     1 <1>   0.1500 
 42 H        7.7130     2.3470     0.8970 H     1 <1>   0.1500 
 43 H        5.1290     5.6900    -1.6250 H     1 <1>   0.1500 
 44 H        7.9390     4.7230     1.4210 H     1 <1>   0.1500 
 45 H        6.6510     6.3970     0.1680 H     1 <1>   0.1500 
@<TRIPOS>BOND
  1   1   2  1   
  2   1  20  1   
  3   2   3  1   
  4   2   4  1   
  5   2   5  1   
  6   3   6  1   
  7   3   7  1   
  8   3  21  1   
  9   4   8  1   
 10   4  22  1   
 11   4  23  1   
 12   5   9  1   
 13   5  24  1   
 14   5  25  1   
 15   6  10  1   
 16   6  11  1   
 17   6  26  1   
 18   7  12  1   
 19   7  27  1   
 20   7  28  1   
 21   8  10  1   
 22   8  29  1   
 23   8  30  1   
 24   9  31  1   
 25   9  32  1   
 26   9  33  1   
 27  10  34  1   
 28  10  35  1   
 29  11  12  1   
 30  11  36  1   
 31  11  37  1   
 32  12  13  1   
 33  12  38  1   
 34  13  14  1   
 35  13  39  1   
 36  13  40  1   
 37  14  15  ar  
 38  14  16  ar  
 39  15  17  ar  
 40  15  41  1   
 41  16  18  ar  
 42  16  42  1   
 43  17  19  ar  
 44  17  43  1   
 45  18  19  ar  
 46  18  44  1   
 47  19  45  1   
@<TRIPOS>SUBSTRUCTURE
  1 ****   7 GROUP 4 **** **** 0

# MOE 2024.06 (io_trps.svl 2023.06)
