@<TRIPOS>MOLECULE
NONAME
49 52 1 0 0 
SMALL
USER_CHARGES


@<TRIPOS>ATOM
  1 O       -0.7390     2.2340     0.9810 O.2   1 <1>  -0.5700 
  2 C       -1.5490     1.3910     0.6710 C.2   1 <1>   0.5690 
  3 N       -1.3480     0.0650     0.8560 N.am  1 <1>  -0.5470 
  4 C       -2.9380     1.6180     0.0420 C.3   1 <1>   0.2050 
  5 C       -2.4430    -0.6720     0.4500 C.ar  1 <1>   0.1170 
  6 C       -3.4230     0.1700    -0.0380 C.ar  1 <1>  -0.1440 
  7 C       -2.8220     2.2180    -1.3720 C.3   1 <1>   0.1100 
  8 C       -3.8780     2.4640     0.9280 C.3   1 <1>  -0.1600 
  9 C       -2.6330    -2.0430     0.4830 C.ar  1 <1>  -0.1500 
 10 C       -4.6200    -0.3440    -0.5050 C.ar  1 <1>  -0.1500 
 11 N       -2.4350     3.6390    -1.3200 N.3   1 <1>  -0.8100 
 12 C       -3.5200     3.9590     0.8610 C.3   1 <1>  -0.1600 
 13 C       -3.8290    -2.5620     0.0160 C.ar  1 <1>  -0.1500 
 14 C       -4.8170    -1.7180    -0.4750 C.ar  1 <1>  -0.1500 
 15 C       -3.4160     4.4530    -0.5860 C.3   1 <1>   0.1100 
 16 C       -2.1220     4.2110    -2.6610 C.3   1 <1>   0.1710 
 17 C       -1.1210     5.3650    -2.5840 C.2   1 <1>   0.5690 
 18 O       -1.0620     6.1630    -3.4920 O.2   1 <1>  -0.5700 
 19 N       -0.3440     5.4160    -1.4700 N.am  1 <1>  -0.4930 
 20 C        0.6530     6.3390    -1.0790 C.2   1 <1>   0.0630 
 21 C        1.3490     6.3190     0.0780 C.2   1 <1>  -0.3320 
 22 C        1.1380     7.4490    -1.7690 C.2   1 <1>   0.1390 
 23 N        2.1940     7.3800     0.0360 N.pl3 1 <1>   0.3140 
 24 C        1.2580     5.3350     1.2360 C.3   1 <1>  -0.0600 
 25 N        2.0620     8.0780    -1.1050 N.2   1 <1>  -0.7070 
 26 C        3.1610     7.7810     1.0640 C.3   1 <1>   0.0160 
 27 H       -0.4970    -0.3000     1.2820 H     1 <1>   0.3700 
 28 H       -3.7660     2.1230    -1.8820 H     1 <1>   0.0800 
 29 H       -2.0840     1.6610    -1.9230 H     1 <1>   0.0800 
 30 H       -3.8280     2.1190     1.9460 H     1 <1>   0.0800 
 31 H       -4.8900     2.3390     0.5860 H     1 <1>   0.0800 
 32 H       -1.8630    -2.6880     0.8650 H     1 <1>   0.1500 
 33 H       -5.3900     0.3040    -0.8860 H     1 <1>   0.1500 
 34 H       -2.5790     4.1340     1.3540 H     1 <1>   0.0800 
 35 H       -4.2680     4.5320     1.3800 H     1 <1>   0.0800 
 36 H       -3.9960    -3.6250     0.0340 H     1 <1>   0.1500 
 37 H       -5.7440    -2.1330    -0.8340 H     1 <1>   0.1500 
 38 H       -4.3780     4.3920    -1.0670 H     1 <1>   0.0800 
 39 H       -3.1050     5.4850    -0.5810 H     1 <1>   0.0800 
 40 H       -3.0220     4.5490    -3.1430 H     1 <1>   0.0800 
 41 H       -1.6760     3.4540    -3.2810 H     1 <1>   0.0800 
 42 H       -0.5710     4.6780    -0.7930 H     1 <1>   0.3700 
 43 H        0.7860     7.7510    -2.7400 H     1 <1>   0.1500 
 44 H        0.5060     4.5920     1.0450 H     1 <1>   0.0800 
 45 H        0.9990     5.8510     2.1430 H     1 <1>   0.0800 
 46 H        2.1990     4.8340     1.3730 H     1 <1>   0.0800 
 47 H        3.8580     6.9810     1.2220 H     1 <1>   0.0800 
 48 H        2.6370     8.0010     1.9740 H     1 <1>   0.0800 
 49 H        3.6860     8.6560     0.7280 H     1 <1>   0.0800 
@<TRIPOS>BOND
  1   1   2  2   
  2   2   3  am  
  3   2   4  1   
  4   3   5  1   
  5   3  27  1   
  6   4   6  1   
  7   4   7  1   
  8   4   8  1   
  9   5   6  ar  
 10   5   9  ar  
 11   6  10  ar  
 12   7  11  1   
 13   7  28  1   
 14   7  29  1   
 15   8  12  1   
 16   8  30  1   
 17   8  31  1   
 18   9  13  ar  
 19   9  32  1   
 20  10  14  ar  
 21  10  33  1   
 22  11  15  1   
 23  11  16  1   
 24  12  15  1   
 25  12  34  1   
 26  12  35  1   
 27  13  14  ar  
 28  13  36  1   
 29  14  37  1   
 30  15  38  1   
 31  15  39  1   
 32  16  17  1   
 33  16  40  1   
 34  16  41  1   
 35  17  18  2   
 36  17  19  am  
 37  19  20  1   
 38  19  42  1   
 39  20  21  2   
 40  20  22  1   
 41  21  23  1   
 42  21  24  1   
 43  22  25  2   
 44  22  43  1   
 45  23  25  1   
 46  23  26  1   
 47  24  44  1   
 48  24  45  1   
 49  24  46  1   
 50  26  47  1   
 51  26  48  1   
 52  26  49  1   
@<TRIPOS>SUBSTRUCTURE
  1 ****  11 GROUP 4 **** **** 0

# MOE 2024.06 (io_trps.svl 2023.06)
