@<TRIPOS>MOLECULE
NONAME
44 46 1 0 0 
SMALL
USER_CHARGES


@<TRIPOS>ATOM
  1 O       -0.2580    -1.1450    -0.1310 O.co2 1 <1>  -0.9000 
  2 C       -0.6040    -2.3080     0.1640 C.2   1 <1>   0.9790 
  3 O        0.3110    -3.1240     0.4160 O.co2 1 <1>  -0.9000 
  4 C       -2.0130    -2.7450     0.2140 C.ar  1 <1>   0.1310 
  5 N       -3.0500    -1.9120     0.0710 N.ar  1 <1>  -0.6200 
  6 C       -2.2900    -4.0880     0.4180 C.ar  1 <1>  -0.1500 
  7 C       -4.2770    -2.4120     0.1300 C.ar  1 <1>   0.7200 
  8 C       -3.5920    -4.5140     0.4650 C.ar  1 <1>   0.1660 
  9 N       -4.5960    -3.6910     0.3230 N.ar  1 <1>  -0.6200 
 10 N       -5.3240    -1.5250    -0.0240 N.pl3 1 <1>  -0.8380 
 11 C       -3.9300    -5.9720     0.6850 C.3   1 <1>  -0.0970 
 12 C       -6.6750    -1.7660     0.5650 C.3   1 <1>   0.2090 
 13 C       -5.1320    -0.1640    -0.5900 C.3   1 <1>   0.2090 
 14 C       -7.7800    -1.5480    -0.4970 C.3   1 <1>   0.0000 
 15 C       -6.2150     0.1120    -1.6400 C.3   1 <1>  -0.1600 
 16 C       -9.1800    -1.7700     0.1020 C.3   1 <1>   0.2000 
 17 C       -7.6360    -0.1330    -1.1000 C.3   1 <1>  -0.1600 
 18 C       -7.7190    -2.6530    -1.5670 C.3   1 <1>  -0.1600 
 19 O       -9.2750    -1.2430     1.3930 O.3   1 <1>  -0.5600 
 20 C       -9.3990    -3.2870     0.1020 C.3   1 <1>  -0.1600 
 21 C       -8.4460    -3.8550    -0.9590 C.3   1 <1>  -0.1600 
 22 C      -10.5720    -1.1220     1.8830 C.3   1 <1>   0.0400 
 23 H       -1.4770    -4.7800     0.5380 H     1 <1>   0.1500 
 24 H       -3.0380    -6.5610     0.7890 H     1 <1>   0.0800 
 25 H       -4.4960    -6.3370    -0.1510 H     1 <1>   0.0800 
 26 H       -4.5210    -6.0700     1.5770 H     1 <1>   0.0800 
 27 H       -6.7480    -2.7550     0.9800 H     1 <1>   0.0800 
 28 H       -6.8120    -1.0720     1.3760 H     1 <1>   0.0800 
 29 H       -5.1930     0.5560     0.2080 H     1 <1>   0.0800 
 30 H       -4.1640    -0.0680    -1.0520 H     1 <1>   0.0800 
 31 H       -6.1250     1.1300    -1.9740 H     1 <1>   0.0800 
 32 H       -6.0310    -0.5250    -2.4870 H     1 <1>   0.0800 
 33 H       -9.9110    -1.2940    -0.5290 H     1 <1>   0.0800 
 34 H       -8.3530     0.0120    -1.8880 H     1 <1>   0.0800 
 35 H       -7.8430     0.5910    -0.3300 H     1 <1>   0.0800 
 36 H       -8.2460    -2.3340    -2.4490 H     1 <1>   0.0800 
 37 H       -6.7080    -2.9020    -1.8430 H     1 <1>   0.0800 
 38 H       -9.1510    -3.7010     1.0640 H     1 <1>   0.0800 
 39 H      -10.4210    -3.5190    -0.1400 H     1 <1>   0.0800 
 40 H       -7.7270    -4.5040    -0.4870 H     1 <1>   0.0800 
 41 H       -8.9740    -4.4120    -1.7140 H     1 <1>   0.0800 
 42 H      -10.5170    -0.6910     2.8670 H     1 <1>   0.0800 
 43 H      -11.0270    -2.0950     1.9410 H     1 <1>   0.0800 
 44 H      -11.1380    -0.4750     1.2360 H     1 <1>   0.0800 
@<TRIPOS>BOND
  1   1   2  ar  
  2   2   3  ar  
  3   2   4  1   
  4   4   5  ar  
  5   4   6  ar  
  6   5   7  ar  
  7   6   8  ar  
  8   6  23  1   
  9   7   9  ar  
 10   7  10  1   
 11   8   9  ar  
 12   8  11  1   
 13  10  12  1   
 14  10  13  1   
 15  11  24  1   
 16  11  25  1   
 17  11  26  1   
 18  12  14  1   
 19  12  27  1   
 20  12  28  1   
 21  13  15  1   
 22  13  29  1   
 23  13  30  1   
 24  14  16  1   
 25  14  17  1   
 26  14  18  1   
 27  15  17  1   
 28  15  31  1   
 29  15  32  1   
 30  16  19  1   
 31  16  20  1   
 32  16  33  1   
 33  17  34  1   
 34  17  35  1   
 35  18  21  1   
 36  18  36  1   
 37  18  37  1   
 38  19  22  1   
 39  20  21  1   
 40  20  38  1   
 41  20  39  1   
 42  21  40  1   
 43  21  41  1   
 44  22  42  1   
 45  22  43  1   
 46  22  44  1   
@<TRIPOS>SUBSTRUCTURE
  1 ****  10 GROUP 4 **** **** 0

# MOE 2024.06 (io_trps.svl 2023.06)
