@<TRIPOS>MOLECULE
NONAME
40 43 1 0 0 
SMALL
USER_CHARGES


@<TRIPOS>ATOM
  1 CL      -4.0040     0.6560    -4.2190 Cl    1 <1>  -0.1240 
  2 C       -3.7970     0.1060    -2.5780 C.2   1 <1>   0.2640 
  3 O       -4.6940    -0.7040    -2.0710 O.3   1 <1>  -0.2800 
  4 C       -2.8190     0.3930    -1.6980 C.2   1 <1>  -0.1500 
  5 C       -4.3340    -0.9800    -0.8160 C.2   1 <1>   0.0550 
  6 C       -3.1670    -0.3200    -0.5480 C.2   1 <1>  -0.1500 
  7 C       -5.0960    -1.8690     0.0400 C.2   1 <1>   0.7150 
  8 O       -4.5400    -2.3470     1.0150 O.2   1 <1>  -0.5700 
  9 N       -6.4220    -2.1980    -0.1760 N.am  1 <1>  -0.6600 
 10 C       -7.4090    -1.3230    -0.8860 C.3   1 <1>   0.1400 
 11 C       -7.0460    -3.3880     0.4660 C.3   1 <1>   0.1400 
 12 C       -8.4790    -0.8070     0.0970 C.3   1 <1>   0.1440 
 13 C       -8.1080    -2.9390     1.4750 C.3   1 <1>  -0.1600 
 14 C       -9.5410    -0.0040    -0.6320 C.ar  1 <1>   0.1660 
 15 C       -9.1410    -1.9900     0.8390 C.3   1 <1>  -0.1600 
 16 C       -7.8950     0.2400     1.0870 C.3   1 <1>  -0.1600 
 17 N      -10.1640    -0.3800    -1.7240 N.ar  1 <1>  -0.6200 
 18 C       -9.7920     1.1830    -0.0060 C.ar  1 <1>  -0.1440 
 19 C       -8.9410     1.3600     1.2260 C.3   1 <1>  -0.0170 
 20 C      -11.0650     0.4890    -2.1570 C.ar  1 <1>   0.7200 
 21 C      -10.7410     2.0100    -0.5580 C.ar  1 <1>   0.1600 
 22 N      -11.3890     1.6700    -1.6490 N.ar  1 <1>  -0.6200 
 23 N      -11.7170     0.1420    -3.2680 N.pl3 1 <1>  -0.9000 
 24 H       -1.9580     1.0220    -1.8310 H     1 <1>   0.1500 
 25 H       -2.6090    -0.3430     0.3720 H     1 <1>   0.1500 
 26 H       -7.8840    -1.8970    -1.6630 H     1 <1>   0.0800 
 27 H       -6.9330    -0.4810    -1.3490 H     1 <1>   0.0800 
 28 H       -6.3010    -3.9890     0.9620 H     1 <1>   0.0800 
 29 H       -7.5030    -3.9950    -0.2970 H     1 <1>   0.0800 
 30 H       -7.6140    -2.4610     2.3020 H     1 <1>   0.0800 
 31 H       -8.6110    -3.8070     1.8630 H     1 <1>   0.0800 
 32 H       -9.7270    -2.5500     0.1300 H     1 <1>   0.0800 
 33 H       -9.8140    -1.6220     1.5930 H     1 <1>   0.0800 
 34 H       -7.0020     0.6690     0.6670 H     1 <1>   0.0800 
 35 H       -7.6410    -0.1820     2.0420 H     1 <1>   0.0800 
 36 H       -8.4800     2.3310     1.2580 H     1 <1>   0.0800 
 37 H       -9.5440     1.2100     2.1050 H     1 <1>   0.0800 
 38 H      -10.9700     2.9570    -0.1000 H     1 <1>   0.1500 
 39 H      -12.1740     0.9050    -3.7570 H     1 <1>   0.4000 
 40 H      -11.2580    -0.5640    -3.8350 H     1 <1>   0.4000 
@<TRIPOS>BOND
  1   1   2  1   
  2   2   3  1   
  3   2   4  2   
  4   3   5  1   
  5   4   6  1   
  6   4  24  1   
  7   5   6  2   
  8   5   7  1   
  9   6  25  1   
 10   7   8  2   
 11   7   9  am  
 12   9  10  1   
 13   9  11  1   
 14  10  12  1   
 15  10  26  1   
 16  10  27  1   
 17  11  13  1   
 18  11  28  1   
 19  11  29  1   
 20  12  14  1   
 21  12  15  1   
 22  12  16  1   
 23  13  15  1   
 24  13  30  1   
 25  13  31  1   
 26  14  17  ar  
 27  14  18  ar  
 28  15  32  1   
 29  15  33  1   
 30  16  19  1   
 31  16  34  1   
 32  16  35  1   
 33  17  20  ar  
 34  18  19  1   
 35  18  21  ar  
 36  19  36  1   
 37  19  37  1   
 38  20  22  ar  
 39  20  23  1   
 40  21  22  ar  
 41  21  38  1   
 42  23  39  1   
 43  23  40  1   
@<TRIPOS>SUBSTRUCTURE
  1 ****  10 GROUP 4 **** **** 0

# MOE 2024.06 (io_trps.svl 2023.06)
