@<TRIPOS>MOLECULE
NONAME
39 41 1 0 0 
SMALL
USER_CHARGES


@<TRIPOS>ATOM
  1 S        0.3900    -0.0550     1.5430 S.o2  1 <1>   1.4470 
  2 O       -0.2430     0.8930     2.4320 O.2   1 <1>  -0.6500 
  3 O        0.9300    -1.2840     2.0830 O.2   1 <1>  -0.6500 
  4 N        1.6620     0.7420     0.7560 N.am  1 <1>  -0.8490 
  5 C       -0.7580    -0.4300     0.1870 C.ar  1 <1>  -0.0090 
  6 C        2.4130     1.6390     1.6650 C.3   1 <1>   0.1960 
  7 C        2.5280    -0.1890     0.0100 C.3   1 <1>   0.1960 
  8 C       -1.4760    -1.6240     0.1670 C.ar  1 <1>  -0.1500 
  9 C       -0.9640     0.4720    -0.8550 C.ar  1 <1>  -0.1500 
 10 C        3.3900     2.6320     0.9790 C.3   1 <1>   0.2200 
 11 C        3.4890     0.4910    -0.9850 C.3   1 <1>  -0.0190 
 12 C       -2.3580    -1.8890    -0.8660 C.ar  1 <1>   0.1900 
 13 C       -1.8550     0.1720    -1.8700 C.ar  1 <1>   0.1900 
 14 N        3.0490     2.8960    -0.4560 N.am  1 <1>  -0.6600 
 15 C        4.8630     2.1990     1.1240 C.3   1 <1>   0.1200 
 16 C        3.0460     1.8870    -1.3820 C.2   1 <1>   0.5690 
 17 C        4.9500     0.4910    -0.5140 C.3   1 <1>   0.1200 
 18 F       -3.0120    -3.0170    -0.8570 F     1 <1>  -0.1900 
 19 C       -2.5710    -1.0070    -1.9050 C.ar  1 <1>  -0.1500 
 20 F       -2.0280     1.0370    -2.8310 F     1 <1>  -0.1900 
 21 C        2.5640     4.2660    -0.7780 C.3   1 <1>   0.0600 
 22 O        5.0610     0.8470     0.8290 O.3   1 <1>  -0.5600 
 23 O        2.7170     2.0660    -2.5320 O.2   1 <1>  -0.5700 
 24 H        1.7080     2.2480     2.2040 H     1 <1>   0.0800 
 25 H        2.9380     1.0520     2.4010 H     1 <1>   0.0800 
 26 H        3.0830    -0.8050     0.7000 H     1 <1>   0.0800 
 27 H        1.8970    -0.8480    -0.5620 H     1 <1>   0.0800 
 28 H       -1.3500    -2.3470     0.9550 H     1 <1>   0.1500 
 29 H       -0.4300     1.4080    -0.8800 H     1 <1>   0.1500 
 30 H        3.3100     3.5640     1.5090 H     1 <1>   0.0800 
 31 H        3.4770    -0.0990    -1.8830 H     1 <1>   0.0800 
 32 H        5.1660     2.3330     2.1470 H     1 <1>   0.0800 
 33 H        5.5050     2.7990     0.5020 H     1 <1>   0.0800 
 34 H        5.5550     1.1540    -1.1100 H     1 <1>   0.0800 
 35 H        5.3520    -0.5030    -0.6010 H     1 <1>   0.0800 
 36 H       -3.2590    -1.2260    -2.7000 H     1 <1>   0.1500 
 37 H        3.3180     4.9900    -0.5240 H     1 <1>   0.0800 
 38 H        1.6660     4.4720    -0.2220 H     1 <1>   0.0800 
 39 H        2.3440     4.3560    -1.8280 H     1 <1>   0.0800 
@<TRIPOS>BOND
  1   1   2  2   
  2   1   3  2   
  3   1   4  am  
  4   1   5  1   
  5   4   6  1   
  6   4   7  1   
  7   5   8  ar  
  8   5   9  ar  
  9   6  10  1   
 10   6  24  1   
 11   6  25  1   
 12   7  11  1   
 13   7  26  1   
 14   7  27  1   
 15   8  12  ar  
 16   8  28  1   
 17   9  13  ar  
 18   9  29  1   
 19  10  14  1   
 20  10  15  1   
 21  10  30  1   
 22  11  16  1   
 23  11  17  1   
 24  11  31  1   
 25  12  18  1   
 26  12  19  ar  
 27  13  19  ar  
 28  13  20  1   
 29  14  16  am  
 30  14  21  1   
 31  15  22  1   
 32  15  32  1   
 33  15  33  1   
 34  16  23  2   
 35  17  22  1   
 36  17  34  1   
 37  17  35  1   
 38  19  36  1   
 39  21  37  1   
 40  21  38  1   
 41  21  39  1   
@<TRIPOS>SUBSTRUCTURE
  1 ****   4 GROUP 4 **** **** 0

# MOE 2024.06 (io_trps.svl 2023.06)
