@<TRIPOS>MOLECULE
NONAME
58 61 1 0 0 
SMALL
USER_CHARGES


@<TRIPOS>ATOM
  1 O       -3.7400     3.5080     1.4050 O.2   1 <1>  -0.5700 
  2 C       -3.6500     2.9190     0.3530 C.2   1 <1>   0.6300 
  3 N       -4.4190     1.8170     0.0700 N.am  1 <1>  -0.6600 
  4 C       -2.6520     3.4470    -0.6780 C.3   1 <1>  -0.1000 
  5 C       -4.3920     1.0650    -1.2160 C.3   1 <1>   0.1400 
  6 C       -5.4240     1.3060     1.0420 C.3   1 <1>   0.1400 
  7 C       -1.2940     2.8320    -0.8730 C.3   1 <1>  -0.1950 
  8 C       -1.4070     4.1880    -0.2570 C.3   1 <1>  -0.2000 
  9 C       -4.1120    -0.4140    -0.9400 C.3   1 <1>  -0.1600 
 10 C       -5.1370    -0.1660     1.3420 C.3   1 <1>  -0.1600 
 11 C       -0.8040     1.6500    -0.0310 C.3   1 <1>  -0.0650 
 12 C       -5.1090    -1.0160     0.0610 C.3   1 <1>   0.4240 
 13 C        0.7260     1.6330     0.0460 C.3   1 <1>  -0.1600 
 14 O       -6.3660    -0.9140    -0.5660 O.3   1 <1>  -0.5600 
 15 C       -4.7420    -2.4830     0.3700 C.ar  1 <1>  -0.1440 
 16 C        1.2280     0.4470     0.8760 C.3   1 <1>  -0.2400 
 17 C       -7.3800    -1.7570    -0.1140 C.3   1 <1>   0.1200 
 18 C       -5.6370    -3.5170     0.1290 C.ar  1 <1>  -0.1440 
 19 C       -3.5000    -2.8010     0.9050 C.ar  1 <1>  -0.1500 
 20 C       -7.0040    -3.1990    -0.4430 C.3   1 <1>  -0.0170 
 21 C       -5.2910    -4.8290     0.4100 C.ar  1 <1>  -0.1500 
 22 C       -3.1340    -4.1060     1.1870 C.ar  1 <1>   0.0820 
 23 C       -4.0460    -5.1460     0.9470 C.ar  1 <1>   0.0820 
 24 O       -1.8730    -4.2420     1.6910 O.3   1 <1>  -0.3620 
 25 O       -3.7140    -6.4360     1.2550 O.3   1 <1>  -0.3620 
 26 C       -1.1220    -5.4200     1.5030 C.3   1 <1>   0.0400 
 27 C       -4.6450    -7.4930     1.1760 C.3   1 <1>   0.0400 
 28 H       -3.1600     3.8370    -1.5390 H     1 <1>   0.1000 
 29 H       -5.3480     1.1700    -1.7000 H     1 <1>   0.0800 
 30 H       -3.6400     1.4510    -1.8800 H     1 <1>   0.0800 
 31 H       -5.3940     1.8720     1.9570 H     1 <1>   0.0800 
 32 H       -6.4080     1.4120     0.6170 H     1 <1>   0.0800 
 33 H       -0.9320     2.7850    -1.8860 H     1 <1>   0.1000 
 34 H       -1.1020     5.0480    -0.8260 H     1 <1>   0.1000 
 35 H       -1.2200     4.3060     0.7980 H     1 <1>   0.1000 
 36 H       -3.1140    -0.5040    -0.5600 H     1 <1>   0.0800 
 37 H       -4.1590    -0.9720    -1.8570 H     1 <1>   0.0800 
 38 H       -5.8680    -0.5520     2.0270 H     1 <1>   0.0800 
 39 H       -4.1840    -0.2240     1.8360 H     1 <1>   0.0800 
 40 H       -1.2100     1.7120     0.9650 H     1 <1>   0.0800 
 41 H       -1.1490     0.7340    -0.4760 H     1 <1>   0.0800 
 42 H        1.1360     1.5700    -0.9480 H     1 <1>   0.0800 
 43 H        1.0710     2.5500     0.4910 H     1 <1>   0.0800 
 44 H        0.9120    -0.4830     0.4360 H     1 <1>   0.0800 
 45 H        0.8450     0.5030     1.8800 H     1 <1>   0.0800 
 46 H        2.3030     0.4570     0.9200 H     1 <1>   0.0800 
 47 H       -7.5080    -1.6220     0.9460 H     1 <1>   0.0800 
 48 H       -8.2890    -1.4800    -0.6180 H     1 <1>   0.0800 
 49 H       -2.7830    -2.0300     1.1150 H     1 <1>   0.1500 
 50 H       -7.7450    -3.8590    -0.0300 H     1 <1>   0.0800 
 51 H       -6.9900    -3.3290    -1.5100 H     1 <1>   0.0800 
 52 H       -6.0130    -5.5950     0.2040 H     1 <1>   0.1500 
 53 H       -0.0880    -5.1910     1.6840 H     1 <1>   0.0800 
 54 H       -1.2530    -5.7630     0.4910 H     1 <1>   0.0800 
 55 H       -1.4580    -6.1620     2.2050 H     1 <1>   0.0800 
 56 H       -4.1640    -8.3870     1.5290 H     1 <1>   0.0800 
 57 H       -4.9440    -7.6200     0.1510 H     1 <1>   0.0800 
 58 H       -5.4890    -7.2620     1.8020 H     1 <1>   0.0800 
@<TRIPOS>BOND
  1   1   2  2   
  2   2   3  am  
  3   2   4  1   
  4   3   5  1   
  5   3   6  1   
  6   4   7  1   
  7   4   8  1   
  8   4  28  1   
  9   5   9  1   
 10   5  29  1   
 11   5  30  1   
 12   6  10  1   
 13   6  31  1   
 14   6  32  1   
 15   7   8  1   
 16   7  11  1   
 17   7  33  1   
 18   8  34  1   
 19   8  35  1   
 20   9  12  1   
 21   9  36  1   
 22   9  37  1   
 23  10  12  1   
 24  10  38  1   
 25  10  39  1   
 26  11  13  1   
 27  11  40  1   
 28  11  41  1   
 29  12  14  1   
 30  12  15  1   
 31  13  16  1   
 32  13  42  1   
 33  13  43  1   
 34  14  17  1   
 35  15  18  ar  
 36  15  19  ar  
 37  16  44  1   
 38  16  45  1   
 39  16  46  1   
 40  17  20  1   
 41  17  47  1   
 42  17  48  1   
 43  18  20  1   
 44  18  21  ar  
 45  19  22  ar  
 46  19  49  1   
 47  20  50  1   
 48  20  51  1   
 49  21  23  ar  
 50  21  52  1   
 51  22  23  ar  
 52  22  24  1   
 53  23  25  1   
 54  24  26  1   
 55  25  27  1   
 56  26  53  1   
 57  26  54  1   
 58  26  55  1   
 59  27  56  1   
 60  27  57  1   
 61  27  58  1   
@<TRIPOS>SUBSTRUCTURE
  1 ****  12 GROUP 4 **** **** 0

# MOE 2024.06 (io_trps.svl 2023.06)
