@<TRIPOS>MOLECULE
NONAME
44 45 1 0 0 
SMALL
USER_CHARGES


@<TRIPOS>ATOM
  1 O       -0.4900     0.3520     0.2660 O.2   1 <1>  -0.5700 
  2 C       -1.5750     0.8750     0.1750 C.2   1 <1>   0.5690 
  3 N       -2.7000     0.1430    -0.0830 N.am  1 <1>  -0.6600 
  4 C       -1.6930     2.3850     0.3590 C.3   1 <1>  -0.0990 
  5 C       -4.0930     0.6490    -0.1460 C.3   1 <1>   0.1400 
  6 C       -2.6720    -1.3300    -0.2540 C.3   1 <1>   0.1400 
  7 C       -0.3410     3.1150     0.4850 C.3   1 <1>  -0.1600 
  8 C       -4.9620    -0.5930    -0.3570 C.3   1 <1>   0.2000 
  9 C       -4.0990    -1.7860     0.0520 C.3   1 <1>  -0.0800 
 10 C       -0.5320     4.6190     0.6760 C.3   1 <1>   0.1400 
 11 O       -6.1060    -0.5510     0.4230 O.3   1 <1>  -0.6800 
 12 C       -4.5140    -3.0860    -0.6600 C.3   1 <1>  -0.0170 
 13 N        0.7930     5.2630     0.7830 N.am  1 <1>  -0.7300 
 14 C       -3.6650    -4.2680    -0.2210 C.ar  1 <1>   0.1670 
 15 C        1.2840     6.3340     0.1200 C.2   1 <1>   0.5690 
 16 N       -2.5000    -4.4160    -0.8300 N.ar  1 <1>  -0.6200 
 17 C       -4.1250    -5.1250     0.7780 C.ar  1 <1>   0.1600 
 18 O        2.3960     6.7280     0.3510 O.2   1 <1>  -0.5700 
 19 C        0.4530     7.0520    -0.9150 C.3   1 <1>  -0.1790 
 20 C       -1.8310    -5.4630    -0.3760 C.ar  1 <1>   0.1600 
 21 N       -3.4580    -6.1730     1.2330 N.ar  1 <1>  -0.6200 
 22 C       -2.2940    -6.3120     0.6210 C.ar  1 <1>   0.1600 
 23 H       -2.2250     2.7840    -0.4850 H     1 <1>   0.0800 
 24 H       -2.2740     2.5640     1.2440 H     1 <1>   0.0800 
 25 H       -4.3400     1.1400     0.7790 H     1 <1>   0.0800 
 26 H       -4.2040     1.3290    -0.9720 H     1 <1>   0.0800 
 27 H       -2.4020    -1.5600    -1.2710 H     1 <1>   0.0800 
 28 H       -1.9580    -1.7880     0.4110 H     1 <1>   0.0800 
 29 H        0.2390     2.9390    -0.4060 H     1 <1>   0.0800 
 30 H        0.1990     2.7130     1.3250 H     1 <1>   0.0800 
 31 H       -5.2570    -0.6580    -1.3910 H     1 <1>   0.0800 
 32 H       -4.1610    -1.9270     1.1170 H     1 <1>   0.0800 
 33 H       -1.0870     4.8080     1.5800 H     1 <1>   0.0800 
 34 H       -1.0810     5.0270    -0.1550 H     1 <1>   0.0800 
 35 H       -5.8710    -0.5180     1.3710 H     1 <1>   0.4000 
 36 H       -4.4230    -2.9680    -1.7250 H     1 <1>   0.0800 
 37 H       -5.5490    -3.2900    -0.4460 H     1 <1>   0.0800 
 38 H        1.4400     4.8420     1.4530 H     1 <1>   0.3700 
 39 H       -5.0860    -4.9350     1.2220 H     1 <1>   0.1500 
 40 H       -0.4540     7.4120    -0.4680 H     1 <1>   0.0800 
 41 H        0.2240     6.3850    -1.7230 H     1 <1>   0.0800 
 42 H        1.0050     7.8890    -1.3020 H     1 <1>   0.0800 
 43 H       -0.8680    -5.6580    -0.8150 H     1 <1>   0.1500 
 44 H       -1.6760    -7.1380     0.9240 H     1 <1>   0.1500 
@<TRIPOS>BOND
  1   1   2  2   
  2   2   3  am  
  3   2   4  1   
  4   3   5  1   
  5   3   6  1   
  6   4   7  1   
  7   4  23  1   
  8   4  24  1   
  9   5   8  1   
 10   5  25  1   
 11   5  26  1   
 12   6   9  1   
 13   6  27  1   
 14   6  28  1   
 15   7  10  1   
 16   7  29  1   
 17   7  30  1   
 18   8   9  1   
 19   8  11  1   
 20   8  31  1   
 21   9  12  1   
 22   9  32  1   
 23  10  13  1   
 24  10  33  1   
 25  10  34  1   
 26  11  35  1   
 27  12  14  1   
 28  12  36  1   
 29  12  37  1   
 30  13  15  am  
 31  13  38  1   
 32  14  16  ar  
 33  14  17  ar  
 34  15  18  2   
 35  15  19  1   
 36  16  20  ar  
 37  17  21  ar  
 38  17  39  1   
 39  19  40  1   
 40  19  41  1   
 41  19  42  1   
 42  20  22  ar  
 43  20  43  1   
 44  21  22  ar  
 45  22  44  1   
@<TRIPOS>SUBSTRUCTURE
  1 ****   3 GROUP 4 **** **** 0

# MOE 2024.06 (io_trps.svl 2023.06)
