@<TRIPOS>MOLECULE
NONAME
48 51 1 0 0 
SMALL
USER_CHARGES


@<TRIPOS>ATOM
  1 S        0.8020     0.9340    -0.0470 S.3   1 <1>  -0.0800 
  2 C        2.2800     1.3450    -0.9020 C.2   1 <1>  -0.1400 
  3 C        1.4290    -0.6520     0.3630 C.2   1 <1>  -0.1400 
  4 C        3.1550     0.3230    -0.8540 C.2   1 <1>  -0.1500 
  5 C        2.3460     2.7240    -1.5140 C.3   1 <1>   0.5230 
  6 C        2.6690    -0.8130    -0.1340 C.2   1 <1>  -0.1500 
  7 C        0.5310    -1.5680     1.1690 C.3   1 <1>  -0.0600 
  8 N        3.2890     3.5640    -0.7320 N.4   1 <1>  -0.9590 
  9 C        3.0470     3.5550     0.7590 C.3   1 <1>   0.4230 
 10 C        3.5560     4.8860    -1.3830 C.3   1 <1>   0.3430 
 11 C        2.0570     4.6370     1.2390 C.3   1 <1>   0.1200 
 12 C        4.4040     3.6260     1.5070 C.3   1 <1>   0.1400 
 13 C        4.1190     5.9970    -0.4750 C.3   1 <1>  -0.0800 
 14 O        2.6910     5.8570     1.4800 O.3   1 <1>  -0.5600 
 15 N        5.5090     4.2110     0.6730 N.am  1 <1>  -0.6600 
 16 C        3.0110     6.6360     0.3780 C.3   1 <1>   0.1200 
 17 C        5.3960     5.6560     0.3330 C.3   1 <1>   0.1400 
 18 C        6.3620     3.3910    -0.0280 C.2   1 <1>   0.7160 
 19 O        5.8580     2.4090    -0.5490 O.2   1 <1>  -0.5700 
 20 C        7.7560     3.7190    -0.2220 C.2   1 <1>  -0.0860 
 21 C        8.5470     4.6290     0.4370 C.2   1 <1>  -0.3020 
 22 C        8.6060     3.1240    -1.1760 C.2   1 <1>  -0.1500 
 23 N        9.8030     4.6150    -0.0650 N.pl3 1 <1>   0.0330 
 24 C        9.8330     3.6890    -1.0570 C.2   1 <1>  -0.3020 
 25 H        4.1420     0.3060    -1.2900 H     1 <1>   0.1500 
 26 H        1.3640     3.1670    -1.5200 H     1 <1>   0.0800 
 27 H        2.6920     2.6390    -2.5310 H     1 <1>   0.0800 
 28 H        3.2750    -1.6970    -0.0270 H     1 <1>   0.1500 
 29 H        1.0250    -2.5050     1.3510 H     1 <1>   0.0800 
 30 H       -0.3800    -1.7560     0.6310 H     1 <1>   0.0800 
 31 H        0.2920    -1.1130     2.1140 H     1 <1>   0.0800 
 32 H        4.1970     3.0540    -0.7830 H     1 <1>   0.4500 
 33 H        2.6080     2.6120     1.0320 H     1 <1>   0.0800 
 34 H        4.2520     4.7280    -2.1920 H     1 <1>   0.0800 
 35 H        2.6400     5.2520    -1.8190 H     1 <1>   0.0800 
 36 H        1.6450     4.3250     2.1830 H     1 <1>   0.0800 
 37 H        1.2430     4.7750     0.5500 H     1 <1>   0.0800 
 38 H        4.6800     2.6240     1.7890 H     1 <1>   0.0800 
 39 H        4.3060     4.1850     2.4220 H     1 <1>   0.0800 
 40 H        4.4100     6.7840    -1.1470 H     1 <1>   0.0800 
 41 H        2.1150     6.8160    -0.1940 H     1 <1>   0.0800 
 42 H        3.3530     7.5830     0.7620 H     1 <1>   0.0800 
 43 H        5.4260     6.2360     1.2420 H     1 <1>   0.0800 
 44 H        6.2530     5.9430    -0.2530 H     1 <1>   0.0800 
 45 H        8.2640     5.2750     1.2490 H     1 <1>   0.1500 
 46 H        8.3030     2.3510    -1.8630 H     1 <1>   0.1500 
 47 H       10.5980     5.1860     0.2480 H     1 <1>   0.2700 
 48 H       10.7250     3.4780    -1.6210 H     1 <1>   0.1500 
@<TRIPOS>BOND
  1   1   2  1   
  2   1   3  1   
  3   2   4  2   
  4   2   5  1   
  5   3   6  2   
  6   3   7  1   
  7   4   6  1   
  8   4  25  1   
  9   5   8  1   
 10   5  26  1   
 11   5  27  1   
 12   6  28  1   
 13   7  29  1   
 14   7  30  1   
 15   7  31  1   
 16   8   9  1   
 17   8  10  1   
 18   8  32  1   
 19   9  11  1   
 20   9  12  1   
 21   9  33  1   
 22  10  13  1   
 23  10  34  1   
 24  10  35  1   
 25  11  14  1   
 26  11  36  1   
 27  11  37  1   
 28  12  15  1   
 29  12  38  1   
 30  12  39  1   
 31  13  16  1   
 32  13  17  1   
 33  13  40  1   
 34  14  16  1   
 35  15  17  1   
 36  15  18  am  
 37  16  41  1   
 38  16  42  1   
 39  17  43  1   
 40  17  44  1   
 41  18  19  2   
 42  18  20  1   
 43  20  21  2   
 44  20  22  1   
 45  21  23  1   
 46  21  45  1   
 47  22  24  2   
 48  22  46  1   
 49  23  24  1   
 50  23  47  1   
 51  24  48  1   
@<TRIPOS>SUBSTRUCTURE
  1 ****   8 GROUP 4 **** **** 0

# MOE 2024.06 (io_trps.svl 2023.06)
