@<TRIPOS>MOLECULE
NONAME
42 43 1 0 0 
SMALL
USER_CHARGES


@<TRIPOS>ATOM
  1 S        1.2150    -1.2090     0.8810 S.o2  1 <1>   1.4470 
  2 O        1.9730    -2.1040     0.0380 O.2   1 <1>  -0.6500 
  3 O        1.5080    -1.1440     2.2910 O.2   1 <1>  -0.6500 
  4 N       -0.3840    -1.7040     0.7760 N.am  1 <1>  -0.9140 
  5 C        1.2090     0.4400     0.1480 C.ar  1 <1>  -0.0090 
  6 C       -0.5720    -3.1320     1.0110 C.3   1 <1>   0.2760 
  7 C        0.3820     1.4390     0.6430 C.ar  1 <1>   0.1900 
  8 C        2.0270     0.7720    -0.9280 C.ar  1 <1>  -0.1500 
  9 C       -1.9550    -3.5430     0.5240 C.3   1 <1>  -0.0800 
 10 C       -0.7240    -3.4100     2.5050 C.3   1 <1>   0.1200 
 11 F       -0.4110     1.1720     1.6470 F     1 <1>  -0.1900 
 12 C        0.3390     2.7240     0.1250 C.ar  1 <1>  -0.1500 
 13 C        1.9860     2.0530    -1.4500 C.ar  1 <1>   0.1900 
 14 C       -2.8570    -3.1920     1.7150 C.3   1 <1>   0.1200 
 15 C       -2.3800    -2.9170    -0.8220 C.3   1 <1>  -0.0550 
 16 O       -2.0130    -2.9760     2.8080 O.3   1 <1>  -0.5600 
 17 C        1.1580     3.0390    -0.9450 C.ar  1 <1>  -0.1500 
 18 F        2.7600     2.3420    -2.4600 F     1 <1>  -0.1900 
 19 S       -3.8870    -3.6040    -1.5120 S.o2  1 <1>   1.3330 
 20 O       -4.1590    -2.9660    -2.7800 O.2   1 <1>  -0.6500 
 21 O       -3.7870    -5.0450    -1.4410 O.2   1 <1>  -0.6500 
 22 N       -5.0970    -3.1100    -0.4270 N.am  1 <1>  -0.8490 
 23 C       -6.2490    -4.0170    -0.4370 C.3   1 <1>   0.1160 
 24 C       -5.5520    -1.7330    -0.6520 C.3   1 <1>   0.1160 
 25 H       -0.8400    -1.2580     1.5780 H     1 <1>   0.4200 
 26 H        0.2040    -3.7220     0.5500 H     1 <1>   0.0800 
 27 H        2.6900     0.0410    -1.3610 H     1 <1>   0.1500 
 28 H       -1.9590    -4.6150     0.4180 H     1 <1>   0.0800 
 29 H       -0.0120    -2.8940     3.1240 H     1 <1>   0.0800 
 30 H       -0.6750    -4.4660     2.7030 H     1 <1>   0.0800 
 31 H       -0.3230     3.4580     0.5530 H     1 <1>   0.1500 
 32 H       -3.5380    -3.9930     1.9500 H     1 <1>   0.0800 
 33 H       -3.4100    -2.2830     1.5490 H     1 <1>   0.0800 
 34 H       -1.5880    -3.0790    -1.5270 H     1 <1>   0.0800 
 35 H       -2.4930    -1.8560    -0.7110 H     1 <1>   0.0800 
 36 H        1.1600     4.0230    -1.3810 H     1 <1>   0.1500 
 37 H       -6.9930    -3.6860     0.2670 H     1 <1>   0.0800 
 38 H       -5.9400    -5.0100    -0.1560 H     1 <1>   0.0800 
 39 H       -6.6860    -4.0580    -1.4220 H     1 <1>   0.0800 
 40 H       -6.2510    -1.4450     0.1140 H     1 <1>   0.0800 
 41 H       -6.0300    -1.6450    -1.6140 H     1 <1>   0.0800 
 42 H       -4.7160    -1.0550    -0.6200 H     1 <1>   0.0800 
@<TRIPOS>BOND
  1   1   2  2   
  2   1   3  2   
  3   1   4  am  
  4   1   5  1   
  5   4   6  1   
  6   4  25  1   
  7   5   7  ar  
  8   5   8  ar  
  9   6   9  1   
 10   6  10  1   
 11   6  26  1   
 12   7  11  1   
 13   7  12  ar  
 14   8  13  ar  
 15   8  27  1   
 16   9  14  1   
 17   9  15  1   
 18   9  28  1   
 19  10  16  1   
 20  10  29  1   
 21  10  30  1   
 22  12  17  ar  
 23  12  31  1   
 24  13  17  ar  
 25  13  18  1   
 26  14  16  1   
 27  14  32  1   
 28  14  33  1   
 29  15  19  1   
 30  15  34  1   
 31  15  35  1   
 32  17  36  1   
 33  19  20  2   
 34  19  21  2   
 35  19  22  am  
 36  22  23  1   
 37  22  24  1   
 38  23  37  1   
 39  23  38  1   
 40  23  39  1   
 41  24  40  1   
 42  24  41  1   
 43  24  42  1   
@<TRIPOS>SUBSTRUCTURE
  1 ****   4 GROUP 4 **** **** 0

# MOE 2024.06 (io_trps.svl 2023.06)
