@<TRIPOS>MOLECULE
NONAME
47 48 1 0 0 
SMALL
USER_CHARGES


@<TRIPOS>ATOM
  1 O        1.6410     0.5470    -0.1700 O.co2 1 <1>  -0.9000 
  2 C        2.3290    -0.4750    -0.1840 C.2   1 <1>   0.9060 
  3 O        2.2670    -1.2890    -1.1100 O.co2 1 <1>  -0.9000 
  4 C        3.4360    -0.6460     0.8590 C.3   1 <1>  -0.1860 
  5 C        4.7340    -1.0790     0.1710 C.3   1 <1>   0.2000 
  6 C        3.7550     0.6840     1.5810 C.3   1 <1>  -0.1600 
  7 O        4.5500    -2.3010    -0.4380 O.3   1 <1>  -0.6800 
  8 C        5.1090    -0.0370    -0.8960 C.3   1 <1>   0.3430 
  9 C        4.1340     1.7700     0.5640 C.3   1 <1>   0.3430 
 10 N        5.2790     1.3410    -0.3080 N.4   1 <1>  -0.9590 
 11 C        5.4650     2.3260    -1.4000 C.3   1 <1>   0.4860 
 12 C        5.8970     3.6530    -0.7920 C.ar  1 <1>  -0.1430 
 13 C        7.1700     3.8080    -0.2320 C.ar  1 <1>  -0.1430 
 14 C        4.9950     4.7150    -0.7860 C.ar  1 <1>  -0.1430 
 15 C        7.5120     5.0110     0.3870 C.ar  1 <1>  -0.1430 
 16 C        8.2120     2.6830    -0.2910 C.3   1 <1>  -0.0970 
 17 C        5.3550     5.9080    -0.1910 C.ar  1 <1>  -0.1500 
 18 C        3.6090     4.6260    -1.4230 C.3   1 <1>  -0.0970 
 19 C        6.6020     6.0660     0.3990 C.ar  1 <1>   0.0830 
 20 C        8.8820     5.2010     1.0500 C.3   1 <1>  -0.0970 
 21 O        6.9760     7.2340     0.9880 O.3   1 <1>  -0.3630 
 22 C        6.1530     8.3800     0.9950 C.3   1 <1>   0.0400 
 23 H        3.1280    -1.3860     1.5730 H     1 <1>   0.0800 
 24 H        5.5340    -1.1980     0.8800 H     1 <1>   0.0800 
 25 H        4.5450     0.5550     2.2990 H     1 <1>   0.0800 
 26 H        2.8800     1.0120     2.1150 H     1 <1>   0.0800 
 27 H        3.6400    -2.2620    -0.8670 H     1 <1>   0.4000 
 28 H        4.3200    -0.0150    -1.6310 H     1 <1>   0.0800 
 29 H        6.0190    -0.3470    -1.3800 H     1 <1>   0.0800 
 30 H        4.3870     2.6800     1.0840 H     1 <1>   0.0800 
 31 H        3.2750     1.9790    -0.0540 H     1 <1>   0.0800 
 32 H        6.1210     1.3710     0.2740 H     1 <1>   0.4500 
 33 H        6.2200     1.9860    -2.0880 H     1 <1>   0.0800 
 34 H        4.5440     2.4360    -1.9480 H     1 <1>   0.0800 
 35 H        7.9970     1.9440    -1.0360 H     1 <1>   0.0800 
 36 H        8.2880     2.2020     0.6670 H     1 <1>   0.0800 
 37 H        9.1760     3.0880    -0.5440 H     1 <1>   0.0800 
 38 H        4.6520     6.7180    -0.1920 H     1 <1>   0.1500 
 39 H        3.1020     5.5730    -1.3790 H     1 <1>   0.0800 
 40 H        2.9940     3.9060    -0.9150 H     1 <1>   0.0800 
 41 H        3.6890     4.3520    -2.4600 H     1 <1>   0.0800 
 42 H        9.2020     4.3080     1.5530 H     1 <1>   0.0800 
 43 H        8.8630     5.9780     1.7920 H     1 <1>   0.0800 
 44 H        9.6100     5.4680     0.3050 H     1 <1>   0.0800 
 45 H        6.6840     9.1680     1.4990 H     1 <1>   0.0800 
 46 H        5.2450     8.1540     1.5260 H     1 <1>   0.0800 
 47 H        5.9480     8.6690    -0.0200 H     1 <1>   0.0800 
@<TRIPOS>BOND
  1   1   2  ar  
  2   2   3  ar  
  3   2   4  1   
  4   4   5  1   
  5   4   6  1   
  6   4  23  1   
  7   5   7  1   
  8   5   8  1   
  9   5  24  1   
 10   6   9  1   
 11   6  25  1   
 12   6  26  1   
 13   7  27  1   
 14   8  10  1   
 15   8  28  1   
 16   8  29  1   
 17   9  10  1   
 18   9  30  1   
 19   9  31  1   
 20  10  11  1   
 21  10  32  1   
 22  11  12  1   
 23  11  33  1   
 24  11  34  1   
 25  12  13  ar  
 26  12  14  ar  
 27  13  15  ar  
 28  13  16  1   
 29  14  17  ar  
 30  14  18  1   
 31  15  19  ar  
 32  15  20  1   
 33  16  35  1   
 34  16  36  1   
 35  16  37  1   
 36  17  19  ar  
 37  17  38  1   
 38  18  39  1   
 39  18  40  1   
 40  18  41  1   
 41  19  21  1   
 42  20  42  1   
 43  20  43  1   
 44  20  44  1   
 45  21  22  1   
 46  22  45  1   
 47  22  46  1   
 48  22  47  1   
@<TRIPOS>SUBSTRUCTURE
  1 ****  10 GROUP 4 **** **** 0

# MOE 2024.06 (io_trps.svl 2023.06)
