@<TRIPOS>MOLECULE
NONAME
50 52 1 0 0 
SMALL
USER_CHARGES


@<TRIPOS>ATOM
  1 S       -0.2300     0.0800    -1.7180 S.3   1 <1>   0.1810 
  2 N        0.4510     1.4520    -1.0100 N.2   1 <1>  -0.2210 
  3 C        0.9400    -0.9860    -1.0250 C.2   1 <1>  -0.0450 
  4 N        1.4760     1.1460    -0.3490 N.2   1 <1>  -0.2270 
  5 C        1.7920    -0.1940    -0.3440 C.2   1 <1>   0.0460 
  6 C        0.7780    -2.3830    -1.2870 C.2   1 <1>   0.7150 
  7 C        3.0660    -0.5750     0.4150 C.3   1 <1>   0.1010 
  8 O        1.1000    -2.8440    -2.3620 O.2   1 <1>  -0.5700 
  9 N        0.2020    -3.2270    -0.3580 N.am  1 <1>  -0.6600 
 10 C        4.2960    -0.2340    -0.4330 C.3   1 <1>  -0.2400 
 11 C        3.1290    -2.0480     0.8430 C.3   1 <1>  -0.2400 
 12 C       -0.6360    -2.7550     0.7880 C.3   1 <1>   0.1400 
 13 C        0.1570    -4.7070    -0.5660 C.3   1 <1>   0.1400 
 14 C       -2.1000    -3.2360     0.6450 C.3   1 <1>   0.4230 
 15 C       -1.2980    -5.1790    -0.7380 C.3   1 <1>   0.3430 
 16 N       -2.1900    -4.7350     0.4040 N.4   1 <1>  -0.9590 
 17 C       -2.8230    -2.4540    -0.4760 C.3   1 <1>   0.1200 
 18 C       -3.6350    -5.1160     0.2100 C.3   1 <1>   0.4230 
 19 O       -4.1470    -2.8880    -0.5940 O.3   1 <1>  -0.5600 
 20 C       -4.3060    -4.2490    -0.8840 C.3   1 <1>   0.1200 
 21 C       -3.7680    -6.6240    -0.0580 C.3   1 <1>  -0.1600 
 22 C       -5.2120    -7.1240     0.1120 C.3   1 <1>  -0.1600 
 23 C       -5.2890    -8.6410    -0.0800 C.3   1 <1>  -0.2400 
 24 H        3.1010     0.0220     1.3120 H     1 <1>   0.0800 
 25 H        4.2930    -0.8020    -1.3460 H     1 <1>   0.0800 
 26 H        5.2000    -0.4510     0.1080 H     1 <1>   0.0800 
 27 H        4.2950     0.8120    -0.6830 H     1 <1>   0.0800 
 28 H        3.1800    -2.6950    -0.0140 H     1 <1>   0.0800 
 29 H        2.2720    -2.3020     1.4370 H     1 <1>   0.0800 
 30 H        4.0090    -2.2150     1.4380 H     1 <1>   0.0800 
 31 H       -0.2230    -3.1390     1.7050 H     1 <1>   0.0800 
 32 H       -0.6200    -1.6800     0.8610 H     1 <1>   0.0800 
 33 H        0.7250    -4.9910    -1.4370 H     1 <1>   0.0800 
 34 H        0.6050    -5.2010     0.2790 H     1 <1>   0.0800 
 35 H       -2.6100    -2.9990     1.5650 H     1 <1>   0.0800 
 36 H       -1.3040    -6.2540    -0.8140 H     1 <1>   0.0800 
 37 H       -1.6710    -4.7830    -1.6680 H     1 <1>   0.0800 
 38 H       -1.8650    -5.2070     1.2560 H     1 <1>   0.4500 
 39 H       -2.3330    -2.5770    -1.4270 H     1 <1>   0.0800 
 40 H       -2.8500    -1.4040    -0.2400 H     1 <1>   0.0800 
 41 H       -4.1600    -4.9110     1.1290 H     1 <1>   0.0800 
 42 H       -5.3640    -4.4420    -0.9190 H     1 <1>   0.0800 
 43 H       -3.8930    -4.4470    -1.8570 H     1 <1>   0.0800 
 44 H       -3.4430    -6.8580    -1.0570 H     1 <1>   0.0800 
 45 H       -3.1500    -7.1620     0.6400 H     1 <1>   0.0800 
 46 H       -5.5750    -6.8800     1.0970 H     1 <1>   0.0800 
 47 H       -5.8630    -6.6570    -0.6080 H     1 <1>   0.0800 
 48 H       -4.6810    -9.1510     0.6470 H     1 <1>   0.0800 
 49 H       -4.9590    -8.9190    -1.0660 H     1 <1>   0.0800 
 50 H       -6.3060    -8.9740     0.0400 H     1 <1>   0.0800 
@<TRIPOS>BOND
  1   1   2  1   
  2   1   3  1   
  3   2   4  2   
  4   3   5  2   
  5   3   6  1   
  6   4   5  1   
  7   5   7  1   
  8   6   8  2   
  9   6   9  am  
 10   7  10  1   
 11   7  11  1   
 12   7  24  1   
 13   9  12  1   
 14   9  13  1   
 15  10  25  1   
 16  10  26  1   
 17  10  27  1   
 18  11  28  1   
 19  11  29  1   
 20  11  30  1   
 21  12  14  1   
 22  12  31  1   
 23  12  32  1   
 24  13  15  1   
 25  13  33  1   
 26  13  34  1   
 27  14  16  1   
 28  14  17  1   
 29  14  35  1   
 30  15  16  1   
 31  15  36  1   
 32  15  37  1   
 33  16  18  1   
 34  16  38  1   
 35  17  19  1   
 36  17  39  1   
 37  17  40  1   
 38  18  20  1   
 39  18  21  1   
 40  18  41  1   
 41  19  20  1   
 42  20  42  1   
 43  20  43  1   
 44  21  22  1   
 45  21  44  1   
 46  21  45  1   
 47  22  23  1   
 48  22  46  1   
 49  22  47  1   
 50  23  48  1   
 51  23  49  1   
 52  23  50  1   
@<TRIPOS>SUBSTRUCTURE
  1 ****   9 GROUP 4 **** **** 0

# MOE 2024.06 (io_trps.svl 2023.06)
