@<TRIPOS>MOLECULE
NONAME
36 37 1 0 0 
SMALL
USER_CHARGES


@<TRIPOS>ATOM
  1 F       -1.5370     1.8340     2.1610 F     1 <1>  -0.1900 
  2 C       -1.7150     2.1290     0.8930 C.ar  1 <1>   0.1900 
  3 C       -0.6280     2.5000     0.1050 C.ar  1 <1>   0.1000 
  4 C       -2.9930     2.0610     0.3730 C.ar  1 <1>   0.1600 
  5 N        0.6970     2.6070     0.5300 N.pl3 1 <1>  -0.8380 
  6 C       -0.9510     2.7710    -1.2130 C.ar  1 <1>  -0.1500 
  7 N       -3.2960     2.3310    -0.8940 N.ar  1 <1>  -0.6200 
  8 C        1.0110     3.6660     1.5320 C.3   1 <1>   0.2090 
  9 C        1.3910     1.3190     0.8000 C.3   1 <1>   0.1290 
 10 C       -2.2610     2.6760    -1.6510 C.ar  1 <1>   0.1600 
 11 C        0.9310     5.0580     0.8870 C.3   1 <1>  -0.0800 
 12 C        1.9950     5.2060    -0.2160 C.3   1 <1>   0.1400 
 13 C        1.2700     6.1540     1.9180 C.3   1 <1>  -0.0990 
 14 N        3.0840     5.9530     0.4390 N.am  1 <1>  -0.6600 
 15 C        2.7100     6.4710     1.6300 C.2   1 <1>   0.5690 
 16 C        4.4310     6.0500    -0.1590 C.3   1 <1>   0.1400 
 17 O        3.4100     7.0950     2.3890 O.2   1 <1>  -0.5700 
 18 C        4.3820     6.9480    -1.3920 C.3   1 <1>  -0.2400 
 19 H       -3.7990     1.7710     1.0230 H     1 <1>   0.1500 
 20 H       -0.1700     3.0560    -1.8920 H     1 <1>   0.1500 
 21 H        2.0030     3.5130     1.9230 H     1 <1>   0.0800 
 22 H        0.3160     3.6030     2.3510 H     1 <1>   0.0800 
 23 H        1.0420     0.5640     0.1170 H     1 <1>   0.0800 
 24 H        1.1940     0.9960     1.8070 H     1 <1>   0.0800 
 25 H        2.4520     1.4420     0.6660 H     1 <1>   0.0800 
 26 H       -2.4740     2.8970    -2.6830 H     1 <1>   0.1500 
 27 H       -0.0580     5.2050     0.4920 H     1 <1>   0.0800 
 28 H        1.6090     5.7860    -1.0370 H     1 <1>   0.0800 
 29 H        2.3450     4.2550    -0.5790 H     1 <1>   0.0800 
 30 H        1.1440     5.8330     2.9350 H     1 <1>   0.0800 
 31 H        0.6870     7.0380     1.7410 H     1 <1>   0.0800 
 32 H        4.7770     5.0650    -0.4240 H     1 <1>   0.0800 
 33 H        5.1130     6.4660     0.5640 H     1 <1>   0.0800 
 34 H        3.7440     6.5240    -2.1460 H     1 <1>   0.0800 
 35 H        5.3710     7.0520    -1.8010 H     1 <1>   0.0800 
 36 H        4.0220     7.9240    -1.1200 H     1 <1>   0.0800 
@<TRIPOS>BOND
  1   1   2  1   
  2   2   3  ar  
  3   2   4  ar  
  4   3   5  1   
  5   3   6  ar  
  6   4   7  ar  
  7   4  19  1   
  8   5   8  1   
  9   5   9  1   
 10   6  10  ar  
 11   6  20  1   
 12   7  10  ar  
 13   8  11  1   
 14   8  21  1   
 15   8  22  1   
 16   9  23  1   
 17   9  24  1   
 18   9  25  1   
 19  10  26  1   
 20  11  12  1   
 21  11  13  1   
 22  11  27  1   
 23  12  14  1   
 24  12  28  1   
 25  12  29  1   
 26  13  15  1   
 27  13  30  1   
 28  13  31  1   
 29  14  15  am  
 30  14  16  1   
 31  15  17  2   
 32  16  18  1   
 33  16  32  1   
 34  16  33  1   
 35  18  34  1   
 36  18  35  1   
 37  18  36  1   
@<TRIPOS>SUBSTRUCTURE
  1 ****  11 GROUP 4 **** **** 0

# MOE 2024.06 (io_trps.svl 2023.06)
