@<TRIPOS>MOLECULE
NONAME
55 57 1 0 0 
SMALL
USER_CHARGES


@<TRIPOS>ATOM
  1 O        0.7320     0.4030     1.1060 O.3   1 <1>  -0.5600 
  2 C        1.4820     0.9350     0.0640 C.3   1 <1>   0.1200 
  3 C        0.5550    -0.9800     1.0080 C.3   1 <1>   0.1200 
  4 C        2.8900     0.3200     0.0910 C.3   1 <1>   0.1900 
  5 C        1.9110    -1.7350     0.9900 C.3   1 <1>   0.1900 
  6 N        2.8260    -1.1620    -0.0440 N.3   1 <1>  -0.8100 
  7 C        3.7490     0.9410    -1.0290 C.3   1 <1>   0.3430 
  8 C        1.6810    -3.2410     0.7310 C.3   1 <1>  -0.1600 
  9 C        4.1920    -1.7340    -0.0160 C.3   1 <1>   0.1100 
 10 N        5.1370     0.3560    -1.0730 N.4   1 <1>  -0.9590 
 11 C        0.6800    -3.9020     1.6950 C.3   1 <1>  -0.1600 
 12 C        5.0810    -1.1420    -1.1300 C.3   1 <1>   0.3430 
 13 C        5.9390     0.9220    -2.1900 C.3   1 <1>   0.4860 
 14 C        0.6320    -5.4180     1.4800 C.3   1 <1>  -0.2400 
 15 C        6.1110     2.4100    -1.9560 C.ar  1 <1>  -0.1440 
 16 C        7.0090     2.8670    -1.0040 C.ar  1 <1>  -0.1500 
 17 C        5.3710     3.3280    -2.6890 C.ar  1 <1>  -0.1500 
 18 C        7.1660     4.2240    -0.7710 C.ar  1 <1>   0.0820 
 19 C        5.5210     4.6840    -2.4590 C.ar  1 <1>  -0.1500 
 20 O        8.0700     4.5760     0.1760 O.3   1 <1>  -0.3620 
 21 C        6.4120     5.1360    -1.5020 C.ar  1 <1>  -0.1500 
 22 C        8.4040     5.9320     0.4000 C.3   1 <1>   0.1200 
 23 C        9.4950     5.9970     1.4680 C.3   1 <1>   0.1200 
 24 O        9.8760     7.3190     1.6550 O.3   1 <1>  -0.6800 
 25 H        0.9800     0.7290    -0.8660 H     1 <1>   0.0800 
 26 H        1.5270     2.0000     0.2130 H     1 <1>   0.0800 
 27 H       -0.0290    -1.2800     1.8590 H     1 <1>   0.0800 
 28 H       -0.0060    -1.1920     0.1150 H     1 <1>   0.0800 
 29 H        3.3320     0.5750     1.0390 H     1 <1>   0.0800 
 30 H        2.3590    -1.6200     1.9640 H     1 <1>   0.0800 
 31 H        3.8080     2.0060    -0.8740 H     1 <1>   0.0800 
 32 H        3.2520     0.7690    -1.9690 H     1 <1>   0.0800 
 33 H        1.3350    -3.3750    -0.2790 H     1 <1>   0.0800 
 34 H        2.6090    -3.7680     0.8430 H     1 <1>   0.0800 
 35 H        4.6450    -1.5650     0.9460 H     1 <1>   0.0800 
 36 H        4.1510    -2.7950    -0.1800 H     1 <1>   0.0800 
 37 H        5.6020     0.6340    -0.2000 H     1 <1>   0.4500 
 38 H        0.9660    -3.7010     2.7140 H     1 <1>   0.0800 
 39 H       -0.3100    -3.5090     1.5390 H     1 <1>   0.0800 
 40 H        4.6750    -1.4540    -2.0790 H     1 <1>   0.0800 
 41 H        6.0740    -1.5520    -1.0430 H     1 <1>   0.0800 
 42 H        6.9100     0.4550    -2.2250 H     1 <1>   0.0800 
 43 H        5.4430     0.7510    -3.1320 H     1 <1>   0.0800 
 44 H        1.5950    -5.8590     1.6660 H     1 <1>   0.0800 
 45 H        0.3340    -5.6460     0.4710 H     1 <1>   0.0800 
 46 H       -0.0800    -5.8610     2.1530 H     1 <1>   0.0800 
 47 H        7.6110     2.1870    -0.4270 H     1 <1>   0.1500 
 48 H        4.6760     3.0050    -3.4460 H     1 <1>   0.1500 
 49 H        4.9450     5.3950    -3.0280 H     1 <1>   0.1500 
 50 H        6.5040     6.1940    -1.3440 H     1 <1>   0.1500 
 51 H        8.7580     6.3470    -0.5270 H     1 <1>   0.0800 
 52 H        7.5220     6.4470     0.7390 H     1 <1>   0.0800 
 53 H       10.3620     5.4330     1.1720 H     1 <1>   0.0800 
 54 H        9.1190     5.6280     2.4070 H     1 <1>   0.0800 
 55 H       10.4030     7.6440     0.9000 H     1 <1>   0.4000 
@<TRIPOS>BOND
  1   1   2  1   
  2   1   3  1   
  3   2   4  1   
  4   2  25  1   
  5   2  26  1   
  6   3   5  1   
  7   3  27  1   
  8   3  28  1   
  9   4   6  1   
 10   4   7  1   
 11   4  29  1   
 12   5   6  1   
 13   5   8  1   
 14   5  30  1   
 15   6   9  1   
 16   7  10  1   
 17   7  31  1   
 18   7  32  1   
 19   8  11  1   
 20   8  33  1   
 21   8  34  1   
 22   9  12  1   
 23   9  35  1   
 24   9  36  1   
 25  10  12  1   
 26  10  13  1   
 27  10  37  1   
 28  11  14  1   
 29  11  38  1   
 30  11  39  1   
 31  12  40  1   
 32  12  41  1   
 33  13  15  1   
 34  13  42  1   
 35  13  43  1   
 36  14  44  1   
 37  14  45  1   
 38  14  46  1   
 39  15  16  ar  
 40  15  17  ar  
 41  16  18  ar  
 42  16  47  1   
 43  17  19  ar  
 44  17  48  1   
 45  18  20  1   
 46  18  21  ar  
 47  19  21  ar  
 48  19  49  1   
 49  20  22  1   
 50  21  50  1   
 51  22  23  1   
 52  22  51  1   
 53  22  52  1   
 54  23  24  1   
 55  23  53  1   
 56  23  54  1   
 57  24  55  1   
@<TRIPOS>SUBSTRUCTURE
  1 ****   7 GROUP 4 **** **** 0

# MOE 2024.06 (io_trps.svl 2023.06)
