@<TRIPOS>MOLECULE
NONAME
47 50 1 0 0 
SMALL
USER_CHARGES


@<TRIPOS>ATOM
  1 CL      -0.9420    -0.0820    -0.1690 Cl    1 <1>  -0.1770 
  2 C       -2.2800     1.0180     0.0250 C.ar  1 <1>   0.1770 
  3 C       -2.1120     2.3520    -0.2450 C.ar  1 <1>  -0.1500 
  4 C       -3.5020     0.5130     0.4540 C.ar  1 <1>  -0.1500 
  5 C       -3.1810     3.2520    -0.0940 C.ar  1 <1>   0.0000 
  6 C       -4.5650     1.3730     0.6090 C.ar  1 <1>  -0.1500 
  7 C       -4.4210     2.7410     0.3390 C.ar  1 <1>   0.3610 
  8 C       -3.0920     4.6540    -0.3500 C.ar  1 <1>  -0.1440 
  9 N       -5.4860     3.6100     0.4870 N.ar  1 <1>  -0.1790 
 10 C       -4.1900     5.4420    -0.1780 C.ar  1 <1>  -0.1500 
 11 C       -1.7730     5.2660    -0.8070 C.3   1 <1>  -0.0970 
 12 C       -5.4420     4.9210     0.2450 C.ar  1 <1>   0.4610 
 13 N       -6.5560     5.6700     0.4000 N.pl3 1 <1>  -0.8380 
 14 C       -7.8390     5.2260     1.0500 C.3   1 <1>   0.2090 
 15 C       -6.6500     7.0890    -0.1010 C.3   1 <1>   0.2090 
 16 C       -8.9780     5.1370     0.0080 C.3   1 <1>   0.0000 
 17 C       -8.0930     7.4960    -0.4530 C.3   1 <1>  -0.1600 
 18 C      -10.3340     5.0690     0.7360 C.3   1 <1>   0.2000 
 19 C       -8.8890     6.3090    -1.0190 C.3   1 <1>  -0.1600 
 20 C       -8.9940     3.7970    -0.7490 C.3   1 <1>  -0.1600 
 21 O      -10.7840     6.3110     1.1340 O.3   1 <1>  -0.6800 
 22 C      -11.3120     4.4130    -0.2390 C.3   1 <1>  -0.1600 
 23 C      -10.4390     3.6360    -1.2360 C.3   1 <1>  -0.1600 
 24 H       -1.1460     2.6920    -0.5740 H     1 <1>   0.1500 
 25 H       -3.5890    -0.5430     0.6550 H     1 <1>   0.1500 
 26 H       -5.5100     0.9810     0.9410 H     1 <1>   0.1500 
 27 H       -6.3850     3.2380     0.7640 H     1 <1>   0.4570 
 28 H       -4.1190     6.4980    -0.3550 H     1 <1>   0.1500 
 29 H       -1.8650     6.3280    -0.9520 H     1 <1>   0.0800 
 30 H       -1.4610     4.8300    -1.7390 H     1 <1>   0.0800 
 31 H       -1.0070     5.0980    -0.0690 H     1 <1>   0.0800 
 32 H       -7.7300     4.2940     1.5720 H     1 <1>   0.0800 
 33 H       -8.1080     5.9600     1.7950 H     1 <1>   0.0800 
 34 H       -6.2560     7.7650     0.6400 H     1 <1>   0.0800 
 35 H       -6.0610     7.1890    -0.9960 H     1 <1>   0.0800 
 36 H       -8.5800     7.8770     0.4280 H     1 <1>   0.0800 
 37 H       -8.0670     8.2970    -1.1710 H     1 <1>   0.0800 
 38 H      -10.2520     4.4560     1.6180 H     1 <1>   0.0800 
 39 H       -8.3780     5.9810    -1.9070 H     1 <1>   0.0800 
 40 H       -9.8660     6.6340    -1.3310 H     1 <1>   0.0800 
 41 H       -8.2900     3.7610    -1.5630 H     1 <1>   0.0800 
 42 H       -8.7790     2.9890    -0.0720 H     1 <1>   0.0800 
 43 H      -10.9960     6.8560     0.3530 H     1 <1>   0.4000 
 44 H      -11.9700     3.7480     0.2920 H     1 <1>   0.0800 
 45 H      -11.8980     5.1470    -0.7640 H     1 <1>   0.0800 
 46 H      -10.7230     2.5980    -1.2880 H     1 <1>   0.0800 
 47 H      -10.5440     4.0690    -2.2160 H     1 <1>   0.0800 
@<TRIPOS>BOND
  1   1   2  1   
  2   2   3  ar  
  3   2   4  ar  
  4   3   5  ar  
  5   3  24  1   
  6   4   6  ar  
  7   4  25  1   
  8   5   7  ar  
  9   5   8  ar  
 10   6   7  ar  
 11   6  26  1   
 12   7   9  ar  
 13   8  10  ar  
 14   8  11  1   
 15   9  12  ar  
 16   9  27  1   
 17  10  12  ar  
 18  10  28  1   
 19  11  29  1   
 20  11  30  1   
 21  11  31  1   
 22  12  13  1   
 23  13  14  1   
 24  13  15  1   
 25  14  16  1   
 26  14  32  1   
 27  14  33  1   
 28  15  17  1   
 29  15  34  1   
 30  15  35  1   
 31  16  18  1   
 32  16  19  1   
 33  16  20  1   
 34  17  19  1   
 35  17  36  1   
 36  17  37  1   
 37  18  21  1   
 38  18  22  1   
 39  18  38  1   
 40  19  39  1   
 41  19  40  1   
 42  20  23  1   
 43  20  41  1   
 44  20  42  1   
 45  21  43  1   
 46  22  23  1   
 47  22  44  1   
 48  22  45  1   
 49  23  46  1   
 50  23  47  1   
@<TRIPOS>SUBSTRUCTURE
  1 ****   9 GROUP 4 **** **** 0

# MOE 2024.06 (io_trps.svl 2023.06)
