@<TRIPOS>MOLECULE
NONAME
51 53 1 0 0 
SMALL
USER_CHARGES


@<TRIPOS>ATOM
  1 O       -0.6480     0.6430    -1.2100 O.2   1 <1>  -0.5700 
  2 C       -1.3170     1.2050    -0.3630 C.2   1 <1>   0.5440 
  3 N       -2.0940     0.4470     0.4880 N.am  1 <1>  -0.6600 
  4 C       -1.2840     2.6530    -0.2860 C.ar  1 <1>   0.0860 
  5 C       -1.9830    -1.0430     0.5510 C.3   1 <1>   0.1400 
  6 C       -3.2700     0.9780     1.2410 C.3   1 <1>   0.1400 
  7 C       -1.0500     3.3210     0.9160 C.ar  1 <1>  -0.1500 
  8 C       -1.4840     3.4360    -1.4220 C.ar  1 <1>  -0.1500 
  9 C       -3.3330    -1.7010     0.2220 C.3   1 <1>   0.1200 
 10 C       -4.5450     0.1980     0.8750 C.3   1 <1>   0.1200 
 11 C       -1.0320     4.7010     0.9800 C.ar  1 <1>  -0.1500 
 12 C       -1.4680     4.8160    -1.3580 C.ar  1 <1>  -0.1500 
 13 O       -4.3480    -1.1770     1.0330 O.3   1 <1>  -0.5600 
 14 C       -1.2370     5.4820    -0.1550 C.ar  1 <1>   0.0860 
 15 C       -1.2110     6.9290    -0.0740 C.2   1 <1>   0.5440 
 16 O       -2.0500     7.4910     0.6030 O.2   1 <1>  -0.5700 
 17 N       -0.2610     7.6870    -0.7250 N.am  1 <1>  -0.6600 
 18 C       -0.2550     9.1820    -0.5710 C.3   1 <1>   0.3200 
 19 C        0.9430     7.1060    -1.3850 C.3   1 <1>   0.1400 
 20 C        0.8690     9.6610     0.3360 C.2   1 <1>   0.2980 
 21 C        0.8590     7.3050    -2.8970 C.3   1 <1>  -0.2400 
 22 O        0.8350     9.3380     1.6050 O.3   1 <1>  -0.0190 
 23 N        1.8740    10.3570    -0.0260 N.2   1 <1>  -0.5650 
 24 N        1.9120     9.8750     2.0940 N.2   1 <1>  -0.4100 
 25 C        2.5040    10.4660     1.1360 C.2   1 <1>   0.3350 
 26 C        3.8090    11.2320     1.2610 C.3   1 <1>   0.0210 
 27 C        3.6020    12.7470     1.1300 C.3   1 <1>  -0.2400 
 28 H       -1.6830    -1.3320     1.5420 H     1 <1>   0.0800 
 29 H       -1.2370    -1.4020    -0.1360 H     1 <1>   0.0800 
 30 H       -3.4290     2.0180     1.0210 H     1 <1>   0.0800 
 31 H       -3.0890     0.8820     2.2970 H     1 <1>   0.0800 
 32 H       -0.8780     2.7420     1.8070 H     1 <1>   0.1500 
 33 H       -1.6550     2.9420    -2.3640 H     1 <1>   0.1500 
 34 H       -3.2820    -2.7600     0.4000 H     1 <1>   0.0800 
 35 H       -3.5920    -1.5340    -0.8100 H     1 <1>   0.0800 
 36 H       -4.8260     0.3910    -0.1460 H     1 <1>   0.0800 
 37 H       -5.3560     0.4900     1.5170 H     1 <1>   0.0800 
 38 H       -0.8580     5.1960     1.9210 H     1 <1>   0.1500 
 39 H       -1.6390     5.3950    -2.2480 H     1 <1>   0.1500 
 40 H       -1.1890     9.5320    -0.1700 H     1 <1>   0.0800 
 41 H       -0.1360     9.6350    -1.5370 H     1 <1>   0.0800 
 42 H        1.0240     6.0550    -1.1670 H     1 <1>   0.0800 
 43 H        1.8330     7.5790    -1.0050 H     1 <1>   0.0800 
 44 H       -0.0480     6.8810    -3.2860 H     1 <1>   0.0800 
 45 H        1.6920     6.8150    -3.3680 H     1 <1>   0.0800 
 46 H        0.9030     8.3500    -3.1470 H     1 <1>   0.0800 
 47 H        4.4830    10.8910     0.4970 H     1 <1>   0.0800 
 48 H        4.2500    11.0130     2.2170 H     1 <1>   0.0800 
 49 H        3.1800    12.9810     0.1680 H     1 <1>   0.0800 
 50 H        4.5410    13.2610     1.2310 H     1 <1>   0.0800 
 51 H        2.9300    13.0950     1.8950 H     1 <1>   0.0800 
@<TRIPOS>BOND
  1   1   2  2   
  2   2   3  am  
  3   2   4  1   
  4   3   5  1   
  5   3   6  1   
  6   4   7  ar  
  7   4   8  ar  
  8   5   9  1   
  9   5  28  1   
 10   5  29  1   
 11   6  10  1   
 12   6  30  1   
 13   6  31  1   
 14   7  11  ar  
 15   7  32  1   
 16   8  12  ar  
 17   8  33  1   
 18   9  13  1   
 19   9  34  1   
 20   9  35  1   
 21  10  13  1   
 22  10  36  1   
 23  10  37  1   
 24  11  14  ar  
 25  11  38  1   
 26  12  14  ar  
 27  12  39  1   
 28  14  15  1   
 29  15  16  2   
 30  15  17  am  
 31  17  18  1   
 32  17  19  1   
 33  18  20  1   
 34  18  40  1   
 35  18  41  1   
 36  19  21  1   
 37  19  42  1   
 38  19  43  1   
 39  20  22  1   
 40  20  23  2   
 41  21  44  1   
 42  21  45  1   
 43  21  46  1   
 44  22  24  1   
 45  23  25  1   
 46  24  25  2   
 47  25  26  1   
 48  26  27  1   
 49  26  47  1   
 50  26  48  1   
 51  27  49  1   
 52  27  50  1   
 53  27  51  1   
@<TRIPOS>SUBSTRUCTURE
  1 ****  14 GROUP 4 **** **** 0

# MOE 2024.06 (io_trps.svl 2023.06)
