@<TRIPOS>MOLECULE
NONAME
51 52 1 0 0 
SMALL
USER_CHARGES


@<TRIPOS>ATOM
  1 O        0.2280     0.6780     0.2960 O.2   1 <1>  -0.5700 
  2 C        0.9790    -0.2670     0.2490 C.2   1 <1>   0.5690 
  3 N        2.2980    -0.1550     0.6030 N.am  1 <1>  -0.6600 
  4 C        0.4000    -1.5810    -0.2250 C.3   1 <1>  -0.0990 
  5 C        2.8370     1.1350     1.1300 C.3   1 <1>   0.3200 
  6 C        3.3230    -1.2450     0.5230 C.3   1 <1>   0.0600 
  7 C        0.1170    -2.5010     0.9710 C.3   1 <1>   0.1760 
  8 C        3.8870     1.7130     0.1950 C.2   1 <1>   0.0060 
  9 N        0.0990    -3.9240     0.5240 N.pl3 1 <1>   0.3140 
 10 C       -1.1350    -2.0940     1.7690 C.3   1 <1>  -0.2400 
 11 N        5.1540     1.6970     0.4420 N.2   1 <1>  -0.3380 
 12 N        3.6240     2.3020    -0.9780 N.pl3 1 <1>   0.0480 
 13 N        1.2060    -4.6540     0.7370 N.2   1 <1>  -0.7070 
 14 C       -0.8340    -4.6480    -0.1370 C.2   1 <1>  -0.3320 
 15 N        5.7630     2.2860    -0.5870 N.2   1 <1>  -0.3380 
 16 C        4.8400     2.6370    -1.4130 C.2   1 <1>   0.0360 
 17 C        2.3370     2.5420    -1.6660 C.3   1 <1>   0.0960 
 18 C        0.9560    -5.8160     0.2370 C.2   1 <1>   0.1080 
 19 C       -0.3250    -5.9080    -0.3250 C.2   1 <1>  -0.0860 
 20 C       -2.1800    -4.1020    -0.6010 C.3   1 <1>  -0.0600 
 21 C        1.6590     3.8080    -1.1330 C.3   1 <1>  -0.2400 
 22 C        1.9810    -6.9290     0.2900 C.3   1 <1>  -0.0590 
 23 C       -0.8750    -7.1010    -0.9200 C.2   1 <1>   0.5950 
 24 O       -0.2150    -7.9390    -1.4810 O.2   1 <1>  -0.5700 
 25 C       -2.3610    -7.3730    -0.8260 C.3   1 <1>  -0.1790 
 26 H        1.0930    -2.0440    -0.9020 H     1 <1>   0.0800 
 27 H       -0.5060    -1.3860    -0.7670 H     1 <1>   0.0800 
 28 H        3.2870     0.9570     2.0910 H     1 <1>   0.0800 
 29 H        2.0510     1.8540     1.2740 H     1 <1>   0.0800 
 30 H        2.8780    -2.2130     0.3760 H     1 <1>   0.0800 
 31 H        3.8930    -1.2770     1.4350 H     1 <1>   0.0800 
 32 H        3.9970    -1.0480    -0.2930 H     1 <1>   0.0800 
 33 H        0.9490    -2.4240     1.6480 H     1 <1>   0.0800 
 34 H       -1.9960    -1.9960     1.1360 H     1 <1>   0.0800 
 35 H       -0.9680    -1.1410     2.2390 H     1 <1>   0.0800 
 36 H       -1.3330    -2.8180     2.5390 H     1 <1>   0.0800 
 37 H        5.0130     3.1400    -2.3460 H     1 <1>   0.1500 
 38 H        1.6980     1.6900    -1.5250 H     1 <1>   0.0800 
 39 H        2.5240     2.6460    -2.7190 H     1 <1>   0.0800 
 40 H       -2.0700    -3.1140    -1.0070 H     1 <1>   0.0800 
 41 H       -2.8720    -4.0690     0.2210 H     1 <1>   0.0800 
 42 H       -2.5970    -4.7150    -1.3770 H     1 <1>   0.0800 
 43 H        1.4240     3.6990    -0.0890 H     1 <1>   0.0800 
 44 H        0.7400     3.9760    -1.6650 H     1 <1>   0.0800 
 45 H        2.2950     4.6640    -1.2700 H     1 <1>   0.0800 
 46 H        2.8290    -6.6220     0.8750 H     1 <1>   0.0800 
 47 H        2.3120    -7.1650    -0.7050 H     1 <1>   0.0800 
 48 H        1.5500    -7.8060     0.7350 H     1 <1>   0.0800 
 49 H       -2.7880    -6.8440     0.0050 H     1 <1>   0.0800 
 50 H       -2.5210    -8.4260    -0.6810 H     1 <1>   0.0800 
 51 H       -2.8400    -7.0730    -1.7380 H     1 <1>   0.0800 
@<TRIPOS>BOND
  1   1   2  2   
  2   2   3  am  
  3   2   4  1   
  4   3   5  1   
  5   3   6  1   
  6   4   7  1   
  7   4  26  1   
  8   4  27  1   
  9   5   8  1   
 10   5  28  1   
 11   5  29  1   
 12   6  30  1   
 13   6  31  1   
 14   6  32  1   
 15   7   9  1   
 16   7  10  1   
 17   7  33  1   
 18   8  11  2   
 19   8  12  1   
 20   9  13  1   
 21   9  14  1   
 22  10  34  1   
 23  10  35  1   
 24  10  36  1   
 25  11  15  1   
 26  12  16  1   
 27  12  17  1   
 28  13  18  2   
 29  14  19  2   
 30  14  20  1   
 31  15  16  2   
 32  16  37  1   
 33  17  21  1   
 34  17  38  1   
 35  17  39  1   
 36  18  19  1   
 37  18  22  1   
 38  19  23  1   
 39  20  40  1   
 40  20  41  1   
 41  20  42  1   
 42  21  43  1   
 43  21  44  1   
 44  21  45  1   
 45  22  46  1   
 46  22  47  1   
 47  22  48  1   
 48  23  24  2   
 49  23  25  1   
 50  25  49  1   
 51  25  50  1   
 52  25  51  1   
@<TRIPOS>SUBSTRUCTURE
  1 ****   4 GROUP 4 **** **** 0

# MOE 2024.06 (io_trps.svl 2023.06)
