@<TRIPOS>MOLECULE
NONAME
45 47 1 0 0 
SMALL
USER_CHARGES


@<TRIPOS>ATOM
  1 S        0.0920     0.0900     0.0690 S.o2  1 <1>   1.3330 
  2 O       -0.6700     0.2680     1.2770 O.2   1 <1>  -0.6500 
  3 O        1.3210    -0.6650     0.0750 O.2   1 <1>  -0.6500 
  4 N        0.4640     1.6630    -0.3690 N.am  1 <1>  -0.9140 
  5 C       -0.9580    -0.4660    -1.2560 C.3   1 <1>  -0.1350 
  6 C        1.6980     2.1330     0.2160 C.3   1 <1>   0.2760 
  7 C        1.5470     3.6130     0.5570 C.3   1 <1>  -0.1600 
  8 C        2.8320     1.9430    -0.7940 C.3   1 <1>  -0.1600 
  9 C        2.8590     4.1740     1.1000 C.3   1 <1>   0.3430 
 10 C        4.1400     2.5000    -0.2460 C.3   1 <1>   0.3430 
 11 N        3.9560     3.9290     0.1220 N.4   1 <1>  -0.9590 
 12 C        5.2180     4.6040     0.5280 C.3   1 <1>   0.5230 
 13 C        5.1010     6.0720     0.1340 C.2   1 <1>   0.0070 
 14 N        4.1820     6.5210    -0.6570 N.2   1 <1>  -0.5650 
 15 N        5.9590     7.0310     0.5770 N.pl3 1 <1>   0.0330 
 16 C        4.4350     7.8580    -0.7470 C.ar  1 <1>   0.2270 
 17 C        5.5370     8.1900     0.0170 C.ar  1 <1>  -0.1520 
 18 C        3.7640     8.8460    -1.4630 C.ar  1 <1>  -0.1500 
 19 C        5.9980     9.5060     0.0920 C.ar  1 <1>  -0.1500 
 20 C        4.2120    10.1470    -1.3930 C.ar  1 <1>  -0.1500 
 21 C        5.3300    10.4820    -0.6160 C.ar  1 <1>  -0.1440 
 22 C        5.7850    11.9290    -0.5730 C.3   1 <1>  -0.0970 
 23 H       -0.2920     2.1840     0.0750 H     1 <1>   0.4200 
 24 H       -1.2850    -1.4700    -1.0680 H     1 <1>   0.0800 
 25 H       -0.4210    -0.4480    -2.1840 H     1 <1>   0.0800 
 26 H       -1.8190     0.1660    -1.3410 H     1 <1>   0.0800 
 27 H        1.9130     1.5890     1.1250 H     1 <1>   0.0800 
 28 H        0.7860     3.7360     1.3070 H     1 <1>   0.0800 
 29 H        1.2580     4.1740    -0.3160 H     1 <1>   0.0800 
 30 H        2.5920     2.4340    -1.7200 H     1 <1>   0.0800 
 31 H        2.9730     0.8980    -1.0020 H     1 <1>   0.0800 
 32 H        3.0920     3.7010     2.0400 H     1 <1>   0.0800 
 33 H        2.7500     5.2350     1.2680 H     1 <1>   0.0800 
 34 H        4.9090     2.4050    -0.9960 H     1 <1>   0.0800 
 35 H        4.4360     1.9310     0.6210 H     1 <1>   0.0800 
 36 H        3.6900     4.4720    -0.7230 H     1 <1>   0.4500 
 37 H        6.0550     4.1720     0.0040 H     1 <1>   0.0800 
 38 H        5.3760     4.5040     1.5890 H     1 <1>   0.0800 
 39 H        6.7720     6.9460     1.1950 H     1 <1>   0.2700 
 40 H        2.9100     8.5750    -2.0550 H     1 <1>   0.1500 
 41 H        6.8580     9.7440     0.6930 H     1 <1>   0.1500 
 42 H        3.7020    10.9200    -1.9420 H     1 <1>   0.1500 
 43 H        6.6480    12.0440     0.0580 H     1 <1>   0.0800 
 44 H        4.9950    12.5500    -0.1890 H     1 <1>   0.0800 
 45 H        6.0380    12.2630    -1.5630 H     1 <1>   0.0800 
@<TRIPOS>BOND
  1   1   2  2   
  2   1   3  2   
  3   1   4  am  
  4   1   5  1   
  5   4   6  1   
  6   4  23  1   
  7   5  24  1   
  8   5  25  1   
  9   5  26  1   
 10   6   7  1   
 11   6   8  1   
 12   6  27  1   
 13   7   9  1   
 14   7  28  1   
 15   7  29  1   
 16   8  10  1   
 17   8  30  1   
 18   8  31  1   
 19   9  11  1   
 20   9  32  1   
 21   9  33  1   
 22  10  11  1   
 23  10  34  1   
 24  10  35  1   
 25  11  12  1   
 26  11  36  1   
 27  12  13  1   
 28  12  37  1   
 29  12  38  1   
 30  13  14  2   
 31  13  15  1   
 32  14  16  1   
 33  15  17  1   
 34  15  39  1   
 35  16  17  ar  
 36  16  18  ar  
 37  17  19  ar  
 38  18  20  ar  
 39  18  40  1   
 40  19  21  ar  
 41  19  41  1   
 42  20  21  ar  
 43  20  42  1   
 44  21  22  1   
 45  22  43  1   
 46  22  44  1   
 47  22  45  1   
@<TRIPOS>SUBSTRUCTURE
  1 ****  11 GROUP 4 **** **** 0

# MOE 2024.06 (io_trps.svl 2023.06)
