@<TRIPOS>MOLECULE
NONAME
46 48 1 0 0 
SMALL
USER_CHARGES


@<TRIPOS>ATOM
  1 S        1.3960     1.6640    -0.1600 S.o2  1 <1>   1.3330 
  2 O        2.4370     2.4250     0.5000 O.2   1 <1>  -0.6500 
  3 O        0.7760     2.2410    -1.3270 O.2   1 <1>  -0.6500 
  4 N        1.9620     0.1100    -0.5130 N.am  1 <1>  -0.8490 
  5 C        0.1130     1.4030     1.0710 C.3   1 <1>  -0.0550 
  6 C        3.3640     0.1050    -0.9480 C.3   1 <1>   0.1160 
  7 C        1.1390    -0.6020    -1.5000 C.3   1 <1>   0.1160 
  8 C       -0.5540     2.6820     1.6470 C.3   1 <1>  -0.0800 
  9 C       -1.2420     3.5440     0.5820 C.3   1 <1>   0.2000 
 10 C        0.4360     3.6490     2.3080 C.3   1 <1>   0.3430 
 11 O       -2.3710     4.1200     1.1500 O.3   1 <1>  -0.6800 
 12 C       -0.2390     4.6490     0.2100 C.3   1 <1>   0.3430 
 13 N        0.8560     4.5880     1.2350 N.4   1 <1>  -0.9590 
 14 C        1.3390     5.9130     1.7010 C.3   1 <1>   0.5240 
 15 C        1.7840     6.7080     0.4940 C.2   1 <1>  -0.1810 
 16 C        2.9660     6.3350    -0.2460 C.ar  1 <1>   0.0000 
 17 C        1.1380     7.7850     0.0080 C.2   1 <1>  -0.1100 
 18 C        3.1830     7.1560    -1.3440 C.ar  1 <1>   0.0400 
 19 C        3.8860     5.3110    -0.0200 C.ar  1 <1>  -0.1500 
 20 S        1.9370     8.4060    -1.4330 S.3   1 <1>  -0.0800 
 21 C        4.2370     6.9960    -2.2230 C.ar  1 <1>  -0.1500 
 22 C        4.9500     5.1300    -0.8880 C.ar  1 <1>  -0.1500 
 23 C        5.1270     5.9650    -1.9860 C.ar  1 <1>  -0.1500 
 24 H       -0.6540     0.7880     0.6400 H     1 <1>   0.0800 
 25 H        0.5370     0.8440     1.8840 H     1 <1>   0.0800 
 26 H        3.6930    -0.9040    -1.1330 H     1 <1>   0.0800 
 27 H        3.9920     0.5250    -0.1800 H     1 <1>   0.0800 
 28 H        3.4810     0.6850    -1.8480 H     1 <1>   0.0800 
 29 H        1.5000    -1.6100    -1.6230 H     1 <1>   0.0800 
 30 H        1.1740    -0.1010    -2.4540 H     1 <1>   0.0800 
 31 H        0.1160    -0.6490    -1.1710 H     1 <1>   0.0800 
 32 H       -1.2710     2.3500     2.3790 H     1 <1>   0.0800 
 33 H       -1.5640     2.9870    -0.2830 H     1 <1>   0.0800 
 34 H        1.2820     3.1290     2.7290 H     1 <1>   0.0800 
 35 H       -0.0700     4.1940     3.0890 H     1 <1>   0.0800 
 36 H       -2.1900     4.6150     1.9720 H     1 <1>   0.4000 
 37 H       -0.7300     5.6080     0.2050 H     1 <1>   0.0800 
 38 H        0.1720     4.4630    -0.7690 H     1 <1>   0.0800 
 39 H        1.6700     4.1480     0.7570 H     1 <1>   0.4500 
 40 H        0.5470     6.4380     2.2080 H     1 <1>   0.0800 
 41 H        2.1680     5.7940     2.3800 H     1 <1>   0.0800 
 42 H        0.2530     8.3120     0.3190 H     1 <1>   0.1500 
 43 H        3.7900     4.6530     0.8240 H     1 <1>   0.1500 
 44 H        4.3550     7.6590    -3.0620 H     1 <1>   0.1500 
 45 H        5.6550     4.3360    -0.7130 H     1 <1>   0.1500 
 46 H        5.9600     5.8090    -2.6500 H     1 <1>   0.1500 
@<TRIPOS>BOND
  1   1   2  2   
  2   1   3  2   
  3   1   4  am  
  4   1   5  1   
  5   4   6  1   
  6   4   7  1   
  7   5   8  1   
  8   5  24  1   
  9   5  25  1   
 10   6  26  1   
 11   6  27  1   
 12   6  28  1   
 13   7  29  1   
 14   7  30  1   
 15   7  31  1   
 16   8   9  1   
 17   8  10  1   
 18   8  32  1   
 19   9  11  1   
 20   9  12  1   
 21   9  33  1   
 22  10  13  1   
 23  10  34  1   
 24  10  35  1   
 25  11  36  1   
 26  12  13  1   
 27  12  37  1   
 28  12  38  1   
 29  13  14  1   
 30  13  39  1   
 31  14  15  1   
 32  14  40  1   
 33  14  41  1   
 34  15  16  1   
 35  15  17  2   
 36  16  18  ar  
 37  16  19  ar  
 38  17  20  1   
 39  17  42  1   
 40  18  20  1   
 41  18  21  ar  
 42  19  22  ar  
 43  19  43  1   
 44  21  23  ar  
 45  21  44  1   
 46  22  23  ar  
 47  22  45  1   
 48  23  46  1   
@<TRIPOS>SUBSTRUCTURE
  1 ****  13 GROUP 4 **** **** 0

# MOE 2024.06 (io_trps.svl 2023.06)
