@<TRIPOS>MOLECULE
NONAME
46 48 1 0 0 
SMALL
USER_CHARGES


@<TRIPOS>ATOM
  1 O       -0.1210     0.5440     1.0380 O.2   1 <1>  -0.5700 
  2 C       -0.1970     1.7150     0.7070 C.2   1 <1>   0.7160 
  3 N       -1.4380     2.3200     0.7000 N.am  1 <1>  -0.6600 
  4 C        0.9980     2.4400     0.3210 C.2   1 <1>  -0.0860 
  5 C       -1.6950     3.5950    -0.0310 C.3   1 <1>   0.1400 
  6 C       -2.6170     1.6440     1.3160 C.3   1 <1>   0.1400 
  7 C        2.0170     2.0780    -0.5310 C.2   1 <1>  -0.3320 
  8 C        1.3540     3.7230     0.7880 C.2   1 <1>  -0.1500 
  9 C       -3.1240     3.6040    -0.5720 C.3   1 <1>  -0.1600 
 10 C       -3.6580     2.6800     1.7490 C.3   1 <1>  -0.1600 
 11 N        2.9410     3.0630    -0.5980 N.pl3 1 <1>   0.0330 
 12 C        2.1650     0.7840    -1.3140 C.3   1 <1>  -0.0600 
 13 C        2.5300     4.0720     0.2110 C.2   1 <1>  -0.3020 
 14 C       -4.1600     3.5600     0.5760 C.3   1 <1>   0.2800 
 15 O       -4.1900     4.8770     1.0840 O.3   1 <1>  -0.5600 
 16 C       -5.5720     3.0880     0.0970 C.3   1 <1>   0.2000 
 17 C       -5.3740     5.6190     1.0270 C.3   1 <1>   0.1200 
 18 O       -5.5140     1.8210    -0.5060 O.3   1 <1>  -0.6800 
 19 C       -6.3190     4.1410    -0.7840 C.3   1 <1>   0.2800 
 20 C       -5.9210     5.5750    -0.4000 C.3   1 <1>  -0.1600 
 21 O       -7.6690     4.0210    -0.5130 O.3   1 <1>  -0.6800 
 22 C       -6.1890     3.9330    -2.3000 C.3   1 <1>  -0.2400 
 23 H       -1.5560     4.4250     0.6410 H     1 <1>   0.0800 
 24 H       -1.0010     3.6950    -0.8490 H     1 <1>   0.0800 
 25 H       -3.0470     0.9630     0.6020 H     1 <1>   0.0800 
 26 H       -2.2990     1.0740     2.1730 H     1 <1>   0.0800 
 27 H        0.7710     4.2950     1.4890 H     1 <1>   0.1500 
 28 H       -3.2300     2.7540    -1.2190 H     1 <1>   0.0800 
 29 H       -3.2700     4.4850    -1.1680 H     1 <1>   0.0800 
 30 H       -3.2070     3.2960     2.5060 H     1 <1>   0.0800 
 31 H       -4.4800     2.1620     2.2070 H     1 <1>   0.0800 
 32 H        3.8040     3.0500    -1.1530 H     1 <1>   0.2700 
 33 H        1.3160     0.1430    -1.1530 H     1 <1>   0.0800 
 34 H        3.0480     0.2600    -0.9950 H     1 <1>   0.0800 
 35 H        2.2390     0.9920    -2.3660 H     1 <1>   0.0800 
 36 H        3.0980     4.9770     0.3370 H     1 <1>   0.1500 
 37 H       -6.1610     2.9510     0.9870 H     1 <1>   0.0800 
 38 H       -6.0760     5.2100     1.7340 H     1 <1>   0.0800 
 39 H       -5.1380     6.6290     1.3130 H     1 <1>   0.0800 
 40 H       -5.2510     1.9070    -1.4410 H     1 <1>   0.4000 
 41 H       -5.1500     5.9420    -1.0530 H     1 <1>   0.0800 
 42 H       -6.7590     6.2430    -0.4910 H     1 <1>   0.0800 
 43 H       -8.1850     4.5370    -1.1590 H     1 <1>   0.4000 
 44 H       -5.1570     3.9470    -2.5950 H     1 <1>   0.0800 
 45 H       -6.6940     4.7190    -2.8330 H     1 <1>   0.0800 
 46 H       -6.6160     2.9900    -2.5940 H     1 <1>   0.0800 
@<TRIPOS>BOND
  1   1   2  2   
  2   2   3  am  
  3   2   4  1   
  4   3   5  1   
  5   3   6  1   
  6   4   7  2   
  7   4   8  1   
  8   5   9  1   
  9   5  23  1   
 10   5  24  1   
 11   6  10  1   
 12   6  25  1   
 13   6  26  1   
 14   7  11  1   
 15   7  12  1   
 16   8  13  2   
 17   8  27  1   
 18   9  14  1   
 19   9  28  1   
 20   9  29  1   
 21  10  14  1   
 22  10  30  1   
 23  10  31  1   
 24  11  13  1   
 25  11  32  1   
 26  12  33  1   
 27  12  34  1   
 28  12  35  1   
 29  13  36  1   
 30  14  15  1   
 31  14  16  1   
 32  15  17  1   
 33  16  18  1   
 34  16  19  1   
 35  16  37  1   
 36  17  20  1   
 37  17  38  1   
 38  17  39  1   
 39  18  40  1   
 40  19  20  1   
 41  19  21  1   
 42  19  22  1   
 43  20  41  1   
 44  20  42  1   
 45  21  43  1   
 46  22  44  1   
 47  22  45  1   
 48  22  46  1   
@<TRIPOS>SUBSTRUCTURE
  1 ****   5 GROUP 4 **** **** 0

# MOE 2024.06 (io_trps.svl 2023.06)
