@<TRIPOS>MOLECULE
NONAME
46 48 1 0 0 
SMALL
USER_CHARGES


@<TRIPOS>ATOM
  1 O       -0.6710     0.3570    -1.4030 O.2   1 <1>  -0.5700 
  2 C       -1.6660    -0.2990    -1.2360 C.2   1 <1>   0.5690 
  3 N       -2.7700     0.1960    -0.6010 N.am  1 <1>  -0.3680 
  4 C       -1.7620    -1.7140    -1.7550 C.3   1 <1>  -0.0990 
  5 N       -3.9320    -0.4830    -0.3010 N.2   1 <1>  -0.5120 
  6 C       -2.7370    -2.5440    -0.8990 C.3   1 <1>  -0.0990 
  7 C       -3.9950    -1.7690    -0.4480 C.2   1 <1>   0.3890 
  8 C       -5.1700    -2.5880    -0.1660 C.2   1 <1>   0.6300 
  9 O       -5.0470    -3.8030    -0.0740 O.2   1 <1>  -0.5700 
 10 N       -6.4580    -2.0920     0.0160 N.am  1 <1>  -0.6600 
 11 C       -7.4980    -2.9330     0.6810 C.3   1 <1>   0.1400 
 12 C       -6.8900    -0.7350    -0.4340 C.3   1 <1>   0.1400 
 13 C       -8.5250    -2.0440     1.3850 C.3   1 <1>  -0.1600 
 14 C       -8.3750    -0.7520    -0.8000 C.3   1 <1>  -0.1600 
 15 C       -9.2760    -1.1050     0.4110 C.3   1 <1>   0.2800 
 16 O       -9.5250     0.0520     1.1620 O.3   1 <1>  -0.5600 
 17 C      -10.6220    -1.7450    -0.0070 C.3   1 <1>  -0.1600 
 18 C      -10.3820     1.0430     0.6690 C.3   1 <1>   0.1200 
 19 C      -11.6620    -0.7670    -0.5620 C.3   1 <1>   0.2800 
 20 C      -11.7570     0.4510     0.3610 C.3   1 <1>  -0.1600 
 21 O      -11.2400    -0.3290    -1.8080 O.3   1 <1>  -0.6800 
 22 C      -13.0340    -1.4550    -0.7440 C.3   1 <1>   0.1200 
 23 O      -13.9080    -0.6280    -1.4370 O.3   1 <1>  -0.6800 
 24 H       -2.6990     1.1870    -0.3480 H     1 <1>   0.3700 
 25 H       -0.7870    -2.1660    -1.7590 H     1 <1>   0.0800 
 26 H       -2.1200    -1.6660    -2.7670 H     1 <1>   0.0800 
 27 H       -2.2290    -2.8750    -0.0110 H     1 <1>   0.0800 
 28 H       -3.0150    -3.4200    -1.4590 H     1 <1>   0.0800 
 29 H       -7.0310    -3.5790     1.4060 H     1 <1>   0.0800 
 30 H       -7.9800    -3.5510    -0.0580 H     1 <1>   0.0800 
 31 H       -6.3200    -0.4370    -1.2980 H     1 <1>   0.0800 
 32 H       -6.7130    -0.0230     0.3560 H     1 <1>   0.0800 
 33 H       -7.9930    -1.4590     2.1140 H     1 <1>   0.0800 
 34 H       -9.2100    -2.6680     1.9280 H     1 <1>   0.0800 
 35 H       -8.5050    -1.4880    -1.5730 H     1 <1>   0.0800 
 36 H       -8.6310     0.1960    -1.2270 H     1 <1>   0.0800 
 37 H      -11.0600    -2.1960     0.8650 H     1 <1>   0.0800 
 38 H      -10.4540    -2.5410    -0.7100 H     1 <1>   0.0800 
 39 H       -9.9440     1.4990    -0.2000 H     1 <1>   0.0800 
 40 H      -10.4710     1.7980     1.4310 H     1 <1>   0.0800 
 41 H      -12.3910     1.2000    -0.0790 H     1 <1>   0.0800 
 42 H      -12.2090     0.1580     1.2910 H     1 <1>   0.0800 
 43 H      -10.3790     0.1140    -1.7120 H     1 <1>   0.4000 
 44 H      -13.4790    -1.6930     0.2070 H     1 <1>   0.0800 
 45 H      -12.9200    -2.3630    -1.3100 H     1 <1>   0.0800 
 46 H      -13.4050    -0.2310    -2.1800 H     1 <1>   0.4000 
@<TRIPOS>BOND
  1   1   2  2   
  2   2   3  am  
  3   2   4  1   
  4   3   5  1   
  5   3  24  1   
  6   4   6  1   
  7   4  25  1   
  8   4  26  1   
  9   5   7  2   
 10   6   7  1   
 11   6  27  1   
 12   6  28  1   
 13   7   8  1   
 14   8   9  2   
 15   8  10  am  
 16  10  11  1   
 17  10  12  1   
 18  11  13  1   
 19  11  29  1   
 20  11  30  1   
 21  12  14  1   
 22  12  31  1   
 23  12  32  1   
 24  13  15  1   
 25  13  33  1   
 26  13  34  1   
 27  14  15  1   
 28  14  35  1   
 29  14  36  1   
 30  15  16  1   
 31  15  17  1   
 32  16  18  1   
 33  17  19  1   
 34  17  37  1   
 35  17  38  1   
 36  18  20  1   
 37  18  39  1   
 38  18  40  1   
 39  19  20  1   
 40  19  21  1   
 41  19  22  1   
 42  20  41  1   
 43  20  42  1   
 44  21  43  1   
 45  22  23  1   
 46  22  44  1   
 47  22  45  1   
 48  23  46  1   
@<TRIPOS>SUBSTRUCTURE
  1 ****  12 GROUP 4 **** **** 0

# MOE 2024.06 (io_trps.svl 2023.06)
