@<TRIPOS>MOLECULE
NONAME
43 45 1 0 0 
SMALL
USER_CHARGES


@<TRIPOS>ATOM
  1 O       -2.6010     0.9740     0.8970 O.2   1 <1>  -0.5700 
  2 C       -2.8000     0.0830     0.0990 C.2   1 <1>   0.7800 
  3 O       -3.0700     0.3290    -1.1750 O.3   1 <1>  -0.4300 
  4 N       -2.8250    -1.2380     0.3740 N.am  1 <1>  -0.6600 
  5 C       -3.3600    -0.8730    -1.8650 C.3   1 <1>   0.1200 
  6 C       -3.2890    -1.9760    -0.8040 C.3   1 <1>   0.1400 
  7 C       -2.8370    -1.8500     1.7400 C.3   1 <1>   0.2010 
  8 C       -4.1090    -2.6590     2.0200 C.2   1 <1>   0.5690 
  9 O       -4.0240    -3.8630     1.9200 O.2   1 <1>  -0.5700 
 10 N       -5.2980    -2.0420     2.3300 N.am  1 <1>  -0.6600 
 11 C       -6.5810    -2.7890     2.2310 C.3   1 <1>   0.1400 
 12 C       -5.4280    -0.5670     2.5570 C.3   1 <1>   0.1400 
 13 C       -7.4320    -2.2300     1.0800 C.3   1 <1>  -0.1600 
 14 C       -6.8310    -0.0540     2.2120 C.3   1 <1>  -0.1600 
 15 C       -7.3500    -0.6980     0.9200 C.3   1 <1>   0.4180 
 16 O       -6.4330    -0.4510    -0.1240 O.3   1 <1>  -0.5600 
 17 C       -8.7180    -0.1280     0.5490 C.2   1 <1>  -0.2880 
 18 C       -6.4480     0.8280    -0.6970 C.3   1 <1>   0.1200 
 19 C       -8.9410     0.6680    -0.5000 C.2   1 <1>  -0.2760 
 20 C       -7.7890     1.0850    -1.3970 C.3   1 <1>  -0.0220 
 21 C      -10.3020     1.2100    -0.8950 C.3   1 <1>  -0.1020 
 22 H       -2.6220    -1.0160    -2.6340 H     1 <1>   0.0800 
 23 H       -4.3430    -0.8040    -2.2960 H     1 <1>   0.0800 
 24 H       -4.2660    -2.3980    -0.6350 H     1 <1>   0.0800 
 25 H       -2.5930    -2.7500    -1.0780 H     1 <1>   0.0800 
 26 H       -2.7290    -1.0830     2.4850 H     1 <1>   0.0800 
 27 H       -1.9920    -2.5090     1.8260 H     1 <1>   0.0800 
 28 H       -7.1090    -2.6830     3.1630 H     1 <1>   0.0800 
 29 H       -6.4080    -3.8400     2.0750 H     1 <1>   0.0800 
 30 H       -4.7280    -0.0410     1.9350 H     1 <1>   0.0800 
 31 H       -5.1980    -0.3400     3.5840 H     1 <1>   0.0800 
 32 H       -8.4480    -2.5230     1.2670 H     1 <1>   0.0800 
 33 H       -7.1390    -2.6990     0.1580 H     1 <1>   0.0800 
 34 H       -6.8190     1.0160     2.1260 H     1 <1>   0.0800 
 35 H       -7.5010    -0.2890     3.0180 H     1 <1>   0.0800 
 36 H       -9.4960    -0.4350     1.2230 H     1 <1>   0.1500 
 37 H       -5.6430     0.8880    -1.4060 H     1 <1>   0.0800 
 38 H       -6.2740     1.5580     0.0730 H     1 <1>   0.0800 
 39 H       -7.8280     0.5330    -2.3190 H     1 <1>   0.0800 
 40 H       -7.8570     2.1320    -1.6290 H     1 <1>   0.0800 
 41 H      -10.5540     0.8850    -1.8890 H     1 <1>   0.0800 
 42 H      -10.2970     2.2850    -0.8700 H     1 <1>   0.0800 
 43 H      -11.0600     0.8560    -0.2190 H     1 <1>   0.0800 
@<TRIPOS>BOND
  1   1   2  2   
  2   2   3  1   
  3   2   4  am  
  4   3   5  1   
  5   4   6  1   
  6   4   7  1   
  7   5   6  1   
  8   5  22  1   
  9   5  23  1   
 10   6  24  1   
 11   6  25  1   
 12   7   8  1   
 13   7  26  1   
 14   7  27  1   
 15   8   9  2   
 16   8  10  am  
 17  10  11  1   
 18  10  12  1   
 19  11  13  1   
 20  11  28  1   
 21  11  29  1   
 22  12  14  1   
 23  12  30  1   
 24  12  31  1   
 25  13  15  1   
 26  13  32  1   
 27  13  33  1   
 28  14  15  1   
 29  14  34  1   
 30  14  35  1   
 31  15  16  1   
 32  15  17  1   
 33  16  18  1   
 34  17  19  2   
 35  17  36  1   
 36  18  20  1   
 37  18  37  1   
 38  18  38  1   
 39  19  20  1   
 40  19  21  1   
 41  20  39  1   
 42  20  40  1   
 43  21  41  1   
 44  21  42  1   
 45  21  43  1   
@<TRIPOS>SUBSTRUCTURE
  1 ****  16 GROUP 4 **** **** 0

# MOE 2024.06 (io_trps.svl 2023.06)
