@<TRIPOS>MOLECULE
NONAME
43 44 1 0 0 
SMALL
USER_CHARGES


@<TRIPOS>ATOM
  1 CL       1.8590    -1.3910    -3.3250 Cl    1 <1>  -0.1770 
  2 C        2.0380    -1.8360    -1.6510 C.ar  1 <1>   0.1770 
  3 C        1.9610    -0.8620    -0.6760 C.ar  1 <1>  -0.1500 
  4 C        2.2460    -3.1670    -1.3310 C.ar  1 <1>  -0.1500 
  5 C        2.1000    -1.2510     0.6410 C.ar  1 <1>   0.1770 
  6 C        2.3710    -3.5510     0.0000 C.ar  1 <1>  -0.1440 
  7 CL       2.0040    -0.0540     1.9040 Cl    1 <1>  -0.1770 
  8 C        2.3080    -2.5750     0.9880 C.ar  1 <1>  -0.1500 
  9 C        2.5650    -5.0170     0.3680 C.3   1 <1>   0.4870 
 10 N        1.2470    -5.6720     0.5610 N.4   1 <1>  -0.9590 
 11 C        0.4250    -5.7230    -0.6860 C.3   1 <1>   0.3430 
 12 C        0.4500    -5.1170     1.6900 C.3   1 <1>   0.3430 
 13 C       -0.6900    -6.7520    -0.4780 C.3   1 <1>   0.2000 
 14 C       -0.7830    -5.9840     1.9520 C.3   1 <1>  -0.1600 
 15 O       -0.0080    -7.9310    -0.1810 O.3   1 <1>  -0.6800 
 16 C       -1.6300    -6.3640     0.7000 C.3   1 <1>  -0.1060 
 17 C       -2.4790    -7.6060     1.0710 C.2   1 <1>   0.9060 
 18 C       -2.6100    -5.2000     0.3110 C.3   1 <1>  -0.1600 
 19 O       -3.7070    -7.5350     1.1210 O.co2 1 <1>  -0.9000 
 20 O       -1.8850    -8.6650     1.3180 O.co2 1 <1>  -0.9000 
 21 C       -2.0900    -3.8500    -0.2170 C.3   1 <1>  -0.1600 
 22 C       -3.2350    -2.8390    -0.3180 C.3   1 <1>  -0.2400 
 23 H        1.7990     0.1690    -0.9350 H     1 <1>   0.1500 
 24 H        2.3070    -3.8820    -2.1330 H     1 <1>   0.1500 
 25 H        2.4160    -2.8200     2.0300 H     1 <1>   0.1500 
 26 H        3.1450    -5.0890     1.2740 H     1 <1>   0.0800 
 27 H        3.1090    -5.5180    -0.4170 H     1 <1>   0.0800 
 28 H        1.3700    -6.6830     0.7640 H     1 <1>   0.4500 
 29 H        0.0340    -4.7520    -0.9150 H     1 <1>   0.0800 
 30 H        1.0290    -6.0490    -1.5160 H     1 <1>   0.0800 
 31 H        1.0500    -5.0910     2.5850 H     1 <1>   0.0800 
 32 H        0.1500    -4.1090     1.4640 H     1 <1>   0.0800 
 33 H       -1.2590    -6.9140    -1.3780 H     1 <1>   0.0800 
 34 H       -0.4340    -6.8880     2.4220 H     1 <1>   0.0800 
 35 H       -1.4140    -5.5000     2.6770 H     1 <1>   0.0800 
 36 H       -0.6490    -8.4990     0.3670 H     1 <1>   0.4000 
 37 H       -3.2890    -5.5840    -0.4350 H     1 <1>   0.0800 
 38 H       -3.2220    -5.0000     1.1760 H     1 <1>   0.0800 
 39 H       -1.3440    -3.4360     0.4320 H     1 <1>   0.0800 
 40 H       -1.6840    -3.9710    -1.2050 H     1 <1>   0.0800 
 41 H       -3.6670    -2.6590     0.6510 H     1 <1>   0.0800 
 42 H       -4.0060    -3.2090    -0.9720 H     1 <1>   0.0800 
 43 H       -2.8740    -1.9040    -0.7100 H     1 <1>   0.0800 
@<TRIPOS>BOND
  1   1   2  1   
  2   2   3  ar  
  3   2   4  ar  
  4   3   5  ar  
  5   3  23  1   
  6   4   6  ar  
  7   4  24  1   
  8   5   7  1   
  9   5   8  ar  
 10   6   8  ar  
 11   6   9  1   
 12   8  25  1   
 13   9  10  1   
 14   9  26  1   
 15   9  27  1   
 16  10  11  1   
 17  10  12  1   
 18  10  28  1   
 19  11  13  1   
 20  11  29  1   
 21  11  30  1   
 22  12  14  1   
 23  12  31  1   
 24  12  32  1   
 25  13  15  1   
 26  13  16  1   
 27  13  33  1   
 28  14  16  1   
 29  14  34  1   
 30  14  35  1   
 31  15  36  1   
 32  16  17  1   
 33  16  18  1   
 34  17  19  ar  
 35  17  20  ar  
 36  18  21  1   
 37  18  37  1   
 38  18  38  1   
 39  21  22  1   
 40  21  39  1   
 41  21  40  1   
 42  22  41  1   
 43  22  42  1   
 44  22  43  1   
@<TRIPOS>SUBSTRUCTURE
  1 ****  11 GROUP 4 **** **** 0

# MOE 2024.06 (io_trps.svl 2023.06)
