@<TRIPOS>MOLECULE
NONAME
51 55 1 0 0 
SMALL
USER_CHARGES


@<TRIPOS>ATOM
  1 O        1.8360     0.5240     0.6710 O.2   1 <1>  -0.5700 
  2 C        2.2300    -0.1860    -0.2400 C.2   1 <1>   0.7150 
  3 N        3.0150     0.3880    -1.2250 N.am  1 <1>  -0.6600 
  4 C        1.8490    -1.5790    -0.2330 C.2   1 <1>   0.0550 
  5 C        3.9410    -0.4300    -2.0820 C.3   1 <1>   0.1400 
  6 C        3.0540     1.8690    -1.3870 C.3   1 <1>   0.1400 
  7 O        1.8270    -2.3150    -1.3230 O.3   1 <1>  -0.0190 
  8 C        1.4330    -2.3880     0.7670 C.2   1 <1>  -0.1500 
  9 C        5.3030     0.2270    -2.3570 C.3   1 <1>   0.1400 
 10 C        4.1280     2.5000    -0.4880 C.3   1 <1>  -0.1600 
 11 N        1.4430    -3.5360    -1.1080 N.2   1 <1>  -0.4100 
 12 C        1.1970    -3.6080     0.1520 C.2   1 <1>   0.2030 
 13 N        5.8700     0.8330    -1.1180 N.am  1 <1>  -0.6600 
 14 C        5.5700     2.2810    -0.9580 C.3   1 <1>   0.1400 
 15 C        0.7080    -4.8620     0.8550 C.3   1 <1>  -0.0140 
 16 C        6.4900     0.0310    -0.1890 C.2   1 <1>   0.5690 
 17 C        1.3040    -5.2900     2.1630 C.3   1 <1>  -0.2000 
 18 C        1.5910    -6.0710     0.9190 C.3   1 <1>  -0.2000 
 19 O        6.6510    -1.1500    -0.4000 O.2   1 <1>  -0.5700 
 20 C        6.9520     0.5610     1.1540 C.3   1 <1>   0.0810 
 21 C        8.3610     1.1050     1.0750 C.2   1 <1>   0.2980 
 22 O        8.6280     2.0640     0.2010 O.3   1 <1>  -0.2800 
 23 N        9.3480     0.7390     1.8020 N.2   1 <1>  -0.5650 
 24 C        9.9070     2.3370     0.3650 C.ar  1 <1>   0.1400 
 25 C       10.3740     1.5170     1.3620 C.ar  1 <1>   0.2270 
 26 C       10.7210     3.2530    -0.2860 C.ar  1 <1>  -0.1500 
 27 C       11.7080     1.5900     1.7500 C.ar  1 <1>  -0.1500 
 28 C       12.0470     3.3250     0.1000 C.ar  1 <1>  -0.1500 
 29 C       12.5370     2.4960     1.1150 C.ar  1 <1>  -0.1500 
 30 H        3.4570    -0.6470    -3.0180 H     1 <1>   0.0800 
 31 H        4.1400    -1.3690    -1.5950 H     1 <1>   0.0800 
 32 H        2.0930     2.2710    -1.1100 H     1 <1>   0.0800 
 33 H        3.2230     2.1240    -2.4180 H     1 <1>   0.0800 
 34 H        1.3060    -2.1530     1.8070 H     1 <1>   0.1500 
 35 H        5.1990     0.9750    -3.1220 H     1 <1>   0.0800 
 36 H        5.9810    -0.5200    -2.7340 H     1 <1>   0.0800 
 37 H        4.0120     2.1370     0.5180 H     1 <1>   0.0800 
 38 H        3.9540     3.5600    -0.4580 H     1 <1>   0.0800 
 39 H        6.2460     2.7320    -0.2540 H     1 <1>   0.0800 
 40 H        5.7240     2.7770    -1.9010 H     1 <1>   0.0800 
 41 H       -0.3430    -5.0290     0.7000 H     1 <1>   0.1000 
 42 H        0.6570    -5.7210     2.9080 H     1 <1>   0.1000 
 43 H        2.1020    -4.7100     2.5940 H     1 <1>   0.1000 
 44 H        2.5690    -6.0080     0.4730 H     1 <1>   0.1000 
 45 H        1.1410    -7.0390     0.7900 H     1 <1>   0.1000 
 46 H        6.9340    -0.2450     1.8630 H     1 <1>   0.0800 
 47 H        6.2860     1.3200     1.5110 H     1 <1>   0.0800 
 48 H       10.3180     3.8760    -1.0630 H     1 <1>   0.1500 
 49 H       12.0610     0.9420     2.5310 H     1 <1>   0.1500 
 50 H       12.7120     4.0220    -0.3800 H     1 <1>   0.1500 
 51 H       13.5730     2.5680     1.4000 H     1 <1>   0.1500 
@<TRIPOS>BOND
  1   1   2  2   
  2   2   3  am  
  3   2   4  1   
  4   3   5  1   
  5   3   6  1   
  6   4   7  1   
  7   4   8  2   
  8   5   9  1   
  9   5  30  1   
 10   5  31  1   
 11   6  10  1   
 12   6  32  1   
 13   6  33  1   
 14   7  11  1   
 15   8  12  1   
 16   8  34  1   
 17   9  13  1   
 18   9  35  1   
 19   9  36  1   
 20  10  14  1   
 21  10  37  1   
 22  10  38  1   
 23  11  12  2   
 24  12  15  1   
 25  13  14  1   
 26  13  16  am  
 27  14  39  1   
 28  14  40  1   
 29  15  17  1   
 30  15  18  1   
 31  15  41  1   
 32  16  19  2   
 33  16  20  1   
 34  17  18  1   
 35  17  42  1   
 36  17  43  1   
 37  18  44  1   
 38  18  45  1   
 39  20  21  1   
 40  20  46  1   
 41  20  47  1   
 42  21  22  1   
 43  21  23  2   
 44  22  24  1   
 45  23  25  1   
 46  24  25  ar  
 47  24  26  ar  
 48  25  27  ar  
 49  26  28  ar  
 50  26  48  1   
 51  27  29  ar  
 52  27  49  1   
 53  28  29  ar  
 54  28  50  1   
 55  29  51  1   
@<TRIPOS>SUBSTRUCTURE
  1 ****  16 GROUP 4 **** **** 0

# MOE 2024.06 (io_trps.svl 2023.06)
