@<TRIPOS>MOLECULE
NONAME
49 51 1 0 0 
SMALL
USER_CHARGES


@<TRIPOS>ATOM
  1 O        0.5630    -0.3910     1.0880 O.2   1 <1>  -0.5700 
  2 C        1.5350    -0.8900     0.5510 C.2   1 <1>   0.5440 
  3 N        2.6340    -0.0900     0.3060 N.am  1 <1>  -0.6600 
  4 C        1.5000    -2.2930     0.2030 C.ar  1 <1>   0.0860 
  5 C        4.0200    -0.6530     0.2350 C.3   1 <1>   0.1400 
  6 C        2.4510     1.3900     0.2740 C.3   1 <1>   0.1400 
  7 C        0.9220    -3.2190     1.0660 C.ar  1 <1>   0.1600 
  8 C        2.0130    -2.7910    -0.9920 C.ar  1 <1>  -0.1500 
  9 C        5.0510     0.1260     1.0660 C.3   1 <1>   0.1100 
 10 C        3.4940     2.1260    -0.5720 C.3   1 <1>  -0.1600 
 11 N        0.8440    -4.5240     0.8720 N.ar  1 <1>  -0.6200 
 12 C        1.9330    -4.1440    -1.2150 C.ar  1 <1>  -0.1500 
 13 N        5.6580     1.2250     0.2910 N.3   1 <1>  -0.8100 
 14 C        4.7940     2.4100     0.1840 C.3   1 <1>   0.1100 
 15 C        1.3520    -4.9860    -0.2670 C.ar  1 <1>   0.4100 
 16 C        6.9940     1.5880     0.8360 C.3   1 <1>   0.2900 
 17 N        1.2830    -6.3480    -0.4870 N.pl3 1 <1>  -0.8380 
 18 C        7.8360     2.5200    -0.0410 C.2   1 <1>   0.2980 
 19 C        0.2250    -7.1600     0.1750 C.3   1 <1>   0.1290 
 20 C        2.4730    -7.1130    -0.9400 C.3   1 <1>   0.1290 
 21 O        8.7900     3.1990     0.5150 O.3   1 <1>  -0.2800 
 22 N        7.7570     2.7500    -1.2990 N.2   1 <1>  -0.3380 
 23 C        9.3010     3.8700    -0.4650 C.2   1 <1>   0.2980 
 24 N        8.7160     3.6360    -1.5740 N.2   1 <1>  -0.3380 
 25 C       10.4640     4.8010    -0.2170 C.3   1 <1>  -0.0600 
 26 H        4.3460    -0.6890    -0.7900 H     1 <1>   0.0800 
 27 H        4.0030    -1.6600     0.6100 H     1 <1>   0.0800 
 28 H        2.4550     1.7660     1.2820 H     1 <1>   0.0800 
 29 H        1.4780     1.5980    -0.1400 H     1 <1>   0.0800 
 30 H        0.4990    -2.8430     1.9820 H     1 <1>   0.1500 
 31 H        2.4490    -2.1270    -1.7170 H     1 <1>   0.1500 
 32 H        5.8240    -0.5750     1.3280 H     1 <1>   0.0800 
 33 H        4.6090     0.4870     1.9790 H     1 <1>   0.0800 
 34 H        3.0720     3.0800    -0.8300 H     1 <1>   0.0800 
 35 H        3.6890     1.6090    -1.4940 H     1 <1>   0.0800 
 36 H        2.3030    -4.5710    -2.1270 H     1 <1>   0.1500 
 37 H        4.5760     2.8010     1.1640 H     1 <1>   0.0800 
 38 H        5.3170     3.1770    -0.3640 H     1 <1>   0.0800 
 39 H        7.5720     0.6930     0.9760 H     1 <1>   0.0800 
 40 H        6.8660     2.0500     1.7990 H     1 <1>   0.0800 
 41 H       -0.6720    -6.5760     0.2890 H     1 <1>   0.0800 
 42 H        0.5620    -7.4700     1.1490 H     1 <1>   0.0800 
 43 H       -0.0020    -8.0270    -0.4200 H     1 <1>   0.0800 
 44 H        3.3180    -6.4590    -1.0710 H     1 <1>   0.0800 
 45 H        2.2560    -7.6000    -1.8750 H     1 <1>   0.0800 
 46 H        2.7310    -7.8560    -0.2060 H     1 <1>   0.0800 
 47 H       10.1780     5.5580     0.4890 H     1 <1>   0.0800 
 48 H       10.7570     5.2710    -1.1380 H     1 <1>   0.0800 
 49 H       11.2960     4.2460     0.1740 H     1 <1>   0.0800 
@<TRIPOS>BOND
  1   1   2  2   
  2   2   3  am  
  3   2   4  1   
  4   3   5  1   
  5   3   6  1   
  6   4   7  ar  
  7   4   8  ar  
  8   5   9  1   
  9   5  26  1   
 10   5  27  1   
 11   6  10  1   
 12   6  28  1   
 13   6  29  1   
 14   7  11  ar  
 15   7  30  1   
 16   8  12  ar  
 17   8  31  1   
 18   9  13  1   
 19   9  32  1   
 20   9  33  1   
 21  10  14  1   
 22  10  34  1   
 23  10  35  1   
 24  11  15  ar  
 25  12  15  ar  
 26  12  36  1   
 27  13  14  1   
 28  13  16  1   
 29  14  37  1   
 30  14  38  1   
 31  15  17  1   
 32  16  18  1   
 33  16  39  1   
 34  16  40  1   
 35  17  19  1   
 36  17  20  1   
 37  18  21  1   
 38  18  22  2   
 39  19  41  1   
 40  19  42  1   
 41  19  43  1   
 42  20  44  1   
 43  20  45  1   
 44  20  46  1   
 45  21  23  1   
 46  22  24  1   
 47  23  24  2   
 48  23  25  1   
 49  25  47  1   
 50  25  48  1   
 51  25  49  1   
@<TRIPOS>SUBSTRUCTURE
  1 ****   5 GROUP 4 **** **** 0

# MOE 2024.06 (io_trps.svl 2023.06)
