@<TRIPOS>MOLECULE
NONAME
52 55 1 0 0 
SMALL
USER_CHARGES


@<TRIPOS>ATOM
  1 S       -0.7610    -0.8110    -1.3680 S.o2  1 <1>   1.4470 
  2 O       -1.3320    -2.1180    -1.6130 O.2   1 <1>  -0.6500 
  3 O       -0.7000     0.1470    -2.4520 O.2   1 <1>  -0.6500 
  4 N       -1.6930    -0.0950    -0.1450 N.am  1 <1>  -0.8490 
  5 C        0.8650    -1.0020    -0.5880 C.ar  1 <1>  -0.0090 
  6 C       -3.1290    -0.2980    -0.3790 C.3   1 <1>   0.1960 
  7 C       -1.3010     1.2920     0.1700 C.3   1 <1>   0.1960 
  8 C        2.0110    -0.4770    -1.1760 C.ar  1 <1>  -0.1500 
  9 C        0.9990    -1.6800     0.6200 C.ar  1 <1>  -0.1500 
 10 C       -3.9690     0.6470     0.4830 C.3   1 <1>  -0.1600 
 11 C       -2.2750     2.2990    -0.4400 C.3   1 <1>  -0.1600 
 12 C        3.2490    -0.6200    -0.5760 C.ar  1 <1>   0.0820 
 13 C        2.2330    -1.8250     1.2340 C.ar  1 <1>  -0.1500 
 14 C       -3.6840     2.1320     0.1570 C.3   1 <1>   0.2800 
 15 O        4.3400    -0.1030    -1.1940 O.3   1 <1>  -0.3630 
 16 C        3.3610    -1.2890     0.6430 C.ar  1 <1>   0.0820 
 17 O       -3.6500     2.7940     1.3990 O.3   1 <1>  -0.5600 
 18 C       -4.7310     2.7260    -0.8230 C.3   1 <1>  -0.1600 
 19 C        5.6050    -0.5450    -0.7360 C.3   1 <1>   0.1200 
 20 O        4.5580    -1.4230     1.2660 O.3   1 <1>  -0.3630 
 21 C       -4.5280     3.8690     1.6290 C.3   1 <1>   0.1200 
 22 C       -6.0810     3.1490    -0.1930 C.3   1 <1>   0.2800 
 23 C        5.6210    -0.6130     0.7980 C.3   1 <1>   0.1200 
 24 C       -5.9600     3.4210     1.3300 C.3   1 <1>   0.2000 
 25 O       -6.4110     4.3550    -0.7840 O.3   1 <1>  -0.6800 
 26 C       -7.2370     2.2090    -0.5630 C.3   1 <1>  -0.2400 
 27 O       -6.1890     2.2730     2.0870 O.3   1 <1>  -0.6800 
 28 H       -3.3570    -0.1250    -1.4190 H     1 <1>   0.0800 
 29 H       -3.3810    -1.3210    -0.1520 H     1 <1>   0.0800 
 30 H       -1.3030     1.4150     1.2400 H     1 <1>   0.0800 
 31 H       -0.3000     1.4950    -0.1750 H     1 <1>   0.0800 
 32 H        1.9460     0.0470    -2.1140 H     1 <1>   0.1500 
 33 H        0.1220    -2.0990     1.0860 H     1 <1>   0.1500 
 34 H       -3.7350     0.4380     1.5120 H     1 <1>   0.0800 
 35 H       -5.0050     0.4160     0.3320 H     1 <1>   0.0800 
 36 H       -2.2920     2.1470    -1.5050 H     1 <1>   0.0800 
 37 H       -1.9250     3.3000    -0.2660 H     1 <1>   0.0800 
 38 H        2.3240    -2.3480     2.1700 H     1 <1>   0.1500 
 39 H       -4.2760     3.5910    -1.2750 H     1 <1>   0.0800 
 40 H       -4.8980     2.0250    -1.6200 H     1 <1>   0.0800 
 41 H        5.7910    -1.5170    -1.1550 H     1 <1>   0.0800 
 42 H        6.3470     0.1440    -1.0970 H     1 <1>   0.0800 
 43 H       -4.4350     4.1660     2.6590 H     1 <1>   0.0800 
 44 H       -4.2420     4.6970     1.0030 H     1 <1>   0.0800 
 45 H        5.5010     0.3710     1.2160 H     1 <1>   0.0800 
 46 H        6.5420    -1.0380     1.1520 H     1 <1>   0.0800 
 47 H       -6.6810     4.1590     1.6340 H     1 <1>   0.0800 
 48 H       -6.6560     4.2050    -1.7160 H     1 <1>   0.4000 
 49 H       -7.0710     1.2290    -0.1580 H     1 <1>   0.0800 
 50 H       -7.3390     2.1180    -1.6290 H     1 <1>   0.0800 
 51 H       -8.1570     2.5800    -0.1460 H     1 <1>   0.0800 
 52 H       -5.3200     1.8300     2.1940 H     1 <1>   0.4000 
@<TRIPOS>BOND
  1   1   2  2   
  2   1   3  2   
  3   1   4  am  
  4   1   5  1   
  5   4   6  1   
  6   4   7  1   
  7   5   8  ar  
  8   5   9  ar  
  9   6  10  1   
 10   6  28  1   
 11   6  29  1   
 12   7  11  1   
 13   7  30  1   
 14   7  31  1   
 15   8  12  ar  
 16   8  32  1   
 17   9  13  ar  
 18   9  33  1   
 19  10  14  1   
 20  10  34  1   
 21  10  35  1   
 22  11  14  1   
 23  11  36  1   
 24  11  37  1   
 25  12  15  1   
 26  12  16  ar  
 27  13  16  ar  
 28  13  38  1   
 29  14  17  1   
 30  14  18  1   
 31  15  19  1   
 32  16  20  1   
 33  17  21  1   
 34  18  22  1   
 35  18  39  1   
 36  18  40  1   
 37  19  23  1   
 38  19  41  1   
 39  19  42  1   
 40  20  23  1   
 41  21  24  1   
 42  21  43  1   
 43  21  44  1   
 44  22  24  1   
 45  22  25  1   
 46  22  26  1   
 47  23  45  1   
 48  23  46  1   
 49  24  27  1   
 50  24  47  1   
 51  25  48  1   
 52  26  49  1   
 53  26  50  1   
 54  26  51  1   
 55  27  52  1   
@<TRIPOS>SUBSTRUCTURE
  1 ****   7 GROUP 4 **** **** 0

# MOE 2024.06 (io_trps.svl 2023.06)
