@<TRIPOS>MOLECULE
NONAME
48 50 1 0 0 
SMALL
USER_CHARGES


@<TRIPOS>ATOM
  1 S        0.5190    -0.0140     0.6100 S.o2  1 <1>   1.3330 
  2 O        0.4660     0.6290     1.9040 O.2   1 <1>  -0.6500 
  3 O        0.6340    -1.4540     0.5360 O.2   1 <1>  -0.6500 
  4 N       -0.8670     0.4330    -0.2620 N.am  1 <1>  -0.8490 
  5 C        1.8550     0.7280    -0.3240 C.3   1 <1>  -0.0550 
  6 C       -2.0630     0.4750     0.5840 C.3   1 <1>   0.1160 
  7 C       -1.1160    -0.4080    -1.4370 C.3   1 <1>   0.1160 
  8 C        3.2360     0.5410     0.3310 C.3   1 <1>  -0.0800 
  9 C        4.3550     1.1350    -0.4980 C.3   1 <1>   0.2200 
 10 C        3.6830    -0.9120     0.4690 C.3   1 <1>   0.1200 
 11 N        4.5040     2.5810    -0.2330 N.am  1 <1>  -0.7300 
 12 C        5.5670     0.3200    -0.0630 C.3   1 <1>   0.1200 
 13 O        5.0780    -0.9040     0.4020 O.3   1 <1>  -0.5600 
 14 C        3.9810     3.5930    -0.9830 C.2   1 <1>   0.6160 
 15 O        3.2890     3.2720    -1.9330 O.2   1 <1>  -0.5700 
 16 C        4.2070     4.9890    -0.6840 C.2   1 <1>   0.0290 
 17 C        5.0450     5.3790     0.4250 C.2   1 <1>   0.6160 
 18 C        3.6330     5.9870    -1.4440 C.2   1 <1>  -0.1500 
 19 O        5.6150     4.6020     1.1810 O.2   1 <1>  -0.5700 
 20 N        5.2420     6.7130     0.6790 N.am  1 <1>  -0.5390 
 21 C        3.8700     7.3380    -1.1310 C.2   1 <1>  -0.1380 
 22 C        4.6570     7.6720    -0.0920 C.2   1 <1>  -0.0290 
 23 C        3.3400     8.5570    -1.8420 C.3   1 <1>  -0.0220 
 24 C        4.7970     9.1600     0.0860 C.3   1 <1>  -0.0220 
 25 C        3.8080     9.7290    -0.9520 C.3   1 <1>  -0.1600 
 26 H        1.8730     0.3140    -1.3130 H     1 <1>   0.0800 
 27 H        1.6630     1.7790    -0.4180 H     1 <1>   0.0800 
 28 H       -2.9190     0.7800     0.0070 H     1 <1>   0.0800 
 29 H       -1.9250     1.1880     1.3810 H     1 <1>   0.0800 
 30 H       -2.2510    -0.4940     1.0160 H     1 <1>   0.0800 
 31 H       -1.9550    -0.0250    -1.9940 H     1 <1>   0.0800 
 32 H       -1.3270    -1.4220    -1.1380 H     1 <1>   0.0800 
 33 H       -0.2550    -0.4090    -2.0830 H     1 <1>   0.0800 
 34 H        3.2350     0.9820     1.3140 H     1 <1>   0.0800 
 35 H        4.1820     0.9640    -1.5480 H     1 <1>   0.0800 
 36 H        3.3230    -1.5150    -0.3470 H     1 <1>   0.0800 
 37 H        3.3770    -1.3480     1.4050 H     1 <1>   0.0800 
 38 H        5.0580     2.8500     0.5940 H     1 <1>   0.3700 
 39 H        6.0840     0.7920     0.7530 H     1 <1>   0.0800 
 40 H        6.2410     0.1370    -0.8810 H     1 <1>   0.0800 
 41 H        2.9990     5.7560    -2.2840 H     1 <1>   0.1500 
 42 H        5.8460     6.9290     1.4720 H     1 <1>   0.3700 
 43 H        3.7720     8.6230    -2.8250 H     1 <1>   0.0800 
 44 H        2.2670     8.5260    -1.9160 H     1 <1>   0.0800 
 45 H        4.5310     9.4590     1.0850 H     1 <1>   0.0800 
 46 H        5.8060     9.4620    -0.1330 H     1 <1>   0.0800 
 47 H        2.9570    10.1430    -0.4390 H     1 <1>   0.0800 
 48 H        4.2670    10.5030    -1.5420 H     1 <1>   0.0800 
@<TRIPOS>BOND
  1   1   2  2   
  2   1   3  2   
  3   1   4  am  
  4   1   5  1   
  5   4   6  1   
  6   4   7  1   
  7   5   8  1   
  8   5  26  1   
  9   5  27  1   
 10   6  28  1   
 11   6  29  1   
 12   6  30  1   
 13   7  31  1   
 14   7  32  1   
 15   7  33  1   
 16   8   9  1   
 17   8  10  1   
 18   8  34  1   
 19   9  11  1   
 20   9  12  1   
 21   9  35  1   
 22  10  13  1   
 23  10  36  1   
 24  10  37  1   
 25  11  14  am  
 26  11  38  1   
 27  12  13  1   
 28  12  39  1   
 29  12  40  1   
 30  14  15  2   
 31  14  16  1   
 32  16  17  1   
 33  16  18  2   
 34  17  19  2   
 35  17  20  am  
 36  18  21  1   
 37  18  41  1   
 38  20  22  1   
 39  20  42  1   
 40  21  22  2   
 41  21  23  1   
 42  22  24  1   
 43  23  25  1   
 44  23  43  1   
 45  23  44  1   
 46  24  25  1   
 47  24  45  1   
 48  24  46  1   
 49  25  47  1   
 50  25  48  1   
@<TRIPOS>SUBSTRUCTURE
  1 ****  14 GROUP 4 **** **** 0

# MOE 2024.06 (io_trps.svl 2023.06)
