@<TRIPOS>MOLECULE
NONAME
41 42 1 0 0 
SMALL
USER_CHARGES


@<TRIPOS>ATOM
  1 CL       1.0400    -2.1100     3.1250 Cl    1 <1>  -0.1770 
  2 C        1.6590    -1.8890     1.4990 C.ar  1 <1>   0.1770 
  3 C        1.3350    -2.8070     0.4930 C.ar  1 <1>   0.4100 
  4 C        2.4650    -0.8080     1.2380 C.ar  1 <1>  -0.1500 
  5 N        1.7800    -2.6810    -0.7520 N.ar  1 <1>  -0.6200 
  6 N        0.5230    -3.8910     0.7570 N.pl3 1 <1>  -0.8690 
  7 C        2.9300    -0.6780    -0.0650 C.ar  1 <1>  -0.1430 
  8 C        2.5550    -1.6350    -0.9960 C.ar  1 <1>   0.1600 
  9 C        0.6410    -5.1840     0.0330 C.3   1 <1>   0.2890 
 10 C        3.8360     0.4630    -0.5160 C.3   1 <1>   1.1640 
 11 C       -0.7390    -5.7390    -0.2770 C.3   1 <1>  -0.0800 
 12 C        1.1600    -6.2450     0.9930 C.3   1 <1>   0.1200 
 13 F        3.3280     1.1210    -1.5490 F     1 <1>  -0.3400 
 14 F        5.0270     0.0270    -0.9000 F     1 <1>  -0.3400 
 15 F        4.0530     1.3640     0.4340 F     1 <1>  -0.3400 
 16 C       -1.1250    -6.4390     1.0320 C.3   1 <1>   0.1200 
 17 C       -1.7520    -4.6880    -0.7820 C.3   1 <1>  -0.0550 
 18 O        0.0560    -6.6230     1.7590 O.3   1 <1>  -0.5600 
 19 S       -3.3110    -5.3780    -1.3410 S.o2  1 <1>   1.3330 
 20 O       -3.0210    -6.5140    -2.1880 O.2   1 <1>  -0.6500 
 21 O       -4.1560    -4.3160    -1.8400 O.2   1 <1>  -0.6500 
 22 N       -4.0370    -5.9670     0.0780 N.am  1 <1>  -0.8490 
 23 C       -5.0080    -7.0290    -0.2020 C.3   1 <1>   0.1160 
 24 C       -4.6720    -4.9170     0.8830 C.3   1 <1>   0.1160 
 25 H        2.7110    -0.1080     2.0190 H     1 <1>   0.1500 
 26 H        0.3080    -4.0440     1.7500 H     1 <1>   0.4000 
 27 H        2.9110    -1.5410    -2.0110 H     1 <1>   0.1500 
 28 H        1.2570    -5.1000    -0.8460 H     1 <1>   0.0800 
 29 H       -0.6280    -6.4980    -1.0330 H     1 <1>   0.0800 
 30 H        1.9410    -5.8790     1.6350 H     1 <1>   0.0800 
 31 H        1.5000    -7.1120     0.4550 H     1 <1>   0.0800 
 32 H       -1.5830    -7.3970     0.8540 H     1 <1>   0.0800 
 33 H       -1.7800    -5.8310     1.6310 H     1 <1>   0.0800 
 34 H       -1.3010    -4.1650    -1.6030 H     1 <1>   0.0800 
 35 H       -1.9380    -3.9640    -0.0140 H     1 <1>   0.0800 
 36 H       -5.4410    -7.3910     0.7140 H     1 <1>   0.0800 
 37 H       -4.5190    -7.8550    -0.6910 H     1 <1>   0.0800 
 38 H       -5.7900    -6.6610    -0.8450 H     1 <1>   0.0800 
 39 H       -5.0400    -5.3310     1.8060 H     1 <1>   0.0800 
 40 H       -5.4940    -4.4730     0.3450 H     1 <1>   0.0800 
 41 H       -3.9580    -4.1460     1.1190 H     1 <1>   0.0800 
@<TRIPOS>BOND
  1   1   2  1   
  2   2   3  ar  
  3   2   4  ar  
  4   3   5  ar  
  5   3   6  1   
  6   4   7  ar  
  7   4  25  1   
  8   5   8  ar  
  9   6   9  1   
 10   6  26  1   
 11   7   8  ar  
 12   7  10  1   
 13   8  27  1   
 14   9  11  1   
 15   9  12  1   
 16   9  28  1   
 17  10  13  1   
 18  10  14  1   
 19  10  15  1   
 20  11  16  1   
 21  11  17  1   
 22  11  29  1   
 23  12  18  1   
 24  12  30  1   
 25  12  31  1   
 26  16  18  1   
 27  16  32  1   
 28  16  33  1   
 29  17  19  1   
 30  17  34  1   
 31  17  35  1   
 32  19  20  2   
 33  19  21  2   
 34  19  22  am  
 35  22  23  1   
 36  22  24  1   
 37  23  36  1   
 38  23  37  1   
 39  23  38  1   
 40  24  39  1   
 41  24  40  1   
 42  24  41  1   
@<TRIPOS>SUBSTRUCTURE
  1 ****   6 GROUP 4 **** **** 0

# MOE 2024.06 (io_trps.svl 2023.06)
