@<TRIPOS>MOLECULE
NONAME
52 54 1 0 0 
SMALL
USER_CHARGES


@<TRIPOS>ATOM
  1 F       -0.9110    -0.0950    -0.3290 F     1 <1>  -0.1900 
  2 C       -1.8860     0.6620     0.0960 C.ar  1 <1>   0.1900 
  3 C       -2.9580     0.0810     0.7700 C.ar  1 <1>   0.0860 
  4 C       -1.7980     2.0160    -0.1620 C.ar  1 <1>  -0.1500 
  5 C       -3.9820     0.9390     1.1900 C.ar  1 <1>  -0.1440 
  6 C       -3.0000    -1.3450     1.0060 C.2   1 <1>   0.5440 
  7 C       -2.8220     2.8420     0.2620 C.ar  1 <1>  -0.1500 
  8 C       -3.9060     2.3010     0.9350 C.ar  1 <1>  -0.1500 
  9 C       -5.1890     0.3850     1.9380 C.3   1 <1>  -0.0960 
 10 O       -2.7420    -1.7740     2.1140 O.2   1 <1>  -0.5700 
 11 N       -3.3620    -2.2210     0.0090 N.am  1 <1>  -0.6600 
 12 C       -3.4420    -3.7020     0.2560 C.3   1 <1>   0.3640 
 13 C       -3.7790    -1.7540    -1.3500 C.3   1 <1>   0.1400 
 14 C       -2.1980    -4.4440    -0.2680 C.ar  1 <1>  -0.1430 
 15 C       -4.7610    -4.2920    -0.3430 C.3   1 <1>   0.2000 
 16 C       -4.3090    -2.9020    -2.2220 C.3   1 <1>   0.1200 
 17 C       -2.0980    -5.8110    -0.0290 C.ar  1 <1>  -0.1500 
 18 C       -1.1570    -3.8190    -0.9500 C.ar  1 <1>  -0.1500 
 19 O       -5.2450    -3.6380    -1.4990 O.3   1 <1>  -0.5600 
 20 C       -5.8990    -4.2530     0.6840 C.3   1 <1>   0.1200 
 21 C       -1.0170    -6.5460    -0.4850 C.ar  1 <1>   0.0830 
 22 C       -0.0620    -4.5400    -1.3940 C.ar  1 <1>  -0.1500 
 23 O       -5.6890    -5.2080     1.6760 O.3   1 <1>  -0.6800 
 24 O       -1.0330    -7.8820    -0.2500 O.3   1 <1>  -0.3630 
 25 C        0.0250    -5.9000    -1.1560 C.ar  1 <1>   0.0830 
 26 C       -1.0510    -8.7240    -1.3830 C.3   1 <1>   0.0400 
 27 O        1.1400    -6.5420    -1.5800 O.3   1 <1>  -0.3630 
 28 C        2.0020    -7.0120    -0.5680 C.3   1 <1>   0.0400 
 29 H       -0.9460     2.4130    -0.6840 H     1 <1>   0.1500 
 30 H       -2.7770     3.9020     0.0740 H     1 <1>   0.1500 
 31 H       -4.6950     2.9570     1.2620 H     1 <1>   0.1500 
 32 H       -5.8950     1.1610     2.1700 H     1 <1>   0.0800 
 33 H       -4.8710    -0.0710     2.8600 H     1 <1>   0.0800 
 34 H       -5.6860    -0.3600     1.3420 H     1 <1>   0.0800 
 35 H       -3.4630    -3.8820     1.3180 H     1 <1>   0.0800 
 36 H       -4.5540    -1.0150    -1.2470 H     1 <1>   0.0800 
 37 H       -2.9420    -1.2930    -1.8450 H     1 <1>   0.0800 
 38 H       -4.6050    -5.3160    -0.6260 H     1 <1>   0.0800 
 39 H       -3.5150    -3.5570    -2.5380 H     1 <1>   0.0800 
 40 H       -4.7990    -2.5100    -3.0960 H     1 <1>   0.0800 
 41 H       -2.8640    -6.3280     0.5180 H     1 <1>   0.1500 
 42 H       -1.1730    -2.7610    -1.1370 H     1 <1>   0.1500 
 43 H       -6.8430    -4.4650     0.2140 H     1 <1>   0.0800 
 44 H       -5.9390    -3.2860     1.1570 H     1 <1>   0.0800 
 45 H        0.7370    -4.0470    -1.9160 H     1 <1>   0.1500 
 46 H       -5.9100    -6.1030     1.3510 H     1 <1>   0.4000 
 47 H       -1.2290    -9.7300    -1.0500 H     1 <1>   0.0800 
 48 H       -0.1020    -8.6690    -1.8850 H     1 <1>   0.0800 
 49 H       -1.8410    -8.4060    -2.0400 H     1 <1>   0.0800 
 50 H        2.8750    -7.4290    -1.0350 H     1 <1>   0.0800 
 51 H        1.4960    -7.7670     0.0080 H     1 <1>   0.0800 
 52 H        2.2780    -6.1860     0.0630 H     1 <1>   0.0800 
@<TRIPOS>BOND
  1   1   2  1   
  2   2   3  ar  
  3   2   4  ar  
  4   3   5  ar  
  5   3   6  1   
  6   4   7  ar  
  7   4  29  1   
  8   5   8  ar  
  9   5   9  1   
 10   6  10  2   
 11   6  11  am  
 12   7   8  ar  
 13   7  30  1   
 14   8  31  1   
 15   9  32  1   
 16   9  33  1   
 17   9  34  1   
 18  11  12  1   
 19  11  13  1   
 20  12  14  1   
 21  12  15  1   
 22  12  35  1   
 23  13  16  1   
 24  13  36  1   
 25  13  37  1   
 26  14  17  ar  
 27  14  18  ar  
 28  15  19  1   
 29  15  20  1   
 30  15  38  1   
 31  16  19  1   
 32  16  39  1   
 33  16  40  1   
 34  17  21  ar  
 35  17  41  1   
 36  18  22  ar  
 37  18  42  1   
 38  20  23  1   
 39  20  43  1   
 40  20  44  1   
 41  21  24  1   
 42  21  25  ar  
 43  22  25  ar  
 44  22  45  1   
 45  23  46  1   
 46  24  26  1   
 47  25  27  1   
 48  26  47  1   
 49  26  48  1   
 50  26  49  1   
 51  27  28  1   
 52  28  50  1   
 53  28  51  1   
 54  28  52  1   
@<TRIPOS>SUBSTRUCTURE
  1 ****  11 GROUP 4 **** **** 0

# MOE 2024.06 (io_trps.svl 2023.06)
