@<TRIPOS>MOLECULE
NONAME
39 40 1 0 0 
SMALL
USER_CHARGES


@<TRIPOS>ATOM
  1 CL       1.9700     0.9760    -3.4630 Cl    1 <1>  -0.1230 
  2 C        2.7340     0.9980    -1.8830 C.2   1 <1>   0.1230 
  3 C        2.1160     0.7130    -0.6760 C.2   1 <1>   0.1390 
  4 C        4.0150     1.2900    -1.5950 C.2   1 <1>  -0.3020 
  5 N        2.9520     0.8180     0.3160 N.2   1 <1>  -0.7070 
  6 N        4.1260     1.1750    -0.2540 N.pl3 1 <1>   0.3140 
  7 C        5.3400     1.4010     0.5510 C.3   1 <1>   0.0960 
  8 C        5.5160     2.8940     0.8480 C.3   1 <1>  -0.1600 
  9 C        6.7470     3.1320     1.7180 C.3   1 <1>   0.2090 
 10 N        6.9570     4.5880     1.8540 N.pl3 1 <1>  -0.8690 
 11 C        7.6340     5.3510     0.9300 C.ar  1 <1>   0.4100 
 12 N        8.2920     4.7320    -0.0320 N.ar  1 <1>  -0.6200 
 13 C        7.6120     6.7200     1.0090 C.ar  1 <1>  -0.1500 
 14 C        8.9070     5.5220    -0.8890 C.ar  1 <1>   0.4700 
 15 C        8.2900     7.4430     0.0580 C.ar  1 <1>   0.4100 
 16 N        8.9510     6.8390    -0.9140 N.ar  1 <1>  -0.6200 
 17 N        8.3100     8.8230     0.1010 N.pl3 1 <1>  -0.8380 
 18 C        8.3550     9.5930    -1.1700 C.3   1 <1>   0.2090 
 19 C        8.9610     9.4740     1.2700 C.3   1 <1>   0.1290 
 20 C        7.3980    10.7780    -1.0810 C.3   1 <1>  -0.2400 
 21 H        1.0800     0.4400    -0.5690 H     1 <1>   0.1500 
 22 H        4.8230     1.5670    -2.2450 H     1 <1>   0.1500 
 23 H        6.1870     1.0240     0.0070 H     1 <1>   0.0800 
 24 H        5.2410     0.8480     1.4670 H     1 <1>   0.0800 
 25 H        4.6440     3.2630     1.3570 H     1 <1>   0.0800 
 26 H        5.6360     3.4240    -0.0810 H     1 <1>   0.0800 
 27 H        7.6180     2.6790     1.2720 H     1 <1>   0.0800 
 28 H        6.6080     2.7000     2.6950 H     1 <1>   0.0800 
 29 H        6.2670     5.0720     2.4310 H     1 <1>   0.4000 
 30 H        7.0790     7.2240     1.7860 H     1 <1>   0.1500 
 31 H        9.4480     5.0250    -1.6770 H     1 <1>   0.1500 
 32 H        8.0540     8.9630    -1.9900 H     1 <1>   0.0800 
 33 H        9.3610     9.9290    -1.3570 H     1 <1>   0.0800 
 34 H        9.2120     8.7420     2.0180 H     1 <1>   0.0800 
 35 H        8.2900    10.1960     1.7020 H     1 <1>   0.0800 
 36 H        9.8640     9.9700     0.9600 H     1 <1>   0.0800 
 37 H        6.4060    10.4280    -0.8600 H     1 <1>   0.0800 
 38 H        7.3790    11.2940    -2.0230 H     1 <1>   0.0800 
 39 H        7.7150    11.4670    -0.3210 H     1 <1>   0.0800 
@<TRIPOS>BOND
  1   1   2  1   
  2   2   3  1   
  3   2   4  2   
  4   3   5  2   
  5   3  21  1   
  6   4   6  1   
  7   4  22  1   
  8   5   6  1   
  9   6   7  1   
 10   7   8  1   
 11   7  23  1   
 12   7  24  1   
 13   8   9  1   
 14   8  25  1   
 15   8  26  1   
 16   9  10  1   
 17   9  27  1   
 18   9  28  1   
 19  10  11  1   
 20  10  29  1   
 21  11  12  ar  
 22  11  13  ar  
 23  12  14  ar  
 24  13  15  ar  
 25  13  30  1   
 26  14  16  ar  
 27  14  31  1   
 28  15  16  ar  
 29  15  17  1   
 30  17  18  1   
 31  17  19  1   
 32  18  20  1   
 33  18  32  1   
 34  18  33  1   
 35  19  34  1   
 36  19  35  1   
 37  19  36  1   
 38  20  37  1   
 39  20  38  1   
 40  20  39  1   
@<TRIPOS>SUBSTRUCTURE
  1 ****  11 GROUP 4 **** **** 0

# MOE 2024.06 (io_trps.svl 2023.06)
