@<TRIPOS>MOLECULE
NONAME
39 41 1 0 0 
SMALL
USER_CHARGES


@<TRIPOS>ATOM
  1 CL       0.1160     0.7240     0.8650 Cl    1 <1>  -0.1230 
  2 C        0.8430     2.3110     0.6900 C.2   1 <1>   0.1230 
  3 C        0.2730     3.4010     0.0510 C.2   1 <1>   0.1390 
  4 C        2.0450     2.7170     1.1370 C.2   1 <1>  -0.3020 
  5 N        1.0650     4.4330     0.0890 N.2   1 <1>  -0.7070 
  6 N        2.1600     4.0100     0.7630 N.pl3 1 <1>   0.3140 
  7 C        3.3070     4.8970     1.0210 C.3   1 <1>   0.0960 
  8 C        3.9600     5.3040    -0.3030 C.3   1 <1>   0.1100 
  9 N        5.1300     6.1740    -0.0760 N.3   1 <1>  -0.8100 
 10 C        5.4540     6.9240    -1.3150 C.3   1 <1>   0.2900 
 11 C        6.3060     5.3950     0.3610 C.3   1 <1>   0.0300 
 12 C        6.4500     8.0390    -1.0400 C.2   1 <1>   0.0060 
 13 N        6.3620     8.7790     0.0910 N.pl3 1 <1>   0.0330 
 14 N        7.4280     8.3730    -1.8100 N.2   1 <1>  -0.5650 
 15 C        7.3840     9.6680     0.0390 C.ar  1 <1>  -0.1520 
 16 C        8.0350     9.4020    -1.1510 C.ar  1 <1>   0.2270 
 17 C        7.8220    10.6780     0.8970 C.ar  1 <1>  -0.1500 
 18 C        9.1510    10.1530    -1.5110 C.ar  1 <1>  -0.1500 
 19 C        8.9280    11.4190     0.5370 C.ar  1 <1>  -0.1430 
 20 C        9.5890    11.1530    -0.6700 C.ar  1 <1>  -0.1500 
 21 C        9.4490    12.5300     1.4310 C.3   1 <1>  -0.0970 
 22 H       -0.6970     3.3960    -0.4160 H     1 <1>   0.1500 
 23 H        2.7940     2.1750     1.6810 H     1 <1>   0.1500 
 24 H        4.0060     4.3780     1.6470 H     1 <1>   0.0800 
 25 H        2.9490     5.7720     1.5310 H     1 <1>   0.0800 
 26 H        3.2210     5.8400    -0.8770 H     1 <1>   0.0800 
 27 H        4.2520     4.4290    -0.8600 H     1 <1>   0.0800 
 28 H        4.5600     7.3760    -1.7100 H     1 <1>   0.0800 
 29 H        5.8530     6.2610    -2.0630 H     1 <1>   0.0800 
 30 H        6.1040     4.8930     1.2900 H     1 <1>   0.0800 
 31 H        7.1510     6.0450     0.5160 H     1 <1>   0.0800 
 32 H        6.5720     4.6630    -0.3830 H     1 <1>   0.0800 
 33 H        5.6880     8.6270     0.8450 H     1 <1>   0.2700 
 34 H        7.2970    10.8620     1.8170 H     1 <1>   0.1500 
 35 H        9.6420     9.9320    -2.4400 H     1 <1>   0.1500 
 36 H       10.4500    11.7390    -0.9400 H     1 <1>   0.1500 
 37 H        8.8490    12.6230     2.3180 H     1 <1>   0.0800 
 38 H        9.4250    13.4660     0.9010 H     1 <1>   0.0800 
 39 H       10.4620    12.3190     1.7220 H     1 <1>   0.0800 
@<TRIPOS>BOND
  1   1   2  1   
  2   2   3  1   
  3   2   4  2   
  4   3   5  2   
  5   3  22  1   
  6   4   6  1   
  7   4  23  1   
  8   5   6  1   
  9   6   7  1   
 10   7   8  1   
 11   7  24  1   
 12   7  25  1   
 13   8   9  1   
 14   8  26  1   
 15   8  27  1   
 16   9  10  1   
 17   9  11  1   
 18  10  12  1   
 19  10  28  1   
 20  10  29  1   
 21  11  30  1   
 22  11  31  1   
 23  11  32  1   
 24  12  13  1   
 25  12  14  2   
 26  13  15  1   
 27  13  33  1   
 28  14  16  1   
 29  15  16  ar  
 30  15  17  ar  
 31  16  18  ar  
 32  17  19  ar  
 33  17  34  1   
 34  18  20  ar  
 35  18  35  1   
 36  19  20  ar  
 37  19  21  1   
 38  20  36  1   
 39  21  37  1   
 40  21  38  1   
 41  21  39  1   
@<TRIPOS>SUBSTRUCTURE
  1 ****   9 GROUP 4 **** **** 0

# MOE 2024.06 (io_trps.svl 2023.06)
