@<TRIPOS>MOLECULE
NONAME
44 46 1 0 0 
SMALL
USER_CHARGES


@<TRIPOS>ATOM
  1 S        1.2310    -0.6480     0.8060 S.o2  1 <1>   1.3330 
  2 O        2.0660    -1.6660     1.4000 O.2   1 <1>  -0.6500 
  3 O        0.2120     0.0070     1.5930 O.2   1 <1>  -0.6500 
  4 N        2.2950     0.5960     0.3410 N.am  1 <1>  -0.8490 
  5 C        0.5050    -1.2510    -0.7280 C.3   1 <1>   0.0890 
  6 C        2.7190     1.3510     1.5520 C.3   1 <1>   0.1960 
  7 C        3.4800     0.0950    -0.3780 C.3   1 <1>   0.1960 
  8 C       -0.6390    -2.2340    -0.5080 C.ar  1 <1>  -0.1440 
  9 C        3.4720     2.6900     1.3040 C.3   1 <1>   0.4230 
 10 C        4.2670     1.2320    -1.0670 C.3   1 <1>  -0.0800 
 11 C       -1.9620    -1.8660    -0.7040 C.ar  1 <1>   0.1900 
 12 C       -0.3810    -3.5320    -0.0880 C.ar  1 <1>  -0.1500 
 13 N        3.1850     3.3470    -0.0340 N.4   1 <1>  -0.9590 
 14 C        4.9870     2.5660     1.5760 C.3   1 <1>   0.1200 
 15 C        5.6440     1.4950    -0.4380 C.3   1 <1>   0.1200 
 16 C        3.4310     2.5070    -1.2600 C.3   1 <1>   0.3430 
 17 F       -2.2380    -0.6500    -1.0980 F     1 <1>  -0.1900 
 18 C       -3.0150    -2.7380    -0.5040 C.ar  1 <1>  -0.1500 
 19 C       -1.4250    -4.4210     0.1180 C.ar  1 <1>  -0.1500 
 20 C        1.7660     3.8220    -0.0580 C.3   1 <1>   0.2630 
 21 O        5.5660     1.4680     0.9470 O.3   1 <1>  -0.5600 
 22 C       -2.7390    -4.0300    -0.0890 C.ar  1 <1>  -0.1500 
 23 H        0.1520    -0.4150    -1.2980 H     1 <1>   0.0800 
 24 H        1.2570    -1.7420    -1.3110 H     1 <1>   0.0800 
 25 H        1.8460     1.6130     2.1250 H     1 <1>   0.0800 
 26 H        3.3100     0.7120     2.1890 H     1 <1>   0.0800 
 27 H        4.1150    -0.4670     0.2900 H     1 <1>   0.0800 
 28 H        3.1590    -0.5890    -1.1440 H     1 <1>   0.0800 
 29 H        3.1190     3.3660     2.0650 H     1 <1>   0.0800 
 30 H        4.4790     0.8800    -2.0600 H     1 <1>   0.0800 
 31 H        0.6300    -3.8610     0.0890 H     1 <1>   0.1500 
 32 H        3.7980     4.1700    -0.0990 H     1 <1>   0.4500 
 33 H        5.1380     2.4190     2.6310 H     1 <1>   0.0800 
 34 H        5.5170     3.4580     1.2890 H     1 <1>   0.0800 
 35 H        6.0720     2.4300    -0.7580 H     1 <1>   0.0800 
 36 H        6.3200     0.7040    -0.7180 H     1 <1>   0.0800 
 37 H        2.4800     2.2010    -1.6650 H     1 <1>   0.0800 
 38 H        3.9070     3.1210    -2.0070 H     1 <1>   0.0800 
 39 H       -4.0260    -2.4110    -0.6680 H     1 <1>   0.1500 
 40 H       -1.2140    -5.4250     0.4450 H     1 <1>   0.1500 
 41 H        1.0930     2.9810     0.0110 H     1 <1>   0.0800 
 42 H        1.5610     4.3520    -0.9750 H     1 <1>   0.0800 
 43 H        1.5740     4.4840     0.7710 H     1 <1>   0.0800 
 44 H       -3.5420    -4.7270     0.0750 H     1 <1>   0.1500 
@<TRIPOS>BOND
  1   1   2  2   
  2   1   3  2   
  3   1   4  am  
  4   1   5  1   
  5   4   6  1   
  6   4   7  1   
  7   5   8  1   
  8   5  23  1   
  9   5  24  1   
 10   6   9  1   
 11   6  25  1   
 12   6  26  1   
 13   7  10  1   
 14   7  27  1   
 15   7  28  1   
 16   8  11  ar  
 17   8  12  ar  
 18   9  13  1   
 19   9  14  1   
 20   9  29  1   
 21  10  15  1   
 22  10  16  1   
 23  10  30  1   
 24  11  17  1   
 25  11  18  ar  
 26  12  19  ar  
 27  12  31  1   
 28  13  16  1   
 29  13  20  1   
 30  13  32  1   
 31  14  21  1   
 32  14  33  1   
 33  14  34  1   
 34  15  21  1   
 35  15  35  1   
 36  15  36  1   
 37  16  37  1   
 38  16  38  1   
 39  18  22  ar  
 40  18  39  1   
 41  19  22  ar  
 42  19  40  1   
 43  20  41  1   
 44  20  42  1   
 45  20  43  1   
 46  22  44  1   
@<TRIPOS>SUBSTRUCTURE
  1 ****   1 GROUP 4 **** **** 0

# MOE 2024.06 (io_trps.svl 2023.06)
