@<TRIPOS>MOLECULE
NONAME
39 38 1 0 0 
SMALL
USER_CHARGES


@<TRIPOS>ATOM
  1 O        0.3820     0.2160     0.7280 O.2   1 <1>  -0.5700 
  2 C        0.1100     1.3680     0.4540 C.2   1 <1>   0.7800 
  3 O       -1.1130     1.6820     0.0190 O.3   1 <1>  -0.4300 
  4 N        1.0180     2.3970     0.5420 N.am  1 <1>  -0.6600 
  5 C       -2.2100     0.8160    -0.1760 C.3   1 <1>   0.2800 
  6 C        2.3520     2.3570     1.2540 C.3   1 <1>   0.2810 
  7 C        0.7280     3.7290    -0.0710 C.3   1 <1>   0.0600 
  8 C       -2.6260     0.1770     1.1550 C.3   1 <1>  -0.2400 
  9 C       -3.3420     1.7150    -0.6780 C.3   1 <1>  -0.2400 
 10 C       -1.8800    -0.2260    -1.2500 C.3   1 <1>  -0.2400 
 11 C        3.5850     2.3750     0.3210 C.2   1 <1>   0.5690 
 12 C        2.4580     1.3040     2.3690 C.3   1 <1>  -0.2400 
 13 O        4.3890     3.2630     0.5340 O.2   1 <1>  -0.5700 
 14 N        3.7810     1.4510    -0.6850 N.am  1 <1>  -0.3250 
 15 O        4.8340     1.5960    -1.5960 O.3   1 <1>  -0.3160 
 16 C        2.9010     0.3140    -1.0420 C.3   1 <1>   0.0600 
 17 C        6.0420     1.0620    -1.1060 C.3   1 <1>   0.0400 
 18 H        2.4060     3.2930     1.7830 H     1 <1>   0.0800 
 19 H        1.6180     4.1330    -0.5230 H     1 <1>   0.0800 
 20 H        0.3800     4.4080     0.6880 H     1 <1>   0.0800 
 21 H       -0.0240     3.6470    -0.8360 H     1 <1>   0.0800 
 22 H       -3.5440    -0.3670     1.0290 H     1 <1>   0.0800 
 23 H       -2.7780     0.9350     1.9020 H     1 <1>   0.0800 
 24 H       -1.8840    -0.5180     1.5010 H     1 <1>   0.0800 
 25 H       -4.2300     1.1350    -0.8540 H     1 <1>   0.0800 
 26 H       -3.0590     2.1910    -1.5990 H     1 <1>   0.0800 
 27 H       -3.5700     2.4700     0.0530 H     1 <1>   0.0800 
 28 H       -2.7610    -0.7890    -1.4970 H     1 <1>   0.0800 
 29 H       -1.1390    -0.9220    -0.9020 H     1 <1>   0.0800 
 30 H       -1.5230     0.2560    -2.1420 H     1 <1>   0.0800 
 31 H        2.5600     0.3130     1.9700 H     1 <1>   0.0800 
 32 H        1.5940     1.3480     3.0070 H     1 <1>   0.0800 
 33 H        3.3290     1.5070     2.9650 H     1 <1>   0.0800 
 34 H        2.6780    -0.2740    -0.1720 H     1 <1>   0.0800 
 35 H        3.3930    -0.3140    -1.7620 H     1 <1>   0.0800 
 36 H        1.9900     0.6850    -1.4750 H     1 <1>   0.0800 
 37 H        6.7920     1.1770    -1.8670 H     1 <1>   0.0800 
 38 H        5.9000     0.0210    -0.8780 H     1 <1>   0.0800 
 39 H        6.3300     1.6070    -0.2240 H     1 <1>   0.0800 
@<TRIPOS>BOND
  1   1   2  2   
  2   2   3  1   
  3   2   4  am  
  4   3   5  1   
  5   4   6  1   
  6   4   7  1   
  7   5   8  1   
  8   5   9  1   
  9   5  10  1   
 10   6  11  1   
 11   6  12  1   
 12   6  18  1   
 13   7  19  1   
 14   7  20  1   
 15   7  21  1   
 16   8  22  1   
 17   8  23  1   
 18   8  24  1   
 19   9  25  1   
 20   9  26  1   
 21   9  27  1   
 22  10  28  1   
 23  10  29  1   
 24  10  30  1   
 25  11  13  2   
 26  11  14  am  
 27  12  31  1   
 28  12  32  1   
 29  12  33  1   
 30  14  15  1   
 31  14  16  1   
 32  15  17  1   
 33  16  34  1   
 34  16  35  1   
 35  16  36  1   
 36  17  37  1   
 37  17  38  1   
 38  17  39  1   
@<TRIPOS>SUBSTRUCTURE
  1 ****   4 GROUP 4 **** **** 0

# MOE 2024.06 (io_trps.svl 2023.06)
