@<TRIPOS>MOLECULE
NONAME
50 54 1 0 0 
SMALL
USER_CHARGES


@<TRIPOS>ATOM
  1 S       -0.0440    -0.0930    -1.7300 S.o2  1 <1>   1.4470 
  2 O       -0.7280    -1.3060    -2.1240 O.2   1 <1>  -0.6500 
  3 O        0.1460     0.9720    -2.6900 O.2   1 <1>  -0.6500 
  4 N       -0.9170     0.5640    -0.4340 N.am  1 <1>  -0.8490 
  5 C        1.5580    -0.4870    -0.9760 C.ar  1 <1>  -0.0090 
  6 C       -2.1340     1.2510    -0.9140 C.3   1 <1>   0.1960 
  7 C       -1.2700    -0.4470     0.5690 C.3   1 <1>   0.1960 
  8 C        2.3290     0.5210    -0.4060 C.ar  1 <1>  -0.1500 
  9 C        2.0400    -1.8020    -0.9460 C.ar  1 <1>  -0.1500 
 10 C       -2.8560     1.9960     0.2270 C.3   1 <1>   0.1440 
 11 C       -1.9340     0.2170     1.7810 C.3   1 <1>  -0.1600 
 12 C        3.5460     0.2080     0.1770 C.ar  1 <1>   0.1170 
 13 C        3.2580    -2.1210    -0.3630 C.ar  1 <1>  -0.1500 
 14 C       -4.0970     2.6600    -0.3400 C.ar  1 <1>   0.1660 
 15 C       -3.1840     1.0090     1.3660 C.3   1 <1>  -0.1600 
 16 C       -2.0250     3.2100     0.7270 C.3   1 <1>  -0.1600 
 17 N        4.5110     0.9640     0.8070 N.am  1 <1>  -0.4770 
 18 C        3.9930    -1.0940     0.1940 C.ar  1 <1>   0.0820 
 19 N       -5.1960     2.0400    -0.6980 N.ar  1 <1>  -0.6200 
 20 C       -3.9340     4.0100    -0.4560 C.ar  1 <1>  -0.1440 
 21 C       -2.5700     4.4560     0.0070 C.3   1 <1>  -0.0160 
 22 C        5.5000     0.0910     1.1750 C.2   1 <1>   0.7800 
 23 C        4.5090     2.4310     0.9960 C.3   1 <1>   0.0600 
 24 O        5.1900    -1.1550     0.8090 O.3   1 <1>  -0.2320 
 25 C       -6.1420     2.8440    -1.1600 C.ar  1 <1>   0.7200 
 26 C       -4.9820     4.7390    -0.9640 C.ar  1 <1>   0.1600 
 27 O        6.5350     0.3670     1.7520 O.2   1 <1>  -0.5700 
 28 N       -6.1040     4.1590    -1.3260 N.ar  1 <1>  -0.6200 
 29 N       -7.2740     2.2480    -1.5350 N.pl3 1 <1>  -0.9000 
 30 H       -2.8060     0.5330    -1.3550 H     1 <1>   0.0800 
 31 H       -1.8750     1.9660    -1.6770 H     1 <1>   0.0800 
 32 H       -0.3830    -0.9630     0.8970 H     1 <1>   0.0800 
 33 H       -1.9420    -1.1750     0.1400 H     1 <1>   0.0800 
 34 H        1.9840     1.5400    -0.4170 H     1 <1>   0.1500 
 35 H        1.4490    -2.5870    -1.3900 H     1 <1>   0.1500 
 36 H       -1.2220     0.8680     2.2570 H     1 <1>   0.0800 
 37 H       -2.2110    -0.5400     2.4930 H     1 <1>   0.0800 
 38 H        3.6280    -3.1310    -0.3410 H     1 <1>   0.1500 
 39 H       -3.9310     0.3150     1.0190 H     1 <1>   0.0800 
 40 H       -3.5980     1.5320     2.2100 H     1 <1>   0.0800 
 41 H       -0.9700     3.0840     0.5550 H     1 <1>   0.0800 
 42 H       -2.1800     3.3410     1.7830 H     1 <1>   0.0800 
 43 H       -1.9600     4.7000    -0.8460 H     1 <1>   0.0800 
 44 H       -2.6300     5.3010     0.6700 H     1 <1>   0.0800 
 45 H        3.6490     2.7210     1.5740 H     1 <1>   0.0800 
 46 H        4.4780     2.9180     0.0370 H     1 <1>   0.0800 
 47 H        5.4010     2.7340     1.5160 H     1 <1>   0.0800 
 48 H       -4.8990     5.8070    -1.0760 H     1 <1>   0.1500 
 49 H       -7.8610     2.7940    -2.1590 H     1 <1>   0.4000 
 50 H       -7.1980     1.2530    -1.7230 H     1 <1>   0.4000 
@<TRIPOS>BOND
  1   1   2  2   
  2   1   3  2   
  3   1   4  am  
  4   1   5  1   
  5   4   6  1   
  6   4   7  1   
  7   5   8  ar  
  8   5   9  ar  
  9   6  10  1   
 10   6  30  1   
 11   6  31  1   
 12   7  11  1   
 13   7  32  1   
 14   7  33  1   
 15   8  12  ar  
 16   8  34  1   
 17   9  13  ar  
 18   9  35  1   
 19  10  14  1   
 20  10  15  1   
 21  10  16  1   
 22  11  15  1   
 23  11  36  1   
 24  11  37  1   
 25  12  17  1   
 26  12  18  ar  
 27  13  18  ar  
 28  13  38  1   
 29  14  19  ar  
 30  14  20  ar  
 31  15  39  1   
 32  15  40  1   
 33  16  21  1   
 34  16  41  1   
 35  16  42  1   
 36  17  22  am  
 37  17  23  1   
 38  18  24  1   
 39  19  25  ar  
 40  20  21  1   
 41  20  26  ar  
 42  21  43  1   
 43  21  44  1   
 44  22  24  1   
 45  22  27  2   
 46  23  45  1   
 47  23  46  1   
 48  23  47  1   
 49  25  28  ar  
 50  25  29  1   
 51  26  28  ar  
 52  26  48  1   
 53  29  49  1   
 54  29  50  1   
@<TRIPOS>SUBSTRUCTURE
  1 ****   4 GROUP 4 **** **** 0

# MOE 2024.06 (io_trps.svl 2023.06)
