@<TRIPOS>MOLECULE
NONAME
48 50 1 0 0 
SMALL
USER_CHARGES


@<TRIPOS>ATOM
  1 CL      -2.8810     0.4180    -1.4680 Cl    1 <1>  -0.1770 
  2 C       -2.9070    -1.2200    -0.8680 C.ar  1 <1>   0.1770 
  3 C       -3.6900    -1.5230     0.2300 C.ar  1 <1>  -0.1500 
  4 C       -2.1480    -2.1860    -1.5000 C.ar  1 <1>  -0.1500 
  5 C       -3.7230    -2.8250     0.7100 C.ar  1 <1>  -0.1440 
  6 C       -2.1740    -3.4830    -1.0180 C.ar  1 <1>  -0.1500 
  7 C       -2.9570    -3.7980     0.0810 C.ar  1 <1>  -0.1500 
  8 C       -4.5890    -3.1860     1.9160 C.3   1 <1>   0.0450 
  9 C       -5.4470    -4.4290     1.7010 C.2   1 <1>   0.5690 
 10 O       -5.2680    -5.3530     2.4610 O.2   1 <1>  -0.5700 
 11 N       -6.3890    -4.5060     0.7010 N.am  1 <1>  -0.6600 
 12 C       -7.1030    -5.7980     0.4660 C.3   1 <1>   0.1400 
 13 C       -6.7340    -3.3810    -0.2200 C.3   1 <1>   0.1400 
 14 C       -8.3830    -5.8790     1.3080 C.3   1 <1>   0.1400 
 15 C       -8.2420    -3.2210    -0.4650 C.3   1 <1>  -0.1600 
 16 N       -9.4570    -4.9760     0.7830 N.am  1 <1>  -0.6600 
 17 C       -9.1230    -3.5240     0.7520 C.3   1 <1>   0.1400 
 18 C      -10.6500    -5.4390     0.2640 C.2   1 <1>   0.5440 
 19 O      -11.4020    -4.6600    -0.2890 O.2   1 <1>  -0.5700 
 20 C      -11.0220    -6.8330     0.3530 C.ar  1 <1>   0.0860 
 21 C      -10.9210    -7.7170    -0.7180 C.ar  1 <1>  -0.1430 
 22 C      -11.4900    -7.3370     1.5640 C.ar  1 <1>   0.1600 
 23 C      -11.2820    -9.0280    -0.4880 C.ar  1 <1>  -0.1500 
 24 C      -10.4380    -7.2610    -2.0880 C.3   1 <1>  -0.0970 
 25 N      -11.8310    -8.5930     1.8020 N.ar  1 <1>  -0.6200 
 26 C      -11.7220    -9.4100     0.7680 C.ar  1 <1>   0.1600 
 27 H       -4.2620    -0.7410     0.6950 H     1 <1>   0.1500 
 28 H       -1.5460    -1.9230    -2.3510 H     1 <1>   0.1500 
 29 H       -1.5860    -4.2480    -1.4960 H     1 <1>   0.1500 
 30 H       -2.9670    -4.8120     0.4470 H     1 <1>   0.1500 
 31 H       -5.2330    -2.3700     2.1800 H     1 <1>   0.0800 
 32 H       -3.9400    -3.3610     2.7550 H     1 <1>   0.0800 
 33 H       -6.4570    -6.6130     0.7440 H     1 <1>   0.0800 
 34 H       -7.3360    -5.9150    -0.5770 H     1 <1>   0.0800 
 35 H       -6.2290    -3.5290    -1.1600 H     1 <1>   0.0800 
 36 H       -6.3770    -2.4570     0.1940 H     1 <1>   0.0800 
 37 H       -8.1560    -5.6170     2.3280 H     1 <1>   0.0800 
 38 H       -8.7150    -6.9000     1.3070 H     1 <1>   0.0800 
 39 H       -8.5500    -3.8340    -1.2940 H     1 <1>   0.0800 
 40 H       -8.4130    -2.2020    -0.7610 H     1 <1>   0.0800 
 41 H      -10.0320    -2.9490     0.6820 H     1 <1>   0.0800 
 42 H       -8.6300    -3.2380     1.6650 H     1 <1>   0.0800 
 43 H      -11.5790    -6.6470     2.3860 H     1 <1>   0.1500 
 44 H      -11.2290    -9.7610    -1.2730 H     1 <1>   0.1500 
 45 H       -9.4450    -6.8540    -2.0140 H     1 <1>   0.0800 
 46 H      -11.0940    -6.4990    -2.4710 H     1 <1>   0.0800 
 47 H      -10.4230    -8.0800    -2.7850 H     1 <1>   0.0800 
 48 H      -11.9980   -10.4380     0.9300 H     1 <1>   0.1500 
@<TRIPOS>BOND
  1   1   2  1   
  2   2   3  ar  
  3   2   4  ar  
  4   3   5  ar  
  5   3  27  1   
  6   4   6  ar  
  7   4  28  1   
  8   5   7  ar  
  9   5   8  1   
 10   6   7  ar  
 11   6  29  1   
 12   7  30  1   
 13   8   9  1   
 14   8  31  1   
 15   8  32  1   
 16   9  10  2   
 17   9  11  am  
 18  11  12  1   
 19  11  13  1   
 20  12  14  1   
 21  12  33  1   
 22  12  34  1   
 23  13  15  1   
 24  13  35  1   
 25  13  36  1   
 26  14  16  1   
 27  14  37  1   
 28  14  38  1   
 29  15  17  1   
 30  15  39  1   
 31  15  40  1   
 32  16  17  1   
 33  16  18  am  
 34  17  41  1   
 35  17  42  1   
 36  18  19  2   
 37  18  20  1   
 38  20  21  ar  
 39  20  22  ar  
 40  21  23  ar  
 41  21  24  1   
 42  22  25  ar  
 43  22  43  1   
 44  23  26  ar  
 45  23  44  1   
 46  24  45  1   
 47  24  46  1   
 48  24  47  1   
 49  25  26  ar  
 50  26  48  1   
@<TRIPOS>SUBSTRUCTURE
  1 ****  12 GROUP 4 **** **** 0

# MOE 2024.06 (io_trps.svl 2023.06)
