@<TRIPOS>MOLECULE
NONAME
47 49 1 0 0 
SMALL
USER_CHARGES


@<TRIPOS>ATOM
  1 CL      -4.4560     4.7350    -2.4340 Cl    1 <1>  -0.1770 
  2 C       -4.1420     3.5760    -1.1650 C.ar  1 <1>   0.1770 
  3 C       -3.2400     3.8540    -0.1520 C.ar  1 <1>   0.1770 
  4 C       -4.8220     2.3720    -1.1870 C.ar  1 <1>  -0.1500 
  5 CL      -2.3770     5.3720    -0.1110 Cl    1 <1>  -0.1770 
  6 C       -3.0110     2.9260     0.8480 C.ar  1 <1>  -0.1500 
  7 C       -4.6060     1.4370    -0.1800 C.ar  1 <1>  -0.1440 
  8 C       -3.6950     1.7200     0.8330 C.ar  1 <1>  -0.1500 
  9 C       -5.3710     0.1220    -0.1790 C.3   1 <1>   0.4870 
 10 N       -6.8160     0.4310    -0.0650 N.4   1 <1>  -0.9590 
 11 C       -7.2000     1.1510     1.1830 C.3   1 <1>   0.3430 
 12 C       -7.7330    -0.6890    -0.3790 C.3   1 <1>   0.3430 
 13 C       -8.6910     1.5150     1.1550 C.3   1 <1>  -0.1600 
 14 C       -9.1420    -0.1340    -0.6450 C.3   1 <1>  -0.1600 
 15 C       -9.3380     1.3410    -0.2350 C.3   1 <1>   0.2800 
 16 O       -8.6030     2.0880    -1.1710 O.3   1 <1>  -0.5600 
 17 C      -10.8460     1.7100    -0.2700 C.3   1 <1>  -0.1600 
 18 C       -8.6930     3.4980    -1.1780 C.3   1 <1>   0.1200 
 19 C      -11.1870     2.9930    -1.0470 C.3   1 <1>   0.2800 
 20 C      -10.0870     4.0530    -0.8220 C.3   1 <1>   0.2000 
 21 O      -11.2280     2.6850    -2.3930 O.3   1 <1>  -0.6800 
 22 C      -12.5920     3.5010    -0.7040 C.3   1 <1>  -0.2400 
 23 O      -10.0700     4.4670     0.5140 O.3   1 <1>  -0.6800 
 24 H       -5.5120     2.1890    -1.9930 H     1 <1>   0.1500 
 25 H       -2.3040     3.1520     1.6280 H     1 <1>   0.1500 
 26 H       -3.5050     1.0080     1.6200 H     1 <1>   0.1500 
 27 H       -5.0560    -0.4960     0.6460 H     1 <1>   0.0800 
 28 H       -5.1760    -0.4030    -1.0990 H     1 <1>   0.0800 
 29 H       -7.0400     1.1310    -0.8020 H     1 <1>   0.4500 
 30 H       -6.9870     0.5440     2.0490 H     1 <1>   0.0800 
 31 H       -6.6240     2.0600     1.2590 H     1 <1>   0.0800 
 32 H       -7.3910    -1.2200    -1.2530 H     1 <1>   0.0800 
 33 H       -7.7610    -1.3770     0.4510 H     1 <1>   0.0800 
 34 H       -8.8110     2.5190     1.5160 H     1 <1>   0.0800 
 35 H       -9.2030     0.8840     1.8590 H     1 <1>   0.0800 
 36 H       -9.8370    -0.7540    -0.1070 H     1 <1>   0.0800 
 37 H       -9.3780    -0.2410    -1.6890 H     1 <1>   0.0800 
 38 H      -11.4340     0.8990    -0.6610 H     1 <1>   0.0800 
 39 H      -11.1730     1.8390     0.7460 H     1 <1>   0.0800 
 40 H       -7.9470     3.8990    -0.5140 H     1 <1>   0.0800 
 41 H       -8.4530     3.8070    -2.1800 H     1 <1>   0.0800 
 42 H      -10.2870     4.9290    -1.4150 H     1 <1>   0.0800 
 43 H      -11.9830     2.0980    -2.5800 H     1 <1>   0.4000 
 44 H      -12.6600     3.7460     0.3410 H     1 <1>   0.0800 
 45 H      -13.3310     2.7500    -0.9140 H     1 <1>   0.0800 
 46 H      -12.8170     4.3870    -1.2720 H     1 <1>   0.0800 
 47 H      -10.8670     5.0000     0.7080 H     1 <1>   0.4000 
@<TRIPOS>BOND
  1   1   2  1   
  2   2   3  ar  
  3   2   4  ar  
  4   3   5  1   
  5   3   6  ar  
  6   4   7  ar  
  7   4  24  1   
  8   6   8  ar  
  9   6  25  1   
 10   7   8  ar  
 11   7   9  1   
 12   8  26  1   
 13   9  10  1   
 14   9  27  1   
 15   9  28  1   
 16  10  11  1   
 17  10  12  1   
 18  10  29  1   
 19  11  13  1   
 20  11  30  1   
 21  11  31  1   
 22  12  14  1   
 23  12  32  1   
 24  12  33  1   
 25  13  15  1   
 26  13  34  1   
 27  13  35  1   
 28  14  15  1   
 29  14  36  1   
 30  14  37  1   
 31  15  16  1   
 32  15  17  1   
 33  16  18  1   
 34  17  19  1   
 35  17  38  1   
 36  17  39  1   
 37  18  20  1   
 38  18  40  1   
 39  18  41  1   
 40  19  20  1   
 41  19  21  1   
 42  19  22  1   
 43  20  23  1   
 44  20  42  1   
 45  21  43  1   
 46  22  44  1   
 47  22  45  1   
 48  22  46  1   
 49  23  47  1   
@<TRIPOS>SUBSTRUCTURE
  1 ****  16 GROUP 4 **** **** 0

# MOE 2024.06 (io_trps.svl 2023.06)
