@<TRIPOS>MOLECULE
NONAME
51 54 1 0 0 
SMALL
USER_CHARGES


@<TRIPOS>ATOM
  1 O       -0.1140    -0.0200     0.4020 O.2   1 <1>  -0.5700 
  2 C       -0.9920     0.7770     0.1660 C.2   1 <1>   0.5690 
  3 N       -2.1890     0.3520    -0.3680 N.am  1 <1>  -0.6600 
  4 C       -0.7230     2.2420     0.5140 C.3   1 <1>   0.1810 
  5 C       -2.3620    -1.0560    -0.8270 C.3   1 <1>   0.1400 
  6 C       -3.4190     1.1850    -0.4720 C.3   1 <1>   0.1400 
  7 O       -0.8820     3.0870    -0.6240 O.3   1 <1>  -0.4300 
  8 C       -3.4780    -1.7430    -0.0090 C.3   1 <1>   0.4230 
  9 C       -4.5290     0.5190     0.3530 C.3   1 <1>  -0.1600 
 10 C       -0.6060     4.4050    -0.5300 C.2   1 <1>   0.5860 
 11 N       -3.6240    -3.2330    -0.2940 N.4   1 <1>  -0.9590 
 12 C       -4.8200    -0.9530    -0.0640 C.3   1 <1>   0.0000 
 13 N       -0.2900     4.9220     0.6160 N.2   1 <1>  -0.6520 
 14 C       -0.6930     5.1340    -1.7450 C.2   1 <1>  -0.1360 
 15 C       -4.9300    -3.8180     0.1520 C.3   1 <1>   0.3430 
 16 C       -3.3330    -3.6550    -1.7050 C.3   1 <1>   0.2630 
 17 C       -5.8200    -1.5710     0.9570 C.3   1 <1>  -0.1600 
 18 C       -5.4130    -1.0000    -1.5020 C.3   1 <1>   0.1200 
 19 N       -0.0280     6.2790     0.5720 N.pl3 1 <1>   0.5050 
 20 C       -0.4340     6.4700    -1.7570 C.2   1 <1>  -0.1050 
 21 C       -5.5080    -3.0340     1.3290 C.3   1 <1>  -0.1600 
 22 O       -6.4940    -0.1450    -1.6400 O.3   1 <1>  -0.6800 
 23 C       -0.0840     7.0680    -0.5310 C.2   1 <1>   0.1410 
 24 C        0.3210     7.1410     1.5230 C.2   1 <1>   0.0360 
 25 N        0.2130     8.3100    -0.2360 N.2   1 <1>  -0.3380 
 26 N        0.4680     8.3460     1.0670 N.2   1 <1>  -0.3380 
 27 H        0.2880     2.3390     0.8670 H     1 <1>   0.0800 
 28 H       -1.3990     2.5660     1.2840 H     1 <1>   0.0800 
 29 H       -2.5990    -1.0410    -1.8740 H     1 <1>   0.0800 
 30 H       -1.4450    -1.6040    -0.7000 H     1 <1>   0.0800 
 31 H       -3.2490     2.1800    -0.0990 H     1 <1>   0.0800 
 32 H       -3.7130     1.2700    -1.5050 H     1 <1>   0.0800 
 33 H       -3.1520    -1.6660     1.0160 H     1 <1>   0.0800 
 34 H       -4.2250     0.5540     1.3850 H     1 <1>   0.0800 
 35 H       -5.4200     1.1170     0.2760 H     1 <1>   0.0800 
 36 H       -2.9020    -3.6760     0.2960 H     1 <1>   0.4500 
 37 H       -0.9650     4.5950    -2.6340 H     1 <1>   0.1500 
 38 H       -5.6400    -3.7870    -0.6580 H     1 <1>   0.0800 
 39 H       -4.7930    -4.8510     0.4330 H     1 <1>   0.0800 
 40 H       -4.0300    -3.1970    -2.3880 H     1 <1>   0.0800 
 41 H       -3.4160    -4.7260    -1.7990 H     1 <1>   0.0800 
 42 H       -2.3330    -3.3700    -1.9880 H     1 <1>   0.0800 
 43 H       -5.8270    -1.0030     1.8730 H     1 <1>   0.0800 
 44 H       -6.8240    -1.5170     0.5710 H     1 <1>   0.0800 
 45 H       -5.7520    -1.9870    -1.7590 H     1 <1>   0.0800 
 46 H       -4.6900    -0.6900    -2.2350 H     1 <1>   0.0800 
 47 H       -0.4800     7.0830    -2.6400 H     1 <1>   0.1500 
 48 H       -6.4120    -3.5120     1.6650 H     1 <1>   0.0800 
 49 H       -4.8120    -3.0680     2.1510 H     1 <1>   0.0800 
 50 H       -7.2470    -0.4010    -1.0710 H     1 <1>   0.4000 
 51 H        0.4570     6.8420     2.5440 H     1 <1>   0.1500 
@<TRIPOS>BOND
  1   1   2  2   
  2   2   3  am  
  3   2   4  1   
  4   3   5  1   
  5   3   6  1   
  6   4   7  1   
  7   4  27  1   
  8   4  28  1   
  9   5   8  1   
 10   5  29  1   
 11   5  30  1   
 12   6   9  1   
 13   6  31  1   
 14   6  32  1   
 15   7  10  1   
 16   8  11  1   
 17   8  12  1   
 18   8  33  1   
 19   9  12  1   
 20   9  34  1   
 21   9  35  1   
 22  10  13  2   
 23  10  14  1   
 24  11  15  1   
 25  11  16  1   
 26  11  36  1   
 27  12  17  1   
 28  12  18  1   
 29  13  19  1   
 30  14  20  2   
 31  14  37  1   
 32  15  21  1   
 33  15  38  1   
 34  15  39  1   
 35  16  40  1   
 36  16  41  1   
 37  16  42  1   
 38  17  21  1   
 39  17  43  1   
 40  17  44  1   
 41  18  22  1   
 42  18  45  1   
 43  18  46  1   
 44  19  23  1   
 45  19  24  1   
 46  20  23  1   
 47  20  47  1   
 48  21  48  1   
 49  21  49  1   
 50  22  50  1   
 51  23  25  2   
 52  24  26  2   
 53  24  51  1   
 54  25  26  1   
@<TRIPOS>SUBSTRUCTURE
  1 ****   6 GROUP 4 **** **** 0

# MOE 2024.06 (io_trps.svl 2023.06)
