@<TRIPOS>MOLECULE
NONAME
46 48 1 0 0 
SMALL
USER_CHARGES


@<TRIPOS>ATOM
  1 CL       0.4270    -0.5650     0.2370 Cl    1 <1>  -0.1770 
  2 C       -1.1100    -1.1830    -0.3110 C.ar  1 <1>   0.1770 
  3 C       -1.4310    -2.5070    -0.0760 C.ar  1 <1>  -0.1500 
  4 C       -1.9810    -0.3380    -0.9720 C.ar  1 <1>  -0.1500 
  5 C       -2.6520    -3.0020    -0.5090 C.ar  1 <1>  -0.1440 
  6 C       -3.2000    -0.8320    -1.4050 C.ar  1 <1>  -0.1500 
  7 C       -3.5310    -2.1580    -1.1730 C.ar  1 <1>  -0.1500 
  8 C       -3.0220    -4.4530    -0.2520 C.3   1 <1>  -0.0160 
  9 C       -3.6270    -4.6090     1.1480 C.3   1 <1>  -0.0990 
 10 C       -4.1370    -6.0210     1.3720 C.2   1 <1>   0.5690 
 11 O       -3.3500    -6.8040     1.8500 O.2   1 <1>  -0.5700 
 12 N       -5.4220    -6.3920     1.0450 N.am  1 <1>  -0.6600 
 13 C       -6.3870    -5.4910     0.3420 C.3   1 <1>   0.2200 
 14 C       -5.8960    -7.7640     1.4120 C.3   1 <1>   0.0600 
 15 C       -7.2040    -6.1590    -0.7640 C.3   1 <1>  -0.1600 
 16 C       -7.4340    -4.9140     1.2870 C.3   1 <1>  -0.1600 
 17 C       -8.3880    -5.2080    -0.9780 C.3   1 <1>  -0.0800 
 18 C       -8.5760    -4.4590     0.3670 C.3   1 <1>  -0.0800 
 19 C       -9.6390    -5.9220    -1.5310 C.3   1 <1>   0.1400 
 20 C       -9.9690    -4.6400     1.0020 C.3   1 <1>  -0.0990 
 21 N      -10.8450    -5.1230    -1.2330 N.am  1 <1>  -0.7300 
 22 C      -11.0490    -4.5080    -0.0490 C.2   1 <1>   0.5690 
 23 O      -12.0520    -3.8810     0.1720 O.2   1 <1>  -0.5700 
 24 H       -0.7300    -3.1360     0.4420 H     1 <1>   0.1500 
 25 H       -1.7070     0.6870    -1.1420 H     1 <1>   0.1500 
 26 H       -3.8890    -0.1860    -1.9220 H     1 <1>   0.1500 
 27 H       -4.4810    -2.5280    -1.5160 H     1 <1>   0.1500 
 28 H       -3.7200    -4.7870    -0.9980 H     1 <1>   0.0800 
 29 H       -2.1460    -5.0740    -0.3320 H     1 <1>   0.0800 
 30 H       -4.4130    -3.8960     1.3080 H     1 <1>   0.0800 
 31 H       -2.8670    -4.4040     1.8800 H     1 <1>   0.0800 
 32 H       -5.8650    -4.6700    -0.1150 H     1 <1>   0.0800 
 33 H       -6.9160    -7.7370     1.7500 H     1 <1>   0.0800 
 34 H       -5.2950    -8.1750     2.2060 H     1 <1>   0.0800 
 35 H       -5.8200    -8.4140     0.5580 H     1 <1>   0.0800 
 36 H       -6.6240    -6.2820    -1.6610 H     1 <1>   0.0800 
 37 H       -7.5760    -7.1130    -0.4420 H     1 <1>   0.0800 
 38 H       -7.7810    -5.6770     1.9600 H     1 <1>   0.0800 
 39 H       -7.0380    -4.0930     1.8570 H     1 <1>   0.0800 
 40 H       -8.0900    -4.4760    -1.7100 H     1 <1>   0.0800 
 41 H       -8.4500    -3.4080     0.1640 H     1 <1>   0.0800 
 42 H       -9.7550    -6.8880    -1.0700 H     1 <1>   0.0800 
 43 H       -9.5450    -6.0610    -2.5950 H     1 <1>   0.0800 
 44 H      -10.1240    -3.9060     1.7710 H     1 <1>   0.0800 
 45 H      -10.0610    -5.6150     1.4410 H     1 <1>   0.0800 
 46 H      -11.5930    -5.0680    -1.9290 H     1 <1>   0.3700 
@<TRIPOS>BOND
  1   1   2  1   
  2   2   3  ar  
  3   2   4  ar  
  4   3   5  ar  
  5   3  24  1   
  6   4   6  ar  
  7   4  25  1   
  8   5   7  ar  
  9   5   8  1   
 10   6   7  ar  
 11   6  26  1   
 12   7  27  1   
 13   8   9  1   
 14   8  28  1   
 15   8  29  1   
 16   9  10  1   
 17   9  30  1   
 18   9  31  1   
 19  10  11  2   
 20  10  12  am  
 21  12  13  1   
 22  12  14  1   
 23  13  15  1   
 24  13  16  1   
 25  13  32  1   
 26  14  33  1   
 27  14  34  1   
 28  14  35  1   
 29  15  17  1   
 30  15  36  1   
 31  15  37  1   
 32  16  18  1   
 33  16  38  1   
 34  16  39  1   
 35  17  18  1   
 36  17  19  1   
 37  17  40  1   
 38  18  20  1   
 39  18  41  1   
 40  19  21  1   
 41  19  42  1   
 42  19  43  1   
 43  20  22  1   
 44  20  44  1   
 45  20  45  1   
 46  21  22  am  
 47  21  46  1   
 48  22  23  2   
@<TRIPOS>SUBSTRUCTURE
  1 ****  13 GROUP 4 **** **** 0

# MOE 2024.06 (io_trps.svl 2023.06)
