@<TRIPOS>MOLECULE
NONAME
53 56 1 0 0 
SMALL
USER_CHARGES


@<TRIPOS>ATOM
  1 O       -0.3410     0.8470    -1.3730 O.2   1 <1>  -0.5700 
  2 C       -1.3600     1.2180    -0.8210 C.2   1 <1>   0.5440 
  3 N       -2.4190     0.3420    -0.7160 N.am  1 <1>  -0.6600 
  4 C       -1.4150     2.5640    -0.2790 C.ar  1 <1>   0.0860 
  5 C       -2.4080    -0.9410    -1.4800 C.3   1 <1>   0.1400 
  6 C       -3.5210     0.5340     0.2760 C.3   1 <1>   0.1400 
  7 C       -0.3860     3.0470     0.5270 C.ar  1 <1>  -0.1500 
  8 C       -2.4790     3.4230    -0.5500 C.ar  1 <1>  -0.1500 
  9 C       -3.8350    -1.4050    -1.7810 C.3   1 <1>  -0.1600 
 10 C       -4.1040    -0.8140     0.6940 C.3   1 <1>  -0.1600 
 11 C       -0.4050     4.3260     1.0660 C.ar  1 <1>   0.0730 
 12 C       -2.5210     4.7000    -0.0240 C.ar  1 <1>  -0.1500 
 13 C       -4.7130    -1.5410    -0.5160 C.3   1 <1>   0.4240 
 14 C        0.6690     4.7930     1.8960 C.1   1 <1>   0.4840 
 15 C       -1.4900     5.1470     0.7820 C.ar  1 <1>  -0.1500 
 16 O       -5.9110    -0.8470    -0.7680 O.3   1 <1>  -0.5600 
 17 C       -4.9790    -3.0220    -0.1690 C.ar  1 <1>  -0.1430 
 18 N        1.5160     5.1670     2.5630 N.1   1 <1>  -0.5570 
 19 C       -6.8880    -1.5170    -1.5020 C.3   1 <1>   0.1200 
 20 C       -6.2570    -3.5610    -0.2320 C.ar  1 <1>  -0.1430 
 21 C       -3.9320    -3.8560     0.2010 C.ar  1 <1>  -0.1500 
 22 C       -7.4130    -2.6820    -0.6670 C.3   1 <1>  -0.0170 
 23 C       -6.4780    -4.8900     0.0930 C.ar  1 <1>  -0.1500 
 24 C       -4.1310    -5.1890     0.5170 C.ar  1 <1>   0.0830 
 25 C       -5.4300    -5.7200     0.4810 C.ar  1 <1>   0.0830 
 26 O       -2.9930    -5.8670     0.8450 O.3   1 <1>  -0.3620 
 27 O       -5.6540    -7.0200     0.8350 O.3   1 <1>  -0.3630 
 28 C       -2.8740    -7.2580     0.6510 C.3   1 <1>   0.0400 
 29 C       -6.9500    -7.5120     1.0940 C.3   1 <1>   0.0400 
 30 H       -1.8860    -1.6860    -0.9040 H     1 <1>   0.0800 
 31 H       -1.8740    -0.8070    -2.4060 H     1 <1>   0.0800 
 32 H       -4.2960     1.1370    -0.1660 H     1 <1>   0.0800 
 33 H       -3.1440     1.0440     1.1470 H     1 <1>   0.0800 
 34 H        0.4500     2.3970     0.7290 H     1 <1>   0.1500 
 35 H       -3.2770     3.0820    -1.1880 H     1 <1>   0.1500 
 36 H       -3.7900    -2.3490    -2.2930 H     1 <1>   0.0800 
 37 H       -4.2700    -0.6910    -2.4560 H     1 <1>   0.0800 
 38 H       -4.8640    -0.6770     1.4410 H     1 <1>   0.0800 
 39 H       -3.3210    -1.3960     1.1420 H     1 <1>   0.0800 
 40 H       -3.3540     5.3470    -0.2440 H     1 <1>   0.1500 
 41 H       -1.5270     6.1440     1.1890 H     1 <1>   0.1500 
 42 H       -6.4600    -1.8630    -2.4270 H     1 <1>   0.0800 
 43 H       -7.6780    -0.8190    -1.7160 H     1 <1>   0.0800 
 44 H       -2.9270    -3.4810     0.2470 H     1 <1>   0.1500 
 45 H       -8.1130    -3.2490    -1.2530 H     1 <1>   0.0800 
 46 H       -7.9240    -2.3000     0.1980 H     1 <1>   0.0800 
 47 H       -7.4820    -5.2620     0.0360 H     1 <1>   0.1500 
 48 H       -1.8300    -7.5110     0.6710 H     1 <1>   0.0800 
 49 H       -3.3000    -7.5180    -0.3020 H     1 <1>   0.0800 
 50 H       -3.3860    -7.7650     1.4500 H     1 <1>   0.0800 
 51 H       -6.8560    -8.5130     1.4750 H     1 <1>   0.0800 
 52 H       -7.5110    -7.5230     0.1770 H     1 <1>   0.0800 
 53 H       -7.4210    -6.8850     1.8300 H     1 <1>   0.0800 
@<TRIPOS>BOND
  1   1   2  2   
  2   2   3  am  
  3   2   4  1   
  4   3   5  1   
  5   3   6  1   
  6   4   7  ar  
  7   4   8  ar  
  8   5   9  1   
  9   5  30  1   
 10   5  31  1   
 11   6  10  1   
 12   6  32  1   
 13   6  33  1   
 14   7  11  ar  
 15   7  34  1   
 16   8  12  ar  
 17   8  35  1   
 18   9  13  1   
 19   9  36  1   
 20   9  37  1   
 21  10  13  1   
 22  10  38  1   
 23  10  39  1   
 24  11  14  1   
 25  11  15  ar  
 26  12  15  ar  
 27  12  40  1   
 28  13  16  1   
 29  13  17  1   
 30  14  18  3   
 31  15  41  1   
 32  16  19  1   
 33  17  20  ar  
 34  17  21  ar  
 35  19  22  1   
 36  19  42  1   
 37  19  43  1   
 38  20  22  1   
 39  20  23  ar  
 40  21  24  ar  
 41  21  44  1   
 42  22  45  1   
 43  22  46  1   
 44  23  25  ar  
 45  23  47  1   
 46  24  25  ar  
 47  24  26  1   
 48  25  27  1   
 49  26  28  1   
 50  27  29  1   
 51  28  48  1   
 52  28  49  1   
 53  28  50  1   
 54  29  51  1   
 55  29  52  1   
 56  29  53  1   
@<TRIPOS>SUBSTRUCTURE
  1 ****  10 GROUP 4 **** **** 0

# MOE 2024.06 (io_trps.svl 2023.06)
