@<TRIPOS>MOLECULE
NONAME
49 50 1 0 0 
SMALL
USER_CHARGES


@<TRIPOS>ATOM
  1 F       -0.1830     1.0000     0.1160 F     1 <1>  -0.1900 
  2 C       -1.4720     1.2000     0.0090 C.ar  1 <1>   0.1900 
  3 C       -2.1060     2.2940     0.6080 C.ar  1 <1>   0.0830 
  4 C       -2.1770     0.2720    -0.7320 C.ar  1 <1>  -0.1500 
  5 O       -1.5230     3.2720     1.3590 O.3   1 <1>  -0.3630 
  6 C       -3.4750     2.4170     0.4330 C.ar  1 <1>  -0.1500 
  7 C       -3.5430     0.4260    -0.8870 C.ar  1 <1>  -0.1500 
  8 C       -0.1480     3.2850     1.6720 C.3   1 <1>   0.0400 
  9 C       -4.2220     1.4980    -0.3060 C.ar  1 <1>   0.0530 
 10 C       -5.6450     1.6740    -0.4670 C.2   1 <1>   0.0870 
 11 O       -6.1250     2.8810    -0.6330 O.3   1 <1>  -0.0190 
 12 C       -6.7040     0.8180    -0.5060 C.2   1 <1>  -0.0860 
 13 N       -7.4200     2.9010    -0.7870 N.2   1 <1>  -0.4100 
 14 C       -7.7960     1.6730    -0.7150 C.2   1 <1>   0.3720 
 15 C       -6.7670    -0.6050    -0.3590 C.2   1 <1>   0.7160 
 16 N       -9.1420     1.2780    -0.8090 N.pl3 1 <1>  -0.8210 
 17 O       -5.8540    -1.2160     0.1610 O.2   1 <1>  -0.5700 
 18 N       -7.8750    -1.2700    -0.7990 N.am  1 <1>  -0.7300 
 19 C       -9.8090     1.2150     0.5200 C.3   1 <1>   0.1290 
 20 C       -9.9460     2.0680    -1.7860 C.3   1 <1>   0.1290 
 21 C       -8.2970    -2.6860    -0.7030 C.3   1 <1>   0.2200 
 22 C       -9.1170    -2.9140     0.5920 C.3   1 <1>  -0.0800 
 23 C       -7.1210    -3.6470    -0.9140 C.3   1 <1>  -0.2400 
 24 C       -8.3270    -2.6950     1.8940 C.3   1 <1>  -0.2400 
 25 C       -9.7580    -4.3110     0.6220 C.3   1 <1>  -0.2400 
 26 H       -1.6640    -0.5600    -1.1800 H     1 <1>   0.1500 
 27 H       -3.9740     3.2540     0.8880 H     1 <1>   0.1500 
 28 H       -4.0900    -0.2970    -1.4670 H     1 <1>   0.1500 
 29 H        0.0470     4.1440     2.2880 H     1 <1>   0.0800 
 30 H        0.4190     3.3550     0.7610 H     1 <1>   0.0800 
 31 H        0.0970     2.3870     2.2120 H     1 <1>   0.0800 
 32 H       -8.6310    -0.6260    -1.0710 H     1 <1>   0.3700 
 33 H      -10.7900     0.7850     0.4210 H     1 <1>   0.0800 
 34 H       -9.8940     2.2040     0.9370 H     1 <1>   0.0800 
 35 H       -9.2310     0.6040     1.1940 H     1 <1>   0.0800 
 36 H      -10.8840     1.5760    -1.9740 H     1 <1>   0.0800 
 37 H       -9.4090     2.1560    -2.7150 H     1 <1>   0.0800 
 38 H      -10.1330     3.0560    -1.4010 H     1 <1>   0.0800 
 39 H       -8.9680    -2.8520    -1.5300 H     1 <1>   0.0800 
 40 H       -9.9250    -2.2030     0.5780 H     1 <1>   0.0800 
 41 H       -6.4550    -3.6450    -0.0720 H     1 <1>   0.0800 
 42 H       -6.5710    -3.3660    -1.7940 H     1 <1>   0.0800 
 43 H       -7.4810    -4.6490    -1.0530 H     1 <1>   0.0800 
 44 H       -7.5060    -3.3850     1.9690 H     1 <1>   0.0800 
 45 H       -8.9660    -2.8360     2.7470 H     1 <1>   0.0800 
 46 H       -7.9330    -1.6960     1.9380 H     1 <1>   0.0800 
 47 H       -9.0080    -5.0760     0.7180 H     1 <1>   0.0800 
 48 H      -10.3190    -4.4880    -0.2790 H     1 <1>   0.0800 
 49 H      -10.4300    -4.3930     1.4580 H     1 <1>   0.0800 
@<TRIPOS>BOND
  1   1   2  1   
  2   2   3  ar  
  3   2   4  ar  
  4   3   5  1   
  5   3   6  ar  
  6   4   7  ar  
  7   4  26  1   
  8   5   8  1   
  9   6   9  ar  
 10   6  27  1   
 11   7   9  ar  
 12   7  28  1   
 13   8  29  1   
 14   8  30  1   
 15   8  31  1   
 16   9  10  1   
 17  10  11  1   
 18  10  12  2   
 19  11  13  1   
 20  12  14  1   
 21  12  15  1   
 22  13  14  2   
 23  14  16  1   
 24  15  17  2   
 25  15  18  am  
 26  16  19  1   
 27  16  20  1   
 28  18  21  1   
 29  18  32  1   
 30  19  33  1   
 31  19  34  1   
 32  19  35  1   
 33  20  36  1   
 34  20  37  1   
 35  20  38  1   
 36  21  22  1   
 37  21  23  1   
 38  21  39  1   
 39  22  24  1   
 40  22  25  1   
 41  22  40  1   
 42  23  41  1   
 43  23  42  1   
 44  23  43  1   
 45  24  44  1   
 46  24  45  1   
 47  24  46  1   
 48  25  47  1   
 49  25  48  1   
 50  25  49  1   
@<TRIPOS>SUBSTRUCTURE
  1 ****  12 GROUP 4 **** **** 0

# MOE 2024.06 (io_trps.svl 2023.06)
