@<TRIPOS>MOLECULE
NONAME
39 40 1 0 0 
SMALL
USER_CHARGES


@<TRIPOS>ATOM
  1 O        0.0690    -0.1420    -0.3920 O.2   1 <1>  -0.5760 
  2 C        1.1150    -0.7520    -0.3490 C.2   1 <1>   0.9960 
  3 N        2.2720    -0.0460    -0.3280 N.pl3 1 <1>  -0.7340 
  4 C        1.2050    -2.1760    -0.3170 C.2   1 <1>  -0.2450 
  5 C        2.4370     1.2720    -0.3800 C.cat 1 <1>   1.0680 
  6 N        0.1670    -3.0250    -0.0710 N.pl3 1 <1>   0.3060 
  7 C        2.2920    -2.9800    -0.5160 C.2   1 <1>  -0.1600 
  8 N        1.4820     2.1770    -0.4860 N.pl3 1 <1>  -0.7050 
  9 N        3.6240     1.8810    -0.3350 N.pl3 1 <1>  -0.7680 
 10 N        0.5670    -4.3050    -0.1070 N.2   1 <1>  -0.7120 
 11 C       -1.2560    -2.6570     0.2070 C.3   1 <1>   0.0860 
 12 C        1.8360    -4.2740    -0.3730 C.2   1 <1>   0.0980 
 13 C        2.0540     3.4250    -0.5120 C.2   1 <1>   0.1910 
 14 C        3.3830     3.2440    -0.4180 C.2   1 <1>   0.1910 
 15 C        4.9980     1.3190    -0.2160 C.3   1 <1>   0.2650 
 16 C       -2.1200    -3.8230     0.7150 C.3   1 <1>  -0.2490 
 17 C        2.6810    -5.5360    -0.5040 C.3   1 <1>   0.0910 
 18 C        3.7970    -5.5610     0.5470 C.3   1 <1>  -0.2490 
 19 C        3.2690    -5.6580    -1.9150 C.3   1 <1>  -0.2490 
 20 H        3.0970    -0.6170    -0.2470 H     1 <1>   0.4430 
 21 H        3.3110    -2.7300    -0.7470 H     1 <1>   0.1400 
 22 H        0.4890     1.9160    -0.5310 H     1 <1>   0.4430 
 23 H       -1.6840    -2.2700    -0.6990 H     1 <1>   0.0700 
 24 H       -1.2670    -1.8800     0.9480 H     1 <1>   0.0700 
 25 H        1.4830     4.3390    -0.5930 H     1 <1>   0.1400 
 26 H        4.1680     3.9870    -0.4050 H     1 <1>   0.1400 
 27 H        4.9720     0.2500    -0.1030 H     1 <1>   0.0700 
 28 H        5.4920     1.7440     0.6410 H     1 <1>   0.0700 
 29 H        5.5670     1.5610    -1.0990 H     1 <1>   0.0700 
 30 H       -2.1700    -4.6010    -0.0270 H     1 <1>   0.0700 
 31 H       -3.1180    -3.4790     0.9160 H     1 <1>   0.0700 
 32 H       -1.7060    -4.2260     1.6220 H     1 <1>   0.0700 
 33 H        2.0380    -6.3830    -0.3330 H     1 <1>   0.0700 
 34 H        4.4830    -4.7480     0.3970 H     1 <1>   0.0700 
 35 H        4.3400    -6.4880     0.4880 H     1 <1>   0.0700 
 36 H        3.3700    -5.4790     1.5300 H     1 <1>   0.0700 
 37 H        3.9410    -4.8450    -2.1220 H     1 <1>   0.0700 
 38 H        2.4750    -5.6430    -2.6410 H     1 <1>   0.0700 
 39 H        3.8040    -6.5850    -2.0160 H     1 <1>   0.0700 
@<TRIPOS>BOND
  1   1   2  2   
  2   2   3  1   
  3   2   4  1   
  4   3   5  ar  
  5   3  20  1   
  6   4   6  1   
  7   4   7  2   
  8   5   8  ar  
  9   5   9  ar  
 10   6  10  1   
 11   6  11  1   
 12   7  12  1   
 13   7  21  1   
 14   8  13  1   
 15   8  22  1   
 16   9  14  1   
 17   9  15  1   
 18  10  12  2   
 19  11  16  1   
 20  11  23  1   
 21  11  24  1   
 22  12  17  1   
 23  13  14  2   
 24  13  25  1   
 25  14  26  1   
 26  15  27  1   
 27  15  28  1   
 28  15  29  1   
 29  16  30  1   
 30  16  31  1   
 31  16  32  1   
 32  17  18  1   
 33  17  19  1   
 34  17  33  1   
 35  18  34  1   
 36  18  35  1   
 37  18  36  1   
 38  19  37  1   
 39  19  38  1   
 40  19  39  1   
@<TRIPOS>SUBSTRUCTURE
  1 ****   4 GROUP 4 **** **** 0

# MOE 2024.06 (io_trps.svl 2023.06)
