@<TRIPOS>MOLECULE
NONAME
34 35 1 0 0 
SMALL
USER_CHARGES


@<TRIPOS>ATOM
  1 F       -0.2920    -0.3670     0.2970 F     1 <1>  -0.1900 
  2 C       -1.4700    -0.9520     0.2160 C.ar  1 <1>   0.1900 
  3 C       -2.6560    -0.2200     0.2090 C.ar  1 <1>   0.4100 
  4 C       -1.5270    -2.3140     0.1500 C.ar  1 <1>   0.1600 
  5 N       -3.8090    -0.8600     0.1450 N.ar  1 <1>  -0.6200 
  6 N       -2.7130     1.1720     0.2660 N.pl3 1 <1>  -0.8380 
  7 N       -2.6770    -2.9540     0.0790 N.ar  1 <1>  -0.6200 
  8 C       -3.7680    -2.1880     0.0780 C.ar  1 <1>   0.7200 
  9 C       -3.9150     1.8630     0.8090 C.3   1 <1>   0.1290 
 10 C       -1.8260     2.0130    -0.5820 C.3   1 <1>   0.1290 
 11 N       -4.9770    -2.8480     0.0010 N.pl3 1 <1>  -0.8380 
 12 C       -5.0500    -4.3290     0.3080 C.3   1 <1>   0.2700 
 13 C       -6.2820    -2.1210     0.0320 C.3   1 <1>   0.2090 
 14 C       -6.4390    -4.9870     0.2190 C.2   1 <1>   0.5690 
 15 C       -7.3700    -2.8800    -0.7440 C.3   1 <1>   0.1400 
 16 O       -6.5470    -6.1310     0.5990 O.2   1 <1>  -0.5700 
 17 N       -7.5150    -4.2900    -0.2810 N.am  1 <1>  -0.6600 
 18 C       -8.8580    -4.9050    -0.4640 C.3   1 <1>   0.0600 
 19 H       -0.6190    -2.8900     0.1560 H     1 <1>   0.1500 
 20 H       -4.3780     1.2570     1.5690 H     1 <1>   0.0800 
 21 H       -4.6240     2.0330     0.0180 H     1 <1>   0.0800 
 22 H       -3.6320     2.8040     1.2460 H     1 <1>   0.0800 
 23 H       -1.2860     1.4030    -1.2850 H     1 <1>   0.0800 
 24 H       -1.1220     2.5370     0.0410 H     1 <1>   0.0800 
 25 H       -2.4110     2.7280    -1.1340 H     1 <1>   0.0800 
 26 H       -4.6750    -4.4910     1.3020 H     1 <1>   0.0800 
 27 H       -4.4050    -4.8550    -0.3710 H     1 <1>   0.0800 
 28 H       -6.1790    -1.1430    -0.4070 H     1 <1>   0.0800 
 29 H       -6.5910    -1.9940     1.0550 H     1 <1>   0.0800 
 30 H       -7.1230    -2.8770    -1.7910 H     1 <1>   0.0800 
 31 H       -8.3050    -2.3630    -0.6180 H     1 <1>   0.0800 
 32 H       -8.8500    -5.9360    -0.1520 H     1 <1>   0.0800 
 33 H       -9.1390    -4.8640    -1.5020 H     1 <1>   0.0800 
 34 H       -9.5850    -4.3740     0.1250 H     1 <1>   0.0800 
@<TRIPOS>BOND
  1   1   2  1   
  2   2   3  ar  
  3   2   4  ar  
  4   3   5  ar  
  5   3   6  1   
  6   4   7  ar  
  7   4  19  1   
  8   5   8  ar  
  9   6   9  1   
 10   6  10  1   
 11   7   8  ar  
 12   8  11  1   
 13   9  20  1   
 14   9  21  1   
 15   9  22  1   
 16  10  23  1   
 17  10  24  1   
 18  10  25  1   
 19  11  12  1   
 20  11  13  1   
 21  12  14  1   
 22  12  26  1   
 23  12  27  1   
 24  13  15  1   
 25  13  28  1   
 26  13  29  1   
 27  14  16  2   
 28  14  17  am  
 29  15  17  1   
 30  15  30  1   
 31  15  31  1   
 32  17  18  1   
 33  18  32  1   
 34  18  33  1   
 35  18  34  1   
@<TRIPOS>SUBSTRUCTURE
  1 ****   8 GROUP 4 **** **** 0

# MOE 2024.06 (io_trps.svl 2023.06)
