@<TRIPOS>MOLECULE
NONAME
48 51 1 0 0 
SMALL
USER_CHARGES


@<TRIPOS>ATOM
  1 S       -0.1330    -0.0970     0.9930 S.3   1 <1>  -0.0800 
  2 C       -0.9690     1.3270     0.3940 C.2   1 <1>  -0.1400 
  3 C       -1.6640    -0.9230     1.2590 C.2   1 <1>  -0.1100 
  4 C       -2.2950     1.1460     0.4260 C.2   1 <1>  -0.1810 
  5 C       -0.2350     2.5760    -0.0850 C.3   1 <1>   0.4600 
  6 C       -2.7010    -0.1370     0.9120 C.2   1 <1>  -0.1500 
  7 C       -3.2120     2.2580    -0.0320 C.3   1 <1>   0.0210 
  8 O       -1.1840     3.4610    -0.6520 O.3   1 <1>  -0.5600 
  9 C        0.4870     3.2820     1.0700 C.3   1 <1>  -0.1600 
 10 C        0.7520     2.2320    -1.2050 C.3   1 <1>  -0.1600 
 11 C       -2.4350     3.5890    -0.0180 C.3   1 <1>   0.1200 
 12 C        1.2720     4.4950     0.5760 C.3   1 <1>   0.2090 
 13 C        1.5280     3.4670    -1.6570 C.3   1 <1>   0.2090 
 14 N        2.2180     4.0560    -0.4820 N.pl3 1 <1>  -0.8380 
 15 C        3.3420     4.8180    -0.7320 C.ar  1 <1>   0.4100 
 16 N        3.2500     6.1220    -0.5300 N.ar  1 <1>  -0.6200 
 17 C        4.4990     4.1920    -1.1840 C.ar  1 <1>  -0.1500 
 18 C        4.3380     6.8690    -0.7870 C.ar  1 <1>   0.3960 
 19 C        5.6200     4.9340    -1.4570 C.ar  1 <1>  -0.1500 
 20 C        4.3050     8.3260    -0.5910 C.2   1 <1>   0.5440 
 21 C        5.5200     6.2930    -1.2520 C.ar  1 <1>  -0.1500 
 22 O        4.9320     9.0360    -1.3620 O.2   1 <1>  -0.5700 
 23 N        3.6240     8.9540     0.4460 N.am  1 <1>  -0.6600 
 24 C        3.4280    10.4310     0.4820 C.3   1 <1>   0.0600 
 25 C        3.0440     8.2260     1.6070 C.3   1 <1>   0.0600 
 26 H       -1.6230    -1.9230     1.6520 H     1 <1>   0.1500 
 27 H       -3.7410    -0.4060     0.9770 H     1 <1>   0.1500 
 28 H       -4.0600     2.3340     0.6230 H     1 <1>   0.0800 
 29 H       -3.5650     2.0520    -1.0270 H     1 <1>   0.0800 
 30 H        1.1780     2.5970     1.5250 H     1 <1>   0.0800 
 31 H       -0.2150     3.5770     1.8260 H     1 <1>   0.0800 
 32 H        0.2150     1.8090    -2.0340 H     1 <1>   0.0800 
 33 H        1.4550     1.4980    -0.8590 H     1 <1>   0.0800 
 34 H       -2.2730     3.9170     0.9930 H     1 <1>   0.0800 
 35 H       -2.9900     4.3480    -0.5410 H     1 <1>   0.0800 
 36 H        1.8200     4.9330     1.3930 H     1 <1>   0.0800 
 37 H        0.6040     5.2390     0.1730 H     1 <1>   0.0800 
 38 H        0.8560     4.1960    -2.0790 H     1 <1>   0.0800 
 39 H        2.2450     3.1930    -2.4120 H     1 <1>   0.0800 
 40 H        4.4940     3.1270    -1.3100 H     1 <1>   0.1500 
 41 H        6.5290     4.4800    -1.8110 H     1 <1>   0.1500 
 42 H        6.3650     6.9270    -1.4540 H     1 <1>   0.1500 
 43 H        3.6630    10.8710    -0.4720 H     1 <1>   0.0800 
 44 H        4.0700    10.8620     1.2300 H     1 <1>   0.0800 
 45 H        2.4030    10.6580     0.7150 H     1 <1>   0.0800 
 46 H        3.5990     7.3250     1.8010 H     1 <1>   0.0800 
 47 H        2.0210     7.9680     1.3930 H     1 <1>   0.0800 
 48 H        3.0790     8.8430     2.4870 H     1 <1>   0.0800 
@<TRIPOS>BOND
  1   1   2  1   
  2   1   3  1   
  3   2   4  2   
  4   2   5  1   
  5   3   6  2   
  6   3  26  1   
  7   4   6  1   
  8   4   7  1   
  9   5   8  1   
 10   5   9  1   
 11   5  10  1   
 12   6  27  1   
 13   7  11  1   
 14   7  28  1   
 15   7  29  1   
 16   8  11  1   
 17   9  12  1   
 18   9  30  1   
 19   9  31  1   
 20  10  13  1   
 21  10  32  1   
 22  10  33  1   
 23  11  34  1   
 24  11  35  1   
 25  12  14  1   
 26  12  36  1   
 27  12  37  1   
 28  13  14  1   
 29  13  38  1   
 30  13  39  1   
 31  14  15  1   
 32  15  16  ar  
 33  15  17  ar  
 34  16  18  ar  
 35  17  19  ar  
 36  17  40  1   
 37  18  20  1   
 38  18  21  ar  
 39  19  21  ar  
 40  19  41  1   
 41  20  22  2   
 42  20  23  am  
 43  21  42  1   
 44  23  24  1   
 45  23  25  1   
 46  24  43  1   
 47  24  44  1   
 48  24  45  1   
 49  25  46  1   
 50  25  47  1   
 51  25  48  1   
@<TRIPOS>SUBSTRUCTURE
  1 ****  12 GROUP 4 **** **** 0

# MOE 2024.06 (io_trps.svl 2023.06)
