@<TRIPOS>MOLECULE
NONAME
44 46 1 0 0 
SMALL
USER_CHARGES


@<TRIPOS>ATOM
  1 O        0.0030     0.0720    -0.1610 O.3   1 <1>  -0.5600 
  2 C        0.4400     1.0870    -1.0010 C.3   1 <1>   0.1200 
  3 C       -1.3940     0.0250    -0.1980 C.3   1 <1>   0.1200 
  4 C       -0.5400     2.2160    -0.7000 C.3   1 <1>   0.4230 
  5 C       -1.8420     1.4130    -0.6860 C.3   1 <1>  -0.0800 
  6 N       -0.2380     2.7420     0.6630 N.4   1 <1>  -0.9060 
  7 C       -3.0320     2.0050     0.0970 C.3   1 <1>  -0.0170 
  8 C        0.5290     4.0060     0.7660 C.3   1 <1>   0.4230 
  9 C       -4.2710     1.1500    -0.1010 C.ar  1 <1>  -0.1430 
 10 C       -0.3030     5.1740     0.2200 C.3   1 <1>  -0.1600 
 11 C        1.8910     3.9150     0.0650 C.3   1 <1>  -0.1600 
 12 C       -5.0560     1.2610    -1.2320 C.ar  1 <1>  -0.1500 
 13 C       -4.6800     0.2190     0.8340 C.ar  1 <1>  -0.1500 
 14 C        0.4630     6.4970     0.3610 C.3   1 <1>  -0.1600 
 15 C        2.6620     5.2350     0.2110 C.3   1 <1>  -0.1600 
 16 C       -6.1730     0.4540    -1.3740 C.ar  1 <1>   0.1600 
 17 C       -5.8150    -0.5390     0.5950 C.ar  1 <1>   0.1600 
 18 C        1.8390     6.4190    -0.3150 C.3   1 <1>  -0.1600 
 19 N       -6.5670    -0.4450    -0.4880 N.ar  1 <1>  -0.6200 
 20 H        1.4660     1.3210    -0.7830 H     1 <1>   0.0800 
 21 H        0.3530     0.7470    -2.0200 H     1 <1>   0.0800 
 22 H       -1.6990    -0.7540    -0.8790 H     1 <1>   0.0800 
 23 H       -1.7460    -0.2060     0.7930 H     1 <1>   0.0800 
 24 H       -0.5370     2.9930    -1.4470 H     1 <1>   0.0800 
 25 H       -2.1560     1.2950    -1.7090 H     1 <1>   0.0800 
 26 H       -1.1120     2.8560     1.1790 H     1 <1>   0.4500 
 27 H        0.2700     1.9800     1.1380 H     1 <1>   0.4500 
 28 H       -3.2420     3.0020    -0.2530 H     1 <1>   0.0800 
 29 H       -2.8190     2.0590     1.1500 H     1 <1>   0.0800 
 30 H        0.7180     4.2050     1.8090 H     1 <1>   0.0800 
 31 H       -0.5270     5.0270    -0.8210 H     1 <1>   0.0800 
 32 H       -1.2280     5.2540     0.7650 H     1 <1>   0.0800 
 33 H        2.4770     3.1250     0.5010 H     1 <1>   0.0800 
 34 H        1.7660     3.7210    -0.9860 H     1 <1>   0.0800 
 35 H       -4.8180     1.9640    -2.0090 H     1 <1>   0.1500 
 36 H       -4.1380     0.0680     1.7490 H     1 <1>   0.1500 
 37 H       -0.1070     7.2970    -0.0820 H     1 <1>   0.0800 
 38 H        0.5940     6.7340     1.4040 H     1 <1>   0.0800 
 39 H        2.9050     5.4030     1.2470 H     1 <1>   0.0800 
 40 H        3.5900     5.1760    -0.3340 H     1 <1>   0.0800 
 41 H       -6.7750     0.5520    -2.2620 H     1 <1>   0.1500 
 42 H       -6.1210    -1.2610     1.3340 H     1 <1>   0.1500 
 43 H        2.3770     7.3360    -0.1390 H     1 <1>   0.0800 
 44 H        1.7110     6.3230    -1.3810 H     1 <1>   0.0800 
@<TRIPOS>BOND
  1   1   2  1   
  2   1   3  1   
  3   2   4  1   
  4   2  20  1   
  5   2  21  1   
  6   3   5  1   
  7   3  22  1   
  8   3  23  1   
  9   4   5  1   
 10   4   6  1   
 11   4  24  1   
 12   5   7  1   
 13   5  25  1   
 14   6   8  1   
 15   6  26  1   
 16   6  27  1   
 17   7   9  1   
 18   7  28  1   
 19   7  29  1   
 20   8  10  1   
 21   8  11  1   
 22   8  30  1   
 23   9  12  ar  
 24   9  13  ar  
 25  10  14  1   
 26  10  31  1   
 27  10  32  1   
 28  11  15  1   
 29  11  33  1   
 30  11  34  1   
 31  12  16  ar  
 32  12  35  1   
 33  13  17  ar  
 34  13  36  1   
 35  14  18  1   
 36  14  37  1   
 37  14  38  1   
 38  15  18  1   
 39  15  39  1   
 40  15  40  1   
 41  16  19  ar  
 42  16  41  1   
 43  17  19  ar  
 44  17  42  1   
 45  18  43  1   
 46  18  44  1   
@<TRIPOS>SUBSTRUCTURE
  1 ****   5 GROUP 4 **** **** 0

# MOE 2024.06 (io_trps.svl 2023.06)
