@<TRIPOS>MOLECULE
NONAME
53 56 1 0 0 
SMALL
USER_CHARGES


@<TRIPOS>ATOM
  1 O        0.7830    -0.1400     0.0770 O.2   1 <1>  -0.5700 
  2 C        1.8330    -0.7310     0.1900 C.2   1 <1>   0.5690 
  3 N        1.9690    -2.0350    -0.2200 N.am  1 <1>  -0.6600 
  4 C        3.0250     0.0210     0.8070 C.3   1 <1>   0.2700 
  5 C        3.2580    -2.7630    -0.0480 C.3   1 <1>   0.1400 
  6 C        0.8750    -2.7520    -0.9300 C.3   1 <1>   0.1400 
  7 N        4.2150    -0.8230     1.2320 N.pl3 1 <1>  -0.8380 
  8 C        4.0130    -2.3040     1.2120 C.3   1 <1>   0.2090 
  9 C       -0.0220    -3.4770     0.0740 C.3   1 <1>  -0.0160 
 10 C        5.3220    -0.2070     1.8080 C.ar  1 <1>   0.4100 
 11 C       -1.1200    -4.2330    -0.6560 C.ar  1 <1>  -0.1440 
 12 N        5.5500     1.0350     1.4180 N.ar  1 <1>  -0.6200 
 13 C        6.1480    -0.8540     2.7440 C.ar  1 <1>   0.1600 
 14 C       -2.2670    -3.5670    -1.0610 C.ar  1 <1>  -0.1500 
 15 C       -0.9870    -5.5860    -0.9280 C.ar  1 <1>  -0.1500 
 16 C        6.6310     1.6090     1.9740 C.ar  1 <1>   0.3960 
 17 N        7.2130    -0.3290     3.3110 N.ar  1 <1>  -0.6200 
 18 C       -3.2700    -4.2460    -1.7320 C.ar  1 <1>  -0.1500 
 19 C       -1.9890    -6.2660    -1.5990 C.ar  1 <1>  -0.1500 
 20 C        7.0270     2.9820     1.6430 C.2   1 <1>   0.5440 
 21 C        7.4180     0.9140     2.8970 C.ar  1 <1>   0.1600 
 22 C       -3.1310    -5.5960    -2.0010 C.ar  1 <1>  -0.1500 
 23 O        7.6430     3.6310     2.4740 O.2   1 <1>  -0.5700 
 24 N        6.7770     3.5990     0.4280 N.am  1 <1>  -0.6600 
 25 C        7.2840     4.9500     0.0990 C.3   1 <1>   0.1400 
 26 C        6.1450     2.9750    -0.7580 C.3   1 <1>   0.1400 
 27 C        7.2940     4.9990    -1.4230 C.3   1 <1>  -0.1600 
 28 C        6.1780     4.0470    -1.8420 C.3   1 <1>  -0.1600 
 29 H        2.6670     0.5630     1.6630 H     1 <1>   0.0800 
 30 H        3.3530     0.7430     0.0830 H     1 <1>   0.0800 
 31 H        3.8750    -2.5940    -0.9130 H     1 <1>   0.0800 
 32 H        3.0680    -3.8190     0.0280 H     1 <1>   0.0800 
 33 H        1.2910    -3.4560    -1.6290 H     1 <1>   0.0800 
 34 H        0.2840    -2.0450    -1.4870 H     1 <1>   0.0800 
 35 H        4.9650    -2.8030     1.2380 H     1 <1>   0.0800 
 36 H        3.4530    -2.5960     2.0840 H     1 <1>   0.0800 
 37 H       -0.4670    -2.7560     0.7380 H     1 <1>   0.0800 
 38 H        0.5620    -4.1620     0.6600 H     1 <1>   0.0800 
 39 H        5.8960    -1.8550     3.0350 H     1 <1>   0.1500 
 40 H       -2.3820    -2.5170    -0.8560 H     1 <1>   0.1500 
 41 H       -0.1050    -6.1190    -0.6210 H     1 <1>   0.1500 
 42 H       -4.1570    -3.7230    -2.0430 H     1 <1>   0.1500 
 43 H       -1.8820    -7.3160    -1.8070 H     1 <1>   0.1500 
 44 H        8.2690     1.4220     3.3170 H     1 <1>   0.1500 
 45 H       -3.9110    -6.1240    -2.5220 H     1 <1>   0.1500 
 46 H        8.2680     5.1090     0.5070 H     1 <1>   0.0800 
 47 H        6.6050     5.6830     0.4990 H     1 <1>   0.0800 
 48 H        5.1320     2.6810    -0.5420 H     1 <1>   0.0800 
 49 H        6.7190     2.1130    -1.0560 H     1 <1>   0.0800 
 50 H        8.2420     4.6320    -1.7770 H     1 <1>   0.0800 
 51 H        7.1440     5.9980    -1.7920 H     1 <1>   0.0800 
 52 H        5.2360     4.5680    -1.8430 H     1 <1>   0.0800 
 53 H        6.3440     3.6240    -2.8170 H     1 <1>   0.0800 
@<TRIPOS>BOND
  1   1   2  2   
  2   2   3  am  
  3   2   4  1   
  4   3   5  1   
  5   3   6  1   
  6   4   7  1   
  7   4  29  1   
  8   4  30  1   
  9   5   8  1   
 10   5  31  1   
 11   5  32  1   
 12   6   9  1   
 13   6  33  1   
 14   6  34  1   
 15   7   8  1   
 16   7  10  1   
 17   8  35  1   
 18   8  36  1   
 19   9  11  1   
 20   9  37  1   
 21   9  38  1   
 22  10  12  ar  
 23  10  13  ar  
 24  11  14  ar  
 25  11  15  ar  
 26  12  16  ar  
 27  13  17  ar  
 28  13  39  1   
 29  14  18  ar  
 30  14  40  1   
 31  15  19  ar  
 32  15  41  1   
 33  16  20  1   
 34  16  21  ar  
 35  17  21  ar  
 36  18  22  ar  
 37  18  42  1   
 38  19  22  ar  
 39  19  43  1   
 40  20  23  2   
 41  20  24  am  
 42  21  44  1   
 43  22  45  1   
 44  24  25  1   
 45  24  26  1   
 46  25  27  1   
 47  25  46  1   
 48  25  47  1   
 49  26  28  1   
 50  26  48  1   
 51  26  49  1   
 52  27  28  1   
 53  27  50  1   
 54  27  51  1   
 55  28  52  1   
 56  28  53  1   
@<TRIPOS>SUBSTRUCTURE
  1 ****   4 GROUP 4 **** **** 0

# MOE 2024.06 (io_trps.svl 2023.06)
