@<TRIPOS>MOLECULE
NONAME
44 46 1 0 0 
SMALL
USER_CHARGES


@<TRIPOS>ATOM
  1 O        0.7560     0.9390     0.2980 O.2   1 <1>  -0.5700 
  2 C        1.5090     0.0580    -0.0480 C.2   1 <1>   0.6300 
  3 N        2.6760     0.3270    -0.7180 N.am  1 <1>  -0.6600 
  4 C        1.1200    -1.3810     0.2800 C.3   1 <1>  -0.1000 
  5 C        3.1210     1.7340    -0.9600 C.3   1 <1>   0.1400 
  6 C        3.6410    -0.6980    -1.2060 C.3   1 <1>   0.1400 
  7 C        0.4670    -1.7300     1.5880 C.3   1 <1>  -0.2000 
  8 C        1.8700    -2.1710     1.3170 C.3   1 <1>  -0.2000 
  9 C        4.4860     1.9910    -0.3010 C.3   1 <1>   0.2890 
 10 C        5.0060    -0.4760    -0.5420 C.3   1 <1>  -0.1600 
 11 N        4.9750     3.3380    -0.6570 N.pl3 1 <1>  -0.8690 
 12 C        5.5200     0.9580    -0.7600 C.3   1 <1>  -0.1600 
 13 C        5.3290     4.1900     0.3750 C.ar  1 <1>   0.4100 
 14 N        6.2490     3.7560     1.2150 N.ar  1 <1>  -0.6200 
 15 C        4.6930     5.4680     0.4800 C.ar  1 <1>   0.4100 
 16 C        6.5290     4.6570     2.1490 C.ar  1 <1>   0.1600 
 17 N        4.9880     6.3480     1.4210 N.ar  1 <1>  -0.6200 
 18 N        3.6780     5.8330    -0.4160 N.pl3 1 <1>  -0.8380 
 19 C        5.9280     5.9000     2.2450 C.ar  1 <1>   0.1600 
 20 C        2.3000     5.6250     0.1000 C.3   1 <1>   0.1290 
 21 C        3.8540     7.1470    -1.0890 C.3   1 <1>   0.1290 
 22 H        0.7560    -1.8960    -0.5890 H     1 <1>   0.1000 
 23 H        2.4050     2.4320    -0.5620 H     1 <1>   0.0800 
 24 H        3.2000     1.8930    -2.0200 H     1 <1>   0.0800 
 25 H        3.7390    -0.6000    -2.2740 H     1 <1>   0.0800 
 26 H        3.2950    -1.6940    -0.9980 H     1 <1>   0.0800 
 27 H       -0.3230    -2.4610     1.5880 H     1 <1>   0.1000 
 28 H        0.2940    -0.9370     2.2970 H     1 <1>   0.1000 
 29 H        2.6680    -1.6910     1.8570 H     1 <1>   0.1000 
 30 H        2.0580    -3.2150     1.1390 H     1 <1>   0.1000 
 31 H        4.3630     1.9220     0.7680 H     1 <1>   0.0800 
 32 H        5.7160    -1.1750    -0.9450 H     1 <1>   0.0800 
 33 H        4.9170    -0.6710     0.5130 H     1 <1>   0.0800 
 34 H        4.3060     3.8480    -1.2460 H     1 <1>   0.4000 
 35 H        6.4310     1.1070    -0.2060 H     1 <1>   0.0800 
 36 H        5.7300     1.1090    -1.8040 H     1 <1>   0.0800 
 37 H        7.2790     4.3850     2.8700 H     1 <1>   0.1500 
 38 H        6.2280     6.5610     3.0390 H     1 <1>   0.1500 
 39 H        2.2370     4.6810     0.6130 H     1 <1>   0.0800 
 40 H        1.5970     5.6250    -0.7150 H     1 <1>   0.0800 
 41 H        2.0450     6.4110     0.7910 H     1 <1>   0.0800 
 42 H        4.8840     7.2740    -1.3750 H     1 <1>   0.0800 
 43 H        3.5810     7.9450    -0.4190 H     1 <1>   0.0800 
 44 H        3.2400     7.1940    -1.9710 H     1 <1>   0.0800 
@<TRIPOS>BOND
  1   1   2  2   
  2   2   3  am  
  3   2   4  1   
  4   3   5  1   
  5   3   6  1   
  6   4   7  1   
  7   4   8  1   
  8   4  22  1   
  9   5   9  1   
 10   5  23  1   
 11   5  24  1   
 12   6  10  1   
 13   6  25  1   
 14   6  26  1   
 15   7   8  1   
 16   7  27  1   
 17   7  28  1   
 18   8  29  1   
 19   8  30  1   
 20   9  11  1   
 21   9  12  1   
 22   9  31  1   
 23  10  12  1   
 24  10  32  1   
 25  10  33  1   
 26  11  13  1   
 27  11  34  1   
 28  12  35  1   
 29  12  36  1   
 30  13  14  ar  
 31  13  15  ar  
 32  14  16  ar  
 33  15  17  ar  
 34  15  18  1   
 35  16  19  ar  
 36  16  37  1   
 37  17  19  ar  
 38  18  20  1   
 39  18  21  1   
 40  19  38  1   
 41  20  39  1   
 42  20  40  1   
 43  20  41  1   
 44  21  42  1   
 45  21  43  1   
 46  21  44  1   
@<TRIPOS>SUBSTRUCTURE
  1 ****   9 GROUP 4 **** **** 0

# MOE 2024.06 (io_trps.svl 2023.06)
