@<TRIPOS>MOLECULE
NONAME
54 56 1 0 0 
SMALL
USER_CHARGES


@<TRIPOS>ATOM
  1 O        0.7050     0.3810    -0.2550 O.2   1 <1>  -0.5700 
  2 C        1.8590     0.0390    -0.4080 C.2   1 <1>   0.7150 
  3 N        2.6930     0.9340    -0.9810 N.am  1 <1>  -0.8000 
  4 C        2.3170    -1.2690    -0.0050 C.2   1 <1>   0.0550 
  5 O        3.5570    -1.6800    -0.2430 O.3   1 <1>  -0.2800 
  6 C        1.6580    -2.2690     0.6340 C.2   1 <1>  -0.1500 
  7 C        3.7230    -2.9030     0.2180 C.2   1 <1>  -0.0400 
  8 C        2.5570    -3.3320     0.7680 C.2   1 <1>  -0.1810 
  9 C        5.1190    -3.5230     0.0330 C.3   1 <1>   0.1800 
 10 C        2.1720    -4.6450     1.4110 C.3   1 <1>   0.5240 
 11 C        6.1690    -2.5930     0.6580 C.3   1 <1>  -0.2400 
 12 C        5.4060    -3.6680    -1.4670 C.3   1 <1>  -0.2400 
 13 C        5.2600    -4.9030     0.6920 C.3   1 <1>  -0.2400 
 14 N        1.7760    -5.5840     0.3270 N.4   1 <1>  -0.9590 
 15 C        0.4450    -5.1990    -0.2450 C.3   1 <1>   0.3430 
 16 C        1.6330    -6.9740     0.8630 C.3   1 <1>   0.3430 
 17 C       -0.5750    -6.1070     0.4450 C.3   1 <1>   0.2000 
 18 C        0.1860    -7.4190     0.6000 C.3   1 <1>  -0.0800 
 19 O       -0.8210    -5.5980     1.7160 O.3   1 <1>  -0.6800 
 20 C        0.0780    -8.3010    -0.6610 C.3   1 <1>  -0.0170 
 21 C        1.0420    -9.4740    -0.5870 C.ar  1 <1>  -0.1440 
 22 C        0.8970   -10.4790     0.3500 C.ar  1 <1>  -0.1500 
 23 C        2.1160    -9.5940    -1.4470 C.ar  1 <1>  -0.1500 
 24 C        1.8190   -11.5110     0.3960 C.ar  1 <1>   0.1600 
 25 C        2.9810   -10.6680    -1.3180 C.ar  1 <1>   0.1600 
 26 N        2.8630   -11.6200    -0.4090 N.ar  1 <1>  -0.6200 
 27 H        2.3450     1.8530    -1.2450 H     1 <1>   0.3700 
 28 H        3.6810     0.7300    -1.1320 H     1 <1>   0.3700 
 29 H        0.6370    -2.2350     0.9750 H     1 <1>   0.1500 
 30 H        1.3570    -4.4980     2.1010 H     1 <1>   0.0800 
 31 H        3.0120    -5.0400     1.9560 H     1 <1>   0.0800 
 32 H        7.1580    -3.0010     0.5490 H     1 <1>   0.0800 
 33 H        5.9690    -2.4520     1.7050 H     1 <1>   0.0800 
 34 H        6.1510    -1.6280     0.1820 H     1 <1>   0.0800 
 35 H        6.3820    -4.0900    -1.6300 H     1 <1>   0.0800 
 36 H        5.3720    -2.7070    -1.9490 H     1 <1>   0.0800 
 37 H        4.6750    -4.3020    -1.9330 H     1 <1>   0.0800 
 38 H        6.2610    -5.2750     0.5550 H     1 <1>   0.0800 
 39 H        4.5880    -5.6130     0.2530 H     1 <1>   0.0800 
 40 H        5.0820    -4.8340     1.7500 H     1 <1>   0.0800 
 41 H        2.4990    -5.5190    -0.3990 H     1 <1>   0.4500 
 42 H        0.2090    -4.1610    -0.0890 H     1 <1>   0.0800 
 43 H        0.4380    -5.4020    -1.3030 H     1 <1>   0.0800 
 44 H        2.3390    -7.6440     0.4000 H     1 <1>   0.0800 
 45 H        1.8080    -6.9750     1.9270 H     1 <1>   0.0800 
 46 H       -1.5060    -6.1830    -0.0920 H     1 <1>   0.0800 
 47 H       -0.1820    -7.9850     1.4380 H     1 <1>   0.0800 
 48 H       -1.6280    -5.9950     2.1090 H     1 <1>   0.4000 
 49 H        0.2870    -7.7280    -1.5480 H     1 <1>   0.0800 
 50 H       -0.9260    -8.6810    -0.7540 H     1 <1>   0.0800 
 51 H        0.0770   -10.4800     1.0450 H     1 <1>   0.1500 
 52 H        2.2960    -8.8730    -2.2230 H     1 <1>   0.1500 
 53 H        1.6940   -12.2880     1.1320 H     1 <1>   0.1500 
 54 H        3.8130   -10.7510    -1.9970 H     1 <1>   0.1500 
@<TRIPOS>BOND
  1   1   2  2   
  2   2   3  am  
  3   2   4  1   
  4   3  27  1   
  5   3  28  1   
  6   4   5  1   
  7   4   6  2   
  8   5   7  1   
  9   6   8  1   
 10   6  29  1   
 11   7   8  2   
 12   7   9  1   
 13   8  10  1   
 14   9  11  1   
 15   9  12  1   
 16   9  13  1   
 17  10  14  1   
 18  10  30  1   
 19  10  31  1   
 20  11  32  1   
 21  11  33  1   
 22  11  34  1   
 23  12  35  1   
 24  12  36  1   
 25  12  37  1   
 26  13  38  1   
 27  13  39  1   
 28  13  40  1   
 29  14  15  1   
 30  14  16  1   
 31  14  41  1   
 32  15  17  1   
 33  15  42  1   
 34  15  43  1   
 35  16  18  1   
 36  16  44  1   
 37  16  45  1   
 38  17  18  1   
 39  17  19  1   
 40  17  46  1   
 41  18  20  1   
 42  18  47  1   
 43  19  48  1   
 44  20  21  1   
 45  20  49  1   
 46  20  50  1   
 47  21  22  ar  
 48  21  23  ar  
 49  22  24  ar  
 50  22  51  1   
 51  23  25  ar  
 52  23  52  1   
 53  24  26  ar  
 54  24  53  1   
 55  25  26  ar  
 56  25  54  1   
@<TRIPOS>SUBSTRUCTURE
  1 ****  14 GROUP 4 **** **** 0

# MOE 2024.06 (io_trps.svl 2023.06)
