@<TRIPOS>MOLECULE
NONAME
37 39 1 0 0 
SMALL
USER_CHARGES


@<TRIPOS>ATOM
  1 O       -1.2140     0.5990     1.6560 O.2   1 <1>  -0.5700 
  2 C       -2.0330     1.1070     0.9050 C.2   1 <1>   0.7150 
  3 N       -2.9580     0.2720     0.3130 N.am  1 <1>  -0.6600 
  4 C       -1.9770     2.5450     0.6920 C.2   1 <1>   0.1010 
  5 C       -4.0560     0.6840    -0.6000 C.3   1 <1>   0.1400 
  6 C       -2.8770    -1.2090     0.3820 C.3   1 <1>   0.1400 
  7 N       -2.7240     3.3140    -0.0760 N.2   1 <1>  -0.5650 
  8 N       -1.0370     3.2750     1.3460 N.pl3 1 <1>   0.0330 
  9 C       -4.9240    -0.5650    -0.7420 C.3   1 <1>   0.2000 
 10 C       -3.9190    -1.7140    -0.6210 C.3   1 <1>  -0.0800 
 11 C       -2.2400     4.5510     0.1030 C.2   1 <1>   0.0770 
 12 C       -1.2060     4.5490     0.9710 C.2   1 <1>  -0.3020 
 13 O       -5.8010    -0.6020     0.3330 O.3   1 <1>  -0.6800 
 14 C       -4.5140    -3.0870    -0.2600 C.3   1 <1>   0.0210 
 15 C       -3.4230    -4.1330    -0.1330 C.2   1 <1>   0.1080 
 16 N       -2.6340    -4.4510    -1.1110 N.2   1 <1>  -0.7070 
 17 C       -3.1390    -4.8480     1.0260 C.2   1 <1>  -0.1500 
 18 N       -1.8180    -5.3910    -0.5980 N.pl3 1 <1>   0.3000 
 19 C       -2.1030    -5.6470     0.6960 C.2   1 <1>  -0.3320 
 20 C       -1.3560    -6.6540     1.5500 C.3   1 <1>  -0.0600 
 21 H       -4.6190     1.5140    -0.2070 H     1 <1>   0.0800 
 22 H       -3.6350     0.9550    -1.5530 H     1 <1>   0.0800 
 23 H       -1.8890    -1.5560     0.1250 H     1 <1>   0.0800 
 24 H       -3.1160    -1.5290     1.3820 H     1 <1>   0.0800 
 25 H       -0.3490     2.8710     1.9910 H     1 <1>   0.2700 
 26 H       -5.4950    -0.5870    -1.6540 H     1 <1>   0.0800 
 27 H       -3.4210    -1.8110    -1.5700 H     1 <1>   0.0800 
 28 H       -2.6640     5.4000    -0.4070 H     1 <1>   0.1500 
 29 H       -0.6030     5.3650     1.3280 H     1 <1>   0.1500 
 30 H       -5.3040    -0.3770     1.1450 H     1 <1>   0.4000 
 31 H       -5.2000    -3.3950    -1.0280 H     1 <1>   0.0800 
 32 H       -5.0560    -3.0340     0.6670 H     1 <1>   0.0800 
 33 H       -3.6510    -4.7610     1.9670 H     1 <1>   0.1500 
 34 H       -1.0800    -5.8370    -1.1550 H     1 <1>   0.2700 
 35 H       -1.7690    -6.6750     2.5430 H     1 <1>   0.0800 
 36 H       -0.3170    -6.3880     1.6180 H     1 <1>   0.0800 
 37 H       -1.4400    -7.6380     1.1240 H     1 <1>   0.0800 
@<TRIPOS>BOND
  1   1   2  2   
  2   2   3  am  
  3   2   4  1   
  4   3   5  1   
  5   3   6  1   
  6   4   7  2   
  7   4   8  1   
  8   5   9  1   
  9   5  21  1   
 10   5  22  1   
 11   6  10  1   
 12   6  23  1   
 13   6  24  1   
 14   7  11  1   
 15   8  12  1   
 16   8  25  1   
 17   9  10  1   
 18   9  13  1   
 19   9  26  1   
 20  10  14  1   
 21  10  27  1   
 22  11  12  2   
 23  11  28  1   
 24  12  29  1   
 25  13  30  1   
 26  14  15  1   
 27  14  31  1   
 28  14  32  1   
 29  15  16  2   
 30  15  17  1   
 31  16  18  1   
 32  17  19  2   
 33  17  33  1   
 34  18  19  1   
 35  18  34  1   
 36  19  20  1   
 37  20  35  1   
 38  20  36  1   
 39  20  37  1   
@<TRIPOS>SUBSTRUCTURE
  1 ****   6 GROUP 4 **** **** 0

# MOE 2024.06 (io_trps.svl 2023.06)
