@<TRIPOS>MOLECULE
NONAME
57 60 1 0 0 
SMALL
USER_CHARGES


@<TRIPOS>ATOM
  1 O       -0.5940     0.0120    -1.1050 O.2   1 <1>  -0.5700 
  2 C       -1.6370     0.5870    -0.8920 C.2   1 <1>   0.5690 
  3 N       -2.8280    -0.0820    -0.8330 N.am  1 <1>  -0.6600 
  4 C       -1.5580     2.1090    -0.6720 C.3   1 <1>   0.4040 
  5 C       -4.1860     0.5010    -0.6590 C.3   1 <1>   0.1400 
  6 C       -2.9160    -1.5550    -1.0120 C.3   1 <1>   0.1400 
  7 N       -0.1970     2.5660    -0.1960 N.4   1 <1>  -0.9590 
  8 C       -5.1500    -0.6690    -0.8620 C.3   1 <1>   0.2000 
  9 C       -4.3350    -1.9290    -0.5830 C.3   1 <1>  -0.0800 
 10 C        0.0630     2.1050     1.1980 C.3   1 <1>   0.3430 
 11 C        0.0100     4.0190    -0.4350 C.3   1 <1>   0.3430 
 12 O       -6.2240    -0.5900     0.0080 O.3   1 <1>  -0.6800 
 13 C       -4.8850    -3.1760    -1.2970 C.3   1 <1>  -0.0170 
 14 C        1.5590     1.8610     1.3890 C.3   1 <1>  -0.1600 
 15 C        1.4660     4.4400    -0.2210 C.3   1 <1>  -0.1600 
 16 C       -4.0300    -4.4020    -0.9910 C.ar  1 <1>  -0.1440 
 17 C        2.3810     3.0990     1.7840 C.3   1 <1>  -0.1600 
 18 C        1.8820     4.4520     1.2560 C.3   1 <1>  -0.1600 
 19 C       -4.1080    -5.0910     0.2420 C.ar  1 <1>   0.0000 
 20 C       -3.1420    -4.8650    -1.9180 C.ar  1 <1>  -0.1500 
 21 C       -3.2380    -6.1920     0.4360 C.ar  1 <1>   0.3100 
 22 C       -4.9970    -4.7580     1.2910 C.ar  1 <1>  -0.1500 
 23 C       -2.3350    -5.9720    -1.6290 C.ar  1 <1>   0.1600 
 24 N       -2.3600    -6.6170    -0.5070 N.ar  1 <1>  -0.6200 
 25 C       -3.2760    -6.8820     1.6580 C.ar  1 <1>  -0.1500 
 26 C       -5.0120    -5.4540     2.4690 C.ar  1 <1>  -0.1500 
 27 C       -4.1390    -6.5280     2.6590 C.ar  1 <1>  -0.1500 
 28 H       -2.3100     2.4000     0.0400 H     1 <1>   0.0800 
 29 H       -1.7840     2.5800    -1.6120 H     1 <1>   0.0800 
 30 H       -4.2830     0.8990     0.3360 H     1 <1>   0.0800 
 31 H       -4.3720     1.2660    -1.3920 H     1 <1>   0.0800 
 32 H       -2.7540    -1.7910    -2.0510 H     1 <1>   0.0800 
 33 H       -2.1770    -2.0660    -0.4160 H     1 <1>   0.0800 
 34 H        0.4710     2.0360    -0.7820 H     1 <1>   0.4500 
 35 H       -5.5300    -0.6600    -1.8700 H     1 <1>   0.0800 
 36 H       -4.3020    -2.1050     0.4780 H     1 <1>   0.0800 
 37 H       -0.3010     2.8190     1.9190 H     1 <1>   0.0800 
 38 H       -0.4440     1.1670     1.3620 H     1 <1>   0.0800 
 39 H       -0.2610     4.2510    -1.4530 H     1 <1>   0.0800 
 40 H       -0.6270     4.5940     0.2170 H     1 <1>   0.0800 
 41 H       -5.9470    -0.7640     0.9290 H     1 <1>   0.4000 
 42 H       -4.9010    -3.0030    -2.3590 H     1 <1>   0.0800 
 43 H       -5.9040    -3.3560    -0.9980 H     1 <1>   0.0800 
 44 H        1.6790     1.1310     2.1710 H     1 <1>   0.0800 
 45 H        1.9680     1.4160     0.4980 H     1 <1>   0.0800 
 46 H        2.1340     3.8350    -0.8100 H     1 <1>   0.0800 
 47 H        1.5550     5.4480    -0.5880 H     1 <1>   0.0800 
 48 H        2.4190     3.1620     2.8600 H     1 <1>   0.0800 
 49 H        3.3950     2.9480     1.4530 H     1 <1>   0.0800 
 50 H        2.6840     5.1620     1.3810 H     1 <1>   0.0800 
 51 H        1.0660     4.8040     1.8640 H     1 <1>   0.0800 
 52 H       -3.0320    -4.4010    -2.8810 H     1 <1>   0.1500 
 53 H       -5.6840    -3.9430     1.1640 H     1 <1>   0.1500 
 54 H       -1.6470    -6.3060    -2.3880 H     1 <1>   0.1500 
 55 H       -2.5980    -7.7070     1.7800 H     1 <1>   0.1500 
 56 H       -5.6920    -5.1890     3.2600 H     1 <1>   0.1500 
 57 H       -4.1570    -7.0670     3.5910 H     1 <1>   0.1500 
@<TRIPOS>BOND
  1   1   2  2   
  2   2   3  am  
  3   2   4  1   
  4   3   5  1   
  5   3   6  1   
  6   4   7  1   
  7   4  28  1   
  8   4  29  1   
  9   5   8  1   
 10   5  30  1   
 11   5  31  1   
 12   6   9  1   
 13   6  32  1   
 14   6  33  1   
 15   7  10  1   
 16   7  11  1   
 17   7  34  1   
 18   8   9  1   
 19   8  12  1   
 20   8  35  1   
 21   9  13  1   
 22   9  36  1   
 23  10  14  1   
 24  10  37  1   
 25  10  38  1   
 26  11  15  1   
 27  11  39  1   
 28  11  40  1   
 29  12  41  1   
 30  13  16  1   
 31  13  42  1   
 32  13  43  1   
 33  14  17  1   
 34  14  44  1   
 35  14  45  1   
 36  15  18  1   
 37  15  46  1   
 38  15  47  1   
 39  16  19  ar  
 40  16  20  ar  
 41  17  18  1   
 42  17  48  1   
 43  17  49  1   
 44  18  50  1   
 45  18  51  1   
 46  19  21  ar  
 47  19  22  ar  
 48  20  23  ar  
 49  20  52  1   
 50  21  24  ar  
 51  21  25  ar  
 52  22  26  ar  
 53  22  53  1   
 54  23  24  ar  
 55  23  54  1   
 56  25  27  ar  
 57  25  55  1   
 58  26  27  ar  
 59  26  56  1   
 60  27  57  1   
@<TRIPOS>SUBSTRUCTURE
  1 ****   6 GROUP 4 **** **** 0

# MOE 2024.06 (io_trps.svl 2023.06)
