@<TRIPOS>MOLECULE
NONAME
50 52 1 0 0 
SMALL
USER_CHARGES


@<TRIPOS>ATOM
  1 O       -0.6040     0.8780    -0.8350 O.2   1 <1>  -0.5700 
  2 C       -0.6930     2.0830    -0.8370 C.2   1 <1>   0.5690 
  3 N       -1.5050     2.7910     0.0130 N.am  1 <1>  -0.6600 
  4 C        0.1470     2.8480    -1.8550 C.3   1 <1>   0.1810 
  5 C       -1.5710     4.2910    -0.0640 C.3   1 <1>   0.3640 
  6 C       -2.3080     2.1890     1.1150 C.3   1 <1>   0.2200 
  7 O        0.5430     4.1020    -1.3650 O.3   1 <1>  -0.5600 
  8 C       -2.9860     4.7110    -0.4690 C.ar  1 <1>  -0.1440 
  9 C       -0.5410     4.9550    -1.0230 C.3   1 <1>   0.2610 
 10 C       -1.3830     1.5580     2.1550 C.3   1 <1>  -0.2400 
 11 C       -3.3340     1.1900     0.5790 C.3   1 <1>  -0.2400 
 12 C       -3.6370     4.1110    -1.5410 C.ar  1 <1>  -0.1500 
 13 C       -3.6380     5.7150     0.2330 C.ar  1 <1>  -0.1500 
 14 C       -0.0100     6.2520    -0.3970 C.2   1 <1>   0.5690 
 15 C       -4.9130     4.5050    -1.9000 C.ar  1 <1>  -0.1500 
 16 C       -4.9150     6.1100    -0.1250 C.ar  1 <1>  -0.1500 
 17 O       -0.7830     7.0770     0.0310 O.2   1 <1>  -0.5700 
 18 N        1.3330     6.4580    -0.3330 N.am  1 <1>  -0.7300 
 19 C       -5.5540     5.5050    -1.1920 C.ar  1 <1>  -0.1500 
 20 C        2.0010     7.6220     0.3000 C.3   1 <1>   0.1400 
 21 C        1.8230     8.8730    -0.5610 C.3   1 <1>   0.0960 
 22 N        2.4810    10.0150     0.0900 N.pl3 1 <1>   0.3140 
 23 N        3.8200    10.0930     0.2020 N.2   1 <1>  -0.7070 
 24 C        1.8810    11.0840     0.6510 C.2   1 <1>  -0.3020 
 25 C        4.0370    11.2100     0.8270 C.2   1 <1>   0.1390 
 26 C        2.8590    11.8770     1.1360 C.2   1 <1>  -0.1500 
 27 H       -0.4120     2.9870    -2.7630 H     1 <1>   0.0800 
 28 H        1.0370     2.2860    -2.0750 H     1 <1>   0.0800 
 29 H       -1.3780     4.6650     0.9270 H     1 <1>   0.0800 
 30 H       -2.8590     2.9740     1.6070 H     1 <1>   0.0800 
 31 H       -1.0340     5.2200    -1.9400 H     1 <1>   0.0800 
 32 H       -0.8580     0.7170     1.7390 H     1 <1>   0.0800 
 33 H       -1.9610     1.2110     2.9920 H     1 <1>   0.0800 
 34 H       -0.6720     2.2810     2.5080 H     1 <1>   0.0800 
 35 H       -2.8540     0.3310     0.1470 H     1 <1>   0.0800 
 36 H       -3.9580     1.6580    -0.1590 H     1 <1>   0.0800 
 37 H       -3.9610     0.8510     1.3830 H     1 <1>   0.0800 
 38 H       -3.1570     3.3260    -2.0990 H     1 <1>   0.1500 
 39 H       -3.1530     6.2050     1.0610 H     1 <1>   0.1500 
 40 H       -5.4100     4.0320    -2.7300 H     1 <1>   0.1500 
 41 H       -5.4100     6.8910     0.4260 H     1 <1>   0.1500 
 42 H        1.9350     5.7080    -0.6920 H     1 <1>   0.3700 
 43 H       -6.5470     5.8130    -1.4700 H     1 <1>   0.1500 
 44 H        1.5650     7.7910     1.2710 H     1 <1>   0.0800 
 45 H        3.0490     7.4090     0.4220 H     1 <1>   0.0800 
 46 H        0.7800     9.0980    -0.6810 H     1 <1>   0.0800 
 47 H        2.2750     8.7270    -1.5230 H     1 <1>   0.0800 
 48 H        0.8140    11.2150     0.6730 H     1 <1>   0.1500 
 49 H        5.0230    11.5680     1.0730 H     1 <1>   0.1500 
 50 H        2.7770    12.8180     1.6510 H     1 <1>   0.1500 
@<TRIPOS>BOND
  1   1   2  2   
  2   2   3  am  
  3   2   4  1   
  4   3   5  1   
  5   3   6  1   
  6   4   7  1   
  7   4  27  1   
  8   4  28  1   
  9   5   8  1   
 10   5   9  1   
 11   5  29  1   
 12   6  10  1   
 13   6  11  1   
 14   6  30  1   
 15   7   9  1   
 16   8  12  ar  
 17   8  13  ar  
 18   9  14  1   
 19   9  31  1   
 20  10  32  1   
 21  10  33  1   
 22  10  34  1   
 23  11  35  1   
 24  11  36  1   
 25  11  37  1   
 26  12  15  ar  
 27  12  38  1   
 28  13  16  ar  
 29  13  39  1   
 30  14  17  2   
 31  14  18  am  
 32  15  19  ar  
 33  15  40  1   
 34  16  19  ar  
 35  16  41  1   
 36  18  20  1   
 37  18  42  1   
 38  19  43  1   
 39  20  21  1   
 40  20  44  1   
 41  20  45  1   
 42  21  22  1   
 43  21  46  1   
 44  21  47  1   
 45  22  23  1   
 46  22  24  1   
 47  23  25  2   
 48  24  26  2   
 49  24  48  1   
 50  25  26  1   
 51  25  49  1   
 52  26  50  1   
@<TRIPOS>SUBSTRUCTURE
  1 ****  14 GROUP 4 **** **** 0

# MOE 2024.06 (io_trps.svl 2023.06)
