@<TRIPOS>MOLECULE
NONAME
40 41 1 0 0 
SMALL
USER_CHARGES


@<TRIPOS>ATOM
  1 O       -0.5490     0.3730     0.5370 O.2   1 <1>  -0.5700 
  2 C       -1.6390     0.8820     0.4050 C.2   1 <1>   0.5690 
  3 N       -2.7540     0.1180     0.1840 N.am  1 <1>  -0.6600 
  4 C       -1.7550     2.4110     0.4970 C.3   1 <1>   0.2010 
  5 C       -4.1440     0.6020    -0.0170 C.3   1 <1>   0.1400 
  6 C       -2.7010    -1.3640     0.1210 C.3   1 <1>   0.1400 
  7 N       -0.4410     3.1120     0.4010 N.am  1 <1>  -0.7300 
  8 C       -4.9340    -0.6410    -0.4240 C.3   1 <1>   0.2000 
  9 C       -4.1610    -1.8210     0.1560 C.3   1 <1>  -0.0800 
 10 C       -0.1830     4.4210     0.1980 C.2   1 <1>   0.5690 
 11 O       -6.2230    -0.6100     0.0820 O.3   1 <1>  -0.6800 
 12 C       -4.4130    -3.1390    -0.5920 C.3   1 <1>   0.0210 
 13 O        0.9490     4.8160     0.1100 O.2   1 <1>  -0.5700 
 14 C       -1.3170     5.4090     0.0790 C.3   1 <1>  -0.1790 
 15 C       -3.5640    -4.2560    -0.0190 C.2   1 <1>   0.1080 
 16 N       -3.7160    -4.7020     1.1890 N.2   1 <1>  -0.7070 
 17 C       -2.5410    -4.9100    -0.6970 C.2   1 <1>  -0.1500 
 18 N       -2.7840    -5.6660     1.3150 N.pl3 1 <1>   0.3000 
 19 C       -2.0590    -5.8090     0.1860 C.2   1 <1>  -0.3320 
 20 C       -0.9310    -6.8110     0.0190 C.3   1 <1>  -0.0600 
 21 H       -2.2100     2.6560     1.4390 H     1 <1>   0.0800 
 22 H       -2.3920     2.7600    -0.2950 H     1 <1>   0.0800 
 23 H       -4.5180     1.0020     0.9090 H     1 <1>   0.0800 
 24 H       -4.1840     1.3440    -0.7950 H     1 <1>   0.0800 
 25 H       -2.2250    -1.6580    -0.7990 H     1 <1>   0.0800 
 26 H       -2.1440    -1.7680     0.9510 H     1 <1>   0.0800 
 27 H        0.3660     2.4800     0.4680 H     1 <1>   0.3700 
 28 H       -4.9930    -0.6960    -1.4980 H     1 <1>   0.0800 
 29 H       -4.4230    -1.9510     1.1920 H     1 <1>   0.0800 
 30 H       -6.2210    -0.8340     1.0330 H     1 <1>   0.4000 
 31 H       -4.1920    -3.0230    -1.6370 H     1 <1>   0.0800 
 32 H       -5.4490    -3.4120    -0.4980 H     1 <1>   0.0800 
 33 H       -1.9470     5.3500     0.9460 H     1 <1>   0.0800 
 34 H       -1.8900     5.2000    -0.8040 H     1 <1>   0.0800 
 35 H       -0.9200     6.4050     0.0070 H     1 <1>   0.0800 
 36 H       -2.2230    -4.7200    -1.7060 H     1 <1>   0.1500 
 37 H       -2.6700    -6.2050     2.1810 H     1 <1>   0.2700 
 38 H       -0.5090    -6.7300    -0.9670 H     1 <1>   0.0800 
 39 H       -1.3000    -7.8120     0.1530 H     1 <1>   0.0800 
 40 H       -0.1550    -6.6220     0.7390 H     1 <1>   0.0800 
@<TRIPOS>BOND
  1   1   2  2   
  2   2   3  am  
  3   2   4  1   
  4   3   5  1   
  5   3   6  1   
  6   4   7  1   
  7   4  21  1   
  8   4  22  1   
  9   5   8  1   
 10   5  23  1   
 11   5  24  1   
 12   6   9  1   
 13   6  25  1   
 14   6  26  1   
 15   7  10  am  
 16   7  27  1   
 17   8   9  1   
 18   8  11  1   
 19   8  28  1   
 20   9  12  1   
 21   9  29  1   
 22  10  13  2   
 23  10  14  1   
 24  11  30  1   
 25  12  15  1   
 26  12  31  1   
 27  12  32  1   
 28  14  33  1   
 29  14  34  1   
 30  14  35  1   
 31  15  16  2   
 32  15  17  1   
 33  16  18  1   
 34  17  19  2   
 35  17  36  1   
 36  18  19  1   
 37  18  37  1   
 38  19  20  1   
 39  20  38  1   
 40  20  39  1   
 41  20  40  1   
@<TRIPOS>SUBSTRUCTURE
  1 ****   6 GROUP 4 **** **** 0

# MOE 2024.06 (io_trps.svl 2023.06)
