@<TRIPOS>MOLECULE
NONAME
48 50 1 0 0 
SMALL
USER_CHARGES


@<TRIPOS>ATOM
  1 O       -0.5800     0.2090    -1.7850 O.co2 1 <1>  -0.9000 
  2 C       -1.1350     0.4760    -0.7150 C.2   1 <1>   0.9060 
  3 O       -1.8240    -0.3380    -0.0940 O.co2 1 <1>  -0.9000 
  4 C       -0.9910     1.8760    -0.1540 C.3   1 <1>  -0.1060 
  5 C       -2.3970     2.3740     0.2310 C.3   1 <1>   0.2000 
  6 C       -0.5340     2.7330    -1.3400 C.3   1 <1>   0.3430 
  7 C        0.0040     1.8240     1.0530 C.3   1 <1>  -0.0170 
  8 O       -2.8090     1.7260     1.3730 O.3   1 <1>  -0.6800 
  9 C       -2.4880     3.8920     0.4600 C.3   1 <1>  -0.1600 
 10 N       -0.5920     4.2190    -1.1110 N.4   1 <1>  -0.9590 
 11 C        1.4300     2.2730     0.7470 C.ar  1 <1>  -0.1440 
 12 C       -1.1630     4.6130     0.2130 C.3   1 <1>   0.3430 
 13 C        0.7830     4.7970    -1.3200 C.3   1 <1>   0.5240 
 14 C        1.9870     3.3440     1.4330 C.ar  1 <1>  -0.1500 
 15 C        2.1870     1.6130    -0.2090 C.ar  1 <1>  -0.1500 
 16 C        0.8030     6.3250    -1.2550 C.2   1 <1>   0.3350 
 17 C        3.2680     3.7750     1.1350 C.ar  1 <1>  -0.1500 
 18 C        3.4670     2.0450    -0.5080 C.ar  1 <1>  -0.1500 
 19 N        0.7630     7.0860    -2.2730 N.2   1 <1>  -0.4100 
 20 N        0.8450     6.9840    -0.1020 N.2   1 <1>  -0.5650 
 21 C        4.0060     3.1300     0.1600 C.ar  1 <1>  -0.1500 
 22 O        0.7950     8.3100    -1.8370 O.3   1 <1>  -0.0190 
 23 C        0.8480     8.1830    -0.5340 C.2   1 <1>   0.2980 
 24 C        0.9020     9.4370     0.3220 C.3   1 <1>   0.0200 
 25 C        2.2210    10.1980     0.1390 C.3   1 <1>  -0.2400 
 26 H       -3.0940     2.0970    -0.5450 H     1 <1>   0.0800 
 27 H       -1.1720     2.4890    -2.1750 H     1 <1>   0.0800 
 28 H        0.4580     2.4300    -1.6300 H     1 <1>   0.0800 
 29 H       -0.3740     2.4190     1.8640 H     1 <1>   0.0800 
 30 H        0.0450     0.8170     1.4370 H     1 <1>   0.0800 
 31 H       -2.6990     0.7500     1.1910 H     1 <1>   0.4000 
 32 H       -3.2310     4.2990    -0.2010 H     1 <1>   0.0800 
 33 H       -2.8080     4.0990     1.4670 H     1 <1>   0.0800 
 34 H       -1.1930     4.6200    -1.8400 H     1 <1>   0.4500 
 35 H       -0.4690     4.3530     0.9940 H     1 <1>   0.0800 
 36 H       -1.3180     5.6790     0.2510 H     1 <1>   0.0800 
 37 H        1.4630     4.4140    -0.5850 H     1 <1>   0.0800 
 38 H        1.1500     4.5000    -2.2880 H     1 <1>   0.0800 
 39 H        1.4320     3.8470     2.2050 H     1 <1>   0.1500 
 40 H        1.7820     0.7550    -0.7260 H     1 <1>   0.1500 
 41 H        3.6940     4.6080     1.6690 H     1 <1>   0.1500 
 42 H        4.0450     1.5260    -1.2550 H     1 <1>   0.1500 
 43 H        5.0050     3.4620    -0.0700 H     1 <1>   0.1500 
 44 H        0.0760    10.0740     0.0600 H     1 <1>   0.0800 
 45 H        0.7930     9.1600     1.3560 H     1 <1>   0.0800 
 46 H        2.3360    10.5100    -0.8850 H     1 <1>   0.0800 
 47 H        3.0530     9.5710     0.4050 H     1 <1>   0.0800 
 48 H        2.2340    11.0720     0.7670 H     1 <1>   0.0800 
@<TRIPOS>BOND
  1   1   2  ar  
  2   2   3  ar  
  3   2   4  1   
  4   4   5  1   
  5   4   6  1   
  6   4   7  1   
  7   5   8  1   
  8   5   9  1   
  9   5  26  1   
 10   6  10  1   
 11   6  27  1   
 12   6  28  1   
 13   7  11  1   
 14   7  29  1   
 15   7  30  1   
 16   8  31  1   
 17   9  12  1   
 18   9  32  1   
 19   9  33  1   
 20  10  12  1   
 21  10  13  1   
 22  10  34  1   
 23  11  14  ar  
 24  11  15  ar  
 25  12  35  1   
 26  12  36  1   
 27  13  16  1   
 28  13  37  1   
 29  13  38  1   
 30  14  17  ar  
 31  14  39  1   
 32  15  18  ar  
 33  15  40  1   
 34  16  19  2   
 35  16  20  1   
 36  17  21  ar  
 37  17  41  1   
 38  18  21  ar  
 39  18  42  1   
 40  19  22  1   
 41  20  23  2   
 42  21  43  1   
 43  22  23  1   
 44  23  24  1   
 45  24  25  1   
 46  24  44  1   
 47  24  45  1   
 48  25  46  1   
 49  25  47  1   
 50  25  48  1   
@<TRIPOS>SUBSTRUCTURE
  1 ****  10 GROUP 4 **** **** 0

# MOE 2024.06 (io_trps.svl 2023.06)
