@<TRIPOS>MOLECULE
NONAME
33 35 1 0 0 
SMALL
USER_CHARGES


@<TRIPOS>ATOM
  1 F        0.4750     0.5810    -0.4460 F     1 <1>  -0.1900 
  2 C        0.3560     1.8740    -0.3230 C.ar  1 <1>   0.1900 
  3 C        1.4700     2.6610    -0.3560 C.ar  1 <1>  -0.1500 
  4 C       -0.9240     2.4010    -0.1600 C.ar  1 <1>  -0.1500 
  5 C        1.3510     4.0510    -0.2240 C.ar  1 <1>   0.3100 
  6 C       -1.0620     3.7570    -0.0290 C.ar  1 <1>  -0.1500 
  7 N        2.4880     4.7820    -0.2640 N.ar  1 <1>  -0.6200 
  8 C        0.0610     4.6160    -0.0580 C.ar  1 <1>   0.0000 
  9 C        2.3880     6.0750    -0.1400 C.ar  1 <1>   0.4100 
 10 C       -0.0190     6.0210     0.0690 C.ar  1 <1>  -0.1440 
 11 N        3.5660     6.7990    -0.1920 N.pl3 1 <1>  -0.8380 
 12 C        1.1460     6.7230     0.0240 C.ar  1 <1>  -0.1500 
 13 C       -1.3520     6.7330     0.2490 C.3   1 <1>  -0.0970 
 14 C        4.8980     6.1380    -0.0140 C.3   1 <1>   0.2090 
 15 C        3.7140     8.2490     0.1120 C.3   1 <1>   0.2090 
 16 C        5.8880     7.2610     0.3180 C.3   1 <1>   0.2600 
 17 C        5.1940     8.5390    -0.1500 C.3   1 <1>   0.2000 
 18 F        6.0030     7.3360     1.6450 F     1 <1>  -0.3400 
 19 O        5.3690     8.6690    -1.5280 O.3   1 <1>  -0.6800 
 20 H        2.4470     2.2360    -0.4820 H     1 <1>   0.1500 
 21 H       -1.7680     1.7350    -0.1410 H     1 <1>   0.1500 
 22 H       -2.0440     4.1760     0.0970 H     1 <1>   0.1500 
 23 H        1.1380     7.7900     0.1130 H     1 <1>   0.1500 
 24 H       -1.2130     7.7960     0.3260 H     1 <1>   0.0800 
 25 H       -1.8360     6.3900     1.1460 H     1 <1>   0.0800 
 26 H       -1.9910     6.5370    -0.5940 H     1 <1>   0.0800 
 27 H        4.8670     5.3970     0.7670 H     1 <1>   0.0800 
 28 H        5.1720     5.6660    -0.9420 H     1 <1>   0.0800 
 29 H        3.0800     8.8570    -0.5090 H     1 <1>   0.0800 
 30 H        3.4840     8.4170     1.1500 H     1 <1>   0.0800 
 31 H        6.8780     7.1200    -0.0740 H     1 <1>   0.0800 
 32 H        5.5640     9.4270     0.3310 H     1 <1>   0.0800 
 33 H        4.8110     7.9900    -1.9680 H     1 <1>   0.4000 
@<TRIPOS>BOND
  1   1   2  1   
  2   2   3  ar  
  3   2   4  ar  
  4   3   5  ar  
  5   3  20  1   
  6   4   6  ar  
  7   4  21  1   
  8   5   7  ar  
  9   5   8  ar  
 10   6   8  ar  
 11   6  22  1   
 12   7   9  ar  
 13   8  10  ar  
 14   9  11  1   
 15   9  12  ar  
 16  10  12  ar  
 17  10  13  1   
 18  11  14  1   
 19  11  15  1   
 20  12  23  1   
 21  13  24  1   
 22  13  25  1   
 23  13  26  1   
 24  14  16  1   
 25  14  27  1   
 26  14  28  1   
 27  15  17  1   
 28  15  29  1   
 29  15  30  1   
 30  16  17  1   
 31  16  18  1   
 32  16  31  1   
 33  17  19  1   
 34  17  32  1   
 35  19  33  1   
@<TRIPOS>SUBSTRUCTURE
  1 ****   9 GROUP 4 **** **** 0

# MOE 2024.06 (io_trps.svl 2023.06)
