@<TRIPOS>MOLECULE
NONAME
51 54 1 0 0 
SMALL
USER_CHARGES


@<TRIPOS>ATOM
  1 S        0.0680     0.9380    -1.5500 S.o2  1 <1>   1.5000 
  2 O       -0.2280     2.2180    -2.1450 O.2   1 <1>  -0.6500 
  3 O        0.9530     0.0260    -2.2500 O.2   1 <1>  -0.6500 
  4 N        0.9030     1.2710    -0.1010 N.am  1 <1>  -0.8490 
  5 C       -1.4550     0.0570    -1.0830 C.2   1 <1>   0.0780 
  6 C        0.7520     0.3080     1.0310 C.3   1 <1>   0.2760 
  7 C        2.2310     1.8670    -0.3450 C.3   1 <1>   0.1960 
  8 O       -1.3400    -1.1430    -0.5420 O.3   1 <1>  -0.2800 
  9 C       -2.7680     0.3810    -1.1340 C.2   1 <1>  -0.1500 
 10 C        1.2300     0.8950     2.3710 C.3   1 <1>   0.1200 
 11 C        1.3980    -1.0860     0.7980 C.3   1 <1>   0.3430 
 12 C        3.4260     1.2190     0.3820 C.3   1 <1>  -0.0800 
 13 C       -2.5250    -1.6050    -0.1840 C.2   1 <1>   0.1410 
 14 C       -3.4600    -0.6900    -0.5580 C.2   1 <1>  -0.1500 
 15 O        2.5940     0.6750     2.5680 O.3   1 <1>  -0.5600 
 16 N        2.4880    -1.1000    -0.2420 N.4   1 <1>  -0.9590 
 17 C        3.4370     1.5350     1.8830 C.3   1 <1>   0.1200 
 18 C        3.6880    -0.2790     0.1060 C.3   1 <1>   0.3430 
 19 C       -2.5730    -2.8710     0.5140 C.2   1 <1>   0.2880 
 20 C        2.8570    -2.5040    -0.5760 C.3   1 <1>   0.2630 
 21 N       -1.5350    -3.3570     1.1610 N.2   1 <1>  -0.7070 
 22 C       -3.6740    -3.7360     0.6190 C.2   1 <1>  -0.1810 
 23 N       -1.9660    -4.5180     1.6830 N.pl3 1 <1>   0.3000 
 24 C       -3.2520    -4.7720     1.3740 C.2   1 <1>  -0.3320 
 25 C       -5.0440    -3.5320    -0.0070 C.3   1 <1>  -0.0590 
 26 C       -3.9720    -6.0250     1.8480 C.3   1 <1>  -0.0600 
 27 H       -0.2980     0.1540     1.1940 H     1 <1>   0.0800 
 28 H        2.4440     1.8650    -1.4020 H     1 <1>   0.0800 
 29 H        2.1770     2.9050    -0.0600 H     1 <1>   0.0800 
 30 H       -3.2130     1.2830    -1.5210 H     1 <1>   0.1500 
 31 H        0.7230     0.3890     3.1740 H     1 <1>   0.0800 
 32 H        1.0070     1.9460     2.4460 H     1 <1>   0.0800 
 33 H        0.6190    -1.7690     0.5000 H     1 <1>   0.0800 
 34 H        1.7850    -1.4500     1.7350 H     1 <1>   0.0800 
 35 H        4.2910     1.7320     0.0020 H     1 <1>   0.0800 
 36 H       -4.5260    -0.7380    -0.4280 H     1 <1>   0.1500 
 37 H        2.0680    -0.6840    -1.0990 H     1 <1>   0.4500 
 38 H        3.1470     2.5540     2.0840 H     1 <1>   0.0800 
 39 H        4.4250     1.3850     2.2830 H     1 <1>   0.0800 
 40 H        4.1710    -0.7050     0.9710 H     1 <1>   0.0800 
 41 H        4.3850    -0.3440    -0.7140 H     1 <1>   0.0800 
 42 H        3.2890    -2.9920     0.2820 H     1 <1>   0.0800 
 43 H        3.5690    -2.5200    -1.3840 H     1 <1>   0.0800 
 44 H        1.9800    -3.0530    -0.8830 H     1 <1>   0.0800 
 45 H       -1.3650    -5.1270     2.2530 H     1 <1>   0.2700 
 46 H       -4.9400    -3.2570    -1.0410 H     1 <1>   0.0800 
 47 H       -5.5740    -2.7550     0.5150 H     1 <1>   0.0800 
 48 H       -5.6260    -4.4330     0.0410 H     1 <1>   0.0800 
 49 H       -5.0010    -6.0200     1.5400 H     1 <1>   0.0800 
 50 H       -3.9440    -6.0850     2.9210 H     1 <1>   0.0800 
 51 H       -3.5000    -6.9010     1.4380 H     1 <1>   0.0800 
@<TRIPOS>BOND
  1   1   2  2   
  2   1   3  2   
  3   1   4  am  
  4   1   5  1   
  5   4   6  1   
  6   4   7  1   
  7   5   8  1   
  8   5   9  2   
  9   6  10  1   
 10   6  11  1   
 11   6  27  1   
 12   7  12  1   
 13   7  28  1   
 14   7  29  1   
 15   8  13  1   
 16   9  14  1   
 17   9  30  1   
 18  10  15  1   
 19  10  31  1   
 20  10  32  1   
 21  11  16  1   
 22  11  33  1   
 23  11  34  1   
 24  12  17  1   
 25  12  18  1   
 26  12  35  1   
 27  13  14  2   
 28  13  19  1   
 29  14  36  1   
 30  15  17  1   
 31  16  18  1   
 32  16  20  1   
 33  16  37  1   
 34  17  38  1   
 35  17  39  1   
 36  18  40  1   
 37  18  41  1   
 38  19  21  2   
 39  19  22  1   
 40  20  42  1   
 41  20  43  1   
 42  20  44  1   
 43  21  23  1   
 44  22  24  2   
 45  22  25  1   
 46  23  24  1   
 47  23  45  1   
 48  24  26  1   
 49  25  46  1   
 50  25  47  1   
 51  25  48  1   
 52  26  49  1   
 53  26  50  1   
 54  26  51  1   
@<TRIPOS>SUBSTRUCTURE
  1 ****   8 GROUP 4 **** **** 0

# MOE 2024.06 (io_trps.svl 2023.06)
