@<TRIPOS>MOLECULE
NONAME
47 49 1 0 0 
SMALL
USER_CHARGES


@<TRIPOS>ATOM
  1 S        1.0700     2.0420    -1.3270 S.o2  1 <1>   1.3330 
  2 O        1.1430     1.0470    -2.3680 O.2   1 <1>  -0.6500 
  3 O        0.9320     3.4370    -1.7080 O.2   1 <1>  -0.6500 
  4 N        2.5110     1.9090    -0.4410 N.am  1 <1>  -0.8490 
  5 C       -0.2710     1.5560    -0.2090 C.3   1 <1>  -0.0550 
  6 C        3.6870     2.2810    -1.2440 C.3   1 <1>   0.1160 
  7 C        2.7810     0.5720     0.1080 C.3   1 <1>   0.1160 
  8 C       -0.7040     2.4580     0.9790 C.3   1 <1>  -0.0800 
  9 C       -1.4730     3.7060     0.5290 C.3   1 <1>   0.2000 
 10 C        0.4370     3.0160     1.8320 C.3   1 <1>   0.2090 
 11 O       -2.4600     3.9650     1.4670 O.3   1 <1>  -0.6800 
 12 C       -0.4610     4.8570     0.5370 C.3   1 <1>   0.2090 
 13 N        0.7730     4.3110     1.1900 N.pl3 1 <1>  -0.8380 
 14 C        2.0520     4.6700     0.9510 C.ar  1 <1>   0.4610 
 15 N        2.3450     5.3640    -0.1450 N.ar  1 <1>  -0.1790 
 16 C        3.1360     4.2480     1.7450 C.ar  1 <1>  -0.1500 
 17 C        3.6190     5.7300    -0.5220 C.ar  1 <1>   0.3610 
 18 C        4.4410     4.4630     1.3920 C.ar  1 <1>  -0.1790 
 19 C        4.7090     5.2880     0.2470 C.ar  1 <1>   0.0000 
 20 C        3.8280     6.5130    -1.6630 C.ar  1 <1>  -0.1500 
 21 C        5.4900     3.8070     2.1370 C.2   1 <1>   0.9790 
 22 C        5.9920     5.6840    -0.1620 C.ar  1 <1>  -0.1500 
 23 C        5.0980     6.8760    -2.0400 C.ar  1 <1>  -0.1500 
 24 O        6.4240     3.2520     1.5400 O.co2 1 <1>  -0.9000 
 25 O        5.4030     3.7200     3.3700 O.co2 1 <1>  -0.9000 
 26 C        6.1850     6.4580    -1.2800 C.ar  1 <1>  -0.1500 
 27 H       -1.1440     1.3980    -0.8120 H     1 <1>   0.0800 
 28 H       -0.0290     0.5920     0.1910 H     1 <1>   0.0800 
 29 H        4.5680     2.3210    -0.6210 H     1 <1>   0.0800 
 30 H        3.5470     3.2450    -1.6950 H     1 <1>   0.0800 
 31 H        3.8490     1.5620    -2.0310 H     1 <1>   0.0800 
 32 H        3.7210     0.5760     0.6380 H     1 <1>   0.0800 
 33 H        2.8310    -0.1600    -0.6820 H     1 <1>   0.0800 
 34 H        2.0170     0.2840     0.8060 H     1 <1>   0.0800 
 35 H       -1.3400     1.8500     1.6000 H     1 <1>   0.0800 
 36 H       -1.9530     3.5910    -0.4280 H     1 <1>   0.0800 
 37 H        1.2760     2.3420     1.8670 H     1 <1>   0.0800 
 38 H        0.0980     3.2020     2.8380 H     1 <1>   0.0800 
 39 H       -2.0670     4.1650     2.3400 H     1 <1>   0.4000 
 40 H       -0.8380     5.6980     1.0950 H     1 <1>   0.0800 
 41 H       -0.2670     5.1700    -0.4720 H     1 <1>   0.0800 
 42 H        1.6070     5.3910    -0.8440 H     1 <1>   0.4570 
 43 H        2.9270     3.6970     2.6450 H     1 <1>   0.1500 
 44 H        2.9890     6.8370    -2.2520 H     1 <1>   0.1500 
 45 H        6.8500     5.3670     0.4120 H     1 <1>   0.1500 
 46 H        5.2670     7.4800    -2.9170 H     1 <1>   0.1500 
 47 H        7.1820     6.7430    -1.5720 H     1 <1>   0.1500 
@<TRIPOS>BOND
  1   1   2  2   
  2   1   3  2   
  3   1   4  am  
  4   1   5  1   
  5   4   6  1   
  6   4   7  1   
  7   5   8  1   
  8   5  27  1   
  9   5  28  1   
 10   6  29  1   
 11   6  30  1   
 12   6  31  1   
 13   7  32  1   
 14   7  33  1   
 15   7  34  1   
 16   8   9  1   
 17   8  10  1   
 18   8  35  1   
 19   9  11  1   
 20   9  12  1   
 21   9  36  1   
 22  10  13  1   
 23  10  37  1   
 24  10  38  1   
 25  11  39  1   
 26  12  13  1   
 27  12  40  1   
 28  12  41  1   
 29  13  14  1   
 30  14  15  ar  
 31  14  16  ar  
 32  15  17  ar  
 33  15  42  1   
 34  16  18  ar  
 35  16  43  1   
 36  17  19  ar  
 37  17  20  ar  
 38  18  19  ar  
 39  18  21  1   
 40  19  22  ar  
 41  20  23  ar  
 42  20  44  1   
 43  21  24  ar  
 44  21  25  ar  
 45  22  26  ar  
 46  22  45  1   
 47  23  26  ar  
 48  23  46  1   
 49  26  47  1   
@<TRIPOS>SUBSTRUCTURE
  1 ****  14 GROUP 4 **** **** 0

# MOE 2024.06 (io_trps.svl 2023.06)
