@<TRIPOS>MOLECULE
NONAME
49 51 1 0 0 
SMALL
USER_CHARGES


@<TRIPOS>ATOM
  1 CL      -5.4390    -5.8140     3.5940 Cl    1 <1>  -0.1240 
  2 C       -5.0470    -4.3540     2.7230 C.2   1 <1>   0.2640 
  3 O       -5.2210    -4.3480     1.4190 O.3   1 <1>  -0.2800 
  4 C       -4.5830    -3.1750     3.1780 C.2   1 <1>  -0.1500 
  5 C       -4.8690    -3.1440     0.9950 C.2   1 <1>  -0.0400 
  6 C       -4.4660    -2.3720     2.0330 C.2   1 <1>  -0.1500 
  7 C       -4.9840    -2.8510    -0.4920 C.3   1 <1>   0.5230 
  8 N       -6.3230    -3.3010    -0.9510 N.4   1 <1>  -0.9590 
  9 C       -6.4370    -3.4750    -2.4300 C.3   1 <1>   0.3430 
 10 C       -7.4690    -2.5920    -0.3180 C.3   1 <1>   0.3430 
 11 C       -7.6330    -4.3790    -2.8080 C.3   1 <1>   0.1400 
 12 C       -8.4810    -3.6030     0.2370 C.3   1 <1>  -0.1600 
 13 N       -8.1530    -5.1810    -1.6480 N.am  1 <1>  -0.6600 
 14 C       -9.1700    -4.4870    -0.8130 C.3   1 <1>   0.1400 
 15 C       -7.4260    -6.2390    -1.1430 C.2   1 <1>   0.5440 
 16 O       -6.2180    -6.1880    -1.2880 O.2   1 <1>  -0.5700 
 17 C       -8.0380    -7.3060    -0.3890 C.ar  1 <1>   0.0860 
 18 C       -9.2730    -7.8340    -0.7550 C.ar  1 <1>   0.1600 
 19 C       -7.4360    -7.8500     0.7400 C.ar  1 <1>  -0.1500 
 20 N       -9.9350    -8.7800    -0.1170 N.ar  1 <1>  -0.6200 
 21 C       -8.1070    -8.8410     1.4140 C.ar  1 <1>  -0.1500 
 22 C       -9.3500    -9.2870     0.9650 C.ar  1 <1>   0.4100 
 23 N      -10.0210   -10.2880     1.6390 N.pl3 1 <1>  -0.8380 
 24 C      -11.5010   -10.4080     1.5310 C.3   1 <1>   0.1290 
 25 C       -9.3190   -11.5340     2.0470 C.3   1 <1>   0.1290 
 26 H       -4.3480    -2.8910     4.1890 H     1 <1>   0.1500 
 27 H       -4.1180    -1.3520     2.0360 H     1 <1>   0.1500 
 28 H       -4.2190    -3.4040    -1.0120 H     1 <1>   0.0800 
 29 H       -4.8470    -1.7990    -0.6820 H     1 <1>   0.0800 
 30 H       -6.3730    -4.2830    -0.6070 H     1 <1>   0.4500 
 31 H       -5.5430    -3.9560    -2.7940 H     1 <1>   0.0800 
 32 H       -6.5230    -2.5210    -2.9240 H     1 <1>   0.0800 
 33 H       -7.9470    -1.9420    -1.0330 H     1 <1>   0.0800 
 34 H       -7.1140    -1.9850     0.5000 H     1 <1>   0.0800 
 35 H       -7.3220    -5.0540    -3.5890 H     1 <1>   0.0800 
 36 H       -8.4260    -3.7750    -3.2140 H     1 <1>   0.0800 
 37 H       -9.2470    -3.0550     0.7560 H     1 <1>   0.0800 
 38 H       -8.0020    -4.2250     0.9730 H     1 <1>   0.0800 
 39 H       -9.8100    -3.8900    -1.4410 H     1 <1>   0.0800 
 40 H       -9.7950    -5.2100    -0.3140 H     1 <1>   0.0800 
 41 H       -9.7440    -7.4410    -1.6380 H     1 <1>   0.1500 
 42 H       -6.4740    -7.4970     1.0730 H     1 <1>   0.1500 
 43 H       -7.6880    -9.2790     2.2990 H     1 <1>   0.1500 
 44 H      -11.9440    -9.4330     1.4230 H     1 <1>   0.0800 
 45 H      -11.8990   -10.8700     2.4170 H     1 <1>   0.0800 
 46 H      -11.7550   -11.0020     0.6700 H     1 <1>   0.0800 
 47 H       -8.2870   -11.5050     1.7450 H     1 <1>   0.0800 
 48 H       -9.7840   -12.3850     1.5800 H     1 <1>   0.0800 
 49 H       -9.3720   -11.6440     3.1160 H     1 <1>   0.0800 
@<TRIPOS>BOND
  1   1   2  1   
  2   2   3  1   
  3   2   4  2   
  4   3   5  1   
  5   4   6  1   
  6   4  26  1   
  7   5   6  2   
  8   5   7  1   
  9   6  27  1   
 10   7   8  1   
 11   7  28  1   
 12   7  29  1   
 13   8   9  1   
 14   8  10  1   
 15   8  30  1   
 16   9  11  1   
 17   9  31  1   
 18   9  32  1   
 19  10  12  1   
 20  10  33  1   
 21  10  34  1   
 22  11  13  1   
 23  11  35  1   
 24  11  36  1   
 25  12  14  1   
 26  12  37  1   
 27  12  38  1   
 28  13  14  1   
 29  13  15  am  
 30  14  39  1   
 31  14  40  1   
 32  15  16  2   
 33  15  17  1   
 34  17  18  ar  
 35  17  19  ar  
 36  18  20  ar  
 37  18  41  1   
 38  19  21  ar  
 39  19  42  1   
 40  20  22  ar  
 41  21  22  ar  
 42  21  43  1   
 43  22  23  1   
 44  23  24  1   
 45  23  25  1   
 46  24  44  1   
 47  24  45  1   
 48  24  46  1   
 49  25  47  1   
 50  25  48  1   
 51  25  49  1   
@<TRIPOS>SUBSTRUCTURE
  1 ****  15 GROUP 4 **** **** 0

# MOE 2024.06 (io_trps.svl 2023.06)
