@<TRIPOS>MOLECULE
NONAME
37 38 1 0 0 
SMALL
USER_CHARGES


@<TRIPOS>ATOM
  1 O       -0.3010     0.6950     0.1620 O.2   1 <1>  -0.5700 
  2 C       -0.3680     1.8910     0.0020 C.2   1 <1>   0.5690 
  3 N       -1.1510     2.6950     0.7850 N.am  1 <1>  -0.6600 
  4 C        0.4380     2.5130    -1.1370 C.3   1 <1>   0.1810 
  5 C       -1.2590     4.1700     0.5270 C.3   1 <1>   0.3640 
  6 C       -1.9120     2.1750     1.9570 C.3   1 <1>   0.0600 
  7 O        0.7330     3.8670    -0.9050 O.3   1 <1>  -0.5600 
  8 C       -2.7330     4.5930     0.3960 C.ar  1 <1>  -0.1440 
  9 C       -0.4060     4.6850    -0.6650 C.3   1 <1>   0.2610 
 10 C       -3.6630     3.9980    -0.4650 C.ar  1 <1>  -0.1440 
 11 C       -3.1510     5.6450     1.2020 C.ar  1 <1>  -0.1500 
 12 C        0.0380     6.1280    -0.3910 C.2   1 <1>   0.5690 
 13 C       -4.9710     4.4640    -0.4840 C.ar  1 <1>  -0.1500 
 14 C       -3.3320     2.8400    -1.4000 C.3   1 <1>  -0.0960 
 15 C       -4.4550     6.1020     1.1730 C.ar  1 <1>  -0.1500 
 16 O       -0.7810     7.0150    -0.3720 O.2   1 <1>  -0.5700 
 17 N        1.3580     6.3790    -0.1660 N.am  1 <1>  -0.7300 
 18 C       -5.3690     5.5080     0.3270 C.ar  1 <1>  -0.1500 
 19 C        1.9680     7.7040     0.1000 C.3   1 <1>   0.0600 
 20 H       -0.1070     2.4310    -2.0590 H     1 <1>   0.0800 
 21 H        1.3700     1.9880    -1.2370 H     1 <1>   0.0800 
 22 H       -0.8620     4.6490     1.4060 H     1 <1>   0.0800 
 23 H       -1.6650     2.7430     2.8360 H     1 <1>   0.0800 
 24 H       -1.6740     1.1410     2.1370 H     1 <1>   0.0800 
 25 H       -2.9700     2.2550     1.7720 H     1 <1>   0.0800 
 26 H       -0.9980     4.6940    -1.5610 H     1 <1>   0.0800 
 27 H       -2.4570     6.1350     1.8630 H     1 <1>   0.1500 
 28 H       -5.6980     4.0140    -1.1370 H     1 <1>   0.1500 
 29 H       -4.1250     2.6790    -2.1080 H     1 <1>   0.0800 
 30 H       -3.2070     1.9340    -0.8350 H     1 <1>   0.0800 
 31 H       -2.4380     3.0370    -1.9570 H     1 <1>   0.0800 
 32 H       -4.7540     6.9200     1.8030 H     1 <1>   0.1500 
 33 H        1.9960     5.5800    -0.2640 H     1 <1>   0.3700 
 34 H       -6.3860     5.8580     0.2990 H     1 <1>   0.1500 
 35 H        1.2040     8.4620     0.1570 H     1 <1>   0.0800 
 36 H        2.6490     7.9570    -0.6940 H     1 <1>   0.0800 
 37 H        2.5030     7.6780     1.0330 H     1 <1>   0.0800 
@<TRIPOS>BOND
  1   1   2  2   
  2   2   3  am  
  3   2   4  1   
  4   3   5  1   
  5   3   6  1   
  6   4   7  1   
  7   4  20  1   
  8   4  21  1   
  9   5   8  1   
 10   5   9  1   
 11   5  22  1   
 12   6  23  1   
 13   6  24  1   
 14   6  25  1   
 15   7   9  1   
 16   8  10  ar  
 17   8  11  ar  
 18   9  12  1   
 19   9  26  1   
 20  10  13  ar  
 21  10  14  1   
 22  11  15  ar  
 23  11  27  1   
 24  12  16  2   
 25  12  17  am  
 26  13  18  ar  
 27  13  28  1   
 28  14  29  1   
 29  14  30  1   
 30  14  31  1   
 31  15  18  ar  
 32  15  32  1   
 33  17  19  1   
 34  17  33  1   
 35  18  34  1   
 36  19  35  1   
 37  19  36  1   
 38  19  37  1   
@<TRIPOS>SUBSTRUCTURE
  1 ****   5 GROUP 4 **** **** 0

# MOE 2024.06 (io_trps.svl 2023.06)
