@<TRIPOS>MOLECULE
NONAME
36 38 1 0 0 
SMALL
USER_CHARGES


@<TRIPOS>ATOM
  1 CL       0.3250     0.2450    -2.0920 Cl    1 <1>  -0.1770 
  2 C        1.3520    -0.7900    -1.1110 C.ar  1 <1>   0.1770 
  3 C        1.0050    -2.1040    -0.8020 C.ar  1 <1>   0.4100 
  4 C        2.5380    -0.3040    -0.6360 C.ar  1 <1>   0.1600 
  5 N        1.8210    -2.8490    -0.0720 N.ar  1 <1>  -0.6200 
  6 N       -0.1760    -2.6960    -1.2150 N.pl3 1 <1>  -0.8380 
  7 N        3.3530    -1.0410     0.1000 N.ar  1 <1>  -0.6200 
  8 C        2.9400    -2.2760     0.3330 C.ar  1 <1>   0.4770 
  9 C       -0.2190    -4.1570    -1.5350 C.3   1 <1>   0.2090 
 10 C       -1.4840    -2.1570    -0.7270 C.3   1 <1>   0.2090 
 11 C        3.8550    -3.1380     1.1680 C.3   1 <1>  -0.0960 
 12 C       -0.7630    -4.9810    -0.3540 C.3   1 <1>   0.1400 
 13 C       -2.0120    -2.9800     0.4600 C.3   1 <1>   0.1400 
 14 N       -2.0730    -4.4380     0.1280 N.am  1 <1>  -0.6600 
 15 C       -3.2760    -5.0840    -0.0670 C.2   1 <1>   0.7150 
 16 O       -4.2760    -4.4070    -0.2270 O.2   1 <1>  -0.5700 
 17 C       -3.3630    -6.5250    -0.0770 C.2   1 <1>  -0.0450 
 18 S       -4.6020    -7.2940    -1.0750 S.3   1 <1>  -0.0800 
 19 C       -2.6580    -7.4990     0.5580 C.2   1 <1>  -0.1500 
 20 C       -4.1010    -8.9000    -0.5940 C.2   1 <1>  -0.1100 
 21 C       -3.0690    -8.8320     0.2660 C.2   1 <1>  -0.1500 
 22 H        2.8310     0.7070    -0.8600 H     1 <1>   0.1500 
 23 H        0.7680    -4.5040    -1.7910 H     1 <1>   0.0800 
 24 H       -0.8500    -4.3080    -2.3930 H     1 <1>   0.0800 
 25 H       -2.2030    -2.1850    -1.5280 H     1 <1>   0.0800 
 26 H       -1.3720    -1.1330    -0.4190 H     1 <1>   0.0800 
 27 H        3.9090    -4.1250     0.7490 H     1 <1>   0.0800 
 28 H        3.4700    -3.1990     2.1680 H     1 <1>   0.0800 
 29 H        4.8440    -2.7180     1.1970 H     1 <1>   0.0800 
 30 H       -0.0500    -4.9480     0.4520 H     1 <1>   0.0800 
 31 H       -0.8630    -6.0030    -0.6700 H     1 <1>   0.0800 
 32 H       -2.9840    -2.6150     0.7430 H     1 <1>   0.0800 
 33 H       -1.3540    -2.8410     1.2990 H     1 <1>   0.0800 
 34 H       -1.8490    -7.3130     1.2430 H     1 <1>   0.1500 
 35 H       -4.6390    -9.7340    -1.0080 H     1 <1>   0.1500 
 36 H       -2.5770    -9.6780     0.7140 H     1 <1>   0.1500 
@<TRIPOS>BOND
  1   1   2  1   
  2   2   3  ar  
  3   2   4  ar  
  4   3   5  ar  
  5   3   6  1   
  6   4   7  ar  
  7   4  22  1   
  8   5   8  ar  
  9   6   9  1   
 10   6  10  1   
 11   7   8  ar  
 12   8  11  1   
 13   9  12  1   
 14   9  23  1   
 15   9  24  1   
 16  10  13  1   
 17  10  25  1   
 18  10  26  1   
 19  11  27  1   
 20  11  28  1   
 21  11  29  1   
 22  12  14  1   
 23  12  30  1   
 24  12  31  1   
 25  13  14  1   
 26  13  32  1   
 27  13  33  1   
 28  14  15  am  
 29  15  16  2   
 30  15  17  1   
 31  17  18  1   
 32  17  19  2   
 33  18  20  1   
 34  19  21  1   
 35  19  34  1   
 36  20  21  2   
 37  20  35  1   
 38  21  36  1   
@<TRIPOS>SUBSTRUCTURE
  1 ****  12 GROUP 4 **** **** 0

# MOE 2024.06 (io_trps.svl 2023.06)
