@<TRIPOS>MOLECULE
NONAME
50 52 1 0 0 
SMALL
USER_CHARGES


@<TRIPOS>ATOM
  1 S        0.5490     0.4090     0.9970 S.o2  1 <1>   1.3330 
  2 O       -0.3850     0.4610     2.0990 O.2   1 <1>  -0.6500 
  3 O        1.9170     0.8270     1.2040 O.2   1 <1>  -0.6500 
  4 N        0.5700    -1.1720     0.3800 N.am  1 <1>  -0.8490 
  5 C       -0.1510     1.3620    -0.3480 C.3   1 <1>  -0.0550 
  6 C        1.7370    -1.4520    -0.4650 C.3   1 <1>   0.1160 
  7 C        0.4650    -2.1810     1.4370 C.3   1 <1>   0.1160 
  8 C       -0.3710     2.8420     0.0100 C.3   1 <1>  -0.0800 
  9 C       -1.0640     3.6060    -1.1090 C.3   1 <1>   0.2000 
 10 C        0.9190     3.6330     0.2490 C.3   1 <1>   0.1400 
 11 O       -2.4340     3.4080    -1.0450 O.3   1 <1>  -0.6800 
 12 C       -0.6830     5.0630    -0.8790 C.3   1 <1>   0.1400 
 13 N        0.6550     5.0180    -0.2330 N.am  1 <1>  -0.6600 
 14 C        1.6780     5.6990    -0.8410 C.2   1 <1>   0.5440 
 15 O        2.1140     5.2330    -1.8770 O.2   1 <1>  -0.5700 
 16 C        2.1670     6.9500    -0.2900 C.ar  1 <1>   0.0860 
 17 C        3.5350     7.3410    -0.3050 C.ar  1 <1>   0.0000 
 18 C        1.2940     7.8400     0.2810 C.ar  1 <1>  -0.1500 
 19 C        3.8680     8.6150     0.2150 C.ar  1 <1>   0.3100 
 20 C        4.5920     6.5370    -0.7910 C.ar  1 <1>  -0.1500 
 21 C        1.7270     9.0680     0.7800 C.ar  1 <1>   0.3930 
 22 N        2.9640     9.4670     0.7500 N.ar  1 <1>  -0.6200 
 23 C        5.2090     9.0330     0.1940 C.ar  1 <1>  -0.1500 
 24 C        5.8910     6.9700    -0.7920 C.ar  1 <1>  -0.1500 
 25 O        0.7780     9.8620     1.3100 O.3   1 <1>  -0.3630 
 26 C        6.2060     8.2360    -0.2980 C.ar  1 <1>  -0.1500 
 27 C        1.1040    11.1330     1.8400 C.3   1 <1>   0.0400 
 28 H        0.4860     1.2950    -1.2080 H     1 <1>   0.0800 
 29 H       -1.0990     0.9320    -0.6110 H     1 <1>   0.0800 
 30 H        1.6520    -2.4350    -0.8980 H     1 <1>   0.0800 
 31 H        2.6430    -1.4020     0.1160 H     1 <1>   0.0800 
 32 H        1.7990    -0.7340    -1.2640 H     1 <1>   0.0800 
 33 H        0.4630    -3.1700     1.0110 H     1 <1>   0.0800 
 34 H       -0.4550    -2.0490     1.9820 H     1 <1>   0.0800 
 35 H        1.2900    -2.0920     2.1240 H     1 <1>   0.0800 
 36 H       -0.9620     2.9100     0.9080 H     1 <1>   0.0800 
 37 H       -0.7150     3.2910    -2.0780 H     1 <1>   0.0800 
 38 H        1.7360     3.2080    -0.3110 H     1 <1>   0.0800 
 39 H        1.1810     3.6430     1.2940 H     1 <1>   0.0800 
 40 H       -2.7750     3.6300    -0.1570 H     1 <1>   0.4000 
 41 H       -1.3780     5.5400    -0.2090 H     1 <1>   0.0800 
 42 H       -0.6440     5.5970    -1.8130 H     1 <1>   0.0800 
 43 H        0.2470     7.6200     0.3540 H     1 <1>   0.1500 
 44 H        4.3820     5.5550    -1.1740 H     1 <1>   0.1500 
 45 H        5.4300    10.0090     0.5840 H     1 <1>   0.1500 
 46 H        6.6810     6.3440    -1.1720 H     1 <1>   0.1500 
 47 H        7.2300     8.5690    -0.3070 H     1 <1>   0.1500 
 48 H        0.2020    11.5890     2.2060 H     1 <1>   0.0800 
 49 H        1.5340    11.7350     1.0590 H     1 <1>   0.0800 
 50 H        1.8080    11.0040     2.6430 H     1 <1>   0.0800 
@<TRIPOS>BOND
  1   1   2  2   
  2   1   3  2   
  3   1   4  am  
  4   1   5  1   
  5   4   6  1   
  6   4   7  1   
  7   5   8  1   
  8   5  28  1   
  9   5  29  1   
 10   6  30  1   
 11   6  31  1   
 12   6  32  1   
 13   7  33  1   
 14   7  34  1   
 15   7  35  1   
 16   8   9  1   
 17   8  10  1   
 18   8  36  1   
 19   9  11  1   
 20   9  12  1   
 21   9  37  1   
 22  10  13  1   
 23  10  38  1   
 24  10  39  1   
 25  11  40  1   
 26  12  13  1   
 27  12  41  1   
 28  12  42  1   
 29  13  14  am  
 30  14  15  2   
 31  14  16  1   
 32  16  17  ar  
 33  16  18  ar  
 34  17  19  ar  
 35  17  20  ar  
 36  18  21  ar  
 37  18  43  1   
 38  19  22  ar  
 39  19  23  ar  
 40  20  24  ar  
 41  20  44  1   
 42  21  22  ar  
 43  21  25  1   
 44  23  26  ar  
 45  23  45  1   
 46  24  26  ar  
 47  24  46  1   
 48  25  27  1   
 49  26  47  1   
 50  27  48  1   
 51  27  49  1   
 52  27  50  1   
@<TRIPOS>SUBSTRUCTURE
  1 ****  13 GROUP 4 **** **** 0

# MOE 2024.06 (io_trps.svl 2023.06)
