@<TRIPOS>MOLECULE
NONAME
24 25 1 0 0 
SMALL
USER_CHARGES


@<TRIPOS>ATOM
  1 F        3.4780    -1.0250     0.4410 F     1 <1>  -0.3400 
  2 C        4.2830    -0.0680     0.8890 C.3   1 <1>   1.0200 
  3 F        3.5520     1.0420     0.9130 F     1 <1>  -0.3400 
  4 F        4.5460    -0.3670     2.1570 F     1 <1>  -0.3400 
  5 C        5.5610     0.0920    -0.0140 C.3   1 <1>   0.2100 
  6 N        5.3470     0.4310    -1.4560 N.3   1 <1>  -0.9300 
  7 C        6.6530     1.0320     0.6010 C.3   1 <1>   0.0000 
  8 C        6.5750    -1.0940     0.1140 C.3   1 <1>   0.0000 
  9 C        7.6970    -0.0280     0.1820 C.3   1 <1>   0.0000 
 10 C        8.5930     0.1920    -1.0600 C.3   1 <1>   0.0000 
 11 C        8.9630    -0.2990     1.0240 C.3   1 <1>   0.0000 
 12 C        9.6610    -0.6630    -0.3190 C.3   1 <1>   0.0000 
 13 H        4.8240     1.3140    -1.5230 H     1 <1>   0.3600 
 14 H        4.7660    -0.2960    -1.8930 H     1 <1>   0.3600 
 15 H        6.5900     1.1250     1.6710 H     1 <1>   0.0000 
 16 H        6.7590     1.9790     0.1010 H     1 <1>   0.0000 
 17 H        6.6200    -1.7360    -0.7490 H     1 <1>   0.0000 
 18 H        6.4850    -1.6380     1.0380 H     1 <1>   0.0000 
 19 H        8.8980     1.2180    -1.1770 H     1 <1>   0.0000 
 20 H        8.2270    -0.2580    -1.9650 H     1 <1>   0.0000 
 21 H        8.8750    -1.1230     1.7090 H     1 <1>   0.0000 
 22 H        9.3650     0.5960     1.4670 H     1 <1>   0.0000 
 23 H       10.6620    -0.2780    -0.4060 H     1 <1>   0.0000 
 24 H        9.5840    -1.7110    -0.5520 H     1 <1>   0.0000 
@<TRIPOS>BOND
  1   1   2  1   
  2   2   3  1   
  3   2   4  1   
  4   2   5  1   
  5   5   6  1   
  6   5   7  1   
  7   5   8  1   
  8   6  13  1   
  9   6  14  1   
 10   7   9  1   
 11   7  15  1   
 12   7  16  1   
 13   8   9  1   
 14   8  17  1   
 15   8  18  1   
 16   9  10  1   
 17   9  11  1   
 18  10  12  1   
 19  10  19  1   
 20  10  20  1   
 21  11  12  1   
 22  11  21  1   
 23  11  22  1   
 24  12  23  1   
 25  12  24  1   
@<TRIPOS>SUBSTRUCTURE
  1 ****   5 GROUP 4 **** **** 0

# MOE 2024.06 (io_trps.svl 2023.06)
