@<TRIPOS>MOLECULE
NONAME
46 48 1 0 0 
SMALL
USER_CHARGES


@<TRIPOS>ATOM
  1 F        2.6260     0.4480    -0.5550 F     1 <1>  -0.1900 
  2 C        3.1240     1.3430     0.2540 C.ar  1 <1>   0.1900 
  3 C        3.5940     0.9540     1.4970 C.ar  1 <1>   0.1600 
  4 C        3.1700     2.6560    -0.1500 C.ar  1 <1>  -0.1500 
  5 N        4.1110     1.8030     2.3760 N.ar  1 <1>  -0.6200 
  6 C        3.7170     3.5650     0.7480 C.ar  1 <1>   0.0860 
  7 C        4.1530     3.0710     1.9800 C.ar  1 <1>   0.1600 
  8 C        3.8280     4.9770     0.4540 C.2   1 <1>   0.5440 
  9 O        3.3890     5.7710     1.2630 O.2   1 <1>  -0.5700 
 10 N        4.4070     5.4480    -0.7080 N.am  1 <1>  -0.6600 
 11 C        5.2730     4.5810    -1.5810 C.3   1 <1>   0.1400 
 12 C        4.3280     6.9000    -1.0480 C.3   1 <1>   0.1400 
 13 C        6.5320     5.2730    -2.1270 C.3   1 <1>   0.1400 
 14 C        5.4670     7.6870    -0.3810 C.3   1 <1>  -0.1600 
 15 N        7.2210     6.0590    -1.0690 N.am  1 <1>  -0.6600 
 16 C        6.8440     7.4950    -1.0260 C.3   1 <1>   0.1400 
 17 C        8.0310     5.4290    -0.1560 C.2   1 <1>   0.5690 
 18 O        8.2430     4.2390    -0.2310 O.2   1 <1>  -0.5700 
 19 C        8.6810     6.1860     0.9950 C.3   1 <1>   0.0440 
 20 C        9.8710     7.0380     0.5470 C.ar  1 <1>  -0.1440 
 21 C        9.9770     8.3940     0.8470 C.ar  1 <1>   0.0820 
 22 C       10.8900     6.4360    -0.1770 C.ar  1 <1>  -0.1500 
 23 O        9.0180     9.0200     1.5500 O.3   1 <1>  -0.5320 
 24 C       11.0750     9.1290     0.4280 C.ar  1 <1>  -0.1500 
 25 C       11.9870     7.1680    -0.5980 C.ar  1 <1>  -0.1500 
 26 C       12.0810     8.5150    -0.2970 C.ar  1 <1>  -0.1500 
 27 H        3.5410    -0.0850     1.7720 H     1 <1>   0.1500 
 28 H        2.7950     2.9620    -1.1090 H     1 <1>   0.1500 
 29 H        4.5630     3.7830     2.6780 H     1 <1>   0.1500 
 30 H        4.6880     4.2210    -2.4080 H     1 <1>   0.0800 
 31 H        5.6050     3.7250    -1.0190 H     1 <1>   0.0800 
 32 H        3.3870     7.2860    -0.6920 H     1 <1>   0.0800 
 33 H        4.3470     7.0330    -2.1150 H     1 <1>   0.0800 
 34 H        6.2690     5.9130    -2.9500 H     1 <1>   0.0800 
 35 H        7.2050     4.5240    -2.5100 H     1 <1>   0.0800 
 36 H        5.5150     7.4340     0.6630 H     1 <1>   0.0800 
 37 H        5.2250     8.7320    -0.4370 H     1 <1>   0.0800 
 38 H        7.5750     8.0600    -0.4780 H     1 <1>   0.0800 
 39 H        6.8330     7.8860    -2.0290 H     1 <1>   0.0800 
 40 H        9.0310     5.4710     1.7160 H     1 <1>   0.0800 
 41 H        7.9290     6.7750     1.4840 H     1 <1>   0.0800 
 42 H       10.8340     5.3870    -0.4180 H     1 <1>   0.1500 
 43 H        9.2440     9.9440     1.7550 H     1 <1>   0.4500 
 44 H       11.1530    10.1750     0.6600 H     1 <1>   0.1500 
 45 H       12.7680     6.6860    -1.1610 H     1 <1>   0.1500 
 46 H       12.9350     9.0810    -0.6250 H     1 <1>   0.1500 
@<TRIPOS>BOND
  1   1   2  1   
  2   2   3  ar  
  3   2   4  ar  
  4   3   5  ar  
  5   3  27  1   
  6   4   6  ar  
  7   4  28  1   
  8   5   7  ar  
  9   6   7  ar  
 10   6   8  1   
 11   7  29  1   
 12   8   9  2   
 13   8  10  am  
 14  10  11  1   
 15  10  12  1   
 16  11  13  1   
 17  11  30  1   
 18  11  31  1   
 19  12  14  1   
 20  12  32  1   
 21  12  33  1   
 22  13  15  1   
 23  13  34  1   
 24  13  35  1   
 25  14  16  1   
 26  14  36  1   
 27  14  37  1   
 28  15  16  1   
 29  15  17  am  
 30  16  38  1   
 31  16  39  1   
 32  17  18  2   
 33  17  19  1   
 34  19  20  1   
 35  19  40  1   
 36  19  41  1   
 37  20  21  ar  
 38  20  22  ar  
 39  21  23  1   
 40  21  24  ar  
 41  22  25  ar  
 42  22  42  1   
 43  23  43  1   
 44  24  26  ar  
 45  24  44  1   
 46  25  26  ar  
 47  25  45  1   
 48  26  46  1   
@<TRIPOS>SUBSTRUCTURE
  1 ****  17 GROUP 4 **** **** 0

# MOE 2024.06 (io_trps.svl 2023.06)
