@<TRIPOS>MOLECULE
NONAME
51 52 1 0 0 
SMALL
USER_CHARGES


@<TRIPOS>ATOM
  1 O        3.9850     2.3070     1.6510 O.co2 1 <1>  -0.9000 
  2 C        3.2040     1.3640     1.4550 C.2   1 <1>   0.9060 
  3 O        3.0360     0.4880     2.3020 O.co2 1 <1>  -0.9000 
  4 C        2.6760     1.1130     0.0300 C.3   1 <1>  -0.1060 
  5 C        3.3940    -0.1900    -0.3880 C.3   1 <1>   0.2000 
  6 C        3.1080     2.2440    -0.9620 C.3   1 <1>  -0.1600 
  7 C        1.1320     0.9370     0.0290 C.3   1 <1>  -0.1600 
  8 O        3.0800    -0.5020    -1.7120 O.3   1 <1>  -0.6800 
  9 C        4.9320    -0.0230    -0.2630 C.3   1 <1>   0.3430 
 10 C        4.5520     2.1110    -1.4800 C.3   1 <1>   0.3430 
 11 C        0.3720     2.1760     0.5300 C.3   1 <1>  -0.1600 
 12 N        5.3870     1.3990    -0.4790 N.4   1 <1>  -0.9590 
 13 C       -1.1390     1.9290     0.5260 C.3   1 <1>  -0.2400 
 14 C        6.8390     1.5280    -0.6770 C.3   1 <1>   0.4810 
 15 C        7.2680     2.9810    -0.5760 C.2   1 <1>  -0.2880 
 16 C        6.6740     3.9640     0.1280 C.2   1 <1>  -0.1780 
 17 C        7.0600     5.3540     0.2360 C.ar  1 <1>   0.0280 
 18 C        8.0590     5.9270    -0.5490 C.ar  1 <1>  -0.1500 
 19 C        6.4140     6.1770     1.1560 C.ar  1 <1>  -0.1500 
 20 C        8.3970     7.2610    -0.4180 C.ar  1 <1>  -0.1500 
 21 C        6.7460     7.5120     1.2940 C.ar  1 <1>  -0.1500 
 22 C        7.7470     8.0660     0.5020 C.ar  1 <1>   0.0820 
 23 O        8.1360     9.3620     0.5690 O.3   1 <1>  -0.3630 
 24 C        7.5400    10.2610     1.4770 C.3   1 <1>   0.0400 
 25 H        3.0760    -1.0180     0.2250 H     1 <1>   0.0800 
 26 H        2.9950     3.2040    -0.4890 H     1 <1>   0.0800 
 27 H        2.4600     2.2470    -1.8200 H     1 <1>   0.0800 
 28 H        0.7890     0.6990    -0.9610 H     1 <1>   0.0800 
 29 H        0.8830     0.1070     0.6710 H     1 <1>   0.0800 
 30 H        2.1150    -0.6440    -1.7860 H     1 <1>   0.4000 
 31 H        5.4070    -0.6870    -0.9630 H     1 <1>   0.0800 
 32 H        5.2150    -0.3180     0.7350 H     1 <1>   0.0800 
 33 H        4.9520     3.0930    -1.6780 H     1 <1>   0.0800 
 34 H        4.5490     1.5480    -2.3990 H     1 <1>   0.0800 
 35 H        0.6830     2.4120     1.5350 H     1 <1>   0.0800 
 36 H        0.5880     3.0260    -0.0920 H     1 <1>   0.0800 
 37 H        5.1500     1.8870     0.4250 H     1 <1>   0.4500 
 38 H       -1.3830     1.1020     1.1700 H     1 <1>   0.0800 
 39 H       -1.4850     1.7120    -0.4690 H     1 <1>   0.0800 
 40 H       -1.6540     2.8030     0.8860 H     1 <1>   0.0800 
 41 H        7.3660     0.9510     0.0650 H     1 <1>   0.0800 
 42 H        7.0940     1.1450    -1.6520 H     1 <1>   0.0800 
 43 H        8.1630     3.1550    -1.1450 H     1 <1>   0.1500 
 44 H        5.7960     3.7440     0.7150 H     1 <1>   0.1500 
 45 H        8.5810     5.3330    -1.2740 H     1 <1>   0.1500 
 46 H        5.6390     5.7620     1.7780 H     1 <1>   0.1500 
 47 H        9.1700     7.6920    -1.0290 H     1 <1>   0.1500 
 48 H        6.2180     8.1020     2.0180 H     1 <1>   0.1500 
 49 H        8.0070    11.2210     1.3520 H     1 <1>   0.0800 
 50 H        7.7000     9.9030     2.4780 H     1 <1>   0.0800 
 51 H        6.4890    10.3340     1.2560 H     1 <1>   0.0800 
@<TRIPOS>BOND
  1   1   2  ar  
  2   2   3  ar  
  3   2   4  1   
  4   4   5  1   
  5   4   6  1   
  6   4   7  1   
  7   5   8  1   
  8   5   9  1   
  9   5  25  1   
 10   6  10  1   
 11   6  26  1   
 12   6  27  1   
 13   7  11  1   
 14   7  28  1   
 15   7  29  1   
 16   8  30  1   
 17   9  12  1   
 18   9  31  1   
 19   9  32  1   
 20  10  12  1   
 21  10  33  1   
 22  10  34  1   
 23  11  13  1   
 24  11  35  1   
 25  11  36  1   
 26  12  14  1   
 27  12  37  1   
 28  13  38  1   
 29  13  39  1   
 30  13  40  1   
 31  14  15  1   
 32  14  41  1   
 33  14  42  1   
 34  15  16  2   
 35  15  43  1   
 36  16  17  1   
 37  16  44  1   
 38  17  18  ar  
 39  17  19  ar  
 40  18  20  ar  
 41  18  45  1   
 42  19  21  ar  
 43  19  46  1   
 44  20  22  ar  
 45  20  47  1   
 46  21  22  ar  
 47  21  48  1   
 48  22  23  1   
 49  23  24  1   
 50  24  49  1   
 51  24  50  1   
 52  24  51  1   
@<TRIPOS>SUBSTRUCTURE
  1 ****  16 GROUP 4 **** **** 0

# MOE 2024.06 (io_trps.svl 2023.06)
