@<TRIPOS>MOLECULE
NONAME
47 48 1 0 0 
SMALL
USER_CHARGES


@<TRIPOS>ATOM
  1 O       -2.1830     0.6300    -1.5320 O.2   1 <1>  -0.5700 
  2 C       -2.1910     1.0420    -0.4000 C.2   1 <1>   0.5690 
  3 N       -2.4950     0.2100     0.6440 N.am  1 <1>  -0.6600 
  4 C       -1.9320     2.5210    -0.1660 C.3   1 <1>  -0.0990 
  5 C       -2.1820    -1.2430     0.5240 C.3   1 <1>   0.3200 
  6 C       -3.2340     0.6620     1.8700 C.3   1 <1>   0.1400 
  7 C       -0.8030     3.0710    -1.0470 C.3   1 <1>  -0.0170 
  8 C       -3.4800    -1.9970     0.3380 C.2   1 <1>  -0.3320 
  9 C       -4.5940     1.3170     1.5260 C.3   1 <1>   0.3430 
 10 C       -0.5950     4.5440    -0.7450 C.ar  1 <1>  -0.1440 
 11 N       -4.0660    -2.7810     1.2670 N.pl3 1 <1>   0.0330 
 12 C       -4.2710    -2.0390    -0.7560 C.2   1 <1>   0.0770 
 13 N       -5.3310     0.5290     0.4880 N.4   1 <1>  -0.9590 
 14 C        0.2950     4.9390     0.2420 C.ar  1 <1>  -0.1500 
 15 C       -1.3020     5.5070    -1.4480 C.ar  1 <1>  -0.1500 
 16 C       -5.2080    -3.2060     0.6880 C.2   1 <1>   0.0360 
 17 N       -5.3810    -2.7580    -0.5130 N.2   1 <1>  -0.5650 
 18 C       -5.5540     1.2890    -0.7790 C.3   1 <1>   0.2630 
 19 C       -6.6080    -0.0690     0.9790 C.3   1 <1>   0.2630 
 20 C        0.4730     6.2820     0.5270 C.ar  1 <1>  -0.1500 
 21 C       -1.1250     6.8510    -1.1650 C.ar  1 <1>  -0.1500 
 22 C       -0.2380     7.2390    -0.1760 C.ar  1 <1>  -0.1500 
 23 H       -1.6600     2.6890     0.8590 H     1 <1>   0.0800 
 24 H       -2.8310     3.0690    -0.3740 H     1 <1>   0.0800 
 25 H       -1.6590    -1.5800     1.4030 H     1 <1>   0.0800 
 26 H       -1.5410    -1.4170    -0.3260 H     1 <1>   0.0800 
 27 H       -2.6270     1.3580     2.4230 H     1 <1>   0.0800 
 28 H       -3.4110    -0.1810     2.5140 H     1 <1>   0.0800 
 29 H       -1.0490     2.9460    -2.0880 H     1 <1>   0.0800 
 30 H        0.1070     2.5270    -0.8620 H     1 <1>   0.0800 
 31 H       -4.4160     2.3150     1.1620 H     1 <1>   0.0800 
 32 H       -5.1870     1.4000     2.4220 H     1 <1>   0.0800 
 33 H       -3.7180    -3.0470     2.1940 H     1 <1>   0.2700 
 34 H       -4.0990    -1.5690    -1.7140 H     1 <1>   0.1500 
 35 H       -4.7040    -0.2650     0.2360 H     1 <1>   0.4500 
 36 H        0.8570     4.2060     0.7940 H     1 <1>   0.1500 
 37 H       -1.9900     5.2190    -2.2230 H     1 <1>   0.1500 
 38 H       -5.8970    -3.8640     1.1930 H     1 <1>   0.1500 
 39 H       -6.1760     2.1500    -0.5990 H     1 <1>   0.0800 
 40 H       -6.0380     0.6580    -1.5070 H     1 <1>   0.0800 
 41 H       -4.6130     1.6150    -1.1910 H     1 <1>   0.0800 
 42 H       -7.3220     0.7030     1.2140 H     1 <1>   0.0800 
 43 H       -6.4280    -0.6620     1.8600 H     1 <1>   0.0800 
 44 H       -7.0270    -0.7120     0.2210 H     1 <1>   0.0800 
 45 H        1.1650     6.5840     1.2930 H     1 <1>   0.1500 
 46 H       -1.6750     7.5940    -1.7140 H     1 <1>   0.1500 
 47 H       -0.0990     8.2830     0.0440 H     1 <1>   0.1500 
@<TRIPOS>BOND
  1   1   2  2   
  2   2   3  am  
  3   2   4  1   
  4   3   5  1   
  5   3   6  1   
  6   4   7  1   
  7   4  23  1   
  8   4  24  1   
  9   5   8  1   
 10   5  25  1   
 11   5  26  1   
 12   6   9  1   
 13   6  27  1   
 14   6  28  1   
 15   7  10  1   
 16   7  29  1   
 17   7  30  1   
 18   8  11  1   
 19   8  12  2   
 20   9  13  1   
 21   9  31  1   
 22   9  32  1   
 23  10  14  ar  
 24  10  15  ar  
 25  11  16  1   
 26  11  33  1   
 27  12  17  1   
 28  12  34  1   
 29  13  18  1   
 30  13  19  1   
 31  13  35  1   
 32  14  20  ar  
 33  14  36  1   
 34  15  21  ar  
 35  15  37  1   
 36  16  17  2   
 37  16  38  1   
 38  18  39  1   
 39  18  40  1   
 40  18  41  1   
 41  19  42  1   
 42  19  43  1   
 43  19  44  1   
 44  20  22  ar  
 45  20  45  1   
 46  21  22  ar  
 47  21  46  1   
 48  22  47  1   
@<TRIPOS>SUBSTRUCTURE
  1 ****   2 GROUP 4 **** **** 0

# MOE 2024.06 (io_trps.svl 2023.06)
