@<TRIPOS>MOLECULE
NONAME
45 48 1 0 0 
SMALL
USER_CHARGES


@<TRIPOS>ATOM
  1 O        1.9650     1.6890     1.0360 O.3   1 <1>  -0.0190 
  2 N        2.7330     0.6630     0.8280 N.2   1 <1>  -0.4100 
  3 C        0.8490     1.6130     0.3590 C.2   1 <1>  -0.0400 
  4 C        2.0890    -0.1050     0.0220 C.2   1 <1>   0.1080 
  5 C        0.8610     0.4570    -0.3200 C.2   1 <1>  -0.1500 
  6 C       -0.1640     2.7420     0.4430 C.3   1 <1>   0.0200 
  7 C        2.6040    -1.4340    -0.4830 C.3   1 <1>  -0.0590 
  8 C        0.3760     4.0150    -0.2430 C.3   1 <1>  -0.0800 
  9 C       -0.5200     5.2510    -0.1620 C.3   1 <1>   0.2000 
 10 C        1.7180     4.4960     0.3110 C.3   1 <1>   0.2090 
 11 O       -1.0060     5.3910     1.1300 O.3   1 <1>  -0.6800 
 12 C        0.4390     6.4090    -0.4540 C.3   1 <1>   0.2090 
 13 N        1.7810     5.9660     0.0520 N.pl3 1 <1>  -0.8380 
 14 C        2.8720     6.7570     0.1920 C.ar  1 <1>   0.4610 
 15 N        3.9980     6.2270     0.6960 N.ar  1 <1>  -0.1790 
 16 C        2.9580     8.1260    -0.1460 C.ar  1 <1>   0.0000 
 17 C        5.1500     6.9470     0.8910 C.ar  1 <1>   0.5280 
 18 C        4.1410     8.7890     0.0770 C.ar  1 <1>   0.1050 
 19 C        2.1340     9.1180    -0.7020 C.2   1 <1>   0.1390 
 20 N        5.2550     8.1970     0.6040 N.ar  1 <1>  -0.5670 
 21 C        6.3410     6.2150     1.4750 C.3   1 <1>  -0.0970 
 22 N        3.9680    10.0690    -0.3250 N.pl3 1 <1>   0.3140 
 23 N        2.7220    10.2620    -0.8080 N.2   1 <1>  -0.7070 
 24 C        4.9470    11.1650    -0.2880 C.3   1 <1>   0.0160 
 25 H        0.1260     0.0320    -0.9790 H     1 <1>   0.1500 
 26 H       -1.0770     2.4380    -0.0390 H     1 <1>   0.0800 
 27 H       -0.3860     2.9240     1.4800 H     1 <1>   0.0800 
 28 H        1.9110    -2.2140    -0.2280 H     1 <1>   0.0800 
 29 H        3.5550    -1.6560    -0.0340 H     1 <1>   0.0800 
 30 H        2.7220    -1.4000    -1.5500 H     1 <1>   0.0800 
 31 H        0.5260     3.7880    -1.2850 H     1 <1>   0.0800 
 32 H       -1.3580     5.2160    -0.8380 H     1 <1>   0.0800 
 33 H        2.5270     3.9740    -0.1750 H     1 <1>   0.0800 
 34 H        1.7560     4.3190     1.3740 H     1 <1>   0.0800 
 35 H       -0.2810     5.6180     1.7440 H     1 <1>   0.4000 
 36 H        0.0990     7.3100     0.0280 H     1 <1>   0.0800 
 37 H        0.4960     6.5660    -1.5180 H     1 <1>   0.0800 
 38 H        3.9830     5.2450     0.9470 H     1 <1>   0.4570 
 39 H        1.1180     8.9680    -1.0200 H     1 <1>   0.1500 
 40 H        7.1740     6.8890     1.5780 H     1 <1>   0.0800 
 41 H        6.6400     5.4090     0.8290 H     1 <1>   0.0800 
 42 H        6.1030     5.8240     2.4480 H     1 <1>   0.0800 
 43 H        5.8650    10.8220     0.1500 H     1 <1>   0.0800 
 44 H        4.5450    11.9720     0.2960 H     1 <1>   0.0800 
 45 H        5.1280    11.5060    -1.2910 H     1 <1>   0.0800 
@<TRIPOS>BOND
  1   1   2  1   
  2   1   3  1   
  3   2   4  2   
  4   3   5  2   
  5   3   6  1   
  6   4   5  1   
  7   4   7  1   
  8   5  25  1   
  9   6   8  1   
 10   6  26  1   
 11   6  27  1   
 12   7  28  1   
 13   7  29  1   
 14   7  30  1   
 15   8   9  1   
 16   8  10  1   
 17   8  31  1   
 18   9  11  1   
 19   9  12  1   
 20   9  32  1   
 21  10  13  1   
 22  10  33  1   
 23  10  34  1   
 24  11  35  1   
 25  12  13  1   
 26  12  36  1   
 27  12  37  1   
 28  13  14  1   
 29  14  15  ar  
 30  14  16  ar  
 31  15  17  ar  
 32  15  38  1   
 33  16  18  ar  
 34  16  19  1   
 35  17  20  ar  
 36  17  21  1   
 37  18  20  ar  
 38  18  22  1   
 39  19  23  2   
 40  19  39  1   
 41  21  40  1   
 42  21  41  1   
 43  21  42  1   
 44  22  23  1   
 45  22  24  1   
 46  24  43  1   
 47  24  44  1   
 48  24  45  1   
@<TRIPOS>SUBSTRUCTURE
  1 ****  13 GROUP 4 **** **** 0

# MOE 2024.06 (io_trps.svl 2023.06)
