@<TRIPOS>MOLECULE
NONAME
43 46 1 0 0 
SMALL
USER_CHARGES


@<TRIPOS>ATOM
  1 S       -0.0900     0.3250    -1.7790 S.3   1 <1>  -0.0800 
  2 C       -0.1350     1.7760    -0.8000 C.2   1 <1>  -0.1400 
  3 C        1.6290     0.5500    -2.0660 C.2   1 <1>  -0.1100 
  4 C        1.0690     2.3530    -0.7050 C.2   1 <1>  -0.1810 
  5 C       -1.3990     2.2830    -0.1600 C.3   1 <1>   0.0200 
  6 C        2.0840     1.6530    -1.4390 C.2   1 <1>  -0.1500 
  7 C        1.2680     3.6280     0.1190 C.3   1 <1>   0.4610 
  8 C       -1.1570     3.7550     0.2150 C.3   1 <1>   0.1200 
  9 O        0.0900     3.9230     0.8490 O.3   1 <1>  -0.5600 
 10 C        1.6070     4.8230    -0.7830 C.3   1 <1>  -0.1600 
 11 C        2.3710     3.4210     1.1630 C.3   1 <1>  -0.1600 
 12 C        1.8760     6.0890     0.0340 C.3   1 <1>   0.1400 
 13 C        2.6380     4.6970     1.9630 C.3   1 <1>   0.1400 
 14 N        2.9520     5.8100     1.0240 N.am  1 <1>  -0.6600 
 15 C        4.1990     6.4000     0.9830 C.2   1 <1>   0.7160 
 16 O        5.1280     5.8640     1.5570 O.2   1 <1>  -0.5700 
 17 C        4.4260     7.6220     0.2560 C.2   1 <1>  -0.0860 
 18 C        3.8100     8.8230     0.2940 C.2   1 <1>  -0.0400 
 19 C        5.3940     7.8490    -0.7080 C.2   1 <1>   0.1080 
 20 O        4.3220     9.6720    -0.5640 O.3   1 <1>  -0.0190 
 21 C        2.6670     9.2970     1.1710 C.3   1 <1>  -0.0600 
 22 N        5.3010     9.0390    -1.1690 N.2   1 <1>  -0.4100 
 23 C        6.4280     6.8430    -1.1690 C.3   1 <1>  -0.0590 
 24 H        2.1240    -0.1790    -2.6830 H     1 <1>   0.1500 
 25 H       -1.6240     1.7060     0.7180 H     1 <1>   0.0800 
 26 H       -2.2230     2.2120    -0.8450 H     1 <1>   0.0800 
 27 H        3.1010     2.0020    -1.4620 H     1 <1>   0.1500 
 28 H       -1.9200     4.0940     0.8940 H     1 <1>   0.0800 
 29 H       -1.1800     4.3730    -0.6640 H     1 <1>   0.0800 
 30 H        0.8130     4.9950    -1.4830 H     1 <1>   0.0800 
 31 H        2.4870     4.5930    -1.3550 H     1 <1>   0.0800 
 32 H        3.2840     3.1270     0.6800 H     1 <1>   0.0800 
 33 H        2.0840     2.6260     1.8270 H     1 <1>   0.0800 
 34 H        0.9830     6.3850     0.5580 H     1 <1>   0.0800 
 35 H        2.1550     6.8850    -0.6330 H     1 <1>   0.0800 
 36 H        3.4500     4.5320     2.6500 H     1 <1>   0.0800 
 37 H        1.7660     4.9580     2.5390 H     1 <1>   0.0800 
 38 H        2.3700     8.5280     1.8590 H     1 <1>   0.0800 
 39 H        1.8250     9.5670     0.5590 H     1 <1>   0.0800 
 40 H        2.9780    10.1600     1.7320 H     1 <1>   0.0800 
 41 H        5.9430     5.9510    -1.5190 H     1 <1>   0.0800 
 42 H        7.0780     6.5920    -0.3510 H     1 <1>   0.0800 
 43 H        7.0170     7.2580    -1.9670 H     1 <1>   0.0800 
@<TRIPOS>BOND
  1   1   2  1   
  2   1   3  1   
  3   2   4  2   
  4   2   5  1   
  5   3   6  2   
  6   3  24  1   
  7   4   6  1   
  8   4   7  1   
  9   5   8  1   
 10   5  25  1   
 11   5  26  1   
 12   6  27  1   
 13   7   9  1   
 14   7  10  1   
 15   7  11  1   
 16   8   9  1   
 17   8  28  1   
 18   8  29  1   
 19  10  12  1   
 20  10  30  1   
 21  10  31  1   
 22  11  13  1   
 23  11  32  1   
 24  11  33  1   
 25  12  14  1   
 26  12  34  1   
 27  12  35  1   
 28  13  14  1   
 29  13  36  1   
 30  13  37  1   
 31  14  15  am  
 32  15  16  2   
 33  15  17  1   
 34  17  18  2   
 35  17  19  1   
 36  18  20  1   
 37  18  21  1   
 38  19  22  2   
 39  19  23  1   
 40  20  22  1   
 41  21  38  1   
 42  21  39  1   
 43  21  40  1   
 44  23  41  1   
 45  23  42  1   
 46  23  43  1   
@<TRIPOS>SUBSTRUCTURE
  1 ****  10 GROUP 4 **** **** 0

# MOE 2024.06 (io_trps.svl 2023.06)
