@<TRIPOS>MOLECULE
NONAME
38 39 1 0 0 
SMALL
USER_CHARGES


@<TRIPOS>ATOM
  1 O        0.8160     0.0460     1.6750 O.2   1 <1>  -0.5700 
  2 C        1.4970    -0.5760     0.8820 C.2   1 <1>   0.7160 
  3 N        2.3170     0.0830     0.0100 N.am  1 <1>  -0.4930 
  4 C        1.4440    -2.0110     0.8260 C.2   1 <1>  -0.0860 
  5 C        2.5690     1.4720    -0.1200 C.2   1 <1>   0.0630 
  6 C        0.3110    -2.8120     0.8540 C.2   1 <1>   0.1080 
  7 C        2.4190    -2.9410     0.7220 C.2   1 <1>  -0.0400 
  8 C        2.0890     2.5400     0.6400 C.2   1 <1>   0.1390 
  9 C        3.3630     2.0470    -1.0460 C.2   1 <1>  -0.3020 
 10 N        0.6340    -4.0460     0.7550 N.2   1 <1>  -0.4100 
 11 C       -1.1280    -2.3330     0.9760 C.3   1 <1>   0.0210 
 12 O        1.9380    -4.1590     0.6690 O.3   1 <1>  -0.0190 
 13 C        3.9280    -2.7850     0.6820 C.3   1 <1>  -0.0600 
 14 N        2.5470     3.6850     0.2270 N.2   1 <1>  -0.7070 
 15 N        3.3360     3.3800    -0.8230 N.pl3 1 <1>   0.3140 
 16 C       -1.6150    -1.6700    -0.3170 C.3   1 <1>  -0.2400 
 17 C        4.0570     4.4170    -1.5750 C.3   1 <1>   0.1570 
 18 C        5.3110     4.8150    -0.8310 C.2   1 <1>   0.5690 
 19 O        6.3430     4.8950    -1.4530 O.2   1 <1>  -0.5700 
 20 N        5.2450     5.0800     0.5020 N.am  1 <1>  -0.7300 
 21 C        6.3760     5.4870     1.3690 C.3   1 <1>   0.0600 
 22 H        2.7750    -0.5080    -0.6800 H     1 <1>   0.3700 
 23 H        1.4170     2.4370     1.4760 H     1 <1>   0.1500 
 24 H        3.9380     1.5980    -1.8340 H     1 <1>   0.1500 
 25 H       -1.2090    -1.6420     1.7970 H     1 <1>   0.0800 
 26 H       -1.7560    -3.1770     1.1990 H     1 <1>   0.0800 
 27 H        4.2200    -1.7630     0.8390 H     1 <1>   0.0800 
 28 H        4.3050    -3.1200    -0.2670 H     1 <1>   0.0800 
 29 H        4.3700    -3.3850     1.4580 H     1 <1>   0.0800 
 30 H       -1.0380    -0.7880    -0.5310 H     1 <1>   0.0800 
 31 H       -2.6480    -1.3860    -0.2170 H     1 <1>   0.0800 
 32 H       -1.5240    -2.3560    -1.1410 H     1 <1>   0.0800 
 33 H        3.4200     5.2730    -1.6830 H     1 <1>   0.0800 
 34 H        4.3130     4.0390    -2.5450 H     1 <1>   0.0800 
 35 H        4.3440     4.9010     0.9740 H     1 <1>   0.3700 
 36 H        7.2700     5.6160     0.7820 H     1 <1>   0.0800 
 37 H        6.5540     4.7300     2.1130 H     1 <1>   0.0800 
 38 H        6.1440     6.4170     1.8570 H     1 <1>   0.0800 
@<TRIPOS>BOND
  1   1   2  2   
  2   2   3  am  
  3   2   4  1   
  4   3   5  1   
  5   3  22  1   
  6   4   6  1   
  7   4   7  2   
  8   5   8  1   
  9   5   9  2   
 10   6  10  2   
 11   6  11  1   
 12   7  12  1   
 13   7  13  1   
 14   8  14  2   
 15   8  23  1   
 16   9  15  1   
 17   9  24  1   
 18  10  12  1   
 19  11  16  1   
 20  11  25  1   
 21  11  26  1   
 22  13  27  1   
 23  13  28  1   
 24  13  29  1   
 25  14  15  1   
 26  15  17  1   
 27  16  30  1   
 28  16  31  1   
 29  16  32  1   
 30  17  18  1   
 31  17  33  1   
 32  17  34  1   
 33  18  19  2   
 34  18  20  am  
 35  20  21  1   
 36  20  35  1   
 37  21  36  1   
 38  21  37  1   
 39  21  38  1   
@<TRIPOS>SUBSTRUCTURE
  1 ****   3 GROUP 4 **** **** 0

# MOE 2024.06 (io_trps.svl 2023.06)
