@<TRIPOS>MOLECULE
NONAME
52 55 1 0 0 
SMALL
USER_CHARGES


@<TRIPOS>ATOM
  1 O        0.7770    -3.4320    -2.2710 O.3   1 <1>  -0.6800 
  2 C        1.7700    -2.8170    -1.5250 C.3   1 <1>   0.1200 
  3 C        1.1570    -2.0460    -0.3190 C.3   1 <1>   0.0000 
  4 C        2.2610    -1.2970     0.4720 C.3   1 <1>   0.4230 
  5 C        0.1570    -0.9730    -0.8260 C.3   1 <1>  -0.1600 
  6 C        0.4100    -3.0160     0.6460 C.3   1 <1>  -0.1600 
  7 N        3.2800    -2.2090     1.1430 N.4   1 <1>  -0.9590 
  8 C        2.8950    -0.1590    -0.3550 C.3   1 <1>   0.1100 
  9 C        0.8270     0.1500    -1.6280 C.3   1 <1>   0.1100 
 10 C        1.2450    -3.4510     1.8650 C.3   1 <1>  -0.1600 
 11 C        2.7320    -3.5480     1.5360 C.3   1 <1>   0.3430 
 12 C        4.5760    -2.3740     0.4060 C.3   1 <1>   0.2630 
 13 N        1.8730     0.7980    -0.8210 N.3   1 <1>  -0.8100 
 14 C        2.4950     1.9080    -1.5910 C.3   1 <1>   0.2530 
 15 C        3.6040     2.6190    -0.8150 C.ar  1 <1>   0.1670 
 16 N        4.8380     2.2910    -1.0720 N.ar  1 <1>  -0.6200 
 17 C        3.2380     3.5740     0.1470 C.ar  1 <1>  -0.1500 
 18 C        5.8170     2.9270    -0.3760 C.ar  1 <1>   0.3100 
 19 C        4.1990     4.2150     0.8670 C.ar  1 <1>  -0.1500 
 20 C        5.5430     3.8950     0.6160 C.ar  1 <1>   0.0000 
 21 C        7.1570     2.6070    -0.6450 C.ar  1 <1>  -0.1500 
 22 C        6.6170     4.4920     1.3050 C.ar  1 <1>  -0.1500 
 23 C        8.1870     3.2000     0.0350 C.ar  1 <1>  -0.1500 
 24 C        7.9130     4.1520     1.0220 C.ar  1 <1>  -0.1500 
 25 H        1.1360    -3.8770    -3.0660 H     1 <1>   0.4000 
 26 H        2.4420    -3.5870    -1.1950 H     1 <1>   0.0800 
 27 H        2.3020    -2.1560    -2.1860 H     1 <1>   0.0800 
 28 H        1.7360    -0.7960     1.2690 H     1 <1>   0.0800 
 29 H       -0.3470    -0.5140     0.0070 H     1 <1>   0.0800 
 30 H       -0.6040    -1.4310    -1.4340 H     1 <1>   0.0800 
 31 H       -0.4910    -2.5580     1.0180 H     1 <1>   0.0800 
 32 H        0.0900    -3.8930     0.1090 H     1 <1>   0.0800 
 33 H        3.5040    -1.7250     2.0240 H     1 <1>   0.4500 
 34 H        3.4290    -0.5450    -1.2050 H     1 <1>   0.0800 
 35 H        3.5890     0.3560     0.2850 H     1 <1>   0.0800 
 36 H        0.0790     0.8800    -1.8930 H     1 <1>   0.0800 
 37 H        1.2440    -0.2400    -2.5420 H     1 <1>   0.0800 
 38 H        0.8920    -4.4090     2.2070 H     1 <1>   0.0800 
 39 H        1.1070    -2.7560     2.6760 H     1 <1>   0.0800 
 40 H        2.8550    -4.2460     0.7240 H     1 <1>   0.0800 
 41 H        3.2710    -3.9300     2.3880 H     1 <1>   0.0800 
 42 H        4.4070    -2.8310    -0.5540 H     1 <1>   0.0800 
 43 H        5.2500    -2.9980     0.9710 H     1 <1>   0.0800 
 44 H        5.0490    -1.4170     0.2550 H     1 <1>   0.0800 
 45 H        2.9080     1.5280    -2.5090 H     1 <1>   0.0800 
 46 H        1.7380     2.6290    -1.8460 H     1 <1>   0.0800 
 47 H        2.1940     3.7800     0.3050 H     1 <1>   0.1500 
 48 H        3.9560     4.9510     1.6130 H     1 <1>   0.1500 
 49 H        7.3500     1.8780    -1.4100 H     1 <1>   0.1500 
 50 H        6.4000     5.2260     2.0600 H     1 <1>   0.1500 
 51 H        9.2110     2.9470    -0.1800 H     1 <1>   0.1500 
 52 H        8.7320     4.6110     1.5500 H     1 <1>   0.1500 
@<TRIPOS>BOND
  1   1   2  1   
  2   1  25  1   
  3   2   3  1   
  4   2  26  1   
  5   2  27  1   
  6   3   4  1   
  7   3   5  1   
  8   3   6  1   
  9   4   7  1   
 10   4   8  1   
 11   4  28  1   
 12   5   9  1   
 13   5  29  1   
 14   5  30  1   
 15   6  10  1   
 16   6  31  1   
 17   6  32  1   
 18   7  11  1   
 19   7  12  1   
 20   7  33  1   
 21   8  13  1   
 22   8  34  1   
 23   8  35  1   
 24   9  13  1   
 25   9  36  1   
 26   9  37  1   
 27  10  11  1   
 28  10  38  1   
 29  10  39  1   
 30  11  40  1   
 31  11  41  1   
 32  12  42  1   
 33  12  43  1   
 34  12  44  1   
 35  13  14  1   
 36  14  15  1   
 37  14  45  1   
 38  14  46  1   
 39  15  16  ar  
 40  15  17  ar  
 41  16  18  ar  
 42  17  19  ar  
 43  17  47  1   
 44  18  20  ar  
 45  18  21  ar  
 46  19  20  ar  
 47  19  48  1   
 48  20  22  ar  
 49  21  23  ar  
 50  21  49  1   
 51  22  24  ar  
 52  22  50  1   
 53  23  24  ar  
 54  23  51  1   
 55  24  52  1   
@<TRIPOS>SUBSTRUCTURE
  1 ****   8 GROUP 4 **** **** 0

# MOE 2024.06 (io_trps.svl 2023.06)
