@<TRIPOS>MOLECULE
NONAME
44 46 1 0 0 
SMALL
USER_CHARGES


@<TRIPOS>ATOM
  1 O       -1.0690     1.6310    -2.2760 O.co2 1 <1>  -0.9000 
  2 C       -1.2190     1.4730    -1.0590 C.2   1 <1>   0.9060 
  3 O       -1.8180     0.4820    -0.6090 O.co2 1 <1>  -0.9000 
  4 C       -0.7230     2.5280    -0.0720 C.3   1 <1>  -0.1060 
  5 C       -1.9570     2.9870     0.7370 C.3   1 <1>   0.2000 
  6 C       -0.2050     3.7530    -0.8530 C.3   1 <1>   0.2090 
  7 C        0.3950     1.9330     0.8360 C.3   1 <1>  -0.0650 
  8 O       -2.4450     1.9460     1.5030 O.3   1 <1>  -0.6800 
  9 C       -1.6880     4.1760     1.6600 C.3   1 <1>  -0.1600 
 10 N        0.0370     4.9220     0.0630 N.pl3 1 <1>  -0.8380 
 11 C        1.6250     1.4120     0.0740 C.3   1 <1>  -0.1950 
 12 C       -1.1410     5.3530     0.8580 C.3   1 <1>   0.2090 
 13 C        1.2090     5.6420     0.0440 C.ar  1 <1>   0.7200 
 14 C        2.8970     1.1240     0.8060 C.3   1 <1>  -0.2000 
 15 C        2.8230     2.2790    -0.1490 C.3   1 <1>  -0.2000 
 16 N        1.5410     6.2890     1.1620 N.ar  1 <1>  -0.6200 
 17 N        1.9100     5.6390    -1.0890 N.ar  1 <1>  -0.6200 
 18 C        2.6670     6.9560     1.1340 C.ar  1 <1>   0.1600 
 19 C        3.0300     6.3160    -1.0840 C.ar  1 <1>   0.1600 
 20 C        3.4720     7.0060     0.0200 C.ar  1 <1>  -0.1440 
 21 C        4.7790     7.7830     0.0080 C.3   1 <1>  -0.0170 
 22 C        4.5440     9.2230    -0.4530 C.3   1 <1>  -0.2400 
 23 H       -2.7390     3.2520     0.0430 H     1 <1>   0.0800 
 24 H       -0.9340     4.0450    -1.5890 H     1 <1>   0.0800 
 25 H        0.6890     3.4850    -1.3870 H     1 <1>   0.0800 
 26 H        0.7170     2.6700     1.5490 H     1 <1>   0.0800 
 27 H       -0.0120     1.1060     1.3900 H     1 <1>   0.0800 
 28 H       -2.3970     1.1410     0.9090 H     1 <1>   0.4000 
 29 H       -2.6040     4.4710     2.1370 H     1 <1>   0.0800 
 30 H       -0.9800     3.9090     2.4220 H     1 <1>   0.0800 
 31 H        1.3600     0.7200    -0.7100 H     1 <1>   0.1000 
 32 H       -0.8870     6.1580     1.5260 H     1 <1>   0.0800 
 33 H       -1.8970     5.7110     0.1810 H     1 <1>   0.0800 
 34 H        2.9440     1.3290     1.8610 H     1 <1>   0.1000 
 35 H        3.4590     0.2500     0.5260 H     1 <1>   0.1000 
 36 H        3.3080     2.2200    -1.1070 H     1 <1>   0.1000 
 37 H        2.8140     3.2800     0.2470 H     1 <1>   0.1000 
 38 H        2.9560     7.4800     2.0290 H     1 <1>   0.1500 
 39 H        3.6100     6.3190    -1.9900 H     1 <1>   0.1500 
 40 H        5.2090     7.7860     0.9950 H     1 <1>   0.0800 
 41 H        5.4810     7.3030    -0.6520 H     1 <1>   0.0800 
 42 H        3.8580     9.7200     0.2100 H     1 <1>   0.0800 
 43 H        4.1300     9.2340    -1.4460 H     1 <1>   0.0800 
 44 H        5.4720     9.7670    -0.4600 H     1 <1>   0.0800 
@<TRIPOS>BOND
  1   1   2  ar  
  2   2   3  ar  
  3   2   4  1   
  4   4   5  1   
  5   4   6  1   
  6   4   7  1   
  7   5   8  1   
  8   5   9  1   
  9   5  23  1   
 10   6  10  1   
 11   6  24  1   
 12   6  25  1   
 13   7  11  1   
 14   7  26  1   
 15   7  27  1   
 16   8  28  1   
 17   9  12  1   
 18   9  29  1   
 19   9  30  1   
 20  10  12  1   
 21  10  13  1   
 22  11  14  1   
 23  11  15  1   
 24  11  31  1   
 25  12  32  1   
 26  12  33  1   
 27  13  16  ar  
 28  13  17  ar  
 29  14  15  1   
 30  14  34  1   
 31  14  35  1   
 32  15  36  1   
 33  15  37  1   
 34  16  18  ar  
 35  17  19  ar  
 36  18  20  ar  
 37  18  38  1   
 38  19  20  ar  
 39  19  39  1   
 40  20  21  1   
 41  21  22  1   
 42  21  40  1   
 43  21  41  1   
 44  22  42  1   
 45  22  43  1   
 46  22  44  1   
@<TRIPOS>SUBSTRUCTURE
  1 ****  10 GROUP 4 **** **** 0

# MOE 2024.06 (io_trps.svl 2023.06)
