@<TRIPOS>MOLECULE
NONAME
47 48 1 0 0 
SMALL
USER_CHARGES


@<TRIPOS>ATOM
  1 O       -1.7880     0.6070    -1.6310 O.2   1 <1>  -0.5700 
  2 C       -2.3510     1.1950    -0.7320 C.2   1 <1>   0.5690 
  3 N       -2.5760     0.5480     0.4680 N.am  1 <1>  -0.6600 
  4 C       -2.7780     2.6620    -1.0080 C.3   1 <1>   0.3500 
  5 C       -1.8820    -0.7490     0.7430 C.3   1 <1>   0.3200 
  6 C       -3.5990     0.9350     1.4900 C.3   1 <1>   0.1400 
  7 N       -2.4050     3.6140     0.0840 N.pl3 1 <1>  -0.8690 
  8 C       -4.2780     2.8020    -1.2860 C.3   1 <1>  -0.2400 
  9 C       -2.6540    -1.9150     0.1510 C.2   1 <1>   0.0060 
 10 C       -4.9170     0.1830     1.2660 C.3   1 <1>   0.1200 
 11 C       -1.2840     4.4100    -0.1460 C.ar  1 <1>   0.1000 
 12 N       -3.1950    -2.8730     0.8340 N.2   1 <1>  -0.5650 
 13 N       -2.8350    -2.0290    -1.1810 N.pl3 1 <1>   0.0330 
 14 O       -5.8820     0.6950     2.1210 O.3   1 <1>  -0.6800 
 15 C       -1.3710     5.5750    -0.9160 C.ar  1 <1>  -0.1440 
 16 C       -0.0500     4.0460     0.4020 C.ar  1 <1>  -0.1430 
 17 C       -3.7600    -3.6560    -0.1070 C.2   1 <1>   0.0770 
 18 C       -3.5510    -3.1550    -1.3440 C.2   1 <1>  -0.3020 
 19 C       -0.2390     6.3340    -1.1520 C.ar  1 <1>  -0.1500 
 20 C       -2.6950     6.0490    -1.4990 C.3   1 <1>  -0.0970 
 21 C        1.0710     4.8210     0.1550 C.ar  1 <1>  -0.1500 
 22 C        0.1080     2.8010     1.2670 C.3   1 <1>  -0.0970 
 23 C        0.9810     5.9600    -0.6220 C.ar  1 <1>  -0.1500 
 24 H       -2.2580     2.9640    -1.9010 H     1 <1>   0.0800 
 25 H       -1.7770    -0.8940     1.8040 H     1 <1>   0.0800 
 26 H       -0.8930    -0.7290     0.3170 H     1 <1>   0.0800 
 27 H       -3.7960     1.9900     1.4460 H     1 <1>   0.0800 
 28 H       -3.2230     0.7110     2.4730 H     1 <1>   0.0800 
 29 H       -2.2900     3.0800     0.9470 H     1 <1>   0.4000 
 30 H       -4.8610     2.6140    -0.4050 H     1 <1>   0.0800 
 31 H       -4.5710     2.1050    -2.0490 H     1 <1>   0.0800 
 32 H       -4.4960     3.7930    -1.6350 H     1 <1>   0.0800 
 33 H       -4.8160    -0.8690     1.4650 H     1 <1>   0.0800 
 34 H       -5.2660     0.3260     0.2580 H     1 <1>   0.0800 
 35 H       -2.4920    -1.3550    -1.8810 H     1 <1>   0.2700 
 36 H       -5.8000     0.3020     3.0120 H     1 <1>   0.4000 
 37 H       -4.2950    -4.5530     0.1600 H     1 <1>   0.1500 
 38 H       -3.8640    -3.5270    -2.3030 H     1 <1>   0.1500 
 39 H       -0.2980     7.2260    -1.7490 H     1 <1>   0.1500 
 40 H       -3.4830     5.9200    -0.7790 H     1 <1>   0.0800 
 41 H       -2.9260     5.4840    -2.3820 H     1 <1>   0.0800 
 42 H       -2.6490     7.0910    -1.7580 H     1 <1>   0.0800 
 43 H        2.0260     4.5450     0.5650 H     1 <1>   0.1500 
 44 H       -0.6480     2.7750     2.0290 H     1 <1>   0.0800 
 45 H        1.0680     2.7910     1.7510 H     1 <1>   0.0800 
 46 H        0.0300     1.9220     0.6540 H     1 <1>   0.0800 
 47 H        1.8570     6.5550    -0.8110 H     1 <1>   0.1500 
@<TRIPOS>BOND
  1   1   2  2   
  2   2   3  am  
  3   2   4  1   
  4   3   5  1   
  5   3   6  1   
  6   4   7  1   
  7   4   8  1   
  8   4  24  1   
  9   5   9  1   
 10   5  25  1   
 11   5  26  1   
 12   6  10  1   
 13   6  27  1   
 14   6  28  1   
 15   7  11  1   
 16   7  29  1   
 17   8  30  1   
 18   8  31  1   
 19   8  32  1   
 20   9  12  2   
 21   9  13  1   
 22  10  14  1   
 23  10  33  1   
 24  10  34  1   
 25  11  15  ar  
 26  11  16  ar  
 27  12  17  1   
 28  13  18  1   
 29  13  35  1   
 30  14  36  1   
 31  15  19  ar  
 32  15  20  1   
 33  16  21  ar  
 34  16  22  1   
 35  17  18  2   
 36  17  37  1   
 37  18  38  1   
 38  19  23  ar  
 39  19  39  1   
 40  20  40  1   
 41  20  41  1   
 42  20  42  1   
 43  21  23  ar  
 44  21  43  1   
 45  22  44  1   
 46  22  45  1   
 47  22  46  1   
 48  23  47  1   
@<TRIPOS>SUBSTRUCTURE
  1 ****   2 GROUP 4 **** **** 0

# MOE 2024.06 (io_trps.svl 2023.06)
