@<TRIPOS>MOLECULE
NONAME
54 57 1 0 0 
SMALL
USER_CHARGES


@<TRIPOS>ATOM
  1 F       -0.9390    -0.2730     0.1830 F     1 <1>  -0.1900 
  2 C       -2.1590     0.1980     0.1310 C.ar  1 <1>   0.1900 
  3 C       -2.6840     1.0120     1.1400 C.ar  1 <1>   0.0830 
  4 C       -2.9050    -0.1530    -0.9770 C.ar  1 <1>  -0.1500 
  5 O       -2.0500     1.4270     2.2750 O.3   1 <1>  -0.3630 
  6 C       -3.9880     1.4550     0.9950 C.ar  1 <1>  -0.1500 
  7 C       -4.2040     0.3070    -1.0920 C.ar  1 <1>  -0.1500 
  8 C       -0.7100     1.1030     2.5700 C.3   1 <1>   0.0400 
  9 C       -4.7750     1.1140    -0.1070 C.ar  1 <1>   0.0530 
 10 C       -6.1350     1.5780    -0.2110 C.2   1 <1>   0.0870 
 11 O       -6.4910     2.7420     0.2670 O.3   1 <1>  -0.0190 
 12 C       -7.2520     1.0100    -0.7310 C.2   1 <1>  -0.0860 
 13 N       -7.7650     2.9920     0.1000 N.2   1 <1>  -0.4100 
 14 C       -8.2470     1.9640    -0.5080 C.2   1 <1>   0.3720 
 15 C       -7.4390    -0.2740    -1.3170 C.2   1 <1>   0.7160 
 16 N       -9.5950     1.8180    -0.8720 N.pl3 1 <1>  -0.8210 
 17 O       -7.2980    -0.4340    -2.5180 O.2   1 <1>  -0.5700 
 18 N       -7.7360    -1.3510    -0.5330 N.am  1 <1>  -0.5100 
 19 C      -10.5460     2.8010    -0.2790 C.3   1 <1>   0.1290 
 20 C       -9.8490     1.5530    -2.3180 C.3   1 <1>   0.1290 
 21 C       -8.6070    -1.2820     0.6870 C.3   1 <1>   0.2250 
 22 C       -8.5030    -2.5450    -1.0150 C.3   1 <1>   0.2250 
 23 C       -8.9920    -2.7640     0.4410 C.3   1 <1>   0.2100 
 24 N      -10.4360    -3.0500     0.5640 N.3   1 <1>  -0.7500 
 25 C      -10.7510    -4.4020     0.0600 C.3   1 <1>   0.1100 
 26 C      -10.8830    -2.9340     1.9660 C.3   1 <1>   0.1100 
 27 C      -12.2410    -4.7330     0.2580 C.3   1 <1>   0.1200 
 28 C      -12.3690    -3.3080     2.1060 C.3   1 <1>   0.1200 
 29 O      -12.5980    -4.5930     1.6030 O.3   1 <1>  -0.5600 
 30 H       -2.4730    -0.7770    -1.7390 H     1 <1>   0.1500 
 31 H       -4.4040     2.0810     1.7640 H     1 <1>   0.1500 
 32 H       -4.7760     0.0380    -1.9640 H     1 <1>   0.1500 
 33 H       -0.4510     1.5680     3.5040 H     1 <1>   0.0800 
 34 H       -0.0770     1.4810     1.7870 H     1 <1>   0.0800 
 35 H       -0.6180     0.0350     2.6580 H     1 <1>   0.0800 
 36 H      -10.3710     2.8860     0.7800 H     1 <1>   0.0800 
 37 H      -11.5590     2.4740    -0.4350 H     1 <1>   0.0800 
 38 H      -10.4070     3.7680    -0.7330 H     1 <1>   0.0800 
 39 H       -8.9740     1.7800    -2.9030 H     1 <1>   0.0800 
 40 H      -10.6660     2.1520    -2.6810 H     1 <1>   0.0800 
 41 H      -10.0950     0.5140    -2.4540 H     1 <1>   0.0800 
 42 H       -9.4190    -0.5900     0.5510 H     1 <1>   0.0000 
 43 H       -8.0270    -1.1260     1.5780 H     1 <1>   0.0000 
 44 H       -7.8480    -3.3180    -1.3740 H     1 <1>   0.0000 
 45 H       -9.2790    -2.2570    -1.7030 H     1 <1>   0.0000 
 46 H       -8.3800    -3.4560     0.9940 H     1 <1>   0.0000 
 47 H      -10.1600    -5.1370     0.5790 H     1 <1>   0.0800 
 48 H      -10.5190    -4.4610    -0.9880 H     1 <1>   0.0800 
 49 H      -10.7470    -1.9230     2.3070 H     1 <1>   0.0800 
 50 H      -10.2990    -3.5850     2.5950 H     1 <1>   0.0800 
 51 H      -12.4400    -5.7490    -0.0310 H     1 <1>   0.0800 
 52 H      -12.8560    -4.0760    -0.3330 H     1 <1>   0.0800 
 53 H      -12.9870    -2.6110     1.5670 H     1 <1>   0.0800 
 54 H      -12.6600    -3.3040     3.1410 H     1 <1>   0.0800 
@<TRIPOS>BOND
  1   1   2  1   
  2   2   3  ar  
  3   2   4  ar  
  4   3   5  1   
  5   3   6  ar  
  6   4   7  ar  
  7   4  30  1   
  8   5   8  1   
  9   6   9  ar  
 10   6  31  1   
 11   7   9  ar  
 12   7  32  1   
 13   8  33  1   
 14   8  34  1   
 15   8  35  1   
 16   9  10  1   
 17  10  11  1   
 18  10  12  2   
 19  11  13  1   
 20  12  14  1   
 21  12  15  1   
 22  13  14  2   
 23  14  16  1   
 24  15  17  2   
 25  15  18  am  
 26  16  19  1   
 27  16  20  1   
 28  18  21  1   
 29  18  22  1   
 30  19  36  1   
 31  19  37  1   
 32  19  38  1   
 33  20  39  1   
 34  20  40  1   
 35  20  41  1   
 36  21  23  1   
 37  21  42  1   
 38  21  43  1   
 39  22  23  1   
 40  22  44  1   
 41  22  45  1   
 42  23  24  1   
 43  23  46  1   
 44  24  25  1   
 45  24  26  1   
 46  25  27  1   
 47  25  47  1   
 48  25  48  1   
 49  26  28  1   
 50  26  49  1   
 51  26  50  1   
 52  27  29  1   
 53  27  51  1   
 54  27  52  1   
 55  28  29  1   
 56  28  53  1   
 57  28  54  1   
@<TRIPOS>SUBSTRUCTURE
  1 ****  18 GROUP 4 **** **** 0

# MOE 2024.06 (io_trps.svl 2023.06)
