@<TRIPOS>MOLECULE
NONAME
44 47 1 0 0 
SMALL
USER_CHARGES


@<TRIPOS>ATOM
  1 CL      -1.2570    -0.6500    -1.5960 Cl    1 <1>  -0.1770 
  2 C       -2.2800     0.4770    -0.7350 C.ar  1 <1>   0.1770 
  3 C       -3.2110    -0.0090     0.1830 C.ar  1 <1>  -0.1440 
  4 C       -2.1420     1.8310    -1.0020 C.ar  1 <1>  -0.1500 
  5 C       -4.0340     0.8870     0.8600 C.ar  1 <1>  -0.1500 
  6 C       -3.3290    -1.4970     0.4450 C.3   1 <1>   0.4870 
  7 C       -2.9740     2.6920    -0.3180 C.ar  1 <1>   0.0830 
  8 C       -3.8910     2.2330     0.5840 C.ar  1 <1>   0.0830 
  9 N       -3.9310    -2.1660    -0.7430 N.4   1 <1>  -0.9590 
 10 O       -3.0380     4.0240    -0.4000 O.3   1 <1>  -0.3630 
 11 O       -4.5730     3.2560     1.1070 O.3   1 <1>  -0.3620 
 12 C       -5.3370    -1.7010    -0.9750 C.3   1 <1>   0.3430 
 13 C       -3.9970    -3.6460    -0.5320 C.3   1 <1>   0.3430 
 14 C       -4.0490     4.4450     0.5150 C.3   1 <1>   0.4000 
 15 C       -6.2310    -2.7440    -0.3000 C.3   1 <1>   0.2000 
 16 C       -5.4790    -4.0400    -0.5930 C.3   1 <1>  -0.0800 
 17 O       -6.2350    -2.4980     1.0710 O.3   1 <1>  -0.6800 
 18 C       -5.8190    -5.2550     0.2940 C.3   1 <1>   0.0200 
 19 C       -4.8560    -6.3920     0.0170 C.2   1 <1>  -0.0400 
 20 O       -4.5990    -6.7390    -1.2160 O.3   1 <1>  -0.0190 
 21 C       -4.1300    -7.1780     0.8260 C.2   1 <1>  -0.1500 
 22 N       -3.7280    -7.7000    -1.2760 N.2   1 <1>  -0.4100 
 23 C       -3.4340    -7.9950    -0.0600 C.2   1 <1>   0.1080 
 24 C       -2.4620    -9.0840     0.3390 C.3   1 <1>  -0.0590 
 25 H       -1.4220     2.2010    -1.7090 H     1 <1>   0.1500 
 26 H       -4.7660     0.5710     1.5840 H     1 <1>   0.1500 
 27 H       -3.9450    -1.6670     1.3140 H     1 <1>   0.0800 
 28 H       -2.3490    -1.9020     0.6380 H     1 <1>   0.0800 
 29 H       -3.3380    -1.9390    -1.5540 H     1 <1>   0.4500 
 30 H       -5.5200    -0.7150    -0.5810 H     1 <1>   0.0800 
 31 H       -5.5420    -1.6980    -2.0330 H     1 <1>   0.0800 
 32 H       -3.4360    -4.1770    -1.2860 H     1 <1>   0.0800 
 33 H       -3.5990    -3.9000     0.4370 H     1 <1>   0.0800 
 34 H       -3.6120     5.0660     1.2760 H     1 <1>   0.0800 
 35 H       -4.8290     4.9580    -0.0190 H     1 <1>   0.0800 
 36 H       -7.2440    -2.7260    -0.6690 H     1 <1>   0.0800 
 37 H       -5.6850    -4.3140    -1.6130 H     1 <1>   0.0800 
 38 H       -7.0230    -2.8980     1.5010 H     1 <1>   0.4000 
 39 H       -6.8220    -5.5860     0.0870 H     1 <1>   0.0800 
 40 H       -5.7560    -5.0060     1.3390 H     1 <1>   0.0800 
 41 H       -4.0670    -7.2080     1.8990 H     1 <1>   0.1500 
 42 H       -1.6710    -8.6700     0.9370 H     1 <1>   0.0800 
 43 H       -2.0340    -9.5350    -0.5390 H     1 <1>   0.0800 
 44 H       -2.9740    -9.8410     0.9030 H     1 <1>   0.0800 
@<TRIPOS>BOND
  1   1   2  1   
  2   2   3  ar  
  3   2   4  ar  
  4   3   5  ar  
  5   3   6  1   
  6   4   7  ar  
  7   4  25  1   
  8   5   8  ar  
  9   5  26  1   
 10   6   9  1   
 11   6  27  1   
 12   6  28  1   
 13   7   8  ar  
 14   7  10  1   
 15   8  11  1   
 16   9  12  1   
 17   9  13  1   
 18   9  29  1   
 19  10  14  1   
 20  11  14  1   
 21  12  15  1   
 22  12  30  1   
 23  12  31  1   
 24  13  16  1   
 25  13  32  1   
 26  13  33  1   
 27  14  34  1   
 28  14  35  1   
 29  15  16  1   
 30  15  17  1   
 31  15  36  1   
 32  16  18  1   
 33  16  37  1   
 34  17  38  1   
 35  18  19  1   
 36  18  39  1   
 37  18  40  1   
 38  19  20  1   
 39  19  21  2   
 40  20  22  1   
 41  21  23  1   
 42  21  41  1   
 43  22  23  2   
 44  23  24  1   
 45  24  42  1   
 46  24  43  1   
 47  24  44  1   
@<TRIPOS>SUBSTRUCTURE
  1 ****   9 GROUP 4 **** **** 0

# MOE 2024.06 (io_trps.svl 2023.06)
