@<TRIPOS>MOLECULE
NONAME
46 48 1 0 0 
SMALL
USER_CHARGES


@<TRIPOS>ATOM
  1 F        2.3870     0.9340     1.5450 F     1 <1>  -0.3400 
  2 C        3.6130     0.6680     1.1090 C.3   1 <1>   1.1640 
  3 F        3.5240    -0.4710     0.4310 F     1 <1>  -0.3400 
  4 F        4.3430     0.4040     2.1850 F     1 <1>  -0.3400 
  5 C        4.2130     1.8160     0.2800 C.ar  1 <1>  -0.1440 
  6 C        5.0560     1.5620    -0.7980 C.ar  1 <1>  -0.1500 
  7 C        3.9300     3.1400     0.5970 C.ar  1 <1>  -0.1500 
  8 C        5.5940     2.6010    -1.5370 C.ar  1 <1>  -0.1500 
  9 C        4.4690     4.1780    -0.1420 C.ar  1 <1>  -0.1500 
 10 C        5.3100     3.9170    -1.2110 C.ar  1 <1>  -0.1430 
 11 C        5.9060     5.0650    -2.0230 C.3   1 <1>   0.0440 
 12 C        6.5340     6.1610    -1.1660 C.2   1 <1>   0.5690 
 13 O        6.2020     7.3020    -1.3890 O.2   1 <1>  -0.5700 
 14 N        7.4740     5.8970    -0.1990 N.am  1 <1>  -0.6600 
 15 C        7.7310     6.8940     0.8940 C.3   1 <1>   0.1400 
 16 C        8.2850     4.6480    -0.1130 C.3   1 <1>   0.1400 
 17 C        9.1630     7.4980     0.9250 C.3   1 <1>   0.4230 
 18 C        9.7840     4.9380    -0.3520 C.3   1 <1>  -0.0800 
 19 N        9.8910     7.5340    -0.4070 N.4   1 <1>  -0.9590 
 20 C       10.0310     6.8530     2.0270 C.3   1 <1>   0.1200 
 21 C       10.6380     4.8400     0.9220 C.3   1 <1>   0.1200 
 22 C       10.0220     6.2310    -1.1530 C.3   1 <1>   0.3430 
 23 C        9.2450     8.5450    -1.3040 C.3   1 <1>   0.2630 
 24 O       10.0090     5.4610     1.9930 O.3   1 <1>  -0.5600 
 25 H        5.2980     0.5490    -1.0730 H     1 <1>   0.1500 
 26 H        3.2810     3.3740     1.4260 H     1 <1>   0.1500 
 27 H        6.2340     2.3700    -2.3720 H     1 <1>   0.1500 
 28 H        4.2250     5.1940     0.1240 H     1 <1>   0.1500 
 29 H        5.1200     5.5020    -2.6120 H     1 <1>   0.0800 
 30 H        6.6480     4.6980    -2.7060 H     1 <1>   0.0800 
 31 H        7.0320     7.7080     0.8100 H     1 <1>   0.0800 
 32 H        7.5220     6.4250     1.8410 H     1 <1>   0.0800 
 33 H        8.1290     4.1830     0.8470 H     1 <1>   0.0800 
 34 H        7.9530     3.9450    -0.8560 H     1 <1>   0.0800 
 35 H        9.0410     8.5210     1.2410 H     1 <1>   0.0800 
 36 H       10.1360     4.1430    -0.9830 H     1 <1>   0.0800 
 37 H       10.8440     7.8590    -0.2050 H     1 <1>   0.4500 
 38 H        9.6340     7.1350     2.9870 H     1 <1>   0.0800 
 39 H       11.0500     7.1930     1.9810 H     1 <1>   0.0800 
 40 H       11.6230     5.2560     0.7910 H     1 <1>   0.0800 
 41 H       10.7470     3.8040     1.1970 H     1 <1>   0.0800 
 42 H        9.3200     6.2300    -1.9710 H     1 <1>   0.0800 
 43 H       11.0070     6.1850    -1.5890 H     1 <1>   0.0800 
 44 H        8.2400     8.2420    -1.5480 H     1 <1>   0.0800 
 45 H        9.8020     8.6450    -2.2210 H     1 <1>   0.0800 
 46 H        9.2030     9.5070    -0.8210 H     1 <1>   0.0800 
@<TRIPOS>BOND
  1   1   2  1   
  2   2   3  1   
  3   2   4  1   
  4   2   5  1   
  5   5   6  ar  
  6   5   7  ar  
  7   6   8  ar  
  8   6  25  1   
  9   7   9  ar  
 10   7  26  1   
 11   8  10  ar  
 12   8  27  1   
 13   9  10  ar  
 14   9  28  1   
 15  10  11  1   
 16  11  12  1   
 17  11  29  1   
 18  11  30  1   
 19  12  13  2   
 20  12  14  am  
 21  14  15  1   
 22  14  16  1   
 23  15  17  1   
 24  15  31  1   
 25  15  32  1   
 26  16  18  1   
 27  16  33  1   
 28  16  34  1   
 29  17  19  1   
 30  17  20  1   
 31  17  35  1   
 32  18  21  1   
 33  18  22  1   
 34  18  36  1   
 35  19  22  1   
 36  19  23  1   
 37  19  37  1   
 38  20  24  1   
 39  20  38  1   
 40  20  39  1   
 41  21  24  1   
 42  21  40  1   
 43  21  41  1   
 44  22  42  1   
 45  22  43  1   
 46  23  44  1   
 47  23  45  1   
 48  23  46  1   
@<TRIPOS>SUBSTRUCTURE
  1 ****  16 GROUP 4 **** **** 0

# MOE 2024.06 (io_trps.svl 2023.06)
