@<TRIPOS>MOLECULE
NONAME
46 48 1 0 0 
SMALL
USER_CHARGES


@<TRIPOS>ATOM
  1 O       -0.0140     0.6720    -0.4800 O.2   1 <1>  -0.5700 
  2 C       -0.6050     1.6180    -0.9700 C.2   1 <1>   0.6900 
  3 N       -1.9750     1.6510    -1.0180 N.am  1 <1>  -0.6600 
  4 N        0.0940     2.6640    -1.4620 N.am  1 <1>  -0.7300 
  5 C       -2.7420     2.9400    -1.0010 C.3   1 <1>   0.1400 
  6 C       -2.7780     0.4280    -0.7120 C.3   1 <1>   0.1400 
  7 C        1.1310     3.3930    -0.6590 C.3   1 <1>   0.0340 
  8 C       -3.3820     3.1890     0.3860 C.3   1 <1>   0.1430 
  9 C       -4.0970     0.7640     0.0070 C.3   1 <1>  -0.1600 
 10 C        0.6870     4.8230    -0.3450 C.2   1 <1>   0.9060 
 11 C       -4.4940     4.2100     0.2010 C.ar  1 <1>   0.1660 
 12 C       -3.8830     1.8760     1.0450 C.3   1 <1>  -0.1600 
 13 C       -2.4100     3.9460     1.3270 C.3   1 <1>  -0.1600 
 14 O       -0.1140     5.3690    -1.1210 O.co2 1 <1>  -0.9000 
 15 O        1.0820     5.3770     0.6860 O.co2 1 <1>  -0.9000 
 16 N       -5.6810     3.9670    -0.3030 N.ar  1 <1>  -0.6200 
 17 C       -4.1080     5.4470     0.6180 C.ar  1 <1>  -0.1430 
 18 C       -2.6960     5.4460     1.1480 C.3   1 <1>  -0.0170 
 19 C       -6.4950     5.0230    -0.3770 C.ar  1 <1>   0.7200 
 20 C       -5.0090     6.4730     0.4980 C.ar  1 <1>   0.1600 
 21 N       -6.2100     6.2720     0.0060 N.ar  1 <1>  -0.6200 
 22 N       -7.7560     4.8010    -0.8980 N.pl3 1 <1>  -0.8380 
 23 C       -8.6480     5.9190    -1.3110 C.3   1 <1>   0.1290 
 24 C       -8.2980     3.4280    -1.0930 C.3   1 <1>   0.1290 
 25 H       -0.4760     3.3740    -1.9340 H     1 <1>   0.3700 
 26 H       -3.5190     2.8750    -1.7430 H     1 <1>   0.0800 
 27 H       -2.1250     3.7800    -1.2650 H     1 <1>   0.0800 
 28 H       -2.2010    -0.2250    -0.0790 H     1 <1>   0.0800 
 29 H       -2.9820    -0.0970    -1.6290 H     1 <1>   0.0800 
 30 H        2.0480     3.4380    -1.2140 H     1 <1>   0.0800 
 31 H        1.3090     2.8790     0.2680 H     1 <1>   0.0800 
 32 H       -4.4730    -0.1210     0.4870 H     1 <1>   0.0800 
 33 H       -4.8310     1.0790    -0.7150 H     1 <1>   0.0800 
 34 H       -4.7940     2.0610     1.5880 H     1 <1>   0.0800 
 35 H       -3.1470     1.5260     1.7470 H     1 <1>   0.0800 
 36 H       -1.3800     3.7100     1.1290 H     1 <1>   0.0800 
 37 H       -2.6230     3.6920     2.3490 H     1 <1>   0.0800 
 38 H       -2.0320     5.8800     0.4200 H     1 <1>   0.0800 
 39 H       -2.6050     5.9800     2.0770 H     1 <1>   0.0800 
 40 H       -4.7390     7.4670     0.8080 H     1 <1>   0.1500 
 41 H       -8.0670     6.7680    -1.6280 H     1 <1>   0.0800 
 42 H       -9.2660     6.2100    -0.4790 H     1 <1>   0.0800 
 43 H       -9.2730     5.6120    -2.1300 H     1 <1>   0.0800 
 44 H       -7.9020     2.7590    -0.3490 H     1 <1>   0.0800 
 45 H       -8.0210     3.0690    -2.0690 H     1 <1>   0.0800 
 46 H       -9.3700     3.4360    -1.0050 H     1 <1>   0.0800 
@<TRIPOS>BOND
  1   1   2  2   
  2   2   3  am  
  3   2   4  am  
  4   3   5  1   
  5   3   6  1   
  6   4   7  1   
  7   4  25  1   
  8   5   8  1   
  9   5  26  1   
 10   5  27  1   
 11   6   9  1   
 12   6  28  1   
 13   6  29  1   
 14   7  10  1   
 15   7  30  1   
 16   7  31  1   
 17   8  11  1   
 18   8  12  1   
 19   8  13  1   
 20   9  12  1   
 21   9  32  1   
 22   9  33  1   
 23  10  14  ar  
 24  10  15  ar  
 25  11  16  ar  
 26  11  17  ar  
 27  12  34  1   
 28  12  35  1   
 29  13  18  1   
 30  13  36  1   
 31  13  37  1   
 32  16  19  ar  
 33  17  18  1   
 34  17  20  ar  
 35  18  38  1   
 36  18  39  1   
 37  19  21  ar  
 38  19  22  1   
 39  20  21  ar  
 40  20  40  1   
 41  22  23  1   
 42  22  24  1   
 43  23  41  1   
 44  23  42  1   
 45  23  43  1   
 46  24  44  1   
 47  24  45  1   
 48  24  46  1   
@<TRIPOS>SUBSTRUCTURE
  1 ****   8 GROUP 4 **** **** 0

# MOE 2024.06 (io_trps.svl 2023.06)
