@<TRIPOS>MOLECULE
NONAME
45 47 1 0 0 
SMALL
USER_CHARGES


@<TRIPOS>ATOM
  1 O        0.7800     0.1360     1.1280 O.2   1 <1>  -0.5700 
  2 C        1.6130    -0.6110     0.6280 C.2   1 <1>   0.6160 
  3 N        2.6150    -0.1150    -0.1910 N.am  1 <1>  -0.4690 
  4 C        1.5650    -2.0070     0.8630 C.2   1 <1>  -0.1360 
  5 C        3.5390    -0.9760    -0.7470 C.2   1 <1>  -0.0410 
  6 C        2.7160     1.3420    -0.4570 C.3   1 <1>   0.1400 
  7 C        2.4560    -2.8790     0.2990 C.2   1 <1>   0.0140 
  8 C        3.4760    -2.3130    -0.5190 C.2   1 <1>  -0.1500 
  9 C        3.6420     1.9890     0.5710 C.3   1 <1>  -0.2400 
 10 C        2.4150    -4.3130     0.5070 C.2   1 <1>   0.6160 
 11 O        3.4400    -4.9120     0.7680 O.2   1 <1>  -0.5700 
 12 N        1.2430    -5.0280     0.4010 N.am  1 <1>  -0.6600 
 13 C        0.0490    -4.5880    -0.3720 C.3   1 <1>   0.1400 
 14 C        1.1900    -6.4980     0.6220 C.3   1 <1>   0.1400 
 15 C       -0.9280    -5.7580    -0.2730 C.3   1 <1>   0.2000 
 16 C       -0.0180    -6.9870    -0.1850 C.3   1 <1>  -0.0800 
 17 O       -1.6410    -5.6230     0.9090 O.3   1 <1>  -0.6800 
 18 C       -0.6850    -8.2500     0.3910 C.3   1 <1>   0.0200 
 19 C        0.2100    -9.4770     0.3360 C.2   1 <1>  -0.0400 
 20 O       -0.1900   -10.5700     0.9290 O.3   1 <1>  -0.0190 
 21 C        1.4060    -9.7320    -0.2210 C.2   1 <1>  -0.1500 
 22 N        0.6710   -11.5380     0.8040 N.2   1 <1>  -0.4100 
 23 C        1.6440   -11.0610     0.1150 C.2   1 <1>   0.1080 
 24 C        2.8770   -11.8470    -0.2720 C.3   1 <1>  -0.0590 
 25 H        0.7870    -2.3430     1.5190 H     1 <1>   0.1500 
 26 H        4.3130    -0.5460    -1.3630 H     1 <1>   0.1500 
 27 H        3.1010     1.4980    -1.4500 H     1 <1>   0.0800 
 28 H        1.7390     1.7930    -0.4070 H     1 <1>   0.0800 
 29 H        4.2020    -2.9850    -0.9470 H     1 <1>   0.1500 
 30 H        4.6250     1.5560     0.5190 H     1 <1>   0.0800 
 31 H        3.2430     1.8560     1.5610 H     1 <1>   0.0800 
 32 H        3.7200     3.0430     0.3750 H     1 <1>   0.0800 
 33 H       -0.3850    -3.6850     0.0200 H     1 <1>   0.0800 
 34 H        0.3340    -4.4350    -1.3990 H     1 <1>   0.0800 
 35 H        2.1000    -6.9710     0.2960 H     1 <1>   0.0800 
 36 H        1.0540    -6.6870     1.6740 H     1 <1>   0.0800 
 37 H       -1.6270    -5.7980    -1.0910 H     1 <1>   0.0800 
 38 H        0.3230    -7.2070    -1.1820 H     1 <1>   0.0800 
 39 H       -1.0170    -5.4410     1.6400 H     1 <1>   0.4000 
 40 H       -1.5850    -8.4620    -0.1590 H     1 <1>   0.0800 
 41 H       -0.9650    -8.0830     1.4170 H     1 <1>   0.0800 
 42 H        2.0600    -9.1030    -0.7950 H     1 <1>   0.1500 
 43 H        2.9610   -11.8900    -1.3420 H     1 <1>   0.0800 
 44 H        2.8090   -12.8480     0.1130 H     1 <1>   0.0800 
 45 H        3.7520   -11.3760     0.1360 H     1 <1>   0.0800 
@<TRIPOS>BOND
  1   1   2  2   
  2   2   3  am  
  3   2   4  1   
  4   3   5  1   
  5   3   6  1   
  6   4   7  2   
  7   4  25  1   
  8   5   8  2   
  9   5  26  1   
 10   6   9  1   
 11   6  27  1   
 12   6  28  1   
 13   7   8  1   
 14   7  10  1   
 15   8  29  1   
 16   9  30  1   
 17   9  31  1   
 18   9  32  1   
 19  10  11  2   
 20  10  12  am  
 21  12  13  1   
 22  12  14  1   
 23  13  15  1   
 24  13  33  1   
 25  13  34  1   
 26  14  16  1   
 27  14  35  1   
 28  14  36  1   
 29  15  16  1   
 30  15  17  1   
 31  15  37  1   
 32  16  18  1   
 33  16  38  1   
 34  17  39  1   
 35  18  19  1   
 36  18  40  1   
 37  18  41  1   
 38  19  20  1   
 39  19  21  2   
 40  20  22  1   
 41  21  23  1   
 42  21  42  1   
 43  22  23  2   
 44  23  24  1   
 45  24  43  1   
 46  24  44  1   
 47  24  45  1   
@<TRIPOS>SUBSTRUCTURE
  1 ****  12 GROUP 4 **** **** 0

# MOE 2024.06 (io_trps.svl 2023.06)
