@<TRIPOS>MOLECULE
NONAME
52 55 1 0 0 
SMALL
USER_CHARGES


@<TRIPOS>ATOM
  1 F       -5.0710     0.0210     0.5960 F     1 <1>  -0.1900 
  2 C       -4.3320    -1.0330     0.8170 C.ar  1 <1>   0.1900 
  3 C       -4.5010    -2.1440     0.0160 C.ar  1 <1>  -0.1500 
  4 C       -3.4110    -0.9940     1.8470 C.ar  1 <1>  -0.1500 
  5 C       -3.7200    -3.2630     0.2540 C.ar  1 <1>   0.0830 
  6 C       -2.6300    -2.1140     2.0790 C.ar  1 <1>  -0.1500 
  7 O       -3.9290    -4.3300    -0.5540 O.3   1 <1>  -0.3630 
  8 C       -2.7810    -3.2430     1.2870 C.ar  1 <1>  -0.1500 
  9 C       -3.2730    -5.5700    -0.3260 C.3   1 <1>   0.1810 
 10 C       -3.7530    -6.6460    -1.2970 C.2   1 <1>   0.5690 
 11 O       -2.9210    -7.1150    -2.0420 O.2   1 <1>  -0.5700 
 12 N       -5.0560    -7.0890    -1.2970 N.am  1 <1>  -0.6600 
 13 C       -5.5170    -8.1550    -2.2310 C.3   1 <1>   0.1400 
 14 C       -6.1430    -6.5610    -0.4250 C.3   1 <1>   0.1400 
 15 C       -6.0960    -9.3220    -1.4260 C.3   1 <1>  -0.1600 
 16 C       -6.7190    -7.7050     0.4120 C.3   1 <1>  -0.1600 
 17 C       -7.2120    -8.8710    -0.4670 C.3   1 <1>   0.4240 
 18 O       -8.1980    -8.3400    -1.3270 O.3   1 <1>  -0.5600 
 19 C       -7.7630   -10.0600     0.3720 C.ar  1 <1>  -0.1430 
 20 C       -9.5000    -8.2490    -0.8490 C.3   1 <1>   0.1200 
 21 C       -6.9540   -10.7890     1.2560 C.ar  1 <1>   0.0830 
 22 C       -9.1030   -10.4280     0.2580 C.ar  1 <1>  -0.1430 
 23 C      -10.0320    -9.6600    -0.6600 C.3   1 <1>  -0.0170 
 24 O       -5.6500   -10.4360     1.4020 O.3   1 <1>  -0.3630 
 25 C       -7.4870   -11.8560     1.9780 C.ar  1 <1>  -0.1500 
 26 C       -9.6200   -11.4930     0.9770 C.ar  1 <1>  -0.1500 
 27 C       -4.7170   -11.2370     2.0930 C.3   1 <1>   0.0400 
 28 C       -8.8130   -12.2080     1.8360 C.ar  1 <1>  -0.1500 
 29 H       -5.2240    -2.1430    -0.7770 H     1 <1>   0.1500 
 30 H       -3.3120    -0.1080     2.4480 H     1 <1>   0.1500 
 31 H       -1.9030    -2.1050     2.8740 H     1 <1>   0.1500 
 32 H       -2.1560    -4.0930     1.4900 H     1 <1>   0.1500 
 33 H       -3.4750    -5.8860     0.6800 H     1 <1>   0.0800 
 34 H       -2.2180    -5.4190    -0.4580 H     1 <1>   0.0800 
 35 H       -4.7040    -8.5070    -2.8410 H     1 <1>   0.0800 
 36 H       -6.2690    -7.7470    -2.8850 H     1 <1>   0.0800 
 37 H       -6.9130    -6.1350    -1.0470 H     1 <1>   0.0800 
 38 H       -5.7850    -5.7880     0.2290 H     1 <1>   0.0800 
 39 H       -5.2870    -9.7750    -0.8900 H     1 <1>   0.0800 
 40 H       -6.4890   -10.0650    -2.0950 H     1 <1>   0.0800 
 41 H       -7.5200    -7.3450     1.0270 H     1 <1>   0.0800 
 42 H       -5.9470    -8.0410     1.0760 H     1 <1>   0.0800 
 43 H      -10.0840    -7.7190    -1.5800 H     1 <1>   0.0800 
 44 H       -9.5050    -7.7020     0.0770 H     1 <1>   0.0800 
 45 H      -10.0910   -10.1530    -1.6140 H     1 <1>   0.0800 
 46 H      -11.0190    -9.6120    -0.2390 H     1 <1>   0.0800 
 47 H       -6.8880   -12.4270     2.6600 H     1 <1>   0.1500 
 48 H      -10.6550   -11.7690     0.8720 H     1 <1>   0.1500 
 49 H       -3.7450   -10.7920     1.9770 H     1 <1>   0.0800 
 50 H       -4.7200   -12.2240     1.6660 H     1 <1>   0.0800 
 51 H       -4.9830   -11.2640     3.1350 H     1 <1>   0.0800 
 52 H       -9.2180   -13.0340     2.3940 H     1 <1>   0.1500 
@<TRIPOS>BOND
  1   1   2  1   
  2   2   3  ar  
  3   2   4  ar  
  4   3   5  ar  
  5   3  29  1   
  6   4   6  ar  
  7   4  30  1   
  8   5   7  1   
  9   5   8  ar  
 10   6   8  ar  
 11   6  31  1   
 12   7   9  1   
 13   8  32  1   
 14   9  10  1   
 15   9  33  1   
 16   9  34  1   
 17  10  11  2   
 18  10  12  am  
 19  12  13  1   
 20  12  14  1   
 21  13  15  1   
 22  13  35  1   
 23  13  36  1   
 24  14  16  1   
 25  14  37  1   
 26  14  38  1   
 27  15  17  1   
 28  15  39  1   
 29  15  40  1   
 30  16  17  1   
 31  16  41  1   
 32  16  42  1   
 33  17  18  1   
 34  17  19  1   
 35  18  20  1   
 36  19  21  ar  
 37  19  22  ar  
 38  20  23  1   
 39  20  43  1   
 40  20  44  1   
 41  21  24  1   
 42  21  25  ar  
 43  22  23  1   
 44  22  26  ar  
 45  23  45  1   
 46  23  46  1   
 47  24  27  1   
 48  25  28  ar  
 49  25  47  1   
 50  26  28  ar  
 51  26  48  1   
 52  27  49  1   
 53  27  50  1   
 54  27  51  1   
 55  28  52  1   
@<TRIPOS>SUBSTRUCTURE
  1 ****  14 GROUP 4 **** **** 0

# MOE 2024.06 (io_trps.svl 2023.06)
