@<TRIPOS>MOLECULE
NONAME
49 51 1 0 0 
SMALL
USER_CHARGES


@<TRIPOS>ATOM
  1 S       -1.5300     0.1690    -1.0370 S.o2  1 <1>   1.3330 
  2 O       -1.9230    -0.7390    -2.0920 O.2   1 <1>  -0.6500 
  3 O       -2.1790     1.4550    -0.9180 O.2   1 <1>  -0.6500 
  4 N       -1.7370    -0.6550     0.4300 N.am  1 <1>  -0.8490 
  5 C        0.2490     0.4370    -1.1230 C.3   1 <1>  -0.0550 
  6 C       -1.4910    -2.1120     0.3400 C.3   1 <1>   0.1960 
  7 C       -3.0290    -0.3090     1.0700 C.3   1 <1>   0.1960 
  8 C        0.8400     1.2550     0.0410 C.3   1 <1>  -0.2400 
  9 C       -2.7770    -2.9290     0.1080 C.3   1 <1>   0.1400 
 10 C       -3.5940    -1.4210     1.9710 C.3   1 <1>   0.1400 
 11 N       -3.7820    -2.6870     1.1930 N.am  1 <1>  -0.6600 
 12 C       -4.8070    -3.5510     1.4920 C.2   1 <1>   0.5690 
 13 O       -5.4850    -3.3790     2.4820 O.2   1 <1>  -0.5700 
 14 C       -5.1200    -4.7390     0.5650 C.3   1 <1>   0.2610 
 15 O       -4.2300    -5.8200     0.8050 O.3   1 <1>  -0.5600 
 16 C       -6.6000    -5.1810     0.6950 C.3   1 <1>   0.3640 
 17 C       -4.3800    -6.9210    -0.0690 C.3   1 <1>   0.1810 
 18 N       -6.8280    -6.5150     0.0910 N.am  1 <1>  -0.7300 
 19 C       -7.5250    -4.1730     0.0170 C.ar  1 <1>  -0.1440 
 20 C       -5.8350    -7.3670    -0.2430 C.2   1 <1>   0.5690 
 21 C       -8.2280    -3.2590     0.7890 C.ar  1 <1>  -0.1500 
 22 C       -7.6710    -4.1390    -1.3650 C.ar  1 <1>  -0.1500 
 23 O       -6.0840    -8.4530    -0.7010 O.2   1 <1>  -0.5700 
 24 C       -9.0630    -2.3290     0.1940 C.ar  1 <1>  -0.1500 
 25 C       -8.5050    -3.2090    -1.9610 C.ar  1 <1>  -0.1500 
 26 C       -9.2020    -2.3040    -1.1810 C.ar  1 <1>  -0.1500 
 27 H        0.7440    -0.5130    -1.1590 H     1 <1>   0.0800 
 28 H        0.4700     0.9470    -2.0410 H     1 <1>   0.0800 
 29 H       -0.7820    -2.3260    -0.4410 H     1 <1>   0.0800 
 30 H       -1.0500    -2.4420     1.2650 H     1 <1>   0.0800 
 31 H       -2.9040     0.5950     1.6420 H     1 <1>   0.0800 
 32 H       -3.7690    -0.1100     0.3120 H     1 <1>   0.0800 
 33 H        0.6690     0.7510     0.9760 H     1 <1>   0.0800 
 34 H        0.3750     2.2250     0.0840 H     1 <1>   0.0800 
 35 H        1.8990     1.3850    -0.0960 H     1 <1>   0.0800 
 36 H       -2.5190    -3.9740     0.0810 H     1 <1>   0.0800 
 37 H       -3.2020    -2.6590    -0.8430 H     1 <1>   0.0800 
 38 H       -4.5370    -1.0970     2.3760 H     1 <1>   0.0800 
 39 H       -2.9230    -1.5990     2.7930 H     1 <1>   0.0800 
 40 H       -4.9610    -4.4150    -0.4460 H     1 <1>   0.0800 
 41 H       -6.8560    -5.2510     1.7380 H     1 <1>   0.0800 
 42 H       -3.9750    -6.6500    -1.0260 H     1 <1>   0.0800 
 43 H       -3.8060    -7.7360     0.3320 H     1 <1>   0.0800 
 44 H       -7.7980    -6.8070    -0.0330 H     1 <1>   0.3700 
 45 H       -8.1250    -3.2600     1.8620 H     1 <1>   0.1500 
 46 H       -7.1390    -4.8370    -1.9880 H     1 <1>   0.1500 
 47 H       -9.6030    -1.6250     0.8030 H     1 <1>   0.1500 
 48 H       -8.6130    -3.1900    -3.0310 H     1 <1>   0.1500 
 49 H       -9.8510    -1.5800    -1.6440 H     1 <1>   0.1500 
@<TRIPOS>BOND
  1   1   2  2   
  2   1   3  2   
  3   1   4  am  
  4   1   5  1   
  5   4   6  1   
  6   4   7  1   
  7   5   8  1   
  8   5  27  1   
  9   5  28  1   
 10   6   9  1   
 11   6  29  1   
 12   6  30  1   
 13   7  10  1   
 14   7  31  1   
 15   7  32  1   
 16   8  33  1   
 17   8  34  1   
 18   8  35  1   
 19   9  11  1   
 20   9  36  1   
 21   9  37  1   
 22  10  11  1   
 23  10  38  1   
 24  10  39  1   
 25  11  12  am  
 26  12  13  2   
 27  12  14  1   
 28  14  15  1   
 29  14  16  1   
 30  14  40  1   
 31  15  17  1   
 32  16  18  1   
 33  16  19  1   
 34  16  41  1   
 35  17  20  1   
 36  17  42  1   
 37  17  43  1   
 38  18  20  am  
 39  18  44  1   
 40  19  21  ar  
 41  19  22  ar  
 42  20  23  2   
 43  21  24  ar  
 44  21  45  1   
 45  22  25  ar  
 46  22  46  1   
 47  24  26  ar  
 48  24  47  1   
 49  25  26  ar  
 50  25  48  1   
 51  26  49  1   
@<TRIPOS>SUBSTRUCTURE
  1 ****  11 GROUP 4 **** **** 0

# MOE 2024.06 (io_trps.svl 2023.06)
