@<TRIPOS>MOLECULE
NONAME
51 53 1 0 0 
SMALL
USER_CHARGES


@<TRIPOS>ATOM
  1 F       -0.9220    -0.3340    -0.9530 F     1 <1>  -0.1900 
  2 C       -2.1190     0.1670    -0.7790 C.ar  1 <1>   0.1900 
  3 C       -2.3610     1.5440    -0.8240 C.ar  1 <1>   0.0830 
  4 C       -3.1360    -0.7380    -0.5520 C.ar  1 <1>  -0.1500 
  5 O       -1.4470     2.5330    -1.0390 O.3   1 <1>  -0.3630 
  6 C       -3.6640     1.9730    -0.6300 C.ar  1 <1>  -0.1500 
  7 C       -4.4260    -0.2750    -0.3650 C.ar  1 <1>  -0.1500 
  8 C       -0.0680     2.2830    -1.2060 C.3   1 <1>   0.0400 
  9 C       -4.7220     1.0900    -0.3970 C.ar  1 <1>   0.0530 
 10 C       -6.0650     1.5870    -0.2080 C.2   1 <1>   0.0870 
 11 O       -6.4010     2.7670    -0.6660 O.3   1 <1>  -0.0190 
 12 C       -7.1790     1.0670     0.3750 C.2   1 <1>  -0.0860 
 13 N       -7.6500     3.0720    -0.4360 N.2   1 <1>  -0.4100 
 14 C       -8.1410     2.0670     0.2000 C.2   1 <1>   0.3720 
 15 C       -7.3740    -0.1880     1.0270 C.2   1 <1>   0.7160 
 16 N       -9.4710     1.9990     0.6450 N.pl3 1 <1>  -0.8210 
 17 O       -6.7080    -0.4510     2.0120 O.2   1 <1>  -0.5700 
 18 N       -8.2550    -1.1360     0.5540 N.am  1 <1>  -0.6600 
 19 C       -9.6260     2.0180     2.1260 C.3   1 <1>   0.1290 
 20 C      -10.4260     2.9260    -0.0250 C.3   1 <1>   0.1290 
 21 C       -9.1040    -0.9560    -0.6620 C.3   1 <1>   0.1400 
 22 C       -8.4820    -2.4430     1.2400 C.3   1 <1>   0.1400 
 23 C       -9.0460    -2.2060    -1.5640 C.3   1 <1>   0.2000 
 24 C       -8.4520    -3.6050     0.2270 C.3   1 <1>   0.2000 
 25 O       -9.3360    -3.3550    -0.8250 O.3   1 <1>  -0.5600 
 26 C      -10.0640    -2.1390    -2.6990 C.3   1 <1>  -0.2400 
 27 C       -8.8770    -4.9280     0.8590 C.3   1 <1>  -0.2400 
 28 H       -2.9180    -1.7900    -0.5220 H     1 <1>   0.1500 
 29 H       -3.8560     3.0310    -0.6610 H     1 <1>   0.1500 
 30 H       -5.2060    -0.9930    -0.1930 H     1 <1>   0.1500 
 31 H        0.4290     3.2280    -1.3310 H     1 <1>   0.0800 
 32 H        0.0750     1.6770    -2.0830 H     1 <1>   0.0800 
 33 H        0.3070     1.7880    -0.3280 H     1 <1>   0.0800 
 34 H      -10.6190     1.7030     2.3940 H     1 <1>   0.0800 
 35 H       -9.4570     3.0140     2.5000 H     1 <1>   0.0800 
 36 H       -8.9200     1.3520     2.5910 H     1 <1>   0.0800 
 37 H      -11.4380     2.6570     0.2240 H     1 <1>   0.0800 
 38 H      -10.3060     2.8640    -1.0930 H     1 <1>   0.0800 
 39 H      -10.2390     3.9390     0.2860 H     1 <1>   0.0800 
 40 H      -10.1210    -0.7810    -0.3550 H     1 <1>   0.0800 
 41 H       -8.7840    -0.1040    -1.2340 H     1 <1>   0.0800 
 42 H       -7.7340    -2.6140     1.9940 H     1 <1>   0.0800 
 43 H       -9.4420    -2.4210     1.7260 H     1 <1>   0.0800 
 44 H       -8.0570    -2.3110    -1.9760 H     1 <1>   0.0800 
 45 H       -7.4600    -3.7060    -0.1810 H     1 <1>   0.0800 
 46 H      -11.0610    -2.0690    -2.3020 H     1 <1>   0.0800 
 47 H       -9.9870    -3.0200    -3.3090 H     1 <1>   0.0800 
 48 H       -9.8750    -1.2790    -3.3160 H     1 <1>   0.0800 
 49 H       -9.8800    -4.8540     1.2410 H     1 <1>   0.0800 
 50 H       -8.2160    -5.1810     1.6680 H     1 <1>   0.0800 
 51 H       -8.8350    -5.7120     0.1250 H     1 <1>   0.0800 
@<TRIPOS>BOND
  1   1   2  1   
  2   2   3  ar  
  3   2   4  ar  
  4   3   5  1   
  5   3   6  ar  
  6   4   7  ar  
  7   4  28  1   
  8   5   8  1   
  9   6   9  ar  
 10   6  29  1   
 11   7   9  ar  
 12   7  30  1   
 13   8  31  1   
 14   8  32  1   
 15   8  33  1   
 16   9  10  1   
 17  10  11  1   
 18  10  12  2   
 19  11  13  1   
 20  12  14  1   
 21  12  15  1   
 22  13  14  2   
 23  14  16  1   
 24  15  17  2   
 25  15  18  am  
 26  16  19  1   
 27  16  20  1   
 28  18  21  1   
 29  18  22  1   
 30  19  34  1   
 31  19  35  1   
 32  19  36  1   
 33  20  37  1   
 34  20  38  1   
 35  20  39  1   
 36  21  23  1   
 37  21  40  1   
 38  21  41  1   
 39  22  24  1   
 40  22  42  1   
 41  22  43  1   
 42  23  25  1   
 43  23  26  1   
 44  23  44  1   
 45  24  25  1   
 46  24  27  1   
 47  24  45  1   
 48  26  46  1   
 49  26  47  1   
 50  26  48  1   
 51  27  49  1   
 52  27  50  1   
 53  27  51  1   
@<TRIPOS>SUBSTRUCTURE
  1 ****  12 GROUP 4 **** **** 0

# MOE 2024.06 (io_trps.svl 2023.06)
