@<TRIPOS>MOLECULE
NONAME
14 14 1 0 0 
SMALL
USER_CHARGES


@<TRIPOS>ATOM
  1 C        0.5090     3.1270    -0.1520 C.2   1 <1>  -0.2880 
  2 C       -0.7850     3.1840     0.1830 C.2   1 <1>  -0.1500 
  3 C        1.1250     4.5190    -0.1880 C.3   1 <1>   0.1160 
  4 C       -1.1600     4.5440     0.3980 C.2   1 <1>  -0.1500 
  5 C       -0.1020     5.3380     0.1970 C.2   1 <1>  -0.2760 
  6 C       -0.0010     6.8480     0.3030 C.3   1 <1>  -0.1020 
  7 H        1.1180     2.2710    -0.3830 H     1 <1>   0.1500 
  8 H       -1.4830     2.3720     0.2900 H     1 <1>   0.1500 
  9 H        1.4750     4.7700    -1.1730 H     1 <1>   0.0800 
 10 H        1.9120     4.6200     0.5380 H     1 <1>   0.0800 
 11 H       -2.1610     4.8240     0.6770 H     1 <1>   0.1500 
 12 H        0.7260     7.1180     1.0480 H     1 <1>   0.0800 
 13 H       -0.9520     7.2650     0.5830 H     1 <1>   0.0800 
 14 H        0.2940     7.2660    -0.6420 H     1 <1>   0.0800 
@<TRIPOS>BOND
  1   1   2  2   
  2   1   3  1   
  3   1   7  1   
  4   2   4  1   
  5   2   8  1   
  6   3   5  1   
  7   3   9  1   
  8   3  10  1   
  9   4   5  2   
 10   4  11  1   
 11   5   6  1   
 12   6  12  1   
 13   6  13  1   
 14   6  14  1   
@<TRIPOS>SUBSTRUCTURE
  1 ****   5 GROUP 4 **** **** 0

# MOE 2024.06 (io_trps.svl 2023.06)
