@<TRIPOS>MOLECULE
NONAME
40 42 1 0 0 
SMALL
USER_CHARGES


@<TRIPOS>ATOM
  1 O       -0.6010    -0.1750     0.0770 O.3   1 <1>  -0.2800 
  2 C       -0.2870     0.8610     0.8200 C.2   1 <1>   0.4250 
  3 C       -0.5910    -1.1190     0.9750 C.2   1 <1>   0.2980 
  4 N       -0.0910     0.5600     2.0570 N.2   1 <1>  -0.3380 
  5 C       -0.1920     2.1750     0.2260 C.ar  1 <1>   0.0530 
  6 N       -0.2880    -0.7340     2.1520 N.2   1 <1>  -0.3380 
  7 C       -0.8930    -2.5600     0.5620 C.3   1 <1>   0.2900 
  8 C       -0.3940     2.3750    -1.1410 C.ar  1 <1>   0.1600 
  9 C        0.1050     3.3010     0.9840 C.ar  1 <1>  -0.1500 
 10 N       -2.3400    -2.8630     0.3720 N.3   1 <1>  -0.8100 
 11 N       -0.3290     3.5340    -1.7770 N.ar  1 <1>  -0.6200 
 12 C        0.1780     4.5190     0.3440 C.ar  1 <1>  -0.1500 
 13 C       -2.5620    -4.3150     0.2490 C.3   1 <1>   0.1100 
 14 C       -2.9140    -2.1220    -0.7640 C.3   1 <1>   0.0300 
 15 C       -0.0440     4.5820    -1.0200 C.ar  1 <1>   0.1600 
 16 C       -3.9850    -4.6830     0.6780 C.3   1 <1>   0.0960 
 17 N       -4.1720    -6.1420     0.5680 N.pl3 1 <1>   0.0480 
 18 C       -4.6110    -6.8690    -0.4890 C.2   1 <1>   0.0060 
 19 C       -3.9000    -7.0530     1.5200 C.2   1 <1>  -0.3020 
 20 N       -4.6300    -8.1430    -0.2710 N.2   1 <1>  -0.5650 
 21 C       -5.0400    -6.2610    -1.8090 C.3   1 <1>  -0.0600 
 22 C       -4.1850    -8.2620     0.9920 C.2   1 <1>   0.0770 
 23 H       -0.5080    -3.1930     1.3420 H     1 <1>   0.0800 
 24 H       -0.3520    -2.7860    -0.3400 H     1 <1>   0.0800 
 25 H       -0.6250     1.5190    -1.7510 H     1 <1>   0.1500 
 26 H        0.2730     3.2230     2.0450 H     1 <1>   0.1500 
 27 H        0.4050     5.4140     0.8940 H     1 <1>   0.1500 
 28 H       -1.8830    -4.8410     0.8990 H     1 <1>   0.0800 
 29 H       -2.3800    -4.6330    -0.7640 H     1 <1>   0.0800 
 30 H       -2.8660    -1.0630    -0.5790 H     1 <1>   0.0800 
 31 H       -3.9510    -2.3770    -0.8970 H     1 <1>   0.0800 
 32 H       -2.3800    -2.3450    -1.6730 H     1 <1>   0.0800 
 33 H        0.0140     5.5380    -1.5130 H     1 <1>   0.1500 
 34 H       -4.7120    -4.1940     0.0580 H     1 <1>   0.0800 
 35 H       -4.1430    -4.3900     1.6990 H     1 <1>   0.0800 
 36 H       -3.5290    -6.8020     2.4960 H     1 <1>   0.1500 
 37 H       -4.2320    -5.7040    -2.2440 H     1 <1>   0.0800 
 38 H       -5.8850    -5.6150    -1.6600 H     1 <1>   0.0800 
 39 H       -5.3240    -7.0430    -2.4920 H     1 <1>   0.0800 
 40 H       -4.0940    -9.2280     1.4610 H     1 <1>   0.1500 
@<TRIPOS>BOND
  1   1   2  1   
  2   1   3  1   
  3   2   4  2   
  4   2   5  1   
  5   3   6  2   
  6   3   7  1   
  7   4   6  1   
  8   5   8  ar  
  9   5   9  ar  
 10   7  10  1   
 11   7  23  1   
 12   7  24  1   
 13   8  11  ar  
 14   8  25  1   
 15   9  12  ar  
 16   9  26  1   
 17  10  13  1   
 18  10  14  1   
 19  11  15  ar  
 20  12  15  ar  
 21  12  27  1   
 22  13  16  1   
 23  13  28  1   
 24  13  29  1   
 25  14  30  1   
 26  14  31  1   
 27  14  32  1   
 28  15  33  1   
 29  16  17  1   
 30  16  34  1   
 31  16  35  1   
 32  17  18  1   
 33  17  19  1   
 34  18  20  2   
 35  18  21  1   
 36  19  22  2   
 37  19  36  1   
 38  20  22  1   
 39  21  37  1   
 40  21  38  1   
 41  21  39  1   
 42  22  40  1   
@<TRIPOS>SUBSTRUCTURE
  1 ****  10 GROUP 4 **** **** 0

# MOE 2024.06 (io_trps.svl 2023.06)
