@<TRIPOS>MOLECULE
NONAME
43 44 1 0 0 
SMALL
USER_CHARGES


@<TRIPOS>ATOM
  1 O        0.2240     1.0290    -2.3610 O.3   1 <1>  -0.6800 
  2 C        1.2190     0.7420    -1.4410 C.3   1 <1>   0.1200 
  3 C        1.9410    -0.5300    -1.9070 C.3   1 <1>   0.3430 
  4 N        3.2290    -0.7640    -1.1800 N.4   1 <1>  -0.9590 
  5 C        4.3780     0.0440    -1.6790 C.3   1 <1>   0.4860 
  6 C        3.5320    -2.2110    -1.0300 C.3   1 <1>   0.5240 
  7 C        4.4480     1.3550    -0.9000 C.ar  1 <1>   0.1670 
  8 C        2.7820    -2.7510     0.1820 C.2   1 <1>   0.0460 
  9 N        4.1150     1.2910     0.3850 N.ar  1 <1>  -0.6200 
 10 C        4.8290     2.5210    -1.5460 C.ar  1 <1>  -0.1500 
 11 N        1.4490    -2.5850     0.3120 N.2   1 <1>  -0.5650 
 12 C        3.2850    -3.4130     1.2470 C.2   1 <1>  -0.3020 
 13 C        4.1770     2.4360     1.0500 C.ar  1 <1>   0.1600 
 14 C        4.8810     3.7020    -0.8380 C.ar  1 <1>  -0.1500 
 15 C        1.1690    -3.1490     1.4400 C.2   1 <1>   0.0060 
 16 N        2.2460    -3.6750     2.0620 N.pl3 1 <1>   0.0330 
 17 C        4.5450     3.6540     0.4980 C.ar  1 <1>  -0.1430 
 18 C       -0.2270    -3.2240     2.0220 C.3   1 <1>  -0.0600 
 19 C        4.5850     4.9130     1.3500 C.3   1 <1>  -0.0170 
 20 C        5.9690     5.0950     1.9760 C.3   1 <1>  -0.2400 
 21 H       -0.3320     1.7790    -2.0610 H     1 <1>   0.4000 
 22 H        0.7600     0.5830    -0.4790 H     1 <1>   0.0800 
 23 H        1.8770     1.5900    -1.4040 H     1 <1>   0.0800 
 24 H        2.1290    -0.4590    -2.9650 H     1 <1>   0.0800 
 25 H        1.2740    -1.3600    -1.7400 H     1 <1>   0.0800 
 26 H        3.0920    -0.4280    -0.2070 H     1 <1>   0.4500 
 27 H        4.2770     0.2370    -2.7340 H     1 <1>   0.0800 
 28 H        5.2990    -0.4870    -1.5100 H     1 <1>   0.0800 
 29 H        4.5870    -2.3590    -0.8700 H     1 <1>   0.0800 
 30 H        3.2340    -2.7520    -1.9130 H     1 <1>   0.0800 
 31 H        5.0870     2.5220    -2.5910 H     1 <1>   0.1500 
 32 H        4.2940    -3.7100     1.4780 H     1 <1>   0.1500 
 33 H        3.9220     2.4040     2.0960 H     1 <1>   0.1500 
 34 H        5.1760     4.6250    -1.3100 H     1 <1>   0.1500 
 35 H        2.2580    -4.1660     2.9610 H     1 <1>   0.2700 
 36 H       -0.9270    -2.7490     1.3570 H     1 <1>   0.0800 
 37 H       -0.2600    -2.7220     2.9720 H     1 <1>   0.0800 
 38 H       -0.5200    -4.2500     2.1510 H     1 <1>   0.0800 
 39 H        3.8430     4.8530     2.1280 H     1 <1>   0.0800 
 40 H        4.3490     5.7710     0.7430 H     1 <1>   0.0800 
 41 H        6.2110     4.2540     2.6010 H     1 <1>   0.0800 
 42 H        5.9890     5.9870     2.5770 H     1 <1>   0.0800 
 43 H        6.7170     5.1810     1.2090 H     1 <1>   0.0800 
@<TRIPOS>BOND
  1   1   2  1   
  2   1  21  1   
  3   2   3  1   
  4   2  22  1   
  5   2  23  1   
  6   3   4  1   
  7   3  24  1   
  8   3  25  1   
  9   4   5  1   
 10   4   6  1   
 11   4  26  1   
 12   5   7  1   
 13   5  27  1   
 14   5  28  1   
 15   6   8  1   
 16   6  29  1   
 17   6  30  1   
 18   7   9  ar  
 19   7  10  ar  
 20   8  11  1   
 21   8  12  2   
 22   9  13  ar  
 23  10  14  ar  
 24  10  31  1   
 25  11  15  2   
 26  12  16  1   
 27  12  32  1   
 28  13  17  ar  
 29  13  33  1   
 30  14  17  ar  
 31  14  34  1   
 32  15  16  1   
 33  15  18  1   
 34  16  35  1   
 35  17  19  1   
 36  18  36  1   
 37  18  37  1   
 38  18  38  1   
 39  19  20  1   
 40  19  39  1   
 41  19  40  1   
 42  20  41  1   
 43  20  42  1   
 44  20  43  1   
@<TRIPOS>SUBSTRUCTURE
  1 ****   9 GROUP 4 **** **** 0

# MOE 2024.06 (io_trps.svl 2023.06)
