@<TRIPOS>MOLECULE
NONAME
53 56 1 0 0 
SMALL
USER_CHARGES


@<TRIPOS>ATOM
  1 O       -0.5410    -0.8660     1.5550 O.co2 1 <1>  -0.9000 
  2 C       -0.5320    -2.0940     1.3800 C.2   1 <1>   1.0330 
  3 O       -1.6130    -2.7090     1.4790 O.co2 1 <1>  -0.9000 
  4 C        0.6760    -2.7960     1.0560 C.2   1 <1>  -0.2330 
  5 C        0.8410    -4.1700     1.2160 C.2   1 <1>   0.3720 
  6 C        1.8780    -2.3950     0.5580 C.2   1 <1>   0.0870 
  7 N        2.0100    -4.5580     0.8520 N.2   1 <1>  -0.4100 
  8 N       -0.1420    -5.0200     1.6980 N.pl3 1 <1>  -0.8520 
  9 O        2.6250    -3.4730     0.4640 O.3   1 <1>  -0.0190 
 10 C        2.4310    -1.1310     0.1300 C.ar  1 <1>   0.0530 
 11 C       -0.3880    -6.2230     0.8840 C.3   1 <1>   0.2090 
 12 C        1.6450    -0.1170    -0.4180 C.ar  1 <1>  -0.1500 
 13 C        3.8020    -0.8830     0.2320 C.ar  1 <1>  -0.1500 
 14 C       -1.7650    -6.8150     1.2160 C.3   1 <1>  -0.0800 
 15 C        2.1880     1.0820    -0.8380 C.ar  1 <1>  -0.1500 
 16 C        4.3560     0.3110    -0.1890 C.ar  1 <1>  -0.1500 
 17 C       -1.9200    -8.2070     0.5800 C.3   1 <1>  -0.1600 
 18 C       -2.9130    -5.8970     0.7480 C.3   1 <1>  -0.1600 
 19 C        3.5570     1.3060    -0.7270 C.ar  1 <1>   0.0820 
 20 C       -3.2970    -8.8050     0.8770 C.3   1 <1>   0.1400 
 21 C       -4.2900    -6.5180     0.9980 C.3   1 <1>   0.1400 
 22 O        4.1710     2.4500    -1.1140 O.3   1 <1>  -0.3630 
 23 N       -4.3540    -7.8780     0.3910 N.am  1 <1>  -0.6600 
 24 C        3.4300     3.5470    -1.5980 C.3   1 <1>   0.0400 
 25 C       -5.3220    -8.2060    -0.5260 C.2   1 <1>   0.6300 
 26 O       -6.2100    -7.4420    -0.8270 O.2   1 <1>  -0.5700 
 27 C       -5.3190    -9.5780    -1.1960 C.3   1 <1>  -0.1000 
 28 C       -4.2580    -9.9640    -2.1890 C.3   1 <1>  -0.2000 
 29 C       -5.6590    -9.7260    -2.6530 C.3   1 <1>  -0.2000 
 30 H       -1.0060    -4.4370     1.7570 H     1 <1>   0.4000 
 31 H        0.3850    -6.9400     1.1020 H     1 <1>   0.0800 
 32 H       -0.3330    -5.9710    -0.1630 H     1 <1>   0.0800 
 33 H        0.5850    -0.2720    -0.5120 H     1 <1>   0.1500 
 34 H        4.4380    -1.6410     0.6520 H     1 <1>   0.1500 
 35 H       -1.8250    -6.9270     2.2850 H     1 <1>   0.0800 
 36 H        1.5290     1.8240    -1.2440 H     1 <1>   0.1500 
 37 H        5.4130     0.4820    -0.1010 H     1 <1>   0.1500 
 38 H       -1.1620    -8.8660     0.9660 H     1 <1>   0.0800 
 39 H       -1.7910    -8.1420    -0.4870 H     1 <1>   0.0800 
 40 H       -2.8140    -5.6860    -0.3030 H     1 <1>   0.0800 
 41 H       -2.8680    -4.9560     1.2670 H     1 <1>   0.0800 
 42 H       -3.4130    -8.9340     1.9400 H     1 <1>   0.0800 
 43 H       -3.3790    -9.7720     0.4170 H     1 <1>   0.0800 
 44 H       -5.0490    -5.8760     0.5830 H     1 <1>   0.0800 
 45 H       -4.4650    -6.5970     2.0570 H     1 <1>   0.0800 
 46 H        4.1160     4.3470    -1.8120 H     1 <1>   0.0800 
 47 H        2.7320     3.8570    -0.8400 H     1 <1>   0.0800 
 48 H        2.9180     3.2530    -2.4960 H     1 <1>   0.0800 
 49 H       -5.7010   -10.3350    -0.5370 H     1 <1>   0.1000 
 50 H       -3.8800   -10.9710    -2.1800 H     1 <1>   0.1000 
 51 H       -3.5050    -9.2390    -2.4490 H     1 <1>   0.1000 
 52 H       -5.8810    -8.8340    -3.2140 H     1 <1>   0.1000 
 53 H       -6.2630   -10.5640    -2.9550 H     1 <1>   0.1000 
@<TRIPOS>BOND
  1   1   2  ar  
  2   2   3  ar  
  3   2   4  1   
  4   4   5  1   
  5   4   6  2   
  6   5   7  2   
  7   5   8  1   
  8   6   9  1   
  9   6  10  1   
 10   7   9  1   
 11   8  11  1   
 12   8  30  1   
 13  10  12  ar  
 14  10  13  ar  
 15  11  14  1   
 16  11  31  1   
 17  11  32  1   
 18  12  15  ar  
 19  12  33  1   
 20  13  16  ar  
 21  13  34  1   
 22  14  17  1   
 23  14  18  1   
 24  14  35  1   
 25  15  19  ar  
 26  15  36  1   
 27  16  19  ar  
 28  16  37  1   
 29  17  20  1   
 30  17  38  1   
 31  17  39  1   
 32  18  21  1   
 33  18  40  1   
 34  18  41  1   
 35  19  22  1   
 36  20  23  1   
 37  20  42  1   
 38  20  43  1   
 39  21  23  1   
 40  21  44  1   
 41  21  45  1   
 42  22  24  1   
 43  23  25  am  
 44  24  46  1   
 45  24  47  1   
 46  24  48  1   
 47  25  26  2   
 48  25  27  1   
 49  27  28  1   
 50  27  29  1   
 51  27  49  1   
 52  28  29  1   
 53  28  50  1   
 54  28  51  1   
 55  29  52  1   
 56  29  53  1   
@<TRIPOS>SUBSTRUCTURE
  1 ****   5 GROUP 4 **** **** 0

# MOE 2024.06 (io_trps.svl 2023.06)
