@<TRIPOS>MOLECULE
NONAME
46 48 1 0 0 
SMALL
USER_CHARGES


@<TRIPOS>ATOM
  1 F        0.5910     1.0580     1.1060 F     1 <1>  -0.1900 
  2 C        1.5930     1.7670     0.6620 C.ar  1 <1>   0.1900 
  3 C        2.8470     1.1900     0.6110 C.ar  1 <1>  -0.1500 
  4 C        1.3620     3.0680     0.2600 C.ar  1 <1>  -0.1500 
  5 C        3.9050     1.9500     0.1380 C.ar  1 <1>  -0.1500 
  6 C        2.4290     3.8170    -0.2110 C.ar  1 <1>  -0.1500 
  7 C        3.7020     3.2620    -0.2740 C.ar  1 <1>  -0.1430 
  8 C        4.8730     4.0860    -0.7970 C.3   1 <1>   0.2540 
  9 N        6.0010     4.0870     0.1570 N.3   1 <1>  -0.8100 
 10 C        7.2150     4.6910    -0.4600 C.3   1 <1>   0.1710 
 11 C        5.6400     4.7360     1.4270 C.3   1 <1>   0.0300 
 12 C        7.0800     6.1550    -0.9030 C.2   1 <1>   0.5690 
 13 O        6.7380     6.4050    -2.0350 O.2   1 <1>  -0.5700 
 14 N        7.3420     7.1420    -0.0160 N.am  1 <1>  -0.7300 
 15 C        7.2440     8.5740    -0.2960 C.3   1 <1>   0.4950 
 16 C        8.3710     9.2910     0.4420 C.2   1 <1>   0.0070 
 17 C        5.8760     9.0620     0.2010 C.3   1 <1>  -0.1950 
 18 N        8.9710     8.8580     1.5020 N.2   1 <1>  -0.5650 
 19 N        8.8620    10.4780     0.0610 N.pl3 1 <1>   0.3140 
 20 C        4.6090     8.7390    -0.5290 C.3   1 <1>  -0.2000 
 21 C        5.1240    10.1500    -0.5060 C.3   1 <1>  -0.2000 
 22 C        9.8440     9.8450     1.7360 C.2   1 <1>   0.3660 
 23 N        9.8170    10.8320     0.9050 N.2   1 <1>  -0.7070 
 24 C        8.4850    11.3410    -1.0690 C.3   1 <1>   0.0160 
 25 H        2.9910     0.1760     0.9330 H     1 <1>   0.1500 
 26 H        0.3710     3.4810     0.3150 H     1 <1>   0.1500 
 27 H        4.8950     1.5280     0.0940 H     1 <1>   0.1500 
 28 H        2.2640     4.8320    -0.5280 H     1 <1>   0.1500 
 29 H        4.5560     5.0970    -0.9910 H     1 <1>   0.0800 
 30 H        5.1970     3.6580    -1.7310 H     1 <1>   0.0800 
 31 H        7.4870     4.1100    -1.3230 H     1 <1>   0.0800 
 32 H        8.0300     4.6180     0.2370 H     1 <1>   0.0800 
 33 H        4.8500     4.1860     1.9090 H     1 <1>   0.0800 
 34 H        5.3040     5.7460     1.2580 H     1 <1>   0.0800 
 35 H        6.4890     4.7490     2.0880 H     1 <1>   0.0800 
 36 H        7.7380     6.9590     0.9090 H     1 <1>   0.3700 
 37 H        7.3310     8.7310    -1.3570 H     1 <1>   0.0800 
 38 H        5.8300     9.0650     1.2770 H     1 <1>   0.1000 
 39 H        3.7330     8.4940     0.0460 H     1 <1>   0.1000 
 40 H        4.6680     8.1770    -1.4460 H     1 <1>   0.1000 
 41 H        5.4830    10.5540    -1.4360 H     1 <1>   0.1000 
 42 H        4.5940    10.8790     0.0830 H     1 <1>   0.1000 
 43 H       10.5210     9.7970     2.5750 H     1 <1>   0.1500 
 44 H        8.3590    10.7480    -1.9550 H     1 <1>   0.0800 
 45 H        9.2660    12.0620    -1.2330 H     1 <1>   0.0800 
 46 H        7.5730    11.8550    -0.8320 H     1 <1>   0.0800 
@<TRIPOS>BOND
  1   1   2  1   
  2   2   3  ar  
  3   2   4  ar  
  4   3   5  ar  
  5   3  25  1   
  6   4   6  ar  
  7   4  26  1   
  8   5   7  ar  
  9   5  27  1   
 10   6   7  ar  
 11   6  28  1   
 12   7   8  1   
 13   8   9  1   
 14   8  29  1   
 15   8  30  1   
 16   9  10  1   
 17   9  11  1   
 18  10  12  1   
 19  10  31  1   
 20  10  32  1   
 21  11  33  1   
 22  11  34  1   
 23  11  35  1   
 24  12  13  2   
 25  12  14  am  
 26  14  15  1   
 27  14  36  1   
 28  15  16  1   
 29  15  17  1   
 30  15  37  1   
 31  16  18  2   
 32  16  19  1   
 33  17  20  1   
 34  17  21  1   
 35  17  38  1   
 36  18  22  1   
 37  19  23  1   
 38  19  24  1   
 39  20  21  1   
 40  20  39  1   
 41  20  40  1   
 42  21  41  1   
 43  21  42  1   
 44  22  23  2   
 45  22  43  1   
 46  24  44  1   
 47  24  45  1   
 48  24  46  1   
@<TRIPOS>SUBSTRUCTURE
  1 ****  12 GROUP 4 **** **** 0

# MOE 2024.06 (io_trps.svl 2023.06)
