@<TRIPOS>MOLECULE
NONAME
48 50 1 0 0 
SMALL
USER_CHARGES


@<TRIPOS>ATOM
  1 O        1.1000    -0.8970    -2.8010 O.2   1 <1>  -0.5700 
  2 C        1.4990    -1.4380    -1.7860 C.2   1 <1>   0.5440 
  3 N        1.9850    -0.6560    -0.7580 N.am  1 <1>  -0.6600 
  4 C        1.4610    -2.8850    -1.7020 C.ar  1 <1>   0.0860 
  5 C        1.7110     0.8060    -0.6970 C.3   1 <1>   0.1400 
  6 C        2.9410    -1.1400     0.2760 C.3   1 <1>   0.1400 
  7 C        0.9840    -3.5640    -0.5960 C.ar  1 <1>  -0.1500 
  8 C        1.8960    -3.6930    -2.7420 C.ar  1 <1>  -0.1500 
  9 C        1.1680     1.1660     0.6910 C.3   1 <1>  -0.1600 
 10 C        2.4050    -0.8040     1.6720 C.3   1 <1>  -0.1600 
 11 C        0.9860    -4.9500    -0.5520 C.ar  1 <1>   0.4100 
 12 C        1.8570    -5.0660    -2.6150 C.ar  1 <1>   0.1600 
 13 C        2.1060     0.6960     1.8120 C.3   1 <1>  -0.1600 
 14 N        1.4210    -5.7110    -1.5470 N.ar  1 <1>  -0.6200 
 15 N        0.5320    -5.5750     0.5810 N.pl3 1 <1>  -0.8690 
 16 C       -0.1110    -6.9030     0.5370 C.3   1 <1>   0.4330 
 17 C       -1.6180    -6.7430     0.7960 C.ar  1 <1>   0.1670 
 18 C        0.5490    -7.7640     1.6100 C.3   1 <1>  -0.2400 
 19 N       -2.0010    -5.9250     1.7780 N.ar  1 <1>  -0.6200 
 20 C       -2.5090    -7.4460    -0.0040 C.ar  1 <1>  -0.1500 
 21 C       -3.3070    -5.8220     1.9620 C.ar  1 <1>   0.1600 
 22 C       -3.8680    -7.3290     0.1990 C.ar  1 <1>  -0.1430 
 23 C       -4.2640    -6.4880     1.2160 C.ar  1 <1>  -0.1500 
 24 C       -4.8720    -8.0820    -0.6550 C.3   1 <1>  -0.0970 
 25 H        0.9920     1.0890    -1.4470 H     1 <1>   0.0800 
 26 H        2.6240     1.3430    -0.8880 H     1 <1>   0.0800 
 27 H        3.8870    -0.6480     0.1270 H     1 <1>   0.0800 
 28 H        3.1070    -2.1990     0.1900 H     1 <1>   0.0800 
 29 H        0.6070    -3.0160     0.2440 H     1 <1>   0.1500 
 30 H        2.2610    -3.2390    -3.6450 H     1 <1>   0.1500 
 31 H        0.2010     0.7080     0.8100 H     1 <1>   0.0800 
 32 H        1.0340     2.2310     0.7530 H     1 <1>   0.0800 
 33 H        3.1300    -1.0980     2.4110 H     1 <1>   0.0800 
 34 H        1.5090    -1.3710     1.8510 H     1 <1>   0.0800 
 35 H        2.2040    -5.6710    -3.4360 H     1 <1>   0.1500 
 36 H        1.6550     0.8900     2.7700 H     1 <1>   0.0800 
 37 H        3.0280     1.2500     1.7590 H     1 <1>   0.0800 
 38 H       -0.0550    -4.9970     1.1920 H     1 <1>   0.4000 
 39 H        0.0380    -7.3680    -0.4210 H     1 <1>   0.0800 
 40 H        0.4130    -7.3180     2.5780 H     1 <1>   0.0800 
 41 H        1.5990    -7.8580     1.4020 H     1 <1>   0.0800 
 42 H        0.1060    -8.7420     1.6140 H     1 <1>   0.0800 
 43 H       -2.1380    -8.0830    -0.7870 H     1 <1>   0.1500 
 44 H       -3.6350    -5.1680     2.7510 H     1 <1>   0.1500 
 45 H       -5.3060    -6.3440     1.4350 H     1 <1>   0.1500 
 46 H       -4.4590    -9.0190    -0.9830 H     1 <1>   0.0800 
 47 H       -5.1290    -7.4940    -1.5180 H     1 <1>   0.0800 
 48 H       -5.7670    -8.2830    -0.0930 H     1 <1>   0.0800 
@<TRIPOS>BOND
  1   1   2  2   
  2   2   3  am  
  3   2   4  1   
  4   3   5  1   
  5   3   6  1   
  6   4   7  ar  
  7   4   8  ar  
  8   5   9  1   
  9   5  25  1   
 10   5  26  1   
 11   6  10  1   
 12   6  27  1   
 13   6  28  1   
 14   7  11  ar  
 15   7  29  1   
 16   8  12  ar  
 17   8  30  1   
 18   9  13  1   
 19   9  31  1   
 20   9  32  1   
 21  10  13  1   
 22  10  33  1   
 23  10  34  1   
 24  11  14  ar  
 25  11  15  1   
 26  12  14  ar  
 27  12  35  1   
 28  13  36  1   
 29  13  37  1   
 30  15  16  1   
 31  15  38  1   
 32  16  17  1   
 33  16  18  1   
 34  16  39  1   
 35  17  19  ar  
 36  17  20  ar  
 37  18  40  1   
 38  18  41  1   
 39  18  42  1   
 40  19  21  ar  
 41  20  22  ar  
 42  20  43  1   
 43  21  23  ar  
 44  21  44  1   
 45  22  23  ar  
 46  22  24  1   
 47  23  45  1   
 48  24  46  1   
 49  24  47  1   
 50  24  48  1   
@<TRIPOS>SUBSTRUCTURE
  1 ****   7 GROUP 4 **** **** 0

# MOE 2024.06 (io_trps.svl 2023.06)
