@<TRIPOS>MOLECULE
NONAME
53 55 1 0 0 
SMALL
USER_CHARGES


@<TRIPOS>ATOM
  1 O       -0.1340    -0.4580    -0.2730 O.2   1 <1>  -0.5700 
  2 C       -1.0130     0.3050     0.0650 C.2   1 <1>   0.5690 
  3 N       -2.2750    -0.2060     0.2810 N.am  1 <1>  -0.6600 
  4 C       -0.6480     1.8190     0.2020 C.3   1 <1>   0.0610 
  5 C       -3.5270     0.4940     0.6690 C.3   1 <1>   0.1400 
  6 C       -2.5530    -1.6490     0.0650 C.3   1 <1>   0.1400 
  7 C       -1.1700     2.5640    -1.0580 C.3   1 <1>  -0.1600 
  8 C       -1.2110     2.4530     1.4960 C.3   1 <1>  -0.2400 
  9 C        0.8910     1.9860     0.2820 C.3   1 <1>  -0.2400 
 10 C       -4.6320    -0.5460     0.4980 C.3   1 <1>   0.2000 
 11 C       -3.9420    -1.8980     0.6580 C.3   1 <1>  -0.0800 
 12 C       -0.9370     4.0860    -1.1040 C.3   1 <1>  -0.1600 
 13 O       -5.6280    -0.3960     1.4510 O.3   1 <1>  -0.6800 
 14 C       -4.7230    -3.0370    -0.0240 C.3   1 <1>  -0.0170 
 15 C       -1.5270     4.6870    -2.3820 C.3   1 <1>  -0.2400 
 16 C       -4.1320    -4.4470     0.1010 C.ar  1 <1>  -0.1440 
 17 C       -4.6490    -5.5010    -0.6940 C.ar  1 <1>   0.0000 
 18 C       -3.1200    -4.7640     0.9640 C.ar  1 <1>  -0.1500 
 19 C       -4.0610    -6.7840    -0.5620 C.ar  1 <1>   0.3100 
 20 C       -5.7220    -5.3610    -1.6070 C.ar  1 <1>  -0.1500 
 21 C       -2.6150    -6.0680     1.0210 C.ar  1 <1>   0.1600 
 22 N       -3.0470    -7.0500     0.2970 N.ar  1 <1>  -0.6200 
 23 C       -4.5470    -7.8420    -1.3480 C.ar  1 <1>  -0.1500 
 24 C       -6.1730    -6.4140    -2.3560 C.ar  1 <1>  -0.1500 
 25 C       -5.5790    -7.6710    -2.2290 C.ar  1 <1>  -0.1500 
 26 H       -3.4580     0.7920     1.7000 H     1 <1>   0.0800 
 27 H       -3.7120     1.3440     0.0390 H     1 <1>   0.0800 
 28 H       -2.5450    -1.8490    -0.9940 H     1 <1>   0.0800 
 29 H       -1.7990    -2.2540     0.5390 H     1 <1>   0.0800 
 30 H       -0.7040     2.1210    -1.9230 H     1 <1>   0.0800 
 31 H       -2.2240     2.3870    -1.1560 H     1 <1>   0.0800 
 32 H       -0.7150     3.3810     1.7180 H     1 <1>   0.0800 
 33 H       -1.0570     1.7890     2.3280 H     1 <1>   0.0800 
 34 H       -2.2570     2.6710     1.4070 H     1 <1>   0.0800 
 35 H        1.1790     3.0070     0.4450 H     1 <1>   0.0800 
 36 H        1.3540     1.6460    -0.6280 H     1 <1>   0.0800 
 37 H        1.2830     1.3970     1.0930 H     1 <1>   0.0800 
 38 H       -5.0780    -0.4430    -0.4770 H     1 <1>   0.0800 
 39 H       -3.8250    -2.1050     1.7070 H     1 <1>   0.0800 
 40 H       -1.3980     4.5610    -0.2560 H     1 <1>   0.0800 
 41 H        0.1160     4.3040    -1.0800 H     1 <1>   0.0800 
 42 H       -5.2750    -0.5600     2.3470 H     1 <1>   0.4000 
 43 H       -4.8030    -2.7920    -1.0690 H     1 <1>   0.0800 
 44 H       -5.7200    -3.0570     0.3810 H     1 <1>   0.0800 
 45 H       -2.5880     4.5140    -2.4270 H     1 <1>   0.0800 
 46 H       -1.0670     4.2500    -3.2510 H     1 <1>   0.0800 
 47 H       -1.3540     5.7490    -2.4030 H     1 <1>   0.0800 
 48 H       -2.6730    -4.0500     1.6270 H     1 <1>   0.1500 
 49 H       -6.2040    -4.4090    -1.7200 H     1 <1>   0.1500 
 50 H       -1.8140    -6.2660     1.7120 H     1 <1>   0.1500 
 51 H       -4.0750    -8.8000    -1.2300 H     1 <1>   0.1500 
 52 H       -6.9890    -6.2900    -3.0480 H     1 <1>   0.1500 
 53 H       -5.9400    -8.4920    -2.8250 H     1 <1>   0.1500 
@<TRIPOS>BOND
  1   1   2  2   
  2   2   3  am  
  3   2   4  1   
  4   3   5  1   
  5   3   6  1   
  6   4   7  1   
  7   4   8  1   
  8   4   9  1   
  9   5  10  1   
 10   5  26  1   
 11   5  27  1   
 12   6  11  1   
 13   6  28  1   
 14   6  29  1   
 15   7  12  1   
 16   7  30  1   
 17   7  31  1   
 18   8  32  1   
 19   8  33  1   
 20   8  34  1   
 21   9  35  1   
 22   9  36  1   
 23   9  37  1   
 24  10  11  1   
 25  10  13  1   
 26  10  38  1   
 27  11  14  1   
 28  11  39  1   
 29  12  15  1   
 30  12  40  1   
 31  12  41  1   
 32  13  42  1   
 33  14  16  1   
 34  14  43  1   
 35  14  44  1   
 36  15  45  1   
 37  15  46  1   
 38  15  47  1   
 39  16  17  ar  
 40  16  18  ar  
 41  17  19  ar  
 42  17  20  ar  
 43  18  21  ar  
 44  18  48  1   
 45  19  22  ar  
 46  19  23  ar  
 47  20  24  ar  
 48  20  49  1   
 49  21  22  ar  
 50  21  50  1   
 51  23  25  ar  
 52  23  51  1   
 53  24  25  ar  
 54  24  52  1   
 55  25  53  1   
@<TRIPOS>SUBSTRUCTURE
  1 ****   6 GROUP 4 **** **** 0

# MOE 2024.06 (io_trps.svl 2023.06)
