@<TRIPOS>MOLECULE
NONAME
50 53 1 0 0 
SMALL
USER_CHARGES


@<TRIPOS>ATOM
  1 O        0.3390    -0.0850     0.2450 O.2   1 <1>  -0.5700 
  2 C        1.4000    -0.6550     0.4310 C.2   1 <1>   0.5440 
  3 N        2.5630     0.0890     0.4040 N.am  1 <1>  -0.6600 
  4 C        1.4000    -2.0880     0.6600 C.ar  1 <1>   0.0860 
  5 C        3.8950    -0.5330     0.1160 C.3   1 <1>   0.1400 
  6 C        2.4680     1.5720     0.5260 C.3   1 <1>   0.1400 
  7 C        0.6680    -2.9420    -0.1650 C.ar  1 <1>  -0.1500 
  8 C        2.1190    -2.6640     1.7090 C.ar  1 <1>  -0.1500 
  9 C        4.6790     0.1840    -0.9920 C.3   1 <1>   0.1100 
 10 C        3.7560     2.2500     1.0050 C.3   1 <1>  -0.1600 
 11 C        0.6620    -4.3130     0.0240 C.ar  1 <1>  -0.1430 
 12 C        2.1250    -4.0320     1.9090 C.ar  1 <1>  -0.1500 
 13 N        5.5290     1.2680    -0.4600 N.3   1 <1>  -0.8100 
 14 C        4.7710     2.4820    -0.1160 C.3   1 <1>   0.1100 
 15 C        1.4040    -4.8610     1.0670 C.ar  1 <1>   0.0830 
 16 C       -0.1530    -5.2080    -0.8940 C.3   1 <1>  -0.0170 
 17 C        6.6160     1.5890    -1.4250 C.3   1 <1>   0.2900 
 18 O        1.4380    -6.1920     1.3020 O.3   1 <1>  -0.3630 
 19 C       -0.3890    -6.5690    -0.2350 C.3   1 <1>  -0.1600 
 20 C        7.6540     2.5720    -0.8910 C.2   1 <1>   0.2980 
 21 C        0.9240    -7.0990     0.3470 C.3   1 <1>   0.1200 
 22 O        8.4310     2.2460     0.0920 O.3   1 <1>  -0.2800 
 23 N        7.8810     3.7590    -1.3150 N.2   1 <1>  -0.3380 
 24 C        9.1570     3.3000     0.2680 C.2   1 <1>   0.2980 
 25 N        8.8670     4.2360    -0.5530 N.2   1 <1>  -0.3380 
 26 C       10.2060     3.3190     1.3540 C.3   1 <1>  -0.0600 
 27 H        3.7440    -1.5470    -0.2090 H     1 <1>   0.0800 
 28 H        4.4870    -0.5630     1.0140 H     1 <1>   0.0800 
 29 H        1.6870     1.7980     1.2340 H     1 <1>   0.0800 
 30 H        2.1650     1.9810    -0.4230 H     1 <1>   0.0800 
 31 H        0.0930    -2.5070    -0.9640 H     1 <1>   0.1500 
 32 H        2.6740    -2.0260     2.3740 H     1 <1>   0.1500 
 33 H        4.0090     0.5500    -1.7510 H     1 <1>   0.0800 
 34 H        5.3160    -0.5560    -1.4440 H     1 <1>   0.0800 
 35 H        4.1980     1.7170     1.8270 H     1 <1>   0.0800 
 36 H        3.4760     3.2200     1.3740 H     1 <1>   0.0800 
 37 H        2.6820    -4.4670     2.7190 H     1 <1>   0.1500 
 38 H        5.4580     3.2350     0.2330 H     1 <1>   0.0800 
 39 H        4.2770     2.8730    -0.9900 H     1 <1>   0.0800 
 40 H        0.3890    -5.3410    -1.8140 H     1 <1>   0.0800 
 41 H       -1.0980    -4.7460    -1.1210 H     1 <1>   0.0800 
 42 H        6.1880     1.9970    -2.3240 H     1 <1>   0.0800 
 43 H        7.1370     0.6850    -1.6850 H     1 <1>   0.0800 
 44 H       -0.7780    -7.2630    -0.9570 H     1 <1>   0.0800 
 45 H       -1.1090    -6.4720     0.5600 H     1 <1>   0.0800 
 46 H        0.7730    -8.0430     0.8400 H     1 <1>   0.0800 
 47 H        1.6650    -7.2160    -0.4250 H     1 <1>   0.0800 
 48 H       10.9200     2.5370     1.1800 H     1 <1>   0.0800 
 49 H        9.7380     3.1670     2.3090 H     1 <1>   0.0800 
 50 H       10.7120     4.2670     1.3560 H     1 <1>   0.0800 
@<TRIPOS>BOND
  1   1   2  2   
  2   2   3  am  
  3   2   4  1   
  4   3   5  1   
  5   3   6  1   
  6   4   7  ar  
  7   4   8  ar  
  8   5   9  1   
  9   5  27  1   
 10   5  28  1   
 11   6  10  1   
 12   6  29  1   
 13   6  30  1   
 14   7  11  ar  
 15   7  31  1   
 16   8  12  ar  
 17   8  32  1   
 18   9  13  1   
 19   9  33  1   
 20   9  34  1   
 21  10  14  1   
 22  10  35  1   
 23  10  36  1   
 24  11  15  ar  
 25  11  16  1   
 26  12  15  ar  
 27  12  37  1   
 28  13  14  1   
 29  13  17  1   
 30  14  38  1   
 31  14  39  1   
 32  15  18  1   
 33  16  19  1   
 34  16  40  1   
 35  16  41  1   
 36  17  20  1   
 37  17  42  1   
 38  17  43  1   
 39  18  21  1   
 40  19  21  1   
 41  19  44  1   
 42  19  45  1   
 43  20  22  1   
 44  20  23  2   
 45  21  46  1   
 46  21  47  1   
 47  22  24  1   
 48  23  25  1   
 49  24  25  2   
 50  24  26  1   
 51  26  48  1   
 52  26  49  1   
 53  26  50  1   
@<TRIPOS>SUBSTRUCTURE
  1 ****   5 GROUP 4 **** **** 0

# MOE 2024.06 (io_trps.svl 2023.06)
