@<TRIPOS>MOLECULE
NONAME
45 47 1 0 0 
SMALL
USER_CHARGES


@<TRIPOS>ATOM
  1 S        0.7710     0.2030    -1.3580 S.3   1 <1>  -0.0800 
  2 C        0.9210    -0.1080     0.3680 C.2   1 <1>   0.4620 
  3 C        0.2490    -1.4370    -1.5920 C.2   1 <1>  -0.1100 
  4 N        0.6100    -1.3120     0.6890 N.2   1 <1>  -0.5650 
  5 N        1.3450     0.8980     1.2160 N.pl3 1 <1>  -0.8220 
  6 C        0.2240    -2.0790    -0.4070 C.2   1 <1>   0.1730 
  7 C        1.5620     2.3000     0.7790 C.3   1 <1>   0.2090 
  8 C        1.5470     0.6310     2.6670 C.3   1 <1>   0.1290 
  9 C       -0.1620    -3.4640    -0.1960 C.ar  1 <1>   0.0540 
 10 C        3.0260     2.4910     0.3830 C.3   1 <1>  -0.1600 
 11 C        0.3230    -4.1940     0.8930 C.ar  1 <1>  -0.1500 
 12 C       -1.0310    -4.1120    -1.0800 C.ar  1 <1>  -0.1500 
 13 C        3.2760     3.9020    -0.1590 C.3   1 <1>   0.0210 
 14 C       -0.0340    -5.5160     1.0970 C.ar  1 <1>  -0.1500 
 15 C       -1.3980    -5.4340    -0.8940 C.ar  1 <1>  -0.1500 
 16 C        4.7360     4.0680    -0.5430 C.2   1 <1>  -0.1810 
 17 C       -0.8910    -6.1140     0.1950 C.ar  1 <1>   0.1900 
 18 C        5.7600     4.5740     0.2570 C.2   1 <1>   0.1080 
 19 C        5.3340     3.7630    -1.7150 C.2   1 <1>  -0.3320 
 20 F       -1.2320    -7.3610     0.3760 F     1 <1>  -0.1900 
 21 N        6.9000     4.5930    -0.3570 N.2   1 <1>  -0.7070 
 22 C        5.6130     5.0590     1.6810 C.3   1 <1>  -0.0590 
 23 N        6.6360     4.0910    -1.5760 N.pl3 1 <1>   0.3000 
 24 C        4.7600     3.1650    -2.9880 C.3   1 <1>  -0.0600 
 25 H        0.0190    -1.7510    -2.5920 H     1 <1>   0.1500 
 26 H        1.3080     2.9690     1.5840 H     1 <1>   0.0800 
 27 H        0.9180     2.5340    -0.0500 H     1 <1>   0.0800 
 28 H        1.4660    -0.4210     2.8790 H     1 <1>   0.0800 
 29 H        0.8030     1.1540     3.2400 H     1 <1>   0.0800 
 30 H        2.5260     0.9610     2.9670 H     1 <1>   0.0800 
 31 H        3.2860     1.7750    -0.3760 H     1 <1>   0.0800 
 32 H        3.6560     2.3220     1.2370 H     1 <1>   0.0800 
 33 H        0.9900    -3.7150     1.5890 H     1 <1>   0.1500 
 34 H       -1.4300    -3.5750    -1.9210 H     1 <1>   0.1500 
 35 H        3.0130     4.6380     0.5800 H     1 <1>   0.0800 
 36 H        2.6630     4.0740    -1.0250 H     1 <1>   0.0800 
 37 H        0.3430    -6.0730     1.9350 H     1 <1>   0.1500 
 38 H       -2.0660    -5.9300    -1.5740 H     1 <1>   0.1500 
 39 H        5.0730     4.3360     2.2620 H     1 <1>   0.0800 
 40 H        5.0880     5.9950     1.6910 H     1 <1>   0.0800 
 41 H        6.5850     5.1990     2.1180 H     1 <1>   0.0800 
 42 H        7.3670     3.9820    -2.2880 H     1 <1>   0.2700 
 43 H        3.7160     2.9400    -2.8650 H     1 <1>   0.0800 
 44 H        5.2750     2.2520    -3.2320 H     1 <1>   0.0800 
 45 H        4.8680     3.8570    -3.8040 H     1 <1>   0.0800 
@<TRIPOS>BOND
  1   1   2  1   
  2   1   3  1   
  3   2   4  2   
  4   2   5  1   
  5   3   6  2   
  6   3  25  1   
  7   4   6  1   
  8   5   7  1   
  9   5   8  1   
 10   6   9  1   
 11   7  10  1   
 12   7  26  1   
 13   7  27  1   
 14   8  28  1   
 15   8  29  1   
 16   8  30  1   
 17   9  11  ar  
 18   9  12  ar  
 19  10  13  1   
 20  10  31  1   
 21  10  32  1   
 22  11  14  ar  
 23  11  33  1   
 24  12  15  ar  
 25  12  34  1   
 26  13  16  1   
 27  13  35  1   
 28  13  36  1   
 29  14  17  ar  
 30  14  37  1   
 31  15  17  ar  
 32  15  38  1   
 33  16  18  1   
 34  16  19  2   
 35  17  20  1   
 36  18  21  2   
 37  18  22  1   
 38  19  23  1   
 39  19  24  1   
 40  21  23  1   
 41  22  39  1   
 42  22  40  1   
 43  22  41  1   
 44  23  42  1   
 45  24  43  1   
 46  24  44  1   
 47  24  45  1   
@<TRIPOS>SUBSTRUCTURE
  1 ****   2 GROUP 4 **** **** 0

# MOE 2024.06 (io_trps.svl 2023.06)
