@<TRIPOS>MOLECULE
NONAME
45 47 1 0 0 
SMALL
USER_CHARGES


@<TRIPOS>ATOM
  1 O       -0.7450     0.3730     1.1990 O.2   1 <1>  -0.5700 
  2 C       -1.4380     0.9250     0.3650 C.2   1 <1>   0.5440 
  3 N       -2.3660     0.1690    -0.3170 N.am  1 <1>  -0.6600 
  4 C       -1.2940     2.3500     0.1330 C.ar  1 <1>   0.0860 
  5 C       -3.6380     0.6990    -0.8760 C.3   1 <1>   0.1400 
  6 C       -2.4620    -1.3080    -0.1700 C.3   1 <1>   0.1400 
  7 C       -1.3510     2.8950    -1.1500 C.ar  1 <1>  -0.1500 
  8 C       -1.0860     3.2320     1.1960 C.ar  1 <1>  -0.1500 
  9 C       -4.6680    -0.3770    -0.5420 C.3   1 <1>   0.2000 
 10 C       -3.8670    -1.6750    -0.6610 C.3   1 <1>  -0.0800 
 11 C       -1.2340     4.2550    -1.3480 C.ar  1 <1>   0.0830 
 12 C       -0.9620     4.5970     1.0020 C.ar  1 <1>  -0.1500 
 13 O       -5.0620    -0.1940     0.7760 O.3   1 <1>  -0.6800 
 14 C       -4.4730    -2.8980     0.0500 C.3   1 <1>   0.0210 
 15 O       -1.3090     4.7500    -2.5950 O.3   1 <1>  -0.5320 
 16 C       -1.0390     5.1280    -0.2810 C.ar  1 <1>   0.0830 
 17 C       -3.5950    -4.1190    -0.1440 C.2   1 <1>   0.1080 
 18 O       -0.9330     6.4550    -0.5620 O.3   1 <1>  -0.3630 
 19 N       -3.3740    -4.6490    -1.3070 N.2   1 <1>  -0.7070 
 20 C       -2.9290    -4.7910     0.8750 C.2   1 <1>  -0.1500 
 21 C       -0.7130     7.4040     0.4580 C.3   1 <1>   0.0400 
 22 N       -2.5540    -5.6880    -1.0570 N.pl3 1 <1>   0.3000 
 23 C       -2.2690    -5.7930     0.2580 C.2   1 <1>  -0.3320 
 24 C       -1.3690    -6.8600     0.8540 C.3   1 <1>  -0.0600 
 25 H       -3.9080     1.6510    -0.4530 H     1 <1>   0.0800 
 26 H       -3.5390     0.7920    -1.9440 H     1 <1>   0.0800 
 27 H       -1.7040    -1.7990    -0.7570 H     1 <1>   0.0800 
 28 H       -2.3350    -1.5760     0.8650 H     1 <1>   0.0800 
 29 H       -1.4820     2.2530    -2.0010 H     1 <1>   0.1500 
 30 H       -1.0210     2.8260     2.1920 H     1 <1>   0.1500 
 31 H       -5.5400    -0.3460    -1.1730 H     1 <1>   0.0800 
 32 H       -3.7840    -1.9110    -1.7080 H     1 <1>   0.0800 
 33 H       -0.8050     5.2260     1.8580 H     1 <1>   0.1500 
 34 H       -4.2570    -0.0940     1.3250 H     1 <1>   0.4000 
 35 H       -5.4460    -3.1050    -0.3560 H     1 <1>   0.0800 
 36 H       -4.5840    -2.7100     1.1020 H     1 <1>   0.0800 
 37 H       -1.1940     5.7220    -2.5640 H     1 <1>   0.4500 
 38 H       -2.9530    -4.5420     1.9210 H     1 <1>   0.1500 
 39 H       -0.6580     8.3770     0.0040 H     1 <1>   0.0800 
 40 H        0.2170     7.1790     0.9500 H     1 <1>   0.0800 
 41 H       -1.5350     7.3700     1.1510 H     1 <1>   0.0800 
 42 H       -2.2090    -6.3040    -1.8020 H     1 <1>   0.2700 
 43 H       -1.2980    -6.7310     1.9190 H     1 <1>   0.0800 
 44 H       -0.3810    -6.7890     0.4340 H     1 <1>   0.0800 
 45 H       -1.7680    -7.8380     0.6530 H     1 <1>   0.0800 
@<TRIPOS>BOND
  1   1   2  2   
  2   2   3  am  
  3   2   4  1   
  4   3   5  1   
  5   3   6  1   
  6   4   7  ar  
  7   4   8  ar  
  8   5   9  1   
  9   5  25  1   
 10   5  26  1   
 11   6  10  1   
 12   6  27  1   
 13   6  28  1   
 14   7  11  ar  
 15   7  29  1   
 16   8  12  ar  
 17   8  30  1   
 18   9  10  1   
 19   9  13  1   
 20   9  31  1   
 21  10  14  1   
 22  10  32  1   
 23  11  15  1   
 24  11  16  ar  
 25  12  16  ar  
 26  12  33  1   
 27  13  34  1   
 28  14  17  1   
 29  14  35  1   
 30  14  36  1   
 31  15  37  1   
 32  16  18  1   
 33  17  19  2   
 34  17  20  1   
 35  18  21  1   
 36  19  22  1   
 37  20  23  2   
 38  20  38  1   
 39  21  39  1   
 40  21  40  1   
 41  21  41  1   
 42  22  23  1   
 43  22  42  1   
 44  23  24  1   
 45  24  43  1   
 46  24  44  1   
 47  24  45  1   
@<TRIPOS>SUBSTRUCTURE
  1 ****   3 GROUP 4 **** **** 0

# MOE 2024.06 (io_trps.svl 2023.06)
