@<TRIPOS>MOLECULE
NONAME
50 52 1 0 0 
SMALL
USER_CHARGES


@<TRIPOS>ATOM
  1 F       -0.6180     0.0920     0.6900 F     1 <1>  -0.1900 
  2 C       -1.6740    -0.6310     0.4490 C.ar  1 <1>   0.1900 
  3 C       -1.6750    -1.9610     0.8190 C.ar  1 <1>  -0.1500 
  4 C       -2.7610    -0.0470    -0.1690 C.ar  1 <1>  -0.1500 
  5 C       -2.8000    -2.7250     0.5600 C.ar  1 <1>  -0.1500 
  6 C       -3.8770    -0.8260    -0.4190 C.ar  1 <1>  -0.1500 
  7 C       -3.9330    -2.1810    -0.0650 C.ar  1 <1>   0.0860 
  8 C       -5.1290    -2.9530    -0.3490 C.2   1 <1>   0.4230 
  9 O       -6.0830    -2.4850    -0.9190 O.2   1 <1>  -0.5700 
 10 C       -5.2040    -4.4160     0.0790 C.3   1 <1>  -0.0990 
 11 C       -6.5570    -5.0930    -0.2250 C.3   1 <1>  -0.0990 
 12 C       -6.6270    -6.5480     0.2120 C.2   1 <1>   0.5690 
 13 O       -5.6480    -7.0670     0.6970 O.2   1 <1>  -0.5700 
 14 N       -7.7900    -7.2400     0.0410 N.am  1 <1>  -0.6600 
 15 C       -9.0370    -6.7400    -0.5930 C.3   1 <1>   0.1400 
 16 C       -7.9670    -8.6420     0.4730 C.3   1 <1>   0.1400 
 17 C      -10.0560    -7.8810    -0.4600 C.3   1 <1>   0.2000 
 18 C       -9.1890    -9.1360    -0.3040 C.3   1 <1>  -0.0800 
 19 O      -10.8130    -7.7090     0.7050 O.3   1 <1>  -0.5600 
 20 C       -9.9010   -10.3280     0.3610 C.3   1 <1>   0.0200 
 21 C      -11.9340    -6.8920     0.5730 C.3   1 <1>   0.0400 
 22 C       -9.0800   -11.6070     0.3370 C.2   1 <1>  -0.0400 
 23 O       -9.5520   -12.6660     0.9400 O.3   1 <1>  -0.0190 
 24 C       -7.8950   -11.9390    -0.2000 C.2   1 <1>  -0.1500 
 25 N       -8.7480   -13.6850     0.8380 N.2   1 <1>  -0.4100 
 26 C       -7.7400   -13.2750     0.1560 C.2   1 <1>   0.1080 
 27 C       -6.5500   -14.1350    -0.2040 C.3   1 <1>  -0.0590 
 28 H       -0.8100    -2.3840     1.2980 H     1 <1>   0.1500 
 29 H       -2.7300     0.9920    -0.4450 H     1 <1>   0.1500 
 30 H       -2.7820    -3.7590     0.8540 H     1 <1>   0.1500 
 31 H       -4.7300    -0.3770    -0.9010 H     1 <1>   0.1500 
 32 H       -4.4260    -4.9610    -0.4250 H     1 <1>   0.0800 
 33 H       -5.0260    -4.4750     1.1380 H     1 <1>   0.0800 
 34 H       -6.7420    -5.0480    -1.2830 H     1 <1>   0.0800 
 35 H       -7.3370    -4.5510     0.2760 H     1 <1>   0.0800 
 36 H       -9.3820    -5.8420    -0.1120 H     1 <1>   0.0800 
 37 H       -8.8420    -6.5450    -1.6330 H     1 <1>   0.0800 
 38 H       -7.0860    -9.2230     0.2620 H     1 <1>   0.0800 
 39 H       -8.1610    -8.6540     1.5320 H     1 <1>   0.0800 
 40 H      -10.7180    -7.9510    -1.3070 H     1 <1>   0.0800 
 41 H       -8.8600    -9.4300    -1.2850 H     1 <1>   0.0800 
 42 H      -10.8310   -10.5150    -0.1470 H     1 <1>   0.0800 
 43 H      -10.1340   -10.0890     1.3840 H     1 <1>   0.0800 
 44 H      -12.4160    -6.8320     1.5330 H     1 <1>   0.0800 
 45 H      -12.6090    -7.3280    -0.1430 H     1 <1>   0.0800 
 46 H      -11.6320    -5.9080     0.2600 H     1 <1>   0.0800 
 47 H       -7.2000   -11.3560    -0.7740 H     1 <1>   0.1500 
 48 H       -5.6530   -13.7060     0.2040 H     1 <1>   0.0800 
 49 H       -6.4590   -14.2040    -1.2720 H     1 <1>   0.0800 
 50 H       -6.6760   -15.1240     0.2000 H     1 <1>   0.0800 
@<TRIPOS>BOND
  1   1   2  1   
  2   2   3  ar  
  3   2   4  ar  
  4   3   5  ar  
  5   3  28  1   
  6   4   6  ar  
  7   4  29  1   
  8   5   7  ar  
  9   5  30  1   
 10   6   7  ar  
 11   6  31  1   
 12   7   8  1   
 13   8   9  2   
 14   8  10  1   
 15  10  11  1   
 16  10  32  1   
 17  10  33  1   
 18  11  12  1   
 19  11  34  1   
 20  11  35  1   
 21  12  13  2   
 22  12  14  am  
 23  14  15  1   
 24  14  16  1   
 25  15  17  1   
 26  15  36  1   
 27  15  37  1   
 28  16  18  1   
 29  16  38  1   
 30  16  39  1   
 31  17  18  1   
 32  17  19  1   
 33  17  40  1   
 34  18  20  1   
 35  18  41  1   
 36  19  21  1   
 37  20  22  1   
 38  20  42  1   
 39  20  43  1   
 40  21  44  1   
 41  21  45  1   
 42  21  46  1   
 43  22  23  1   
 44  22  24  2   
 45  23  25  1   
 46  24  26  1   
 47  24  47  1   
 48  25  26  2   
 49  26  27  1   
 50  27  48  1   
 51  27  49  1   
 52  27  50  1   
@<TRIPOS>SUBSTRUCTURE
  1 ****  12 GROUP 4 **** **** 0

# MOE 2024.06 (io_trps.svl 2023.06)
