@<TRIPOS>MOLECULE
NONAME
52 55 1 0 0 
SMALL
USER_CHARGES


@<TRIPOS>ATOM
  1 O       -4.3450    -0.3940     1.8020 O.2   1 <1>  -0.5700 
  2 C       -3.5360     0.4970     1.6010 C.2   1 <1>   0.7800 
  3 O       -2.2500     0.3410     1.9180 O.3   1 <1>  -0.2330 
  4 N       -3.7340     1.6880     0.9560 N.am  1 <1>  -0.4770 
  5 C       -1.5980     1.4260     1.4600 C.ar  1 <1>   0.0820 
  6 C       -2.4920     2.2810     0.8550 C.ar  1 <1>   0.1170 
  7 C       -5.0020     2.2160     0.3910 C.3   1 <1>   0.1400 
  8 C       -0.2470     1.7090     1.5380 C.ar  1 <1>  -0.1500 
  9 C       -2.0480     3.4680     0.2910 C.ar  1 <1>  -0.1500 
 10 C       -5.2850     1.6420    -1.0080 C.3   1 <1>   0.1100 
 11 C        0.1990     2.8950     0.9750 C.ar  1 <1>  -0.1500 
 12 C       -0.6960     3.7660     0.3570 C.ar  1 <1>  -0.1500 
 13 N       -5.5360     0.1860    -0.9150 N.3   1 <1>  -0.8100 
 14 C       -4.9210    -0.6630    -1.9710 C.3   1 <1>   0.1900 
 15 C       -6.9830    -0.0540    -0.7190 C.3   1 <1>   0.0300 
 16 C       -5.1250    -2.1360    -1.6020 C.3   1 <1>   0.3430 
 17 C       -3.3850    -0.5910    -1.9020 C.3   1 <1>  -0.1600 
 18 N       -4.2170    -2.2670    -0.4410 N.4   1 <1>  -0.9590 
 19 C       -2.9540    -1.6410    -0.8730 C.3   1 <1>   0.3430 
 20 C       -4.1450    -3.5910     0.2140 C.3   1 <1>   0.4860 
 21 C       -5.5560    -4.0310     0.5540 C.ar  1 <1>  -0.1430 
 22 C       -6.2740    -3.3710     1.5410 C.ar  1 <1>  -0.1500 
 23 C       -6.1460    -5.0860    -0.1290 C.ar  1 <1>  -0.1500 
 24 C       -7.5700    -3.7560     1.8360 C.ar  1 <1>  -0.1500 
 25 C       -7.4420    -5.4700     0.1680 C.ar  1 <1>  -0.1500 
 26 C       -8.1540    -4.8040     1.1490 C.ar  1 <1>  -0.1500 
 27 H       -5.8120     1.9700     1.0550 H     1 <1>   0.0800 
 28 H       -4.9390     3.2870     0.3320 H     1 <1>   0.0800 
 29 H        0.4300     1.0270     2.0220 H     1 <1>   0.1500 
 30 H       -2.7380     4.1430    -0.1830 H     1 <1>   0.1500 
 31 H       -4.4550     1.8680    -1.6520 H     1 <1>   0.0800 
 32 H       -6.1450     2.1360    -1.4290 H     1 <1>   0.0800 
 33 H        1.2450     3.1490     1.0180 H     1 <1>   0.1500 
 34 H       -0.3280     4.6840    -0.0720 H     1 <1>   0.1500 
 35 H       -5.3160    -0.4180    -2.9430 H     1 <1>   0.0800 
 36 H       -7.3780     0.6270     0.0160 H     1 <1>   0.0800 
 37 H       -7.1670    -1.0480    -0.3520 H     1 <1>   0.0800 
 38 H       -7.5180     0.0900    -1.6430 H     1 <1>   0.0800 
 39 H       -4.8040    -2.7750    -2.4060 H     1 <1>   0.0800 
 40 H       -6.1470    -2.3590    -1.3470 H     1 <1>   0.0800 
 41 H       -2.9710    -0.8650    -2.8550 H     1 <1>   0.0800 
 42 H       -2.9930     0.3740    -1.6450 H     1 <1>   0.0800 
 43 H       -4.6240    -1.6000     0.2530 H     1 <1>   0.4500 
 44 H       -2.4480    -1.1870    -0.0360 H     1 <1>   0.0800 
 45 H       -2.3060    -2.3690    -1.3340 H     1 <1>   0.0800 
 46 H       -3.6850    -4.3080    -0.4450 H     1 <1>   0.0800 
 47 H       -3.5610    -3.5240     1.1170 H     1 <1>   0.0800 
 48 H       -5.8360    -2.5520     2.0890 H     1 <1>   0.1500 
 49 H       -5.6080    -5.6200    -0.8940 H     1 <1>   0.1500 
 50 H       -8.1230    -3.2410     2.6040 H     1 <1>   0.1500 
 51 H       -7.8990    -6.2900    -0.3600 H     1 <1>   0.1500 
 52 H       -9.1620    -5.1040     1.3810 H     1 <1>   0.1500 
@<TRIPOS>BOND
  1   1   2  2   
  2   2   3  1   
  3   2   4  am  
  4   3   5  1   
  5   4   6  1   
  6   4   7  1   
  7   5   6  ar  
  8   5   8  ar  
  9   6   9  ar  
 10   7  10  1   
 11   7  27  1   
 12   7  28  1   
 13   8  11  ar  
 14   8  29  1   
 15   9  12  ar  
 16   9  30  1   
 17  10  13  1   
 18  10  31  1   
 19  10  32  1   
 20  11  12  ar  
 21  11  33  1   
 22  12  34  1   
 23  13  14  1   
 24  13  15  1   
 25  14  16  1   
 26  14  17  1   
 27  14  35  1   
 28  15  36  1   
 29  15  37  1   
 30  15  38  1   
 31  16  18  1   
 32  16  39  1   
 33  16  40  1   
 34  17  19  1   
 35  17  41  1   
 36  17  42  1   
 37  18  19  1   
 38  18  20  1   
 39  18  43  1   
 40  19  44  1   
 41  19  45  1   
 42  20  21  1   
 43  20  46  1   
 44  20  47  1   
 45  21  22  ar  
 46  21  23  ar  
 47  22  24  ar  
 48  22  48  1   
 49  23  25  ar  
 50  23  49  1   
 51  24  26  ar  
 52  24  50  1   
 53  25  26  ar  
 54  25  51  1   
 55  26  52  1   
@<TRIPOS>SUBSTRUCTURE
  1 ****   1 GROUP 4 **** **** 0

# MOE 2024.06 (io_trps.svl 2023.06)
