@<TRIPOS>MOLECULE
NONAME
48 50 1 0 0 
SMALL
USER_CHARGES


@<TRIPOS>ATOM
  1 S        0.5660     0.7040     0.3170 S.3   1 <1>  -0.3320 
  2 C        0.0320    -0.8870    -0.3390 C.ar  1 <1>   0.1020 
  3 C        1.1690     1.6950    -1.1340 C.3   1 <1>   0.1310 
  4 C       -0.2090    -1.8950     0.5750 C.ar  1 <1>  -0.1500 
  5 C       -0.1320    -1.1040    -1.6980 C.ar  1 <1>  -0.1500 
  6 C        1.8340     2.9900    -0.6760 C.2   1 <1>   0.5690 
  7 C       -0.6110    -3.1450     0.1360 C.ar  1 <1>   0.0830 
  8 C       -0.5340    -2.3540    -2.1390 C.ar  1 <1>  -0.1500 
  9 O        1.4820     4.0150    -1.2100 O.2   1 <1>  -0.5700 
 10 N        2.8360     3.0160     0.2660 N.am  1 <1>  -0.6600 
 11 O       -0.8260    -4.0870     1.0880 O.3   1 <1>  -0.3630 
 12 C       -0.7720    -3.3720    -1.2300 C.ar  1 <1>  -0.1500 
 13 C        3.0930     4.2680     1.0520 C.3   1 <1>   0.1400 
 14 C        3.6960     1.8510     0.6270 C.3   1 <1>   0.1400 
 15 C       -1.2630    -5.3850     0.7510 C.3   1 <1>   0.0400 
 16 C        4.5030     4.8950     0.8730 C.3   1 <1>   0.4230 
 17 C        5.1720     2.1120     0.2560 C.3   1 <1>  -0.0800 
 18 N        5.1840     4.6110    -0.4540 N.4   1 <1>  -0.9590 
 19 C        5.4290     4.5730     2.0650 C.3   1 <1>   0.1200 
 20 C        6.0750     2.3640     1.4740 C.3   1 <1>   0.1200 
 21 C        5.3310     3.1660    -0.8550 C.3   1 <1>   0.3430 
 22 C        4.4760     5.3490    -1.5480 C.3   1 <1>   0.2630 
 23 O        5.4600     3.2170     2.3810 O.3   1 <1>  -0.5600 
 24 H        1.8600     1.0840    -1.6820 H     1 <1>   0.0800 
 25 H        0.3090     1.9170    -1.7390 H     1 <1>   0.0800 
 26 H       -0.0860    -1.7140     1.6270 H     1 <1>   0.1500 
 27 H        0.0360    -0.3260    -2.4170 H     1 <1>   0.1500 
 28 H       -0.6660    -2.5350    -3.1920 H     1 <1>   0.1500 
 29 H       -1.0820    -4.3300    -1.6010 H     1 <1>   0.1500 
 30 H        2.3640     5.0140     0.7860 H     1 <1>   0.0800 
 31 H        2.9270     4.0560     2.0950 H     1 <1>   0.0800 
 32 H        3.5930     1.6410     1.6800 H     1 <1>   0.0800 
 33 H        3.3630     0.9750     0.1000 H     1 <1>   0.0800 
 34 H       -1.3730    -5.9460     1.6620 H     1 <1>   0.0800 
 35 H       -0.5240    -5.8500     0.1230 H     1 <1>   0.0800 
 36 H       -2.2110    -5.3150     0.2480 H     1 <1>   0.0800 
 37 H        4.3560     5.9610     0.9260 H     1 <1>   0.0800 
 38 H        5.5310     1.1920    -0.1700 H     1 <1>   0.0800 
 39 H        6.1330     4.9990    -0.3800 H     1 <1>   0.4500 
 40 H        5.0530     5.0750     2.9400 H     1 <1>   0.0800 
 41 H        6.4330     4.9190     1.8940 H     1 <1>   0.0800 
 42 H        7.0380     2.7620     1.1990 H     1 <1>   0.0800 
 43 H        6.2350     1.4340     1.9950 H     1 <1>   0.0800 
 44 H        4.5960     2.9410    -1.6110 H     1 <1>   0.0800 
 45 H        6.2990     3.0350    -1.3120 H     1 <1>   0.0800 
 46 H        3.4730     4.9730    -1.6650 H     1 <1>   0.0800 
 47 H        4.9970     5.2270    -2.4840 H     1 <1>   0.0800 
 48 H        4.4200     6.4010    -1.3210 H     1 <1>   0.0800 
@<TRIPOS>BOND
  1   1   2  1   
  2   1   3  1   
  3   2   4  ar  
  4   2   5  ar  
  5   3   6  1   
  6   3  24  1   
  7   3  25  1   
  8   4   7  ar  
  9   4  26  1   
 10   5   8  ar  
 11   5  27  1   
 12   6   9  2   
 13   6  10  am  
 14   7  11  1   
 15   7  12  ar  
 16   8  12  ar  
 17   8  28  1   
 18  10  13  1   
 19  10  14  1   
 20  11  15  1   
 21  12  29  1   
 22  13  16  1   
 23  13  30  1   
 24  13  31  1   
 25  14  17  1   
 26  14  32  1   
 27  14  33  1   
 28  15  34  1   
 29  15  35  1   
 30  15  36  1   
 31  16  18  1   
 32  16  19  1   
 33  16  37  1   
 34  17  20  1   
 35  17  21  1   
 36  17  38  1   
 37  18  21  1   
 38  18  22  1   
 39  18  39  1   
 40  19  23  1   
 41  19  40  1   
 42  19  41  1   
 43  20  23  1   
 44  20  42  1   
 45  20  43  1   
 46  21  44  1   
 47  21  45  1   
 48  22  46  1   
 49  22  47  1   
 50  22  48  1   
@<TRIPOS>SUBSTRUCTURE
  1 ****   3 GROUP 4 **** **** 0

# MOE 2024.06 (io_trps.svl 2023.06)
