@<TRIPOS>MOLECULE
NONAME
47 49 1 0 0 
SMALL
USER_CHARGES


@<TRIPOS>ATOM
  1 S       -0.0140     0.2420     0.2020 S.o2  1 <1>   1.3330 
  2 O        0.1560    -0.8180     1.1700 O.2   1 <1>  -0.6500 
  3 O       -0.4890     1.5370     0.6340 O.2   1 <1>  -0.6500 
  4 N       -1.0720    -0.3290    -0.9980 N.am  1 <1>  -0.8490 
  5 C        1.5060     0.5010    -0.7140 C.3   1 <1>  -0.0550 
  6 C       -0.9320    -1.7660    -1.2560 C.3   1 <1>   0.1160 
  7 C       -2.4710    -0.0120    -0.6960 C.3   1 <1>   0.1160 
  8 C        2.6520     1.0700     0.1410 C.3   1 <1>  -0.0800 
  9 C        3.8170     1.5410    -0.7370 C.3   1 <1>   0.2200 
 10 C        3.3030    -0.0100     1.0090 C.3   1 <1>   0.1200 
 11 N        4.1720     2.9670    -0.5040 N.am  1 <1>  -0.7300 
 12 C        4.9570     0.5760    -0.3960 C.3   1 <1>   0.1200 
 13 O        4.3440    -0.5020     0.2330 O.3   1 <1>  -0.5600 
 14 C        4.4930     3.5940     0.6700 C.2   1 <1>   0.6160 
 15 O        4.5370     2.9140     1.6790 O.2   1 <1>  -0.5700 
 16 C        4.7550     5.0080     0.7580 C.2   1 <1>   0.0290 
 17 C        5.0350     5.7870    -0.4210 C.2   1 <1>   0.5650 
 18 C        4.7400     5.6330     1.9840 C.2   1 <1>  -0.0500 
 19 O        5.0600     5.2920    -1.5440 O.2   1 <1>  -0.5700 
 20 N        5.2920     7.1770    -0.2410 N.pl3 1 <1>   0.5610 
 21 N        4.9770     6.9660     2.1300 N.pl3 1 <1>  -0.5840 
 22 N        5.5890     8.1440    -1.1720 N.2   1 <1>  -0.7070 
 23 C        5.2590     7.7470     1.0050 C.2   1 <1>  -0.0680 
 24 C        5.7270     9.2410    -0.5010 C.2   1 <1>   0.1080 
 25 C        5.5330     9.0620     0.8640 C.2   1 <1>  -0.1500 
 26 C        6.0620    10.5550    -1.1680 C.3   1 <1>  -0.0590 
 27 H        1.8230    -0.4200    -1.1620 H     1 <1>   0.0800 
 28 H        1.2940     1.1940    -1.5050 H     1 <1>   0.0800 
 29 H       -1.5580    -2.0550    -2.0840 H     1 <1>   0.0800 
 30 H       -1.2170    -2.3360    -0.3860 H     1 <1>   0.0800 
 31 H        0.0880    -2.0030    -1.5030 H     1 <1>   0.0800 
 32 H       -3.1140    -0.3760    -1.4790 H     1 <1>   0.0800 
 33 H       -2.6010     1.0550    -0.6250 H     1 <1>   0.0800 
 34 H       -2.7620    -0.4590     0.2400 H     1 <1>   0.0800 
 35 H        2.2720     1.8630     0.7620 H     1 <1>   0.0800 
 36 H        3.5730     1.4210    -1.7780 H     1 <1>   0.0800 
 37 H        2.6460    -0.8200     1.2740 H     1 <1>   0.0800 
 38 H        3.7270     0.4180     1.9020 H     1 <1>   0.0800 
 39 H        4.3020     3.5280    -1.3590 H     1 <1>   0.3700 
 40 H        5.6540     1.0120     0.2990 H     1 <1>   0.0800 
 41 H        5.4690     0.2210    -1.2720 H     1 <1>   0.0800 
 42 H        4.5330     5.0690     2.8830 H     1 <1>   0.1500 
 43 H        4.9580     7.4180     3.0570 H     1 <1>   0.4000 
 44 H        5.5950     9.8210     1.6210 H     1 <1>   0.1500 
 45 H        6.1330    11.3430    -0.4410 H     1 <1>   0.0800 
 46 H        5.2970    10.8010    -1.8810 H     1 <1>   0.0800 
 47 H        7.0010    10.4660    -1.6840 H     1 <1>   0.0800 
@<TRIPOS>BOND
  1   1   2  2   
  2   1   3  2   
  3   1   4  am  
  4   1   5  1   
  5   4   6  1   
  6   4   7  1   
  7   5   8  1   
  8   5  27  1   
  9   5  28  1   
 10   6  29  1   
 11   6  30  1   
 12   6  31  1   
 13   7  32  1   
 14   7  33  1   
 15   7  34  1   
 16   8   9  1   
 17   8  10  1   
 18   8  35  1   
 19   9  11  1   
 20   9  12  1   
 21   9  36  1   
 22  10  13  1   
 23  10  37  1   
 24  10  38  1   
 25  11  14  am  
 26  11  39  1   
 27  12  13  1   
 28  12  40  1   
 29  12  41  1   
 30  14  15  2   
 31  14  16  1   
 32  16  17  1   
 33  16  18  2   
 34  17  19  2   
 35  17  20  1   
 36  18  21  1   
 37  18  42  1   
 38  20  22  1   
 39  20  23  1   
 40  21  23  1   
 41  21  43  1   
 42  22  24  2   
 43  23  25  2   
 44  24  25  1   
 45  24  26  1   
 46  25  44  1   
 47  26  45  1   
 48  26  46  1   
 49  26  47  1   
@<TRIPOS>SUBSTRUCTURE
  1 ****  11 GROUP 4 **** **** 0

# MOE 2024.06 (io_trps.svl 2023.06)
