@<TRIPOS>MOLECULE
NONAME
50 52 1 0 0 
SMALL
USER_CHARGES


@<TRIPOS>ATOM
  1 O       -1.1930    -0.0290    -0.0320 O.2   1 <1>  -0.5700 
  2 C       -1.8920     0.8930    -0.4160 C.2   1 <1>   0.5440 
  3 N       -3.0890     0.5630    -1.0150 N.am  1 <1>  -0.6600 
  4 C       -1.4820     2.2720    -0.2080 C.ar  1 <1>   0.0860 
  5 C       -3.2730    -0.8120    -1.5480 C.3   1 <1>   0.1400 
  6 C       -4.3560     1.2040    -0.5730 C.3   1 <1>   0.1400 
  7 C       -1.8200     3.2840    -1.1080 C.ar  1 <1>  -0.1500 
  8 C       -0.7240     2.6370     0.9040 C.ar  1 <1>  -0.1500 
  9 C       -3.8460    -1.7040    -0.4240 C.3   1 <1>   0.4230 
 10 C       -4.9670     0.3410     0.5410 C.3   1 <1>  -0.1600 
 11 C       -1.4320     4.5960    -0.9020 C.ar  1 <1>  -0.1500 
 12 C       -0.3330     3.9460     1.1150 C.ar  1 <1>  -0.1500 
 13 N       -3.8770    -3.1870    -0.7640 N.4   1 <1>  -0.9590 
 14 C       -5.1910    -1.1460     0.1340 C.3   1 <1>   0.0000 
 15 C       -0.6830     4.9370     0.2120 C.ar  1 <1>  -0.1430 
 16 C       -4.7840    -3.9970     0.1130 C.3   1 <1>   0.3430 
 17 C       -4.1260    -3.5160    -2.2060 C.3   1 <1>   0.2630 
 18 C       -5.5950    -1.9560     1.4020 C.3   1 <1>  -0.1600 
 19 C       -6.3020    -1.2470    -0.9510 C.3   1 <1>   0.1200 
 20 C       -0.2420     6.3730     0.4440 C.3   1 <1>   0.2630 
 21 C       -4.9400    -3.3480     1.4870 C.3   1 <1>  -0.1600 
 22 O       -7.4550    -0.5820    -0.5680 O.3   1 <1>  -0.6800 
 23 O       -0.9450     6.8640     1.5260 O.3   1 <1>  -0.6800 
 24 H       -3.9250    -0.7700    -2.4000 H     1 <1>   0.0800 
 25 H       -2.3190    -1.1960    -1.8680 H     1 <1>   0.0800 
 26 H       -4.1680     2.1950    -0.1960 H     1 <1>   0.0800 
 27 H       -5.0340     1.2900    -1.4060 H     1 <1>   0.0800 
 28 H       -2.3920     3.0370    -1.9850 H     1 <1>   0.1500 
 29 H       -0.4370     1.8780     1.6120 H     1 <1>   0.1500 
 30 H       -3.1430    -1.6000     0.3880 H     1 <1>   0.0800 
 31 H       -4.2960     0.3910     1.3820 H     1 <1>   0.0800 
 32 H       -5.8900     0.7930     0.8610 H     1 <1>   0.0800 
 33 H       -1.7120     5.3490    -1.6180 H     1 <1>   0.1500 
 34 H        0.2490     4.1980     1.9870 H     1 <1>   0.1500 
 35 H       -2.9190    -3.5050    -0.5490 H     1 <1>   0.4500 
 36 H       -5.7590    -4.0720    -0.3410 H     1 <1>   0.0800 
 37 H       -4.3910    -4.9950     0.2220 H     1 <1>   0.0800 
 38 H       -5.0970    -3.1650    -2.5120 H     1 <1>   0.0800 
 39 H       -4.0840    -4.5830    -2.3580 H     1 <1>   0.0800 
 40 H       -3.3780    -3.0580    -2.8330 H     1 <1>   0.0800 
 41 H       -5.3230    -1.4200     2.2970 H     1 <1>   0.0800 
 42 H       -6.6640    -2.0720     1.4420 H     1 <1>   0.0800 
 43 H       -6.5720    -2.2690    -1.1460 H     1 <1>   0.0800 
 44 H       -5.9910    -0.7960    -1.8750 H     1 <1>   0.0800 
 45 H       -0.4590     6.9930    -0.4090 H     1 <1>   0.0800 
 46 H        0.8090     6.4290     0.6700 H     1 <1>   0.0800 
 47 H       -5.5430    -3.9830     2.1130 H     1 <1>   0.0800 
 48 H       -3.9720    -3.2750     1.9540 H     1 <1>   0.0800 
 49 H       -7.8490    -0.9580     0.2440 H     1 <1>   0.4000 
 50 H       -1.8600     6.5280     1.4870 H     1 <1>   0.4000 
@<TRIPOS>BOND
  1   1   2  2   
  2   2   3  am  
  3   2   4  1   
  4   3   5  1   
  5   3   6  1   
  6   4   7  ar  
  7   4   8  ar  
  8   5   9  1   
  9   5  24  1   
 10   5  25  1   
 11   6  10  1   
 12   6  26  1   
 13   6  27  1   
 14   7  11  ar  
 15   7  28  1   
 16   8  12  ar  
 17   8  29  1   
 18   9  13  1   
 19   9  14  1   
 20   9  30  1   
 21  10  14  1   
 22  10  31  1   
 23  10  32  1   
 24  11  15  ar  
 25  11  33  1   
 26  12  15  ar  
 27  12  34  1   
 28  13  16  1   
 29  13  17  1   
 30  13  35  1   
 31  14  18  1   
 32  14  19  1   
 33  15  20  1   
 34  16  21  1   
 35  16  36  1   
 36  16  37  1   
 37  17  38  1   
 38  17  39  1   
 39  17  40  1   
 40  18  21  1   
 41  18  41  1   
 42  18  42  1   
 43  19  22  1   
 44  19  43  1   
 45  19  44  1   
 46  20  23  1   
 47  20  45  1   
 48  20  46  1   
 49  21  47  1   
 50  21  48  1   
 51  22  49  1   
 52  23  50  1   
@<TRIPOS>SUBSTRUCTURE
  1 ****   3 GROUP 4 **** **** 0

# MOE 2024.06 (io_trps.svl 2023.06)
