@<TRIPOS>MOLECULE
NONAME
49 51 1 0 0 
SMALL
USER_CHARGES


@<TRIPOS>ATOM
  1 O        0.0550     1.7200     2.2960 O.2   1 <1>  -0.5700 
  2 C        0.2260     2.4940     1.3720 C.2   1 <1>   0.5440 
  3 N       -0.8620     3.1270     0.8090 N.am  1 <1>  -0.6600 
  4 C        1.5720     2.7470     0.8930 C.ar  1 <1>   0.0860 
  5 C       -2.2580     2.8360     1.2470 C.3   1 <1>   0.1400 
  6 C       -0.7460     4.0790    -0.3370 C.3   1 <1>   0.1400 
  7 C        2.1310     2.0700    -0.2000 C.ar  1 <1>  -0.1440 
  8 C        2.3490     3.7090     1.5360 C.ar  1 <1>  -0.1500 
  9 C       -3.0480     2.1520     0.1100 C.3   1 <1>   0.0000 
 10 C       -2.0500     4.1580    -1.1490 C.3   1 <1>  -0.1600 
 11 C        3.4190     2.3670    -0.6170 C.ar  1 <1>  -0.1500 
 12 C        1.3500     0.9940    -0.9490 C.3   1 <1>  -0.0170 
 13 C        3.6310     4.0030     1.1150 C.ar  1 <1>  -0.1500 
 14 C       -4.5530     2.1890     0.4340 C.3   1 <1>   0.2000 
 15 C       -2.7130     2.7780    -1.2820 C.3   1 <1>  -0.1600 
 16 C       -2.7950     0.6350     0.0680 C.3   1 <1>  -0.1600 
 17 C        4.1680     3.3310     0.0330 C.ar  1 <1>  -0.1500 
 18 C        1.4750    -0.3590    -0.2460 C.3   1 <1>  -0.2400 
 19 O       -5.1280     3.4150     0.0850 O.3   1 <1>  -0.5600 
 20 C       -5.1760     1.0270    -0.3480 C.3   1 <1>  -0.1600 
 21 C       -4.0310     0.0380    -0.6120 C.3   1 <1>  -0.1600 
 22 C       -6.3970     3.6400     0.6100 C.3   1 <1>   0.0400 
 23 H       -2.2660     2.2240     2.1320 H     1 <1>   0.0800 
 24 H       -2.7320     3.7680     1.5010 H     1 <1>   0.0800 
 25 H       -0.4880     5.0550     0.0350 H     1 <1>   0.0800 
 26 H        0.0440     3.7510    -0.9900 H     1 <1>   0.0800 
 27 H        1.9310     4.2270     2.3820 H     1 <1>   0.1500 
 28 H       -2.7330     4.8360    -0.6660 H     1 <1>   0.0800 
 29 H       -1.8380     4.5600    -2.1240 H     1 <1>   0.0800 
 30 H        3.8510     1.8450    -1.4530 H     1 <1>   0.1500 
 31 H        0.3120     1.2660    -1.0220 H     1 <1>   0.0800 
 32 H        1.7240     0.9050    -1.9540 H     1 <1>   0.0800 
 33 H        4.2120     4.7500     1.6280 H     1 <1>   0.1500 
 34 H       -4.6890     2.0290     1.4910 H     1 <1>   0.0800 
 35 H       -2.0280     2.1430    -1.8150 H     1 <1>   0.0800 
 36 H       -3.5980     2.8610    -1.8880 H     1 <1>   0.0800 
 37 H       -1.8820     0.3740    -0.4370 H     1 <1>   0.0800 
 38 H       -2.7350     0.2530     1.0730 H     1 <1>   0.0800 
 39 H        5.1670     3.5530    -0.2990 H     1 <1>   0.1500 
 40 H        1.0720    -0.3010     0.7500 H     1 <1>   0.0800 
 41 H        2.5090    -0.6500    -0.1800 H     1 <1>   0.0800 
 42 H        0.9350    -1.1120    -0.7910 H     1 <1>   0.0800 
 43 H       -5.9560     0.5630     0.2280 H     1 <1>   0.0800 
 44 H       -5.5730     1.3770    -1.2840 H     1 <1>   0.0800 
 45 H       -4.2510    -0.9410    -0.2230 H     1 <1>   0.0800 
 46 H       -3.8600    -0.0380    -1.6720 H     1 <1>   0.0800 
 47 H       -6.7210     4.6150     0.2910 H     1 <1>   0.0800 
 48 H       -6.3480     3.6090     1.6850 H     1 <1>   0.0800 
 49 H       -7.0780     2.8950     0.2380 H     1 <1>   0.0800 
@<TRIPOS>BOND
  1   1   2  2   
  2   2   3  am  
  3   2   4  1   
  4   3   5  1   
  5   3   6  1   
  6   4   7  ar  
  7   4   8  ar  
  8   5   9  1   
  9   5  23  1   
 10   5  24  1   
 11   6  10  1   
 12   6  25  1   
 13   6  26  1   
 14   7  11  ar  
 15   7  12  1   
 16   8  13  ar  
 17   8  27  1   
 18   9  14  1   
 19   9  15  1   
 20   9  16  1   
 21  10  15  1   
 22  10  28  1   
 23  10  29  1   
 24  11  17  ar  
 25  11  30  1   
 26  12  18  1   
 27  12  31  1   
 28  12  32  1   
 29  13  17  ar  
 30  13  33  1   
 31  14  19  1   
 32  14  20  1   
 33  14  34  1   
 34  15  35  1   
 35  15  36  1   
 36  16  21  1   
 37  16  37  1   
 38  16  38  1   
 39  17  39  1   
 40  18  40  1   
 41  18  41  1   
 42  18  42  1   
 43  19  22  1   
 44  20  21  1   
 45  20  43  1   
 46  20  44  1   
 47  21  45  1   
 48  21  46  1   
 49  22  47  1   
 50  22  48  1   
 51  22  49  1   
@<TRIPOS>SUBSTRUCTURE
  1 ****   3 GROUP 4 **** **** 0

# MOE 2024.06 (io_trps.svl 2023.06)
