@<TRIPOS>MOLECULE
NONAME
40 42 1 0 0 
SMALL
USER_CHARGES


@<TRIPOS>ATOM
  1 F       -1.0740    -0.3340    -1.7610 F     1 <1>  -0.1900 
  2 C       -1.8360    -0.9100    -0.8660 C.ar  1 <1>   0.1900 
  3 C       -2.5970    -0.1440     0.0000 C.ar  1 <1>   0.1900 
  4 C       -1.8640    -2.2890    -0.8060 C.ar  1 <1>  -0.1500 
  5 F       -2.5680     1.1600    -0.0640 F     1 <1>  -0.1900 
  6 C       -3.4010    -0.7490     0.9480 C.ar  1 <1>  -0.1500 
  7 C       -2.6760    -2.9280     0.1340 C.ar  1 <1>   0.0860 
  8 C       -3.4300    -2.1340     1.0080 C.ar  1 <1>  -0.1500 
  9 C       -2.7150    -4.3750     0.2000 C.2   1 <1>   0.5440 
 10 O       -1.6860    -4.9930     0.3890 O.2   1 <1>  -0.5700 
 11 N       -3.8880    -5.0770     0.0440 N.am  1 <1>  -0.6600 
 12 C       -5.1810    -4.5300    -0.4430 C.3   1 <1>   0.1400 
 13 C       -3.9400    -6.5640     0.0560 C.3   1 <1>   0.1400 
 14 C       -6.1760    -5.6640    -0.2140 C.3   1 <1>   0.2000 
 15 C       -5.3400    -6.9230    -0.4570 C.3   1 <1>  -0.0800 
 16 O       -6.5710    -5.6180     1.1160 O.3   1 <1>  -0.6800 
 17 C       -5.9070    -8.2240     0.1390 C.3   1 <1>   0.0210 
 18 C       -4.9990    -9.3970    -0.1720 C.2   1 <1>   0.1080 
 19 N       -4.7740    -9.8120    -1.3800 N.2   1 <1>  -0.7070 
 20 C       -4.3060   -10.1420     0.7770 C.2   1 <1>  -0.1500 
 21 N       -3.9230   -10.8440    -1.2330 N.pl3 1 <1>   0.3000 
 22 C       -3.6230   -11.0620     0.0650 C.2   1 <1>  -0.3320 
 23 C       -2.6870   -12.1530     0.5520 C.3   1 <1>  -0.0600 
 24 H       -1.2610    -2.8720    -1.4790 H     1 <1>   0.1500 
 25 H       -3.9840    -0.1470     1.6220 H     1 <1>   0.1500 
 26 H       -4.0420    -2.6200     1.7490 H     1 <1>   0.1500 
 27 H       -5.4760    -3.6370     0.0790 H     1 <1>   0.0800 
 28 H       -5.0980    -4.3230    -1.4970 H     1 <1>   0.0800 
 29 H       -3.1740    -6.9820    -0.5770 H     1 <1>   0.0800 
 30 H       -3.7930    -6.9120     1.0630 H     1 <1>   0.0800 
 31 H       -7.0510    -5.6000    -0.8380 H     1 <1>   0.0800 
 32 H       -5.2590    -7.0580    -1.5220 H     1 <1>   0.0800 
 33 H       -5.7680    -5.5840     1.6730 H     1 <1>   0.4000 
 34 H       -6.8770    -8.4190    -0.2820 H     1 <1>   0.0800 
 35 H       -6.0180    -8.1390     1.2040 H     1 <1>   0.0800 
 36 H       -4.3270    -9.9920     1.8410 H     1 <1>   0.1500 
 37 H       -3.5660   -11.3770    -2.0350 H     1 <1>   0.2700 
 38 H       -2.6110   -12.1220     1.6250 H     1 <1>   0.0800 
 39 H       -1.7060   -12.0150     0.1350 H     1 <1>   0.0800 
 40 H       -3.0600   -13.1200     0.2630 H     1 <1>   0.0800 
@<TRIPOS>BOND
  1   1   2  1   
  2   2   3  ar  
  3   2   4  ar  
  4   3   5  1   
  5   3   6  ar  
  6   4   7  ar  
  7   4  24  1   
  8   6   8  ar  
  9   6  25  1   
 10   7   8  ar  
 11   7   9  1   
 12   8  26  1   
 13   9  10  2   
 14   9  11  am  
 15  11  12  1   
 16  11  13  1   
 17  12  14  1   
 18  12  27  1   
 19  12  28  1   
 20  13  15  1   
 21  13  29  1   
 22  13  30  1   
 23  14  15  1   
 24  14  16  1   
 25  14  31  1   
 26  15  17  1   
 27  15  32  1   
 28  16  33  1   
 29  17  18  1   
 30  17  34  1   
 31  17  35  1   
 32  18  19  2   
 33  18  20  1   
 34  19  21  1   
 35  20  22  2   
 36  20  36  1   
 37  21  22  1   
 38  21  37  1   
 39  22  23  1   
 40  23  38  1   
 41  23  39  1   
 42  23  40  1   
@<TRIPOS>SUBSTRUCTURE
  1 ****  11 GROUP 4 **** **** 0

# MOE 2024.06 (io_trps.svl 2023.06)
