@<TRIPOS>MOLECULE
NONAME
45 46 1 0 0 
SMALL
USER_CHARGES


@<TRIPOS>ATOM
  1 CL       0.2660    -0.4140     1.0480 Cl    1 <1>  -0.1770 
  2 C       -0.1060    -2.0960     0.7720 C.ar  1 <1>   0.1770 
  3 C       -0.6540    -2.4770    -0.4410 C.ar  1 <1>  -0.1500 
  4 C        0.1530    -3.0190     1.7700 C.ar  1 <1>  -0.1500 
  5 C       -0.9510    -3.8120    -0.6650 C.ar  1 <1>  -0.1500 
  6 C       -0.1440    -4.3540     1.5480 C.ar  1 <1>  -0.1500 
  7 C       -0.6940    -4.7400     0.3360 C.ar  1 <1>   0.1020 
  8 S       -1.0540    -6.4920     0.1330 S.3   1 <1>  -0.3320 
  9 C       -1.8440    -6.6870    -1.5390 C.3   1 <1>   0.1310 
 10 C       -2.1980    -8.1400    -1.8280 C.2   1 <1>   0.5690 
 11 O       -1.5650    -8.6760    -2.7090 O.2   1 <1>  -0.5700 
 12 N       -3.2090    -8.7860    -1.1530 N.am  1 <1>  -0.6600 
 13 C       -3.5620   -10.2140    -1.4540 C.3   1 <1>   0.1400 
 14 C       -4.0740    -8.1710    -0.1100 C.3   1 <1>   0.1400 
 15 C       -3.5250   -11.1320    -0.2060 C.3   1 <1>  -0.1060 
 16 C       -3.9600    -8.9650     1.1880 C.3   1 <1>  -0.1600 
 17 C       -4.3290   -12.4020    -0.5230 C.2   1 <1>   0.9060 
 18 C       -4.2980   -10.4370     0.9420 C.3   1 <1>   0.2000 
 19 C       -2.0650   -11.5980     0.1140 C.3   1 <1>  -0.1600 
 20 O       -4.6930   -12.6430    -1.6790 O.co2 1 <1>  -0.9000 
 21 O       -4.6210   -13.1640     0.4140 O.co2 1 <1>  -0.9000 
 22 O       -4.1330   -11.1370     2.1180 O.3   1 <1>  -0.6800 
 23 C       -1.0670   -10.5790     0.6880 C.3   1 <1>  -0.1600 
 24 C        0.3440   -11.1710     0.7520 C.3   1 <1>  -0.2400 
 25 H       -0.8410    -1.7340    -1.1960 H     1 <1>   0.1500 
 26 H        0.5800    -2.6960     2.7020 H     1 <1>   0.1500 
 27 H       -1.3720    -4.1020    -1.6070 H     1 <1>   0.1500 
 28 H        0.0480    -5.0920     2.3060 H     1 <1>   0.1500 
 29 H       -2.7230    -6.0720    -1.5620 H     1 <1>   0.0800 
 30 H       -1.1310    -6.3390    -2.2630 H     1 <1>   0.0800 
 31 H       -4.5570   -10.2190    -1.8660 H     1 <1>   0.0800 
 32 H       -2.9120   -10.6190    -2.2110 H     1 <1>   0.0800 
 33 H       -3.8060    -7.1480     0.0750 H     1 <1>   0.0800 
 34 H       -5.0940    -8.1910    -0.4540 H     1 <1>   0.0800 
 35 H       -4.6510    -8.5650     1.9050 H     1 <1>   0.0800 
 36 H       -2.9710    -8.8500     1.5830 H     1 <1>   0.0800 
 37 H       -5.3490   -10.4900     0.7060 H     1 <1>   0.0800 
 38 H       -2.1200   -12.4160     0.8120 H     1 <1>   0.0800 
 39 H       -1.6520   -12.0050    -0.7930 H     1 <1>   0.0800 
 40 H       -4.2930   -12.0900     1.8690 H     1 <1>   0.4000 
 41 H       -1.0410    -9.6940     0.0830 H     1 <1>   0.0800 
 42 H       -1.3680   -10.3110     1.6840 H     1 <1>   0.0800 
 43 H        0.6840   -11.4260    -0.2360 H     1 <1>   0.0800 
 44 H        0.3490   -12.0560     1.3640 H     1 <1>   0.0800 
 45 H        1.0220   -10.4530     1.1750 H     1 <1>   0.0800 
@<TRIPOS>BOND
  1   1   2  1   
  2   2   3  ar  
  3   2   4  ar  
  4   3   5  ar  
  5   3  25  1   
  6   4   6  ar  
  7   4  26  1   
  8   5   7  ar  
  9   5  27  1   
 10   6   7  ar  
 11   6  28  1   
 12   7   8  1   
 13   8   9  1   
 14   9  10  1   
 15   9  29  1   
 16   9  30  1   
 17  10  11  2   
 18  10  12  am  
 19  12  13  1   
 20  12  14  1   
 21  13  15  1   
 22  13  31  1   
 23  13  32  1   
 24  14  16  1   
 25  14  33  1   
 26  14  34  1   
 27  15  17  1   
 28  15  18  1   
 29  15  19  1   
 30  16  18  1   
 31  16  35  1   
 32  16  36  1   
 33  17  20  ar  
 34  17  21  ar  
 35  18  22  1   
 36  18  37  1   
 37  19  23  1   
 38  19  38  1   
 39  19  39  1   
 40  22  40  1   
 41  23  24  1   
 42  23  41  1   
 43  23  42  1   
 44  24  43  1   
 45  24  44  1   
 46  24  45  1   
@<TRIPOS>SUBSTRUCTURE
  1 ****  12 GROUP 4 **** **** 0

# MOE 2024.06 (io_trps.svl 2023.06)
