@<TRIPOS>MOLECULE
NONAME
55 58 1 0 0 
SMALL
USER_CHARGES


@<TRIPOS>ATOM
  1 O       -1.3730     0.2500    -0.1650 O.2   1 <1>  -0.5700 
  2 C       -2.1670     1.0860     0.2270 C.2   1 <1>   0.5440 
  3 N       -3.3330     0.6390     0.8090 N.am  1 <1>  -0.6600 
  4 C       -1.8810     2.5010     0.0550 C.ar  1 <1>   0.0860 
  5 C       -3.4400    -0.7750     1.2710 C.3   1 <1>   0.1400 
  6 C       -4.6560     1.2460     0.4910 C.3   1 <1>   0.1400 
  7 C       -1.2010     2.9650    -1.0700 C.ar  1 <1>  -0.1500 
  8 C       -2.2580     3.4480     1.0070 C.ar  1 <1>  -0.1500 
  9 C       -4.0440    -1.6200     0.1260 C.3   1 <1>   0.4230 
 10 C       -5.3270     0.4120    -0.6120 C.3   1 <1>  -0.1600 
 11 C       -0.9190     4.3070    -1.2440 C.ar  1 <1>  -0.1500 
 12 C       -1.9790     4.7930     0.8410 C.ar  1 <1>  -0.1500 
 13 N       -4.0920    -3.0970     0.3990 N.4   1 <1>  -0.9590 
 14 C       -5.4530    -1.0910    -0.2250 C.3   1 <1>  -0.1060 
 15 C       -1.3040     5.2340    -0.2870 C.ar  1 <1>  -0.1430 
 16 C       -4.5660    -3.8630    -0.7810 C.3   1 <1>   0.3430 
 17 C       -2.8490    -3.6670     0.9830 C.3   1 <1>   0.2630 
 18 C       -6.3640    -1.2640     1.0050 C.2   1 <1>   0.9060 
 19 C       -6.0130    -1.8720    -1.4380 C.3   1 <1>  -0.1600 
 20 C       -0.9860     6.7150    -0.4700 C.3   1 <1>   0.2390 
 21 C       -5.9580    -3.3890    -1.2040 C.3   1 <1>  -0.1600 
 22 O       -6.1690    -2.2270     1.7670 O.co2 1 <1>  -0.9000 
 23 O       -7.2570    -0.4460     1.2200 O.co2 1 <1>  -0.9000 
 24 N        0.4520     6.9500    -0.7180 N.pl3 1 <1>   0.3140 
 25 N        0.8760     7.6690    -1.7360 N.2   1 <1>  -0.4180 
 26 C        1.5200     6.5640    -0.0330 C.2   1 <1>   0.0060 
 27 N        2.1570     7.7000    -1.6520 N.2   1 <1>   0.0000 
 28 N        2.5750     7.0170    -0.5930 N.2   1 <1>  -0.3380 
 29 C        1.5200     5.7150     1.2250 C.3   1 <1>  -0.0600 
 30 H       -2.4600    -1.1310     1.5290 H     1 <1>   0.0800 
 31 H       -4.0580    -0.8160     2.1520 H     1 <1>   0.0800 
 32 H       -5.2720     1.2560     1.3770 H     1 <1>   0.0800 
 33 H       -4.5430     2.2610     0.1540 H     1 <1>   0.0800 
 34 H       -0.8870     2.2550    -1.8160 H     1 <1>   0.1500 
 35 H       -2.7760     3.1190     1.8920 H     1 <1>   0.1500 
 36 H       -3.4080    -1.4670    -0.7290 H     1 <1>   0.0800 
 37 H       -6.3070     0.8180    -0.7990 H     1 <1>   0.0800 
 38 H       -4.7560     0.5210    -1.5170 H     1 <1>   0.0800 
 39 H       -0.3900     4.6230    -2.1300 H     1 <1>   0.1500 
 40 H       -2.2930     5.4890     1.6000 H     1 <1>   0.1500 
 41 H       -4.8700    -3.1380     1.1130 H     1 <1>   0.4500 
 42 H       -3.8760    -3.7270    -1.5980 H     1 <1>   0.0800 
 43 H       -4.6100    -4.9120    -0.5400 H     1 <1>   0.0800 
 44 H       -2.0180    -3.5130     0.3140 H     1 <1>   0.0800 
 45 H       -2.9710    -4.7230     1.1560 H     1 <1>   0.0800 
 46 H       -2.6300    -3.1930     1.9260 H     1 <1>   0.0800 
 47 H       -7.0330    -1.5720    -1.6130 H     1 <1>   0.0800 
 48 H       -5.4430    -1.6330    -2.3200 H     1 <1>   0.0800 
 49 H       -1.2690     7.2730     0.4020 H     1 <1>   0.0800 
 50 H       -1.5410     7.0960    -1.3080 H     1 <1>   0.0800 
 51 H       -6.2470    -3.9000    -2.1050 H     1 <1>   0.0800 
 52 H       -6.6680    -3.6650    -0.4420 H     1 <1>   0.0800 
 53 H        2.5110     5.6810     1.6420 H     1 <1>   0.0800 
 54 H        1.2160     4.7100     0.9920 H     1 <1>   0.0800 
 55 H        0.8540     6.1280     1.9590 H     1 <1>   0.0800 
@<TRIPOS>BOND
  1   1   2  2   
  2   2   3  am  
  3   2   4  1   
  4   3   5  1   
  5   3   6  1   
  6   4   7  ar  
  7   4   8  ar  
  8   5   9  1   
  9   5  30  1   
 10   5  31  1   
 11   6  10  1   
 12   6  32  1   
 13   6  33  1   
 14   7  11  ar  
 15   7  34  1   
 16   8  12  ar  
 17   8  35  1   
 18   9  13  1   
 19   9  14  1   
 20   9  36  1   
 21  10  14  1   
 22  10  37  1   
 23  10  38  1   
 24  11  15  ar  
 25  11  39  1   
 26  12  15  ar  
 27  12  40  1   
 28  13  16  1   
 29  13  17  1   
 30  13  41  1   
 31  14  18  1   
 32  14  19  1   
 33  15  20  1   
 34  16  21  1   
 35  16  42  1   
 36  16  43  1   
 37  17  44  1   
 38  17  45  1   
 39  17  46  1   
 40  18  22  ar  
 41  18  23  ar  
 42  19  21  1   
 43  19  47  1   
 44  19  48  1   
 45  20  24  1   
 46  20  49  1   
 47  20  50  1   
 48  21  51  1   
 49  21  52  1   
 50  24  25  1   
 51  24  26  1   
 52  25  27  2   
 53  26  28  2   
 54  26  29  1   
 55  27  28  1   
 56  29  53  1   
 57  29  54  1   
 58  29  55  1   
@<TRIPOS>SUBSTRUCTURE
  1 ****   2 GROUP 4 **** **** 0

# MOE 2024.06 (io_trps.svl 2023.06)
