@<TRIPOS>MOLECULE
NONAME
60 63 1 0 0 
SMALL
USER_CHARGES


@<TRIPOS>ATOM
  1 O       -0.8470     1.1240     1.5090 O.2   1 <1>  -0.5700 
  2 C       -1.6550     1.2050     0.6100 C.2   1 <1>   0.5690 
  3 N       -2.9140     0.6690     0.7010 N.am  1 <1>  -0.6600 
  4 C       -1.1910     1.9630    -0.6460 C.3   1 <1>   0.4040 
  5 C       -3.3410    -0.1090     1.9040 C.3   1 <1>   0.1400 
  6 C       -3.9580     0.6990    -0.3650 C.3   1 <1>   0.1400 
  7 N       -0.0430     2.9150    -0.3760 N.4   1 <1>  -0.9590 
  8 C       -3.6410    -1.5530     1.4930 C.3   1 <1>  -0.1600 
  9 C       -4.2500    -0.7330    -0.8210 C.3   1 <1>  -0.1600 
 10 C       -0.4740     4.0430     0.5080 C.3   1 <1>   0.4230 
 11 C        0.6830     3.3040    -1.6250 C.3   1 <1>   0.2630 
 12 C       -4.6770    -1.6320     0.3580 C.3   1 <1>   0.4240 
 13 C       -1.4200     5.0210    -0.2070 C.3   1 <1>  -0.1600 
 14 C        0.7280     4.8760     0.9580 C.3   1 <1>  -0.1600 
 15 O       -5.8280    -1.0350     0.9130 O.3   1 <1>  -0.5600 
 16 C       -4.9340    -3.1020    -0.0770 C.ar  1 <1>  -0.1440 
 17 C       -0.7330     6.3920    -0.2220 C.3   1 <1>  -0.1600 
 18 C        0.7390     6.1300     0.0830 C.3   1 <1>  -0.1600 
 19 C       -7.0630    -1.3500     0.3550 C.3   1 <1>   0.1200 
 20 C       -3.9220    -3.9100    -0.6160 C.ar  1 <1>   0.0820 
 21 C       -6.2070    -3.6540     0.0660 C.ar  1 <1>  -0.1440 
 22 C       -7.3420    -2.8200     0.6220 C.3   1 <1>  -0.0170 
 23 O       -2.6750    -3.3910    -0.7780 O.3   1 <1>  -0.3620 
 24 C       -4.1980    -5.2260    -0.9830 C.ar  1 <1>  -0.1500 
 25 C       -6.4660    -4.9640    -0.2980 C.ar  1 <1>  -0.1500 
 26 C       -1.5500    -4.2070    -1.0280 C.3   1 <1>   0.0400 
 27 C       -5.4630    -5.7510    -0.8220 C.ar  1 <1>  -0.1500 
 28 H       -2.0230     2.5080    -1.0520 H     1 <1>   0.0800 
 29 H       -0.8840     1.2270    -1.3680 H     1 <1>   0.0800 
 30 H       -4.2220     0.3440     2.3260 H     1 <1>   0.0800 
 31 H       -2.5740    -0.1030     2.6600 H     1 <1>   0.0800 
 32 H       -3.6480     1.2850    -1.2090 H     1 <1>   0.0800 
 33 H       -4.8550     1.1420     0.0350 H     1 <1>   0.0800 
 34 H        0.5920     2.3590     0.2240 H     1 <1>   0.4500 
 35 H       -4.0120    -2.1010     2.3400 H     1 <1>   0.0800 
 36 H       -2.7160    -2.0090     1.2040 H     1 <1>   0.0800 
 37 H       -3.3650    -1.1210    -1.2830 H     1 <1>   0.0800 
 38 H       -5.0170    -0.7340    -1.5710 H     1 <1>   0.0800 
 39 H       -0.9600     3.6400     1.3840 H     1 <1>   0.0800 
 40 H        0.0530     3.9100    -2.2550 H     1 <1>   0.0800 
 41 H        0.9820     2.4250    -2.1740 H     1 <1>   0.0800 
 42 H        1.5680     3.8680    -1.3810 H     1 <1>   0.0800 
 43 H       -2.3450     5.0940     0.3400 H     1 <1>   0.0800 
 44 H       -1.6450     4.7150    -1.2110 H     1 <1>   0.0800 
 45 H        1.6590     4.3400     0.9280 H     1 <1>   0.0800 
 46 H        0.5520     5.1820     1.9750 H     1 <1>   0.0800 
 47 H       -1.1480     7.0080     0.5600 H     1 <1>   0.0800 
 48 H       -0.8610     6.9020    -1.1620 H     1 <1>   0.0800 
 49 H        1.2740     5.9490    -0.8320 H     1 <1>   0.0800 
 50 H        1.1960     6.9660     0.5870 H     1 <1>   0.0800 
 51 H       -7.0430    -1.1420    -0.7000 H     1 <1>   0.0800 
 52 H       -7.8060    -0.7320     0.8270 H     1 <1>   0.0800 
 53 H       -8.2710    -3.0930     0.1540 H     1 <1>   0.0800 
 54 H       -7.4330    -2.9850     1.6800 H     1 <1>   0.0800 
 55 H       -3.4430    -5.8620    -1.4020 H     1 <1>   0.1500 
 56 H       -7.4520    -5.3780    -0.1750 H     1 <1>   0.1500 
 57 H       -0.6710    -3.5900    -0.9790 H     1 <1>   0.0800 
 58 H       -1.6400    -4.6350    -2.0110 H     1 <1>   0.0800 
 59 H       -1.5000    -4.9740    -0.2760 H     1 <1>   0.0800 
 60 H       -5.6680    -6.7690    -1.1060 H     1 <1>   0.1500 
@<TRIPOS>BOND
  1   1   2  2   
  2   2   3  am  
  3   2   4  1   
  4   3   5  1   
  5   3   6  1   
  6   4   7  1   
  7   4  28  1   
  8   4  29  1   
  9   5   8  1   
 10   5  30  1   
 11   5  31  1   
 12   6   9  1   
 13   6  32  1   
 14   6  33  1   
 15   7  10  1   
 16   7  11  1   
 17   7  34  1   
 18   8  12  1   
 19   8  35  1   
 20   8  36  1   
 21   9  12  1   
 22   9  37  1   
 23   9  38  1   
 24  10  13  1   
 25  10  14  1   
 26  10  39  1   
 27  11  40  1   
 28  11  41  1   
 29  11  42  1   
 30  12  15  1   
 31  12  16  1   
 32  13  17  1   
 33  13  43  1   
 34  13  44  1   
 35  14  18  1   
 36  14  45  1   
 37  14  46  1   
 38  15  19  1   
 39  16  20  ar  
 40  16  21  ar  
 41  17  18  1   
 42  17  47  1   
 43  17  48  1   
 44  18  49  1   
 45  18  50  1   
 46  19  22  1   
 47  19  51  1   
 48  19  52  1   
 49  20  23  1   
 50  20  24  ar  
 51  21  22  1   
 52  21  25  ar  
 53  22  53  1   
 54  22  54  1   
 55  23  26  1   
 56  24  27  ar  
 57  24  55  1   
 58  25  27  ar  
 59  25  56  1   
 60  26  57  1   
 61  26  58  1   
 62  26  59  1   
 63  27  60  1   
@<TRIPOS>SUBSTRUCTURE
  1 ****   3 GROUP 4 **** **** 0

# MOE 2024.06 (io_trps.svl 2023.06)
