@<TRIPOS>MOLECULE
NONAME
49 52 1 0 0 
SMALL
USER_CHARGES


@<TRIPOS>ATOM
  1 O       -2.4600    -1.8580    -1.5940 O.2   1 <1>  -0.5700 
  2 C       -1.3130    -2.0050    -1.2300 C.2   1 <1>   0.7800 
  3 O       -0.7290    -1.1690    -0.3860 O.3   1 <1>  -0.4300 
  4 N       -0.4970    -3.0230    -1.5710 N.am  1 <1>  -0.6600 
  5 C        0.5760    -1.6120    -0.0610 C.3   1 <1>   0.1200 
  6 C        0.7630    -2.9250    -0.8330 C.3   1 <1>   0.1400 
  7 C       -0.9030    -4.2630    -2.3000 C.3   1 <1>   0.2010 
  8 C       -0.9580    -5.5050    -1.4040 C.2   1 <1>   0.5690 
  9 O       -0.0720    -6.3220    -1.5180 O.2   1 <1>  -0.5700 
 10 N       -1.9700    -5.6780    -0.4980 N.am  1 <1>  -0.6600 
 11 C       -3.0900    -4.7380    -0.2590 C.3   1 <1>   0.1400 
 12 C       -2.1200    -6.8960     0.3190 C.3   1 <1>   0.1400 
 13 C       -4.1180    -5.5160     0.5760 C.3   1 <1>  -0.0800 
 14 C       -3.6090    -6.9720     0.6580 C.3   1 <1>  -0.0800 
 15 C       -5.5940    -5.3440     0.1290 C.3   1 <1>   0.4240 
 16 C       -4.3740    -7.9150    -0.2870 C.3   1 <1>  -0.1600 
 17 O       -5.6770    -5.3630    -1.2520 O.3   1 <1>  -0.6800 
 18 C       -6.1390    -3.9890     0.6240 C.ar  1 <1>  -0.1440 
 19 C       -6.4030    -6.5720     0.5860 C.3   1 <1>  -0.1600 
 20 C       -5.8910    -7.9060    -0.0070 C.3   1 <1>  -0.1600 
 21 C       -6.9070    -3.8760     1.7810 C.ar  1 <1>  -0.1500 
 22 C       -5.8410    -2.8220    -0.0740 C.ar  1 <1>  -0.1500 
 23 C       -7.3610    -2.6430     2.2190 C.ar  1 <1>  -0.1500 
 24 C       -6.2890    -1.5880     0.3640 C.ar  1 <1>  -0.1500 
 25 C       -7.0520    -1.4970     1.5120 C.ar  1 <1>  -0.1500 
 26 H        1.2820    -0.8640    -0.3740 H     1 <1>   0.0800 
 27 H        0.6370    -1.7630     1.0020 H     1 <1>   0.0800 
 28 H        0.8820    -3.7580    -0.1610 H     1 <1>   0.0800 
 29 H        1.6000    -2.8710    -1.5070 H     1 <1>   0.0800 
 30 H       -1.8670    -4.1160    -2.7520 H     1 <1>   0.0800 
 31 H       -0.1980    -4.4450    -3.0910 H     1 <1>   0.0800 
 32 H       -2.7430    -3.8800     0.2910 H     1 <1>   0.0800 
 33 H       -3.4890    -4.4040    -1.1990 H     1 <1>   0.0800 
 34 H       -1.7790    -7.7670    -0.2170 H     1 <1>   0.0800 
 35 H       -1.5380    -6.7830     1.2170 H     1 <1>   0.0800 
 36 H       -4.0540    -5.1210     1.5750 H     1 <1>   0.0800 
 37 H       -3.7220    -7.3470     1.6610 H     1 <1>   0.0800 
 38 H       -4.1890    -7.6140    -1.3050 H     1 <1>   0.0800 
 39 H       -3.9990    -8.9200    -0.1850 H     1 <1>   0.0800 
 40 H       -5.4170    -6.2520    -1.5480 H     1 <1>   0.4000 
 41 H       -6.3290    -6.6440     1.6560 H     1 <1>   0.0800 
 42 H       -7.4430    -6.4330     0.3460 H     1 <1>   0.0800 
 43 H       -6.1310    -8.6980     0.6830 H     1 <1>   0.0800 
 44 H       -6.4140    -8.1190    -0.9240 H     1 <1>   0.0800 
 45 H       -7.1660    -4.7380     2.3650 H     1 <1>   0.1500 
 46 H       -5.2500    -2.8610    -0.9730 H     1 <1>   0.1500 
 47 H       -7.9550    -2.5760     3.1140 H     1 <1>   0.1500 
 48 H       -6.0390    -0.7030    -0.1950 H     1 <1>   0.1500 
 49 H       -7.4020    -0.5380     1.8520 H     1 <1>   0.1500 
@<TRIPOS>BOND
  1   1   2  2   
  2   2   3  1   
  3   2   4  am  
  4   3   5  1   
  5   4   6  1   
  6   4   7  1   
  7   5   6  1   
  8   5  26  1   
  9   5  27  1   
 10   6  28  1   
 11   6  29  1   
 12   7   8  1   
 13   7  30  1   
 14   7  31  1   
 15   8   9  2   
 16   8  10  am  
 17  10  11  1   
 18  10  12  1   
 19  11  13  1   
 20  11  32  1   
 21  11  33  1   
 22  12  14  1   
 23  12  34  1   
 24  12  35  1   
 25  13  14  1   
 26  13  15  1   
 27  13  36  1   
 28  14  16  1   
 29  14  37  1   
 30  15  17  1   
 31  15  18  1   
 32  15  19  1   
 33  16  20  1   
 34  16  38  1   
 35  16  39  1   
 36  17  40  1   
 37  18  21  ar  
 38  18  22  ar  
 39  19  20  1   
 40  19  41  1   
 41  19  42  1   
 42  20  43  1   
 43  20  44  1   
 44  21  23  ar  
 45  21  45  1   
 46  22  24  ar  
 47  22  46  1   
 48  23  25  ar  
 49  23  47  1   
 50  24  25  ar  
 51  24  48  1   
 52  25  49  1   
@<TRIPOS>SUBSTRUCTURE
  1 ****  11 GROUP 4 **** **** 0

# MOE 2024.06 (io_trps.svl 2023.06)
