@<TRIPOS>MOLECULE
NONAME
45 47 1 0 0 
SMALL
USER_CHARGES


@<TRIPOS>ATOM
  1 O        2.6300    -0.2940     2.7020 O.2   1 <1>  -0.5700 
  2 C        1.9580    -0.8560     1.8700 C.2   1 <1>   0.5690 
  3 N        1.6270    -0.3300     0.6550 N.am  1 <1>  -0.5470 
  4 C        1.4290    -2.2610     2.1750 C.3   1 <1>   0.1710 
  5 C        1.9170     0.8890     0.0230 C.ar  1 <1>   0.1170 
  6 N        0.2970    -2.6970     1.2960 N.3   1 <1>  -0.8100 
  7 C        2.8940     1.7690     0.4790 C.ar  1 <1>  -0.1500 
  8 C        1.2000     1.2320    -1.1180 C.ar  1 <1>  -0.1500 
  9 C        0.1240    -4.1560     1.3780 C.3   1 <1>   0.2900 
 10 C       -0.9530    -2.0100     1.6880 C.3   1 <1>   0.0300 
 11 C        3.1420     2.9560    -0.1870 C.ar  1 <1>  -0.1500 
 12 C        1.4440     2.4180    -1.7880 C.ar  1 <1>  -0.1500 
 13 C       -0.8330    -4.6030     0.2970 C.2   1 <1>  -0.3320 
 14 C        2.4230     3.2910    -1.3220 C.ar  1 <1>   0.0830 
 15 N       -0.7040    -4.2130    -0.9850 N.pl3 1 <1>   0.3000 
 16 C       -1.9230    -5.3990     0.3480 C.2   1 <1>  -0.1500 
 17 O        2.7290     4.4750    -1.9150 O.3   1 <1>  -0.3630 
 18 N       -1.6710    -4.7290    -1.7660 N.2   1 <1>  -0.7070 
 19 C       -2.3970    -5.4410    -0.9590 C.2   1 <1>   0.2030 
 20 C        2.0410     4.9100    -3.0660 C.3   1 <1>   0.0400 
 21 C       -3.6200    -6.2160    -1.4160 C.3   1 <1>  -0.0140 
 22 C       -3.9070    -7.5910    -0.8920 C.3   1 <1>  -0.2000 
 23 C       -3.4490    -7.4090    -2.3050 C.3   1 <1>  -0.2000 
 24 H        0.9860    -0.9530     0.1550 H     1 <1>   0.3700 
 25 H        1.1320    -2.3000     3.2080 H     1 <1>   0.0800 
 26 H        2.2600    -2.9320     2.0480 H     1 <1>   0.0800 
 27 H        3.4690     1.5330     1.3550 H     1 <1>   0.1500 
 28 H        0.4420     0.5670    -1.4860 H     1 <1>   0.1500 
 29 H       -0.2460    -4.4410     2.3490 H     1 <1>   0.0800 
 30 H        1.0710    -4.6450     1.2170 H     1 <1>   0.0800 
 31 H       -0.8270    -0.9410     1.6550 H     1 <1>   0.0800 
 32 H       -1.2420    -2.2900     2.6870 H     1 <1>   0.0800 
 33 H       -1.7520    -2.2700     1.0140 H     1 <1>   0.0800 
 34 H        3.8980     3.6320     0.1720 H     1 <1>   0.1500 
 35 H        0.8680     2.6440    -2.6640 H     1 <1>   0.1500 
 36 H        0.0240    -3.5810    -1.3390 H     1 <1>   0.2700 
 37 H       -2.3600    -5.9050     1.1890 H     1 <1>   0.1500 
 38 H        2.4430     5.8660    -3.3530 H     1 <1>   0.0800 
 39 H        0.9960     5.0090    -2.8320 H     1 <1>   0.0800 
 40 H        2.1960     4.1970    -3.8560 H     1 <1>   0.0800 
 41 H       -4.4510    -5.5660    -1.6260 H     1 <1>   0.1000 
 42 H       -4.9310    -7.8680    -0.7090 H     1 <1>   0.1000 
 43 H       -3.2250    -8.0400    -0.1920 H     1 <1>   0.1000 
 44 H       -2.4460    -7.6870    -2.5780 H     1 <1>   0.1000 
 45 H       -4.1490    -7.5450    -3.1110 H     1 <1>   0.1000 
@<TRIPOS>BOND
  1   1   2  2   
  2   2   3  am  
  3   2   4  1   
  4   3   5  1   
  5   3  24  1   
  6   4   6  1   
  7   4  25  1   
  8   4  26  1   
  9   5   7  ar  
 10   5   8  ar  
 11   6   9  1   
 12   6  10  1   
 13   7  11  ar  
 14   7  27  1   
 15   8  12  ar  
 16   8  28  1   
 17   9  13  1   
 18   9  29  1   
 19   9  30  1   
 20  10  31  1   
 21  10  32  1   
 22  10  33  1   
 23  11  14  ar  
 24  11  34  1   
 25  12  14  ar  
 26  12  35  1   
 27  13  15  1   
 28  13  16  2   
 29  14  17  1   
 30  15  18  1   
 31  15  36  1   
 32  16  19  1   
 33  16  37  1   
 34  17  20  1   
 35  18  19  2   
 36  19  21  1   
 37  20  38  1   
 38  20  39  1   
 39  20  40  1   
 40  21  22  1   
 41  21  23  1   
 42  21  41  1   
 43  22  23  1   
 44  22  42  1   
 45  22  43  1   
 46  23  44  1   
 47  23  45  1   
@<TRIPOS>SUBSTRUCTURE
  1 ****   6 GROUP 4 **** **** 0

# MOE 2024.06 (io_trps.svl 2023.06)
