@<TRIPOS>MOLECULE
NONAME
40 41 1 0 0 
SMALL
USER_CHARGES


@<TRIPOS>ATOM
  1 O        0.2330     1.3050    -1.8580 O.3   1 <1>  -0.0190 
  2 N        1.4350     1.7750    -1.6990 N.2   1 <1>  -0.4100 
  3 C       -0.3190     1.4500    -0.6800 C.2   1 <1>   0.3280 
  4 C        1.5340     2.1510    -0.4880 C.2   1 <1>   0.3350 
  5 N        0.4220     1.9750     0.2160 N.2   1 <1>  -0.5650 
  6 C        2.7930     2.7720     0.1200 C.3   1 <1>   0.5240 
  7 N        2.7800     4.2810     0.0630 N.4   1 <1>  -0.9590 
  8 C        4.1160     4.8420     0.4100 C.3   1 <1>   0.3430 
  9 C        1.6760     4.8340     0.9180 C.3   1 <1>   0.2630 
 10 C        4.1990     6.3100    -0.0020 C.3   1 <1>  -0.1600 
 11 C        5.6000     6.8680     0.2520 C.3   1 <1>   0.1200 
 12 O        5.5860     8.2160    -0.1420 O.3   1 <1>  -0.3630 
 13 C        6.6970     8.9900    -0.0320 C.ar  1 <1>   0.0830 
 14 C        7.9160     8.5340     0.4630 C.ar  1 <1>  -0.1500 
 15 C        6.5790    10.3070    -0.4460 C.ar  1 <1>  -0.1500 
 16 C        8.9950     9.3970     0.5370 C.ar  1 <1>  -0.1500 
 17 C        7.6590    11.1700    -0.3720 C.ar  1 <1>  -0.1500 
 18 C        8.8780    10.7140     0.1230 C.ar  1 <1>   0.0830 
 19 O        9.9890    11.4890     0.2330 O.3   1 <1>  -0.3620 
 20 C        9.9720    12.8430    -0.1620 C.3   1 <1>   0.0400 
 21 H       -1.3380     1.1240    -0.5520 H     1 <1>   0.1500 
 22 H        3.6400     2.3980    -0.4310 H     1 <1>   0.0800 
 23 H        2.8830     2.4400     1.1400 H     1 <1>   0.0800 
 24 H        2.5710     4.5240    -0.9180 H     1 <1>   0.4500 
 25 H        4.8850     4.2950    -0.1130 H     1 <1>   0.0800 
 26 H        4.2950     4.7480     1.4700 H     1 <1>   0.0800 
 27 H        1.8390     4.5860     1.9540 H     1 <1>   0.0800 
 28 H        0.7240     4.4270     0.6150 H     1 <1>   0.0800 
 29 H        1.6260     5.9070     0.8240 H     1 <1>   0.0800 
 30 H        3.5010     6.8980     0.5660 H     1 <1>   0.0800 
 31 H        3.9820     6.4070    -1.0510 H     1 <1>   0.0800 
 32 H        6.3400     6.3540    -0.3380 H     1 <1>   0.0800 
 33 H        5.8550     6.8260     1.2980 H     1 <1>   0.0800 
 34 H        8.0520     7.5230     0.7940 H     1 <1>   0.1500 
 35 H        5.6360    10.6550    -0.8280 H     1 <1>   0.1500 
 36 H        9.9410     9.0560     0.9180 H     1 <1>   0.1500 
 37 H        7.5320    12.1830    -0.7010 H     1 <1>   0.1500 
 38 H       10.9500    13.2530     0.0120 H     1 <1>   0.0800 
 39 H        9.2440    13.3690     0.4290 H     1 <1>   0.0800 
 40 H        9.7330    12.8980    -1.2090 H     1 <1>   0.0800 
@<TRIPOS>BOND
  1   1   2  1   
  2   1   3  1   
  3   2   4  2   
  4   3   5  2   
  5   3  21  1   
  6   4   5  1   
  7   4   6  1   
  8   6   7  1   
  9   6  22  1   
 10   6  23  1   
 11   7   8  1   
 12   7   9  1   
 13   7  24  1   
 14   8  10  1   
 15   8  25  1   
 16   8  26  1   
 17   9  27  1   
 18   9  28  1   
 19   9  29  1   
 20  10  11  1   
 21  10  30  1   
 22  10  31  1   
 23  11  12  1   
 24  11  32  1   
 25  11  33  1   
 26  12  13  1   
 27  13  14  ar  
 28  13  15  ar  
 29  14  16  ar  
 30  14  34  1   
 31  15  17  ar  
 32  15  35  1   
 33  16  18  ar  
 34  16  36  1   
 35  17  18  ar  
 36  17  37  1   
 37  18  19  1   
 38  19  20  1   
 39  20  38  1   
 40  20  39  1   
 41  20  40  1   
@<TRIPOS>SUBSTRUCTURE
  1 ****  10 GROUP 4 **** **** 0

# MOE 2024.06 (io_trps.svl 2023.06)
