@<TRIPOS>MOLECULE
NONAME
45 46 1 0 0 
SMALL
USER_CHARGES


@<TRIPOS>ATOM
  1 S       -0.5840     0.1560     2.0410 S.o2  1 <1>   1.5000 
  2 O       -1.2230     1.1940     2.8120 O.2   1 <1>  -0.6500 
  3 O       -0.4570    -1.1620     2.6180 O.2   1 <1>  -0.6500 
  4 N       -1.5550     0.0240     0.6730 N.am  1 <1>  -0.9140 
  5 C        1.0200     0.7260     1.4280 C.2   1 <1>  -0.0220 
  6 C       -1.5780    -1.2140    -0.1120 C.3   1 <1>   0.2760 
  7 S        1.0510     1.8040     0.0330 S.3   1 <1>  -0.0800 
  8 C        2.2850     0.5030     1.8420 C.2   1 <1>  -0.1500 
  9 C       -2.3240    -2.3670     0.5670 C.3   1 <1>  -0.0800 
 10 C       -0.2190    -1.8110    -0.4970 C.3   1 <1>   0.1200 
 11 C        2.8030     1.9020     0.0570 C.2   1 <1>  -0.1400 
 12 C        3.2920     1.1620     1.0680 C.2   1 <1>  -0.1500 
 13 C       -1.2790    -3.4880     0.5720 C.3   1 <1>   0.1200 
 14 C       -3.5760    -2.7620    -0.2410 C.3   1 <1>  -0.0550 
 15 O       -0.4240    -3.1860    -0.4800 O.3   1 <1>  -0.5600 
 16 C        3.4460     2.7660    -1.0140 C.3   1 <1>   0.0200 
 17 S       -4.6880    -3.8560     0.6430 S.o2  1 <1>   1.3330 
 18 C        4.9730     2.7780    -0.9080 C.3   1 <1>  -0.2400 
 19 O       -5.2160    -3.1100     1.7630 O.2   1 <1>  -0.6500 
 20 O       -4.0540    -5.1360     0.8650 O.2   1 <1>  -0.6500 
 21 N       -5.9410    -4.0850    -0.4780 N.am  1 <1>  -0.8490 
 22 C       -5.6570    -5.1380    -1.4600 C.3   1 <1>   0.1160 
 23 C       -7.2270    -4.3520     0.1750 C.3   1 <1>   0.1160 
 24 H       -2.4890     0.2180     1.0260 H     1 <1>   0.4200 
 25 H       -2.0750    -0.9800    -1.0380 H     1 <1>   0.0800 
 26 H        2.5570    -0.1150     2.6810 H     1 <1>   0.1500 
 27 H       -2.6100    -2.1300     1.5770 H     1 <1>   0.0800 
 28 H        0.5580    -1.5980     0.2120 H     1 <1>   0.0800 
 29 H        0.0880    -1.5190    -1.4860 H     1 <1>   0.0800 
 30 H        4.3340     1.0460     1.3140 H     1 <1>   0.1500 
 31 H       -1.6880    -4.4720     0.4200 H     1 <1>   0.0800 
 32 H       -0.7040    -3.4780     1.4830 H     1 <1>   0.0800 
 33 H       -3.2710    -3.2210    -1.1610 H     1 <1>   0.0800 
 34 H       -4.1230    -1.8730    -0.4850 H     1 <1>   0.0800 
 35 H        3.1590     2.3940    -1.9830 H     1 <1>   0.0800 
 36 H        3.0740     3.7720    -0.9210 H     1 <1>   0.0800 
 37 H        5.3620     1.7820    -1.0200 H     1 <1>   0.0800 
 38 H        5.2770     3.1680     0.0470 H     1 <1>   0.0800 
 39 H        5.3900     3.3990    -1.6810 H     1 <1>   0.0800 
 40 H       -6.4390    -5.1760    -2.1990 H     1 <1>   0.0800 
 41 H       -5.5870    -6.0990    -0.9750 H     1 <1>   0.0800 
 42 H       -4.7260    -4.9390    -1.9620 H     1 <1>   0.0800 
 43 H       -8.0020    -4.4770    -0.5620 H     1 <1>   0.0800 
 44 H       -7.4980    -3.5240     0.8090 H     1 <1>   0.0800 
 45 H       -7.1630    -5.2430     0.7780 H     1 <1>   0.0800 
@<TRIPOS>BOND
  1   1   2  2   
  2   1   3  2   
  3   1   4  am  
  4   1   5  1   
  5   4   6  1   
  6   4  24  1   
  7   5   7  1   
  8   5   8  2   
  9   6   9  1   
 10   6  10  1   
 11   6  25  1   
 12   7  11  1   
 13   8  12  1   
 14   8  26  1   
 15   9  13  1   
 16   9  14  1   
 17   9  27  1   
 18  10  15  1   
 19  10  28  1   
 20  10  29  1   
 21  11  12  2   
 22  11  16  1   
 23  12  30  1   
 24  13  15  1   
 25  13  31  1   
 26  13  32  1   
 27  14  17  1   
 28  14  33  1   
 29  14  34  1   
 30  16  18  1   
 31  16  35  1   
 32  16  36  1   
 33  17  19  2   
 34  17  20  2   
 35  17  21  am  
 36  18  37  1   
 37  18  38  1   
 38  18  39  1   
 39  21  22  1   
 40  21  23  1   
 41  22  40  1   
 42  22  41  1   
 43  22  42  1   
 44  23  43  1   
 45  23  44  1   
 46  23  45  1   
@<TRIPOS>SUBSTRUCTURE
  1 ****   6 GROUP 4 **** **** 0

# MOE 2024.06 (io_trps.svl 2023.06)
