@<TRIPOS>MOLECULE
NONAME
61 63 1 0 0 
SMALL
USER_CHARGES


@<TRIPOS>ATOM
  1 O       -0.4380     0.2110     0.2470 O.2   1 <1>  -0.5700 
  2 C       -1.3580     0.9120    -0.1310 C.2   1 <1>   0.5440 
  3 N       -2.5440     0.3060    -0.4890 N.am  1 <1>  -0.6600 
  4 C       -1.1880     2.3510    -0.1740 C.ar  1 <1>   0.0860 
  5 C       -3.8800     0.9700    -0.3760 C.3   1 <1>   0.1400 
  6 C       -2.6490    -1.1700    -0.7060 C.3   1 <1>   0.1400 
  7 C       -0.5540     3.0320     0.8660 C.ar  1 <1>  -0.1500 
  8 C       -1.6390     3.1170    -1.2500 C.ar  1 <1>  -0.1500 
  9 C       -4.7920     0.2130     0.6160 C.3   1 <1>   0.2950 
 10 C       -3.6250    -1.8080     0.3040 C.3   1 <1>   0.2000 
 11 C       -0.4000     4.4050     0.8420 C.ar  1 <1>  -0.1500 
 12 C       -1.4880     4.4900    -1.2750 C.ar  1 <1>  -0.1500 
 13 O       -4.8550    -1.1410     0.2670 O.3   1 <1>  -0.5600 
 14 C       -6.2420     0.7250     0.6790 C.3   1 <1>  -0.1950 
 15 C       -3.9170    -3.2860     0.0120 C.3   1 <1>  -0.1600 
 16 C       -0.8690     5.1610    -0.2250 C.ar  1 <1>   0.1170 
 17 C       -7.0530     1.0880    -0.5280 C.3   1 <1>  -0.2000 
 18 C       -6.6300     2.1550     0.4440 C.3   1 <1>  -0.2000 
 19 C       -2.6790    -4.1860     0.1620 C.3   1 <1>  -0.1600 
 20 N       -0.6900     6.5470    -0.1940 N.am  1 <1>  -0.5470 
 21 C       -3.0440    -5.6600    -0.0450 C.3   1 <1>  -0.1600 
 22 C       -1.1030     7.5710    -0.9990 C.2   1 <1>   0.5690 
 23 C       -1.8130    -6.5580     0.1020 C.3   1 <1>  -0.2400 
 24 O       -1.7760     7.4330    -1.9920 O.2   1 <1>  -0.5700 
 25 C       -0.6740     8.9770    -0.5730 C.3   1 <1>   0.1710 
 26 N        0.4760     8.9930     0.3850 N.3   1 <1>  -0.8100 
 27 C        0.5430    10.2770     1.0920 C.3   1 <1>   0.0300 
 28 C        1.7470     8.7370    -0.3110 C.3   1 <1>   0.0300 
 29 H       -3.7680     1.9820    -0.0330 H     1 <1>   0.0800 
 30 H       -4.3410     0.9920    -1.3460 H     1 <1>   0.0800 
 31 H       -3.0020    -1.3530    -1.7050 H     1 <1>   0.0800 
 32 H       -1.6820    -1.6310    -0.6130 H     1 <1>   0.0800 
 33 H       -0.1780     2.4630     1.6990 H     1 <1>   0.1500 
 34 H       -2.1120     2.6220    -2.0800 H     1 <1>   0.1500 
 35 H       -4.3650     0.2830     1.6010 H     1 <1>   0.0800 
 36 H       -3.2230    -1.7170     1.2990 H     1 <1>   0.0800 
 37 H        0.0910     4.8960     1.6630 H     1 <1>   0.1500 
 38 H       -1.8530     5.0390    -2.1240 H     1 <1>   0.1500 
 39 H       -6.7730     0.2210     1.4680 H     1 <1>   0.1000 
 40 H       -4.6720    -3.6190     0.7020 H     1 <1>   0.0800 
 41 H       -4.3100    -3.3770    -0.9860 H     1 <1>   0.0800 
 42 H       -6.5970     1.0520    -1.5020 H     1 <1>   0.1000 
 43 H       -8.0850     0.7830    -0.5530 H     1 <1>   0.1000 
 44 H       -7.3800     2.5940     1.0800 H     1 <1>   0.1000 
 45 H       -5.9080     2.8800     0.1110 H     1 <1>   0.1000 
 46 H       -1.9300    -3.9070    -0.5600 H     1 <1>   0.0800 
 47 H       -2.2600    -4.0570     1.1460 H     1 <1>   0.0800 
 48 H       -0.1070     6.9160     0.5660 H     1 <1>   0.3700 
 49 H       -3.7850    -5.9550     0.6790 H     1 <1>   0.0800 
 50 H       -3.4660    -5.7950    -1.0270 H     1 <1>   0.0800 
 51 H       -1.3870    -6.4560     1.0840 H     1 <1>   0.0800 
 52 H       -1.0670    -6.2970    -0.6280 H     1 <1>   0.0800 
 53 H       -2.0880    -7.5870    -0.0450 H     1 <1>   0.0800 
 54 H       -1.5300     9.4330    -0.1090 H     1 <1>   0.0800 
 55 H       -0.4330     9.5510    -1.4510 H     1 <1>   0.0800 
 56 H        1.3620    10.2690     1.7910 H     1 <1>   0.0800 
 57 H       -0.3680    10.4420     1.6420 H     1 <1>   0.0800 
 58 H        0.6850    11.0870     0.3960 H     1 <1>   0.0800 
 59 H        2.5560     8.7140     0.4000 H     1 <1>   0.0800 
 60 H        1.9440     9.5090    -1.0350 H     1 <1>   0.0800 
 61 H        1.7160     7.7870    -0.8170 H     1 <1>   0.0800 
@<TRIPOS>BOND
  1   1   2  2   
  2   2   3  am  
  3   2   4  1   
  4   3   5  1   
  5   3   6  1   
  6   4   7  ar  
  7   4   8  ar  
  8   5   9  1   
  9   5  29  1   
 10   5  30  1   
 11   6  10  1   
 12   6  31  1   
 13   6  32  1   
 14   7  11  ar  
 15   7  33  1   
 16   8  12  ar  
 17   8  34  1   
 18   9  13  1   
 19   9  14  1   
 20   9  35  1   
 21  10  13  1   
 22  10  15  1   
 23  10  36  1   
 24  11  16  ar  
 25  11  37  1   
 26  12  16  ar  
 27  12  38  1   
 28  14  17  1   
 29  14  18  1   
 30  14  39  1   
 31  15  19  1   
 32  15  40  1   
 33  15  41  1   
 34  16  20  1   
 35  17  18  1   
 36  17  42  1   
 37  17  43  1   
 38  18  44  1   
 39  18  45  1   
 40  19  21  1   
 41  19  46  1   
 42  19  47  1   
 43  20  22  am  
 44  20  48  1   
 45  21  23  1   
 46  21  49  1   
 47  21  50  1   
 48  22  24  2   
 49  22  25  1   
 50  23  51  1   
 51  23  52  1   
 52  23  53  1   
 53  25  26  1   
 54  25  54  1   
 55  25  55  1   
 56  26  27  1   
 57  26  28  1   
 58  27  56  1   
 59  27  57  1   
 60  27  58  1   
 61  28  59  1   
 62  28  60  1   
 63  28  61  1   
@<TRIPOS>SUBSTRUCTURE
  1 ****   4 GROUP 4 **** **** 0

# MOE 2024.06 (io_trps.svl 2023.06)
