@<TRIPOS>MOLECULE
NONAME
44 47 1 0 0 
SMALL
USER_CHARGES


@<TRIPOS>ATOM
  1 CL      -0.1320    -0.5860    -0.9100 Cl    1 <1>  -0.1770 
  2 C       -1.6960    -1.2400    -0.5250 C.ar  1 <1>   0.1770 
  3 C       -1.9860    -2.5400    -0.8360 C.ar  1 <1>  -0.1500 
  4 C       -2.6260    -0.4330     0.1190 C.ar  1 <1>  -0.1500 
  5 C       -3.2450    -3.0670    -0.5200 C.ar  1 <1>   0.3610 
  6 C       -3.8700    -0.9370     0.4040 C.ar  1 <1>  -0.1500 
  7 N       -3.4910    -4.4100    -0.6930 N.ar  1 <1>  -0.1790 
  8 C       -4.2540    -2.2440     0.0320 C.ar  1 <1>   0.0000 
  9 C       -4.6640    -4.9640    -0.3420 C.ar  1 <1>   0.2110 
 10 C       -5.5690    -2.7910     0.2340 C.ar  1 <1>   0.1000 
 11 C       -5.6850    -4.1810     0.1220 C.ar  1 <1>  -0.1500 
 12 N       -6.6820    -2.0360     0.4610 N.pl3 1 <1>  -0.8380 
 13 C       -7.9250    -2.5230     1.1560 C.3   1 <1>   0.2090 
 14 C       -6.8750    -0.6520    -0.0970 C.3   1 <1>   0.2090 
 15 C       -9.1070    -2.7100     0.1690 C.3   1 <1>   0.0000 
 16 C       -8.3160    -0.3910    -0.5680 C.3   1 <1>  -0.1600 
 17 C      -10.4400    -2.6550     0.9450 C.3   1 <1>   0.2000 
 18 C       -9.0310    -1.6800    -0.9990 C.3   1 <1>  -0.1600 
 19 C       -9.1870    -4.1280    -0.4220 C.3   1 <1>  -0.1600 
 20 O      -10.8760    -1.3640     1.1730 O.3   1 <1>  -0.6800 
 21 C      -11.4660    -3.4250     0.1120 C.3   1 <1>  -0.1600 
 22 C      -10.6500    -4.3110    -0.8380 C.3   1 <1>  -0.1600 
 23 H       -1.2320    -3.1420    -1.3080 H     1 <1>   0.1500 
 24 H       -2.3500     0.5730     0.3890 H     1 <1>   0.1500 
 25 H       -4.5610    -0.3170     0.9420 H     1 <1>   0.1500 
 26 H       -2.7350    -4.9900    -1.0650 H     1 <1>   0.4570 
 27 H       -4.7910    -6.0300    -0.4440 H     1 <1>   0.1500 
 28 H       -6.6120    -4.6570     0.3670 H     1 <1>   0.1500 
 29 H       -7.7350    -3.4250     1.7080 H     1 <1>   0.0800 
 30 H       -8.2010    -1.7770     1.8830 H     1 <1>   0.0800 
 31 H       -6.6290     0.0790     0.6530 H     1 <1>   0.0800 
 32 H       -6.2130    -0.5180    -0.9360 H     1 <1>   0.0800 
 33 H       -8.8590     0.0770     0.2340 H     1 <1>   0.0800 
 34 H       -8.2960     0.3100    -1.3840 H     1 <1>   0.0800 
 35 H      -10.3310    -3.1370     1.9030 H     1 <1>   0.0800 
 36 H       -8.4600    -2.0970    -1.8100 H     1 <1>   0.0800 
 37 H      -10.0080    -1.4550    -1.3880 H     1 <1>   0.0800 
 38 H       -8.5120    -4.2810    -1.2460 H     1 <1>   0.0800 
 39 H       -8.9670    -4.8530     0.3430 H     1 <1>   0.0800 
 40 H      -10.9840    -0.9030     0.3210 H     1 <1>   0.4000 
 41 H      -12.0810    -4.0270     0.7570 H     1 <1>   0.0800 
 42 H      -12.0930    -2.7600    -0.4570 H     1 <1>   0.0800 
 43 H      -10.9510    -5.3430    -0.7780 H     1 <1>   0.0800 
 44 H      -10.7840    -3.9710    -1.8520 H     1 <1>   0.0800 
@<TRIPOS>BOND
  1   1   2  1   
  2   2   3  ar  
  3   2   4  ar  
  4   3   5  ar  
  5   3  23  1   
  6   4   6  ar  
  7   4  24  1   
  8   5   7  ar  
  9   5   8  ar  
 10   6   8  ar  
 11   6  25  1   
 12   7   9  ar  
 13   7  26  1   
 14   8  10  ar  
 15   9  11  ar  
 16   9  27  1   
 17  10  11  ar  
 18  10  12  1   
 19  11  28  1   
 20  12  13  1   
 21  12  14  1   
 22  13  15  1   
 23  13  29  1   
 24  13  30  1   
 25  14  16  1   
 26  14  31  1   
 27  14  32  1   
 28  15  17  1   
 29  15  18  1   
 30  15  19  1   
 31  16  18  1   
 32  16  33  1   
 33  16  34  1   
 34  17  20  1   
 35  17  21  1   
 36  17  35  1   
 37  18  36  1   
 38  18  37  1   
 39  19  22  1   
 40  19  38  1   
 41  19  39  1   
 42  20  40  1   
 43  21  22  1   
 44  21  41  1   
 45  21  42  1   
 46  22  43  1   
 47  22  44  1   
@<TRIPOS>SUBSTRUCTURE
  1 ****  12 GROUP 4 **** **** 0

# MOE 2024.06 (io_trps.svl 2023.06)
