@<TRIPOS>MOLECULE
NONAME
52 54 1 0 0 
SMALL
USER_CHARGES


@<TRIPOS>ATOM
  1 O        3.5660    -0.2000     1.1140 O.2   1 <1>  -0.5700 
  2 C        2.9270    -0.7240     0.2140 C.2   1 <1>   0.7150 
  3 N        2.9340    -0.0620    -0.9900 N.am  1 <1>  -0.6600 
  4 C        2.2960    -2.0050     0.3770 C.2   1 <1>   0.0550 
  5 C        3.9050    -0.4620    -2.0540 C.3   1 <1>   0.1400 
  6 C        2.3310     1.2910    -1.1290 C.3   1 <1>   0.1400 
  7 O        1.7780    -2.6370    -0.6500 O.3   1 <1>  -0.0190 
  8 C        2.0970    -2.8050     1.4490 C.2   1 <1>  -0.1500 
  9 C        5.3450    -0.0120    -1.7110 C.3   1 <1>   0.3430 
 10 C        3.2780     2.4030    -0.6460 C.3   1 <1>  -0.1600 
 11 N        1.2640    -3.7840    -0.3340 N.2   1 <1>  -0.4100 
 12 C        1.4380    -3.9140     0.9370 C.2   1 <1>   0.1080 
 13 N        5.3630     1.0910    -0.6890 N.4   1 <1>  -0.9590 
 14 C        4.7090     2.3330    -1.1900 C.3   1 <1>   0.3430 
 15 C        0.9820    -5.1140     1.7620 C.3   1 <1>   0.1010 
 16 C        6.7150     1.2890    -0.0850 C.3   1 <1>   0.3430 
 17 C        1.6310    -6.4070     1.2540 C.3   1 <1>  -0.2400 
 18 C       -0.5460    -5.2380     1.7370 C.3   1 <1>  -0.2400 
 19 C        6.6290     1.9780     1.2820 C.3   1 <1>   0.0960 
 20 N        7.9770     2.0110     1.8660 N.pl3 1 <1>   0.0480 
 21 C        8.9560     2.9090     1.7130 C.2   1 <1>   0.0060 
 22 C        8.5480     1.0800     2.6340 C.2   1 <1>   0.0360 
 23 N       10.0270     2.5420     2.3240 N.2   1 <1>  -0.3380 
 24 C        8.8490     4.2030     0.9280 C.3   1 <1>  -0.0600 
 25 N        9.7670     1.3750     2.9120 N.2   1 <1>  -0.3380 
 26 H        3.6070    -0.0290    -2.9940 H     1 <1>   0.0800 
 27 H        3.8860    -1.5320    -2.1800 H     1 <1>   0.0800 
 28 H        1.4180     1.3290    -0.5550 H     1 <1>   0.0800 
 29 H        2.0650     1.4540    -2.1600 H     1 <1>   0.0800 
 30 H        2.3770    -2.6380     2.4740 H     1 <1>   0.1500 
 31 H        5.8560     0.2920    -2.6100 H     1 <1>   0.0800 
 32 H        5.8700    -0.8670    -1.3140 H     1 <1>   0.0800 
 33 H        3.3010     2.4090     0.4290 H     1 <1>   0.0800 
 34 H        2.8520     3.3450    -0.9440 H     1 <1>   0.0800 
 35 H        4.7250     0.7350     0.0580 H     1 <1>   0.4500 
 36 H        5.2530     3.1990    -0.8500 H     1 <1>   0.0800 
 37 H        4.6980     2.3450    -2.2680 H     1 <1>   0.0800 
 38 H        1.2900    -4.9610     2.7820 H     1 <1>   0.0800 
 39 H        7.3340     1.8700    -0.7500 H     1 <1>   0.0800 
 40 H        7.1820     0.3270     0.0560 H     1 <1>   0.0800 
 41 H        1.3360    -6.5990     0.2370 H     1 <1>   0.0800 
 42 H        1.3350    -7.2420     1.8640 H     1 <1>   0.0800 
 43 H        2.7020    -6.3200     1.2870 H     1 <1>   0.0800 
 44 H       -0.8910    -5.4040     0.7310 H     1 <1>   0.0800 
 45 H       -0.9950    -4.3330     2.1050 H     1 <1>   0.0800 
 46 H       -0.8680    -6.0580     2.3540 H     1 <1>   0.0800 
 47 H        5.9840     1.4250     1.9410 H     1 <1>   0.0800 
 48 H        6.2650     2.9850     1.1880 H     1 <1>   0.0800 
 49 H        8.0470     0.1920     2.9740 H     1 <1>   0.1500 
 50 H        8.0700     4.8220     1.3340 H     1 <1>   0.0800 
 51 H        8.6520     4.0020    -0.1090 H     1 <1>   0.0800 
 52 H        9.7770     4.7430     0.9970 H     1 <1>   0.0800 
@<TRIPOS>BOND
  1   1   2  2   
  2   2   3  am  
  3   2   4  1   
  4   3   5  1   
  5   3   6  1   
  6   4   7  1   
  7   4   8  2   
  8   5   9  1   
  9   5  26  1   
 10   5  27  1   
 11   6  10  1   
 12   6  28  1   
 13   6  29  1   
 14   7  11  1   
 15   8  12  1   
 16   8  30  1   
 17   9  13  1   
 18   9  31  1   
 19   9  32  1   
 20  10  14  1   
 21  10  33  1   
 22  10  34  1   
 23  11  12  2   
 24  12  15  1   
 25  13  14  1   
 26  13  16  1   
 27  13  35  1   
 28  14  36  1   
 29  14  37  1   
 30  15  17  1   
 31  15  18  1   
 32  15  38  1   
 33  16  19  1   
 34  16  39  1   
 35  16  40  1   
 36  17  41  1   
 37  17  42  1   
 38  17  43  1   
 39  18  44  1   
 40  18  45  1   
 41  18  46  1   
 42  19  20  1   
 43  19  47  1   
 44  19  48  1   
 45  20  21  1   
 46  20  22  1   
 47  21  23  2   
 48  21  24  1   
 49  22  25  2   
 50  22  49  1   
 51  23  25  1   
 52  24  50  1   
 53  24  51  1   
 54  24  52  1   
@<TRIPOS>SUBSTRUCTURE
  1 ****   1 GROUP 4 **** **** 0

# MOE 2024.06 (io_trps.svl 2023.06)
