@<TRIPOS>MOLECULE
NONAME
47 48 1 0 0 
SMALL
USER_CHARGES


@<TRIPOS>ATOM
  1 O       -0.3170     1.0790     1.9370 O.2   1 <1>  -0.5700 
  2 C       -0.3010     2.2290     1.5780 C.2   1 <1>   0.5690 
  3 N       -1.3730     3.0270     1.7720 N.am  1 <1>  -0.7300 
  4 C        0.9260     2.7900     0.8570 C.3   1 <1>   0.1810 
  5 C       -1.4370     4.4440     1.3360 C.3   1 <1>   0.3640 
  6 O        0.9590     4.2010     0.8400 O.3   1 <1>  -0.5600 
  7 C       -2.7670     4.6630     0.6150 C.ar  1 <1>  -0.1440 
  8 C       -0.2450     4.8240     0.4140 C.3   1 <1>   0.2610 
  9 C       -3.2370     3.7570    -0.3280 C.ar  1 <1>  -0.1500 
 10 C       -3.5240     5.7930     0.8940 C.ar  1 <1>  -0.1500 
 11 C       -0.0600     6.3520     0.3060 C.2   1 <1>   0.5690 
 12 C       -4.4400     3.9760    -0.9770 C.ar  1 <1>  -0.1500 
 13 C       -4.7260     6.0130     0.2460 C.ar  1 <1>  -0.1500 
 14 O       -0.6340     7.0580     1.1090 O.2   1 <1>  -0.5700 
 15 N        0.7300     6.9150    -0.6770 N.am  1 <1>  -0.6600 
 16 C       -5.1850     5.1050    -0.6900 C.ar  1 <1>  -0.1500 
 17 C        0.8250     8.3980    -0.8010 C.3   1 <1>   0.1400 
 18 C        1.4730     6.1360    -1.7090 C.3   1 <1>   0.1400 
 19 C        1.7640     8.9760     0.2640 C.3   1 <1>  -0.1600 
 20 C        2.9450     6.0160    -1.3260 C.3   1 <1>  -0.2400 
 21 C        1.8950    10.4990     0.1200 C.3   1 <1>  -0.1600 
 22 C        2.7900    11.0760     1.2150 C.3   1 <1>   0.1200 
 23 O        2.8790    12.4420     1.0280 O.3   1 <1>  -0.6800 
 24 H       -2.1960     2.6490     2.2410 H     1 <1>   0.3700 
 25 H        0.9380     2.4380    -0.1570 H     1 <1>   0.0800 
 26 H        1.8160     2.4490     1.3540 H     1 <1>   0.0800 
 27 H       -1.4070     5.0550     2.2220 H     1 <1>   0.0800 
 28 H       -0.4680     4.4530    -0.5670 H     1 <1>   0.0800 
 29 H       -2.6730     2.8700    -0.5630 H     1 <1>   0.1500 
 30 H       -3.1780     6.5140     1.6160 H     1 <1>   0.1500 
 31 H       -4.7970     3.2670    -1.7040 H     1 <1>   0.1500 
 32 H       -5.3030     6.8940     0.4700 H     1 <1>   0.1500 
 33 H       -6.1210     5.2770    -1.1940 H     1 <1>   0.1500 
 34 H        1.1770     8.6640    -1.7830 H     1 <1>   0.0800 
 35 H       -0.1580     8.8230    -0.6770 H     1 <1>   0.0800 
 36 H        1.0590     5.1510    -1.8140 H     1 <1>   0.0800 
 37 H        1.3820     6.6240    -2.6650 H     1 <1>   0.0800 
 38 H        1.3700     8.7490     1.2400 H     1 <1>   0.0800 
 39 H        2.7350     8.5250     0.1790 H     1 <1>   0.0800 
 40 H        3.0410     5.6100    -0.3350 H     1 <1>   0.0800 
 41 H        3.4270     6.9750    -1.3710 H     1 <1>   0.0800 
 42 H        3.4440     5.3590    -2.0140 H     1 <1>   0.0800 
 43 H        0.9190    10.9470     0.1970 H     1 <1>   0.0800 
 44 H        2.3110    10.7290    -0.8450 H     1 <1>   0.0800 
 45 H        3.7830    10.6610     1.1730 H     1 <1>   0.0800 
 46 H        2.3690    10.9010     2.1910 H     1 <1>   0.0800 
 47 H        3.2580    12.6430     0.1520 H     1 <1>   0.4000 
@<TRIPOS>BOND
  1   1   2  2   
  2   2   3  am  
  3   2   4  1   
  4   3   5  1   
  5   3  24  1   
  6   4   6  1   
  7   4  25  1   
  8   4  26  1   
  9   5   7  1   
 10   5   8  1   
 11   5  27  1   
 12   6   8  1   
 13   7   9  ar  
 14   7  10  ar  
 15   8  11  1   
 16   8  28  1   
 17   9  12  ar  
 18   9  29  1   
 19  10  13  ar  
 20  10  30  1   
 21  11  14  2   
 22  11  15  am  
 23  12  16  ar  
 24  12  31  1   
 25  13  16  ar  
 26  13  32  1   
 27  15  17  1   
 28  15  18  1   
 29  16  33  1   
 30  17  19  1   
 31  17  34  1   
 32  17  35  1   
 33  18  20  1   
 34  18  36  1   
 35  18  37  1   
 36  19  21  1   
 37  19  38  1   
 38  19  39  1   
 39  20  40  1   
 40  20  41  1   
 41  20  42  1   
 42  21  22  1   
 43  21  43  1   
 44  21  44  1   
 45  22  23  1   
 46  22  45  1   
 47  22  46  1   
 48  23  47  1   
@<TRIPOS>SUBSTRUCTURE
  1 ****  11 GROUP 4 **** **** 0

# MOE 2024.06 (io_trps.svl 2023.06)
