@<TRIPOS>MOLECULE
NONAME
53 56 1 0 0 
SMALL
USER_CHARGES


@<TRIPOS>ATOM
  1 O        0.3310    -0.8790     2.2220 O.co2 1 <1>  -0.9000 
  2 C        0.8830    -1.2860     1.1830 C.2   1 <1>   0.9790 
  3 O        1.3850    -0.4520     0.4060 O.co2 1 <1>  -0.9000 
  4 C        0.9900    -2.6920     0.9120 C.ar  1 <1>  -0.1790 
  5 C       -0.0180    -3.3810     0.2260 C.ar  1 <1>   0.4100 
  6 C        2.0980    -3.4090     1.3290 C.ar  1 <1>  -0.1500 
  7 N        0.0210    -4.6800    -0.0430 N.ar  1 <1>  -0.6200 
  8 N       -1.1550    -2.7530    -0.2260 N.pl3 1 <1>  -0.8380 
  9 C        2.1390    -4.7520     1.0470 C.ar  1 <1>  -0.1500 
 10 C        1.0920    -5.3580     0.3570 C.ar  1 <1>   0.3100 
 11 C       -2.1960    -2.4120     0.7760 C.3   1 <1>   0.2090 
 12 C       -1.0270    -1.7380    -1.2950 C.3   1 <1>   0.2090 
 13 C        1.1480    -6.7770     0.0640 C.ar  1 <1>   0.0000 
 14 C       -3.5760    -2.4070     0.0880 C.3   1 <1>   0.0000 
 15 C       -2.3540    -1.6540    -2.0570 C.3   1 <1>  -0.1600 
 16 C        2.3100    -7.3840    -0.4160 C.ar  1 <1>  -0.1500 
 17 C        0.0330    -7.5940     0.2560 C.ar  1 <1>  -0.1500 
 18 C       -4.7030    -2.1200     1.1010 C.3   1 <1>   0.2000 
 19 C       -3.5460    -1.4060    -1.1070 C.3   1 <1>  -0.1600 
 20 C       -3.9660    -3.8190    -0.3900 C.3   1 <1>  -0.1600 
 21 C        2.3600    -8.7410    -0.6720 C.ar  1 <1>  -0.1500 
 22 C        0.0730    -8.9530     0.0010 C.ar  1 <1>  -0.1500 
 23 O       -4.9230    -0.7710     1.3090 O.3   1 <1>  -0.6800 
 24 C       -5.9690    -2.7670     0.5370 C.3   1 <1>  -0.1600 
 25 C       -5.4950    -3.8320    -0.4590 C.3   1 <1>  -0.1600 
 26 C        1.2470    -9.5390    -0.4650 C.ar  1 <1>   0.0820 
 27 O        1.3760   -10.8590    -0.7360 O.3   1 <1>  -0.3620 
 28 C        0.2930   -11.7500    -0.5880 C.3   1 <1>   0.0400 
 29 H        2.8900    -2.9100     1.8610 H     1 <1>   0.1500 
 30 H        2.9780    -5.3390     1.3650 H     1 <1>   0.1500 
 31 H       -2.1710    -3.1310     1.5770 H     1 <1>   0.0800 
 32 H       -1.9890    -1.4410     1.1950 H     1 <1>   0.0800 
 33 H       -0.7960    -0.7800    -0.8590 H     1 <1>   0.0800 
 34 H       -0.2230    -2.0100    -1.9590 H     1 <1>   0.0800 
 35 H       -2.2920    -0.8560    -2.7740 H     1 <1>   0.0800 
 36 H       -2.4900    -2.5690    -2.6030 H     1 <1>   0.0800 
 37 H        3.1810    -6.7810    -0.5970 H     1 <1>   0.1500 
 38 H       -0.8770    -7.1400     0.6100 H     1 <1>   0.1500 
 39 H       -4.4680    -2.5680     2.0530 H     1 <1>   0.0800 
 40 H       -4.4650    -1.4470    -1.6630 H     1 <1>   0.0800 
 41 H       -3.4300    -0.4070    -0.7250 H     1 <1>   0.0800 
 42 H       -3.5110    -4.0920    -1.3250 H     1 <1>   0.0800 
 43 H       -3.6450    -4.5390     0.3450 H     1 <1>   0.0800 
 44 H        3.2620    -9.1950    -1.0400 H     1 <1>   0.1500 
 45 H       -0.8130    -9.5340     0.1670 H     1 <1>   0.1500 
 46 H       -4.8510    -0.3030     0.4580 H     1 <1>   0.4000 
 47 H       -6.5360    -3.2140     1.3330 H     1 <1>   0.0800 
 48 H       -6.5800    -2.0420     0.0270 H     1 <1>   0.0800 
 49 H       -5.8830    -4.8060    -0.2160 H     1 <1>   0.0800 
 50 H       -5.8140    -3.5680    -1.4530 H     1 <1>   0.0800 
 51 H        0.6270   -12.7320    -0.8730 H     1 <1>   0.0800 
 52 H       -0.5080   -11.4340    -1.2330 H     1 <1>   0.0800 
 53 H       -0.0180   -11.7520     0.4410 H     1 <1>   0.0800 
@<TRIPOS>BOND
  1   1   2  ar  
  2   2   3  ar  
  3   2   4  1   
  4   4   5  ar  
  5   4   6  ar  
  6   5   7  ar  
  7   5   8  1   
  8   6   9  ar  
  9   6  29  1   
 10   7  10  ar  
 11   8  11  1   
 12   8  12  1   
 13   9  10  ar  
 14   9  30  1   
 15  10  13  1   
 16  11  14  1   
 17  11  31  1   
 18  11  32  1   
 19  12  15  1   
 20  12  33  1   
 21  12  34  1   
 22  13  16  ar  
 23  13  17  ar  
 24  14  18  1   
 25  14  19  1   
 26  14  20  1   
 27  15  19  1   
 28  15  35  1   
 29  15  36  1   
 30  16  21  ar  
 31  16  37  1   
 32  17  22  ar  
 33  17  38  1   
 34  18  23  1   
 35  18  24  1   
 36  18  39  1   
 37  19  40  1   
 38  19  41  1   
 39  20  25  1   
 40  20  42  1   
 41  20  43  1   
 42  21  26  ar  
 43  21  44  1   
 44  22  26  ar  
 45  22  45  1   
 46  23  46  1   
 47  24  25  1   
 48  24  47  1   
 49  24  48  1   
 50  25  49  1   
 51  25  50  1   
 52  26  27  1   
 53  27  28  1   
 54  28  51  1   
 55  28  52  1   
 56  28  53  1   
@<TRIPOS>SUBSTRUCTURE
  1 ****   7 GROUP 4 **** **** 0

# MOE 2024.06 (io_trps.svl 2023.06)
