@<TRIPOS>MOLECULE
NONAME
53 55 1 0 0 
SMALL
USER_CHARGES


@<TRIPOS>ATOM
  1 O        1.0500    -1.7430     0.8880 O.2   1 <1>  -0.5700 
  2 C        0.7330    -0.6770     0.4200 C.2   1 <1>   0.5690 
  3 N        0.0320    -0.6030    -0.7630 N.am  1 <1>  -0.6600 
  4 C        1.0520     0.5840     1.2250 C.3   1 <1>   0.1810 
  5 C       -0.5230     0.6720    -1.3170 C.3   1 <1>   0.1400 
  6 C       -0.7210    -1.7970    -1.2640 C.3   1 <1>   0.1400 
  7 O       -0.1400     1.2020     1.6660 O.3   1 <1>  -0.5600 
  8 C       -1.9810     0.8830    -0.8330 C.3   1 <1>   0.4230 
  9 C       -2.2460    -1.6020    -1.0740 C.3   1 <1>   0.3430 
 10 C        0.0130     2.5210     2.1040 C.3   1 <1>   0.2640 
 11 N       -2.5660    -0.3850    -0.2350 N.4   1 <1>  -0.9590 
 12 C       -2.8680     1.4450    -1.9650 C.3   1 <1>   0.1200 
 13 C       -0.4160     3.4330     0.9650 C.ar  1 <1>  -0.1430 
 14 C       -4.0070    -0.1760     0.1180 C.3   1 <1>   0.4230 
 15 O       -4.1980     1.5740    -1.5470 O.3   1 <1>  -0.5600 
 16 C       -1.7470     3.8020     0.8380 C.ar  1 <1>  -0.1500 
 17 C        0.5070     3.8930     0.0360 C.ar  1 <1>  -0.1500 
 18 C       -4.7960     0.3950    -1.0840 C.3   1 <1>   0.1200 
 19 C       -4.6200    -1.4680     0.6820 C.3   1 <1>  -0.1600 
 20 C       -2.1580     4.5940    -0.2190 C.ar  1 <1>  -0.1500 
 21 C        0.0970     4.6880    -1.0210 C.ar  1 <1>  -0.1500 
 22 C       -5.9610    -1.2210     1.3920 C.3   1 <1>  -0.1600 
 23 C       -1.2360     5.0350    -1.1510 C.ar  1 <1>  -0.1500 
 24 C       -6.4950    -2.5150     2.0120 C.3   1 <1>  -0.2400 
 25 H        1.6110     1.2660     0.6120 H     1 <1>   0.0800 
 26 H        1.6360     0.3220     2.0900 H     1 <1>   0.0800 
 27 H        0.0790     1.5150    -1.0350 H     1 <1>   0.0800 
 28 H       -0.4940     0.6210    -2.3910 H     1 <1>   0.0800 
 29 H       -0.4980    -1.9530    -2.3050 H     1 <1>   0.0800 
 30 H       -0.4120    -2.6870    -0.7410 H     1 <1>   0.0800 
 31 H       -1.9500     1.6290    -0.0600 H     1 <1>   0.0800 
 32 H       -2.6450    -2.4890    -0.6100 H     1 <1>   0.0800 
 33 H       -2.7100    -1.5060    -2.0420 H     1 <1>   0.0800 
 34 H       -0.6300     2.6610     2.9560 H     1 <1>   0.0800 
 35 H        1.0300     2.7040     2.4060 H     1 <1>   0.0800 
 36 H       -2.0360    -0.5070     0.6420 H     1 <1>   0.4500 
 37 H       -2.8440     0.8090    -2.8330 H     1 <1>   0.0800 
 38 H       -2.5230     2.4240    -2.2490 H     1 <1>   0.0800 
 39 H       -4.0530     0.5660     0.8980 H     1 <1>   0.0800 
 40 H       -2.4730     3.4720     1.5620 H     1 <1>   0.1500 
 41 H        1.5490     3.6410     0.1280 H     1 <1>   0.1500 
 42 H       -5.7990     0.6450    -0.7880 H     1 <1>   0.0800 
 43 H       -4.8460    -0.3120    -1.8940 H     1 <1>   0.0800 
 44 H       -4.7760    -2.1820    -0.1070 H     1 <1>   0.0800 
 45 H       -3.9390    -1.8910     1.4010 H     1 <1>   0.0800 
 46 H       -3.1940     4.8750    -0.3140 H     1 <1>   0.1500 
 47 H        0.8160     5.0450    -1.7390 H     1 <1>   0.1500 
 48 H       -5.8350    -0.4880     2.1720 H     1 <1>   0.0800 
 49 H       -6.6950    -0.8470     0.6980 H     1 <1>   0.0800 
 50 H       -1.5540     5.6570    -1.9710 H     1 <1>   0.1500 
 51 H       -5.8040    -2.9030     2.7410 H     1 <1>   0.0800 
 52 H       -6.6580    -3.2630     1.2560 H     1 <1>   0.0800 
 53 H       -7.4320    -2.3260     2.5060 H     1 <1>   0.0800 
@<TRIPOS>BOND
  1   1   2  2   
  2   2   3  am  
  3   2   4  1   
  4   3   5  1   
  5   3   6  1   
  6   4   7  1   
  7   4  25  1   
  8   4  26  1   
  9   5   8  1   
 10   5  27  1   
 11   5  28  1   
 12   6   9  1   
 13   6  29  1   
 14   6  30  1   
 15   7  10  1   
 16   8  11  1   
 17   8  12  1   
 18   8  31  1   
 19   9  11  1   
 20   9  32  1   
 21   9  33  1   
 22  10  13  1   
 23  10  34  1   
 24  10  35  1   
 25  11  14  1   
 26  11  36  1   
 27  12  15  1   
 28  12  37  1   
 29  12  38  1   
 30  13  16  ar  
 31  13  17  ar  
 32  14  18  1   
 33  14  19  1   
 34  14  39  1   
 35  15  18  1   
 36  16  20  ar  
 37  16  40  1   
 38  17  21  ar  
 39  17  41  1   
 40  18  42  1   
 41  18  43  1   
 42  19  22  1   
 43  19  44  1   
 44  19  45  1   
 45  20  23  ar  
 46  20  46  1   
 47  21  23  ar  
 48  21  47  1   
 49  22  24  1   
 50  22  48  1   
 51  22  49  1   
 52  23  50  1   
 53  24  51  1   
 54  24  52  1   
 55  24  53  1   
@<TRIPOS>SUBSTRUCTURE
  1 ****   8 GROUP 4 **** **** 0

# MOE 2024.06 (io_trps.svl 2023.06)
