@<TRIPOS>MOLECULE
NONAME
51 53 1 0 0 
SMALL
USER_CHARGES


@<TRIPOS>ATOM
  1 O       -0.1910     0.8000    -0.1900 O.2   1 <1>  -0.5700 
  2 C        1.0130     0.9800    -0.2750 C.2   1 <1>   0.5440 
  3 N        1.5360     2.1520     0.2220 N.am  1 <1>  -0.6600 
  4 C        1.8560    -0.0190    -0.8850 C.ar  1 <1>   0.0860 
  5 C        0.6890     3.1920     0.8470 C.3   1 <1>   0.1400 
  6 C        2.9600     2.3470     0.5780 C.3   1 <1>   0.1400 
  7 C        1.8400    -1.3510    -0.4340 C.ar  1 <1>   0.4100 
  8 C        2.7120     0.3020    -1.9310 C.ar  1 <1>  -0.1500 
  9 C        1.6710     4.1950     1.4430 C.3   1 <1>  -0.1600 
 10 C        2.9420     3.3870     1.6920 C.3   1 <1>  -0.1600 
 11 N        2.6120    -2.3120    -0.9380 N.ar  1 <1>  -0.6200 
 12 N        0.9910    -1.7280     0.5810 N.pl3 1 <1>  -0.8690 
 13 C        3.5040    -0.6940    -2.4540 C.ar  1 <1>  -0.1500 
 14 C        3.4170    -1.9690    -1.9230 C.ar  1 <1>   0.1600 
 15 C        0.7420    -3.1170     1.0190 C.3   1 <1>   0.2890 
 16 C       -0.1280    -3.8410    -0.0200 C.3   1 <1>   0.1200 
 17 C        0.0790    -3.0370     2.3930 C.3   1 <1>  -0.2400 
 18 O       -0.4500    -5.1410     0.4360 O.3   1 <1>  -0.3630 
 19 C       -1.1840    -6.0050    -0.3220 C.ar  1 <1>   0.0820 
 20 C       -1.4420    -7.2770     0.1980 C.ar  1 <1>   0.0820 
 21 C       -1.6740    -5.6640    -1.5810 C.ar  1 <1>  -0.1500 
 22 O       -0.9480    -7.5770     1.4340 O.3   1 <1>  -0.3620 
 23 C       -2.1860    -8.1860    -0.5510 C.ar  1 <1>  -0.1500 
 24 C       -2.4110    -6.5770    -2.3150 C.ar  1 <1>  -0.1500 
 25 C       -1.1020    -8.8570     2.0040 C.3   1 <1>   0.0400 
 26 C       -2.6660    -7.8350    -1.8010 C.ar  1 <1>  -0.1500 
 27 H        0.0910     2.7410     1.6210 H     1 <1>   0.0800 
 28 H        0.0450     3.6480     0.1150 H     1 <1>   0.0800 
 29 H        3.4880     2.7290    -0.2790 H     1 <1>   0.0800 
 30 H        3.4120     1.4270     0.9070 H     1 <1>   0.0800 
 31 H        2.7460     1.3060    -2.3170 H     1 <1>   0.1500 
 32 H        1.2860     4.6440     2.3410 H     1 <1>   0.0800 
 33 H        1.8640     4.9670     0.7180 H     1 <1>   0.0800 
 34 H        3.8270     3.9980     1.6850 H     1 <1>   0.0800 
 35 H        2.8720     2.8810     2.6390 H     1 <1>   0.0800 
 36 H        0.2150    -1.0760     0.7640 H     1 <1>   0.4000 
 37 H        4.1830    -0.4920    -3.2630 H     1 <1>   0.1500 
 38 H        4.0410    -2.7440    -2.3340 H     1 <1>   0.1500 
 39 H        1.6840    -3.6330     1.1040 H     1 <1>   0.0800 
 40 H        0.4150    -3.9340    -0.9430 H     1 <1>   0.0800 
 41 H       -1.0450    -3.3020    -0.1730 H     1 <1>   0.0800 
 42 H       -0.8750    -2.5470     2.3240 H     1 <1>   0.0800 
 43 H        0.7130    -2.5000     3.0750 H     1 <1>   0.0800 
 44 H       -0.0730    -4.0270     2.7820 H     1 <1>   0.0800 
 45 H       -1.4940    -4.6970    -2.0080 H     1 <1>   0.1500 
 46 H       -2.4020    -9.1690    -0.1810 H     1 <1>   0.1500 
 47 H       -2.7860    -6.3070    -3.2860 H     1 <1>   0.1500 
 48 H       -0.6070    -8.8570     2.9580 H     1 <1>   0.0800 
 49 H       -0.6460    -9.5840     1.3560 H     1 <1>   0.0800 
 50 H       -2.1500    -9.0560     2.1350 H     1 <1>   0.0800 
 51 H       -3.2400    -8.5420    -2.3750 H     1 <1>   0.1500 
@<TRIPOS>BOND
  1   1   2  2   
  2   2   3  am  
  3   2   4  1   
  4   3   5  1   
  5   3   6  1   
  6   4   7  ar  
  7   4   8  ar  
  8   5   9  1   
  9   5  27  1   
 10   5  28  1   
 11   6  10  1   
 12   6  29  1   
 13   6  30  1   
 14   7  11  ar  
 15   7  12  1   
 16   8  13  ar  
 17   8  31  1   
 18   9  10  1   
 19   9  32  1   
 20   9  33  1   
 21  10  34  1   
 22  10  35  1   
 23  11  14  ar  
 24  12  15  1   
 25  12  36  1   
 26  13  14  ar  
 27  13  37  1   
 28  14  38  1   
 29  15  16  1   
 30  15  17  1   
 31  15  39  1   
 32  16  18  1   
 33  16  40  1   
 34  16  41  1   
 35  17  42  1   
 36  17  43  1   
 37  17  44  1   
 38  18  19  1   
 39  19  20  ar  
 40  19  21  ar  
 41  20  22  1   
 42  20  23  ar  
 43  21  24  ar  
 44  21  45  1   
 45  22  25  1   
 46  23  26  ar  
 47  23  46  1   
 48  24  26  ar  
 49  24  47  1   
 50  25  48  1   
 51  25  49  1   
 52  25  50  1   
 53  26  51  1   
@<TRIPOS>SUBSTRUCTURE
  1 ****  12 GROUP 4 **** **** 0

# MOE 2024.06 (io_trps.svl 2023.06)
