@<TRIPOS>MOLECULE
NONAME
65 68 1 0 0 
SMALL
USER_CHARGES


@<TRIPOS>ATOM
  1 O       -0.4890    -0.4380     0.4130 O.3   1 <1>  -0.3630 
  2 C       -0.4750    -1.7860     0.2710 C.ar  1 <1>   0.0820 
  3 C       -1.6600     0.3480     0.3500 C.3   1 <1>   0.0400 
  4 C        0.7240    -2.4920     0.5140 C.ar  1 <1>   0.0820 
  5 C       -1.6040    -2.4970    -0.0870 C.ar  1 <1>  -0.1500 
  6 O        1.8970    -1.9050     0.8680 O.3   1 <1>  -0.3630 
  7 C        0.7470    -3.8610     0.4150 C.ar  1 <1>  -0.1500 
  8 C       -1.5770    -3.8890    -0.1970 C.ar  1 <1>   0.3610 
  9 C        2.3430    -0.7440     0.1980 C.3   1 <1>   0.0400 
 10 C       -0.3910    -4.6000     0.0580 C.ar  1 <1>   0.0000 
 11 N       -2.7100    -4.5970    -0.5610 N.ar  1 <1>  -0.1790 
 12 C       -0.4240    -6.0210    -0.0610 C.ar  1 <1>  -0.1430 
 13 C       -2.7780    -5.9250    -0.6940 C.ar  1 <1>   0.4610 
 14 C       -1.5830    -6.6410    -0.4210 C.ar  1 <1>  -0.1500 
 15 C        0.8300    -6.8400     0.2210 C.3   1 <1>  -0.0970 
 16 N       -3.9450    -6.5070    -1.0740 N.pl3 1 <1>  -0.8380 
 17 C       -4.0430    -7.9120    -1.5780 C.3   1 <1>   0.2090 
 18 C       -5.3010    -5.8730    -1.0340 C.3   1 <1>   0.2090 
 19 C       -4.8650    -8.7400    -0.5860 C.3   1 <1>  -0.1600 
 20 C       -6.1740    -6.6480    -0.0400 C.3   1 <1>  -0.1600 
 21 C       -6.2780    -8.1460    -0.3890 C.3   1 <1>  -0.0800 
 22 C       -7.0980    -8.8770     0.6910 C.3   1 <1>   0.3430 
 23 N       -7.2760   -10.3110     0.3450 N.4   1 <1>  -0.9590 
 24 C       -8.7030   -10.7750     0.3520 C.3   1 <1>   0.3430 
 25 C       -6.4280   -11.2550     1.1490 C.3   1 <1>   0.3430 
 26 C       -8.8080   -12.2220    -0.1930 C.3   1 <1>   0.1100 
 27 C       -6.5570   -12.7010     0.6090 C.3   1 <1>   0.1100 
 28 N       -7.4810   -12.7840    -0.5470 N.3   1 <1>  -0.8100 
 29 C       -7.5990   -14.1620    -1.0410 C.3   1 <1>   0.0300 
 30 H       -1.3870     1.3670     0.5590 H     1 <1>   0.0800 
 31 H       -2.3560     0.0020     1.0940 H     1 <1>   0.0800 
 32 H       -2.0770     0.2820    -0.6390 H     1 <1>   0.0800 
 33 H       -2.5240    -1.9820    -0.2840 H     1 <1>   0.1500 
 34 H        1.6750    -4.3630     0.6210 H     1 <1>   0.1500 
 35 H        3.4120    -0.6910     0.2970 H     1 <1>   0.0800 
 36 H        1.8960     0.1180     0.6590 H     1 <1>   0.0800 
 37 H        2.0710    -0.8060    -0.8410 H     1 <1>   0.0800 
 38 H       -3.5420    -4.0720    -0.7940 H     1 <1>   0.4570 
 39 H       -1.6010    -7.7100    -0.4870 H     1 <1>   0.1500 
 40 H        1.6190    -6.5580    -0.4540 H     1 <1>   0.0800 
 41 H        0.6470    -7.8930     0.0970 H     1 <1>   0.0800 
 42 H        1.1630    -6.6770     1.2310 H     1 <1>   0.0800 
 43 H       -3.0780    -8.3600    -1.7290 H     1 <1>   0.0800 
 44 H       -4.5340    -7.9090    -2.5380 H     1 <1>   0.0800 
 45 H       -5.7440    -5.9080    -2.0170 H     1 <1>   0.0800 
 46 H       -5.2550    -4.8440    -0.7280 H     1 <1>   0.0800 
 47 H       -4.3380    -8.7760     0.3510 H     1 <1>   0.0800 
 48 H       -4.9320    -9.7440    -0.9670 H     1 <1>   0.0800 
 49 H       -7.1580    -6.2090    -0.0320 H     1 <1>   0.0800 
 50 H       -5.7570    -6.5260     0.9460 H     1 <1>   0.0800 
 51 H       -6.8140    -8.2230    -1.3210 H     1 <1>   0.0800 
 52 H       -8.0630    -8.4030     0.7710 H     1 <1>   0.0800 
 53 H       -6.6060    -8.7860     1.6460 H     1 <1>   0.0800 
 54 H       -6.9820   -10.4940    -0.6280 H     1 <1>   0.4500 
 55 H       -9.3050   -10.1270    -0.2630 H     1 <1>   0.0800 
 56 H       -9.0990   -10.7420     1.3530 H     1 <1>   0.0800 
 57 H       -6.7290   -11.2340     2.1830 H     1 <1>   0.0800 
 58 H       -5.3940   -10.9560     1.1000 H     1 <1>   0.0800 
 59 H       -9.4360   -12.2200    -1.0680 H     1 <1>   0.0800 
 60 H       -9.2850   -12.8440     0.5460 H     1 <1>   0.0800 
 61 H       -6.9000   -13.3460     1.4010 H     1 <1>   0.0800 
 62 H       -5.5820   -13.0500     0.3100 H     1 <1>   0.0800 
 63 H       -8.2410   -14.1900    -1.9050 H     1 <1>   0.0800 
 64 H       -8.0080   -14.8080    -0.2810 H     1 <1>   0.0800 
 65 H       -6.6310   -14.5340    -1.3310 H     1 <1>   0.0800 
@<TRIPOS>BOND
  1   1   2  1   
  2   1   3  1   
  3   2   4  ar  
  4   2   5  ar  
  5   3  30  1   
  6   3  31  1   
  7   3  32  1   
  8   4   6  1   
  9   4   7  ar  
 10   5   8  ar  
 11   5  33  1   
 12   6   9  1   
 13   7  10  ar  
 14   7  34  1   
 15   8  10  ar  
 16   8  11  ar  
 17   9  35  1   
 18   9  36  1   
 19   9  37  1   
 20  10  12  ar  
 21  11  13  ar  
 22  11  38  1   
 23  12  14  ar  
 24  12  15  1   
 25  13  14  ar  
 26  13  16  1   
 27  14  39  1   
 28  15  40  1   
 29  15  41  1   
 30  15  42  1   
 31  16  17  1   
 32  16  18  1   
 33  17  19  1   
 34  17  43  1   
 35  17  44  1   
 36  18  20  1   
 37  18  45  1   
 38  18  46  1   
 39  19  21  1   
 40  19  47  1   
 41  19  48  1   
 42  20  21  1   
 43  20  49  1   
 44  20  50  1   
 45  21  22  1   
 46  21  51  1   
 47  22  23  1   
 48  22  52  1   
 49  22  53  1   
 50  23  24  1   
 51  23  25  1   
 52  23  54  1   
 53  24  26  1   
 54  24  55  1   
 55  24  56  1   
 56  25  27  1   
 57  25  57  1   
 58  25  58  1   
 59  26  28  1   
 60  26  59  1   
 61  26  60  1   
 62  27  28  1   
 63  27  61  1   
 64  27  62  1   
 65  28  29  1   
 66  29  63  1   
 67  29  64  1   
 68  29  65  1   
@<TRIPOS>SUBSTRUCTURE
  1 ****  13 GROUP 4 **** **** 0

# MOE 2024.06 (io_trps.svl 2023.06)
