@<TRIPOS>MOLECULE
NONAME
48 51 1 0 0 
SMALL
USER_CHARGES


@<TRIPOS>ATOM
  1 O       -0.4380    -3.5610     0.7590 O.3   1 <1>  -0.6800 
  2 C       -0.4910    -2.8550    -0.4340 C.3   1 <1>   0.4240 
  3 C        0.9330    -2.3290    -0.7180 C.ar  1 <1>  -0.1440 
  4 C       -1.4950    -1.7010    -0.2360 C.3   1 <1>  -0.0800 
  5 C       -1.0080    -3.8390    -1.4870 C.3   1 <1>  -0.1600 
  6 C        1.6890    -1.7980     0.3220 C.ar  1 <1>  -0.1500 
  7 C        1.5000    -2.3410    -1.9910 C.ar  1 <1>  -0.1500 
  8 C       -2.9260    -2.2140     0.0730 C.3   1 <1>   0.2890 
  9 C       -1.5330    -0.6730    -1.3920 C.3   1 <1>  -0.1600 
 10 C       -2.3580    -4.4260    -1.0970 C.3   1 <1>   0.2090 
 11 C        2.9620    -1.2990     0.1060 C.ar  1 <1>  -0.1500 
 12 C        2.7730    -1.8440    -2.2120 C.ar  1 <1>  -0.1500 
 13 N       -3.3480    -3.3560    -0.8120 N.pl3 1 <1>  -0.8380 
 14 C       -3.9810    -1.0860    -0.0510 C.3   1 <1>  -0.1600 
 15 C       -2.3320     0.5840    -0.9990 C.3   1 <1>  -0.1600 
 16 C        3.5070    -1.3210    -1.1630 C.ar  1 <1>  -0.1500 
 17 C       -4.6090    -3.8590    -0.5790 C.ar  1 <1>   0.4100 
 18 C       -3.3890     0.3220     0.0890 C.3   1 <1>  -0.1600 
 19 N       -4.8260    -4.3910     0.6140 N.ar  1 <1>  -0.6200 
 20 C       -5.5670    -3.7980    -1.5840 C.ar  1 <1>  -0.1500 
 21 C       -6.0460    -4.8810     0.8360 C.ar  1 <1>   0.3830 
 22 C       -6.8250    -4.3020    -1.3640 C.ar  1 <1>  -0.1500 
 23 C       -6.3280    -5.4660     2.1210 C.1   1 <1>   0.4840 
 24 C       -7.0560    -4.8530    -0.1200 C.ar  1 <1>  -0.1500 
 25 N       -6.5960    -5.9410     3.1260 N.1   1 <1>  -0.5570 
 26 H       -1.3350    -3.8810     0.9680 H     1 <1>   0.4000 
 27 H       -1.1510    -1.1590     0.6270 H     1 <1>   0.0800 
 28 H       -1.1250    -3.3450    -2.4320 H     1 <1>   0.0800 
 29 H       -0.2930    -4.6320    -1.6160 H     1 <1>   0.0800 
 30 H        1.2850    -1.7730     1.3190 H     1 <1>   0.1500 
 31 H        0.9660    -2.7310    -2.8360 H     1 <1>   0.1500 
 32 H       -2.9300    -2.5610     1.0940 H     1 <1>   0.0800 
 33 H       -0.5410    -0.3700    -1.6770 H     1 <1>   0.0800 
 34 H       -1.9960    -1.1300    -2.2500 H     1 <1>   0.0800 
 35 H       -2.2570    -5.0620    -0.2330 H     1 <1>   0.0800 
 36 H       -2.7230    -5.0360    -1.9060 H     1 <1>   0.0800 
 37 H        3.5270    -0.8960     0.9280 H     1 <1>   0.1500 
 38 H        3.1940    -1.8630    -3.2020 H     1 <1>   0.1500 
 39 H       -4.4500    -1.1390    -1.0180 H     1 <1>   0.0800 
 40 H       -4.7410    -1.2350     0.6950 H     1 <1>   0.0800 
 41 H       -1.6560     1.3430    -0.6420 H     1 <1>   0.0800 
 42 H       -2.8130     0.9730    -1.8800 H     1 <1>   0.0800 
 43 H        4.4960    -0.9350    -1.3340 H     1 <1>   0.1500 
 44 H       -4.1700     1.0600     0.0190 H     1 <1>   0.0800 
 45 H       -2.9380     0.4190     1.0620 H     1 <1>   0.0800 
 46 H       -5.2990    -3.3500    -2.5230 H     1 <1>   0.1500 
 47 H       -7.5900    -4.2680    -2.1210 H     1 <1>   0.1500 
 48 H       -8.0240    -5.2630     0.1100 H     1 <1>   0.1500 
@<TRIPOS>BOND
  1   1   2  1   
  2   1  26  1   
  3   2   3  1   
  4   2   4  1   
  5   2   5  1   
  6   3   6  ar  
  7   3   7  ar  
  8   4   8  1   
  9   4   9  1   
 10   4  27  1   
 11   5  10  1   
 12   5  28  1   
 13   5  29  1   
 14   6  11  ar  
 15   6  30  1   
 16   7  12  ar  
 17   7  31  1   
 18   8  13  1   
 19   8  14  1   
 20   8  32  1   
 21   9  15  1   
 22   9  33  1   
 23   9  34  1   
 24  10  13  1   
 25  10  35  1   
 26  10  36  1   
 27  11  16  ar  
 28  11  37  1   
 29  12  16  ar  
 30  12  38  1   
 31  13  17  1   
 32  14  18  1   
 33  14  39  1   
 34  14  40  1   
 35  15  18  1   
 36  15  41  1   
 37  15  42  1   
 38  16  43  1   
 39  17  19  ar  
 40  17  20  ar  
 41  18  44  1   
 42  18  45  1   
 43  19  21  ar  
 44  20  22  ar  
 45  20  46  1   
 46  21  23  1   
 47  21  24  ar  
 48  22  24  ar  
 49  22  47  1   
 50  23  25  3   
 51  24  48  1   
@<TRIPOS>SUBSTRUCTURE
  1 ****   8 GROUP 4 **** **** 0

# MOE 2024.06 (io_trps.svl 2023.06)
