@<TRIPOS>MOLECULE
NONAME
43 44 1 0 0 
SMALL
USER_CHARGES


@<TRIPOS>ATOM
  1 CL      -2.9150    -1.1960     3.5950 Cl    1 <1>  -0.1770 
  2 C       -2.8070    -1.7620     1.9480 C.ar  1 <1>   0.1770 
  3 C       -3.1900    -3.0570     1.6520 C.ar  1 <1>  -0.1500 
  4 C       -2.3410    -0.9070     0.9670 C.ar  1 <1>  -0.1500 
  5 C       -3.1080    -3.5120     0.3450 C.ar  1 <1>  -0.1440 
  6 C       -2.2590    -1.3610    -0.3380 C.ar  1 <1>  -0.1500 
  7 C       -2.6420    -2.6570    -0.6450 C.ar  1 <1>  -0.1500 
  8 C       -3.5290    -4.9310    -0.0030 C.3   1 <1>  -0.0160 
  9 C       -4.9830    -4.9520    -0.4720 C.3   1 <1>   0.1400 
 10 N       -5.3980    -6.3440    -0.7380 N.am  1 <1>  -0.7300 
 11 C       -5.6850    -6.8960    -1.9440 C.2   1 <1>   0.5690 
 12 O       -5.6080    -6.2730    -2.9770 O.2   1 <1>  -0.5700 
 13 C       -6.1140    -8.3670    -1.9620 C.3   1 <1>   0.1710 
 14 N       -6.5930    -8.8670    -0.6390 N.3   1 <1>  -0.8100 
 15 C       -6.5400   -10.3430    -0.5940 C.3   1 <1>   0.1100 
 16 C       -7.9500    -8.3780    -0.3450 C.3   1 <1>   0.1100 
 17 C       -6.9120   -10.8520     0.8030 C.3   1 <1>  -0.1860 
 18 C       -8.3530    -8.7930     1.0700 C.3   1 <1>  -0.1600 
 19 C       -6.9230   -12.3660     0.8540 C.2   1 <1>   0.9060 
 20 C       -8.2810   -10.3110     1.2100 C.3   1 <1>   0.2000 
 21 O       -6.6300   -13.0180    -0.1540 O.co2 1 <1>  -0.9000 
 22 O       -7.2540   -12.9070     1.9170 O.co2 1 <1>  -0.9000 
 23 O       -8.5110   -10.6420     2.5270 O.3   1 <1>  -0.6800 
 24 H       -3.5470    -3.6930     2.4410 H     1 <1>   0.1500 
 25 H       -2.0500     0.0950     1.2240 H     1 <1>   0.1500 
 26 H       -1.8990    -0.7080    -1.1150 H     1 <1>   0.1500 
 27 H       -2.5760    -3.0000    -1.6640 H     1 <1>   0.1500 
 28 H       -3.4180    -5.5640     0.8590 H     1 <1>   0.0800 
 29 H       -2.8980    -5.3130    -0.7860 H     1 <1>   0.0800 
 30 H       -5.0840    -4.3640    -1.3690 H     1 <1>   0.0800 
 31 H       -5.6220    -4.5300     0.2840 H     1 <1>   0.0800 
 32 H       -5.5460    -6.9730     0.0620 H     1 <1>   0.3700 
 33 H       -5.2530    -8.9360    -2.2650 H     1 <1>   0.0800 
 34 H       -6.8770    -8.5040    -2.7070 H     1 <1>   0.0800 
 35 H       -7.2140   -10.7620    -1.3240 H     1 <1>   0.0800 
 36 H       -5.5450   -10.6830    -0.8280 H     1 <1>   0.0800 
 37 H       -7.9790    -7.3040    -0.4170 H     1 <1>   0.0800 
 38 H       -8.6480    -8.7860    -1.0570 H     1 <1>   0.0800 
 39 H       -6.1670   -10.5090     1.4940 H     1 <1>   0.0800 
 40 H       -9.3550    -8.4640     1.2720 H     1 <1>   0.0800 
 41 H       -7.6850    -8.3320     1.7750 H     1 <1>   0.0800 
 42 H       -9.0470   -10.7810     0.6150 H     1 <1>   0.0800 
 43 H       -8.1720   -11.5790     2.6280 H     1 <1>   0.4000 
@<TRIPOS>BOND
  1   1   2  1   
  2   2   3  ar  
  3   2   4  ar  
  4   3   5  ar  
  5   3  24  1   
  6   4   6  ar  
  7   4  25  1   
  8   5   7  ar  
  9   5   8  1   
 10   6   7  ar  
 11   6  26  1   
 12   7  27  1   
 13   8   9  1   
 14   8  28  1   
 15   8  29  1   
 16   9  10  1   
 17   9  30  1   
 18   9  31  1   
 19  10  11  am  
 20  10  32  1   
 21  11  12  2   
 22  11  13  1   
 23  13  14  1   
 24  13  33  1   
 25  13  34  1   
 26  14  15  1   
 27  14  16  1   
 28  15  17  1   
 29  15  35  1   
 30  15  36  1   
 31  16  18  1   
 32  16  37  1   
 33  16  38  1   
 34  17  19  1   
 35  17  20  1   
 36  17  39  1   
 37  18  20  1   
 38  18  40  1   
 39  18  41  1   
 40  19  21  ar  
 41  19  22  ar  
 42  20  23  1   
 43  20  42  1   
 44  23  43  1   
@<TRIPOS>SUBSTRUCTURE
  1 ****  10 GROUP 4 **** **** 0

# MOE 2024.06 (io_trps.svl 2023.06)
