@<TRIPOS>MOLECULE
NONAME
47 48 1 0 0 
SMALL
USER_CHARGES


@<TRIPOS>ATOM
  1 S        0.3940     0.1900     0.5940 S.o2  1 <1>   1.3330 
  2 O       -0.3490     0.4710     1.8010 O.2   1 <1>  -0.6500 
  3 O        1.8310     0.0420     0.6610 O.2   1 <1>  -0.6500 
  4 N       -0.2400    -1.2180    -0.1110 N.am  1 <1>  -0.8490 
  5 C       -0.0100     1.4510    -0.6130 C.3   1 <1>  -0.0550 
  6 C        0.6730    -1.8590    -1.0630 C.3   1 <1>   0.1160 
  7 C       -0.6820    -2.1930     0.8900 C.3   1 <1>   0.1160 
  8 C        0.3520     2.8740    -0.1560 C.3   1 <1>  -0.0800 
  9 C       -0.0070     3.9260    -1.2100 C.3   1 <1>   0.2000 
 10 C        1.8560     3.0700     0.0920 C.3   1 <1>   0.1100 
 11 O       -0.9710     4.7800    -0.6980 O.3   1 <1>  -0.6800 
 12 C        1.2930     4.6930    -1.4550 C.3   1 <1>   0.1100 
 13 N        2.1550     4.4540    -0.2810 N.3   1 <1>  -0.8100 
 14 C        1.8620     5.3610     0.8560 C.3   1 <1>   0.2900 
 15 C        1.9370     6.8230     0.4530 C.2   1 <1>   0.0070 
 16 N        0.9320     7.6300     0.5110 N.2   1 <1>  -0.3380 
 17 N        3.0320     7.4250    -0.0240 N.pl3 1 <1>   0.0480 
 18 N        1.3560     8.8110     0.0620 N.2   1 <1>  -0.3380 
 19 C        2.5970     8.6670    -0.2500 C.2   1 <1>   0.0360 
 20 C        4.3820     6.8580    -0.2760 C.3   1 <1>   0.1760 
 21 C        5.4510     7.6660     0.4680 C.3   1 <1>  -0.2400 
 22 C        4.6660     6.8230    -1.7820 C.3   1 <1>  -0.2400 
 23 H        0.4940     1.2350    -1.5350 H     1 <1>   0.0800 
 24 H       -1.0660     1.4170    -0.8010 H     1 <1>   0.0800 
 25 H        0.1830    -2.6870    -1.5450 H     1 <1>   0.0800 
 26 H        1.5540    -2.2190    -0.5560 H     1 <1>   0.0800 
 27 H        0.9750    -1.1560    -1.8200 H     1 <1>   0.0800 
 28 H       -1.0910    -3.0650     0.4090 H     1 <1>   0.0800 
 29 H       -1.4490    -1.7630     1.5120 H     1 <1>   0.0800 
 30 H        0.1450    -2.4880     1.5160 H     1 <1>   0.0800 
 31 H       -0.1740     3.0780     0.7630 H     1 <1>   0.0800 
 32 H       -0.3920     3.5020    -2.1220 H     1 <1>   0.0800 
 33 H        2.4250     2.4170    -0.5500 H     1 <1>   0.0800 
 34 H        2.1290     2.8580     1.1140 H     1 <1>   0.0800 
 35 H       -0.5450     5.5500    -0.2620 H     1 <1>   0.4000 
 36 H        1.1220     5.7360    -1.6600 H     1 <1>   0.0800 
 37 H        1.7820     4.2650    -2.3130 H     1 <1>   0.0800 
 38 H        0.8810     5.1660     1.2540 H     1 <1>   0.0800 
 39 H        2.5720     5.1800     1.6440 H     1 <1>   0.0800 
 40 H        3.2220     9.4450    -0.6480 H     1 <1>   0.1500 
 41 H        4.4000     5.8480     0.0950 H     1 <1>   0.0800 
 42 H        5.5000     8.6750     0.0980 H     1 <1>   0.0800 
 43 H        6.4150     7.2090     0.3310 H     1 <1>   0.0800 
 44 H        5.2350     7.6840     1.5220 H     1 <1>   0.0800 
 45 H        4.6640     7.8150    -2.1980 H     1 <1>   0.0800 
 46 H        3.9220     6.2260    -2.2800 H     1 <1>   0.0800 
 47 H        5.6280     6.3780    -1.9640 H     1 <1>   0.0800 
@<TRIPOS>BOND
  1   1   2  2   
  2   1   3  2   
  3   1   4  am  
  4   1   5  1   
  5   4   6  1   
  6   4   7  1   
  7   5   8  1   
  8   5  23  1   
  9   5  24  1   
 10   6  25  1   
 11   6  26  1   
 12   6  27  1   
 13   7  28  1   
 14   7  29  1   
 15   7  30  1   
 16   8   9  1   
 17   8  10  1   
 18   8  31  1   
 19   9  11  1   
 20   9  12  1   
 21   9  32  1   
 22  10  13  1   
 23  10  33  1   
 24  10  34  1   
 25  11  35  1   
 26  12  13  1   
 27  12  36  1   
 28  12  37  1   
 29  13  14  1   
 30  14  15  1   
 31  14  38  1   
 32  14  39  1   
 33  15  16  2   
 34  15  17  1   
 35  16  18  1   
 36  17  19  1   
 37  17  20  1   
 38  18  19  2   
 39  19  40  1   
 40  20  21  1   
 41  20  22  1   
 42  20  41  1   
 43  21  42  1   
 44  21  43  1   
 45  21  44  1   
 46  22  45  1   
 47  22  46  1   
 48  22  47  1   
@<TRIPOS>SUBSTRUCTURE
  1 ****  13 GROUP 4 **** **** 0

# MOE 2024.06 (io_trps.svl 2023.06)
