@<TRIPOS>MOLECULE
NONAME
53 56 1 0 0 
SMALL
USER_CHARGES


@<TRIPOS>ATOM
  1 O       -1.9230    -1.2680     2.2330 O.2   1 <1>  -0.5700 
  2 C       -2.1290    -1.4440     1.0490 C.2   1 <1>   0.5440 
  3 N       -1.5520    -2.5520     0.4530 N.am  1 <1>  -0.6600 
  4 C       -3.0410    -0.5570     0.3380 C.ar  1 <1>   0.3960 
  5 C       -1.4930    -3.8290     1.2510 C.3   1 <1>   0.2200 
  6 C       -1.2530    -2.6200    -1.0150 C.3   1 <1>   0.1400 
  7 N       -3.9740    -1.0890    -0.4790 N.ar  1 <1>  -0.6200 
  8 C       -2.9360     0.8220     0.5420 C.ar  1 <1>   0.1600 
  9 C       -0.2790    -4.7110     0.9140 C.3   1 <1>   0.1200 
 10 C       -2.8230    -4.6040     1.0830 C.3   1 <1>   0.3430 
 11 C       -1.5680    -3.9790    -1.6760 C.3   1 <1>  -0.0800 
 12 C       -4.7320    -0.1640    -1.0490 C.ar  1 <1>   0.1600 
 13 N       -3.6930     1.7370    -0.0390 N.ar  1 <1>  -0.6200 
 14 O       -0.5650    -5.5630    -0.1540 O.3   1 <1>  -0.5600 
 15 N       -3.6100    -4.1590    -0.1270 N.4   1 <1>  -0.9590 
 16 C       -0.4570    -5.0090    -1.4200 C.3   1 <1>   0.1200 
 17 C       -2.9680    -4.5780    -1.4140 C.3   1 <1>   0.3430 
 18 C       -4.5960     1.2020    -0.8400 C.ar  1 <1>   0.1600 
 19 C       -5.0410    -4.6080    -0.0620 C.3   1 <1>   0.4860 
 20 C       -5.1940    -6.1270     0.0340 C.ar  1 <1>   0.1670 
 21 N       -4.9510    -6.8250    -1.0670 N.ar  1 <1>  -0.6200 
 22 C       -5.5740    -6.6950     1.2420 C.ar  1 <1>  -0.1500 
 23 C       -5.0890    -8.1380    -0.9570 C.ar  1 <1>   0.1600 
 24 C       -5.7090    -8.0620     1.3380 C.ar  1 <1>  -0.1500 
 25 C       -5.4560    -8.8030     0.2030 C.ar  1 <1>  -0.1430 
 26 C       -5.5850   -10.3180     0.2240 C.3   1 <1>  -0.0170 
 27 C       -7.0120   -10.7410    -0.1300 C.3   1 <1>  -0.2400 
 28 H       -1.3880    -3.5810     2.2940 H     1 <1>   0.0800 
 29 H       -1.7940    -1.8520    -1.5400 H     1 <1>   0.0800 
 30 H       -0.2080    -2.3980    -1.1540 H     1 <1>   0.0800 
 31 H       -2.1810     1.1750     1.2240 H     1 <1>   0.1500 
 32 H       -0.0640    -5.3450     1.7570 H     1 <1>   0.0800 
 33 H        0.5990    -4.1240     0.7040 H     1 <1>   0.0800 
 34 H       -3.4110    -4.4350     1.9690 H     1 <1>   0.0800 
 35 H       -2.6210    -5.6620     1.0260 H     1 <1>   0.0800 
 36 H       -1.5200    -3.8010    -2.7350 H     1 <1>   0.0800 
 37 H       -5.5050    -0.4950    -1.7220 H     1 <1>   0.1500 
 38 H       -3.5970    -3.1240    -0.1240 H     1 <1>   0.4500 
 39 H        0.5250    -4.5790    -1.5330 H     1 <1>   0.0800 
 40 H       -0.5460    -5.8220    -2.1210 H     1 <1>   0.0800 
 41 H       -2.8920    -5.6530    -1.4440 H     1 <1>   0.0800 
 42 H       -3.6140    -4.2840    -2.2250 H     1 <1>   0.0800 
 43 H       -5.2600     1.8780    -1.3520 H     1 <1>   0.1500 
 44 H       -5.5170    -4.1580     0.7920 H     1 <1>   0.0800 
 45 H       -5.5630    -4.2730    -0.9420 H     1 <1>   0.0800 
 46 H       -5.7700    -6.0860     2.1060 H     1 <1>   0.1500 
 47 H       -4.9010    -8.7220    -1.8440 H     1 <1>   0.1500 
 48 H       -6.0040    -8.5340     2.2610 H     1 <1>   0.1500 
 49 H       -4.8960   -10.7550    -0.4790 H     1 <1>   0.0800 
 50 H       -5.3310   -10.6920     1.2010 H     1 <1>   0.0800 
 51 H       -7.2730   -10.3920    -1.1130 H     1 <1>   0.0800 
 52 H       -7.7100   -10.3290     0.5780 H     1 <1>   0.0800 
 53 H       -7.0960   -11.8130    -0.1110 H     1 <1>   0.0800 
@<TRIPOS>BOND
  1   1   2  2   
  2   2   3  am  
  3   2   4  1   
  4   3   5  1   
  5   3   6  1   
  6   4   7  ar  
  7   4   8  ar  
  8   5   9  1   
  9   5  10  1   
 10   5  28  1   
 11   6  11  1   
 12   6  29  1   
 13   6  30  1   
 14   7  12  ar  
 15   8  13  ar  
 16   8  31  1   
 17   9  14  1   
 18   9  32  1   
 19   9  33  1   
 20  10  15  1   
 21  10  34  1   
 22  10  35  1   
 23  11  16  1   
 24  11  17  1   
 25  11  36  1   
 26  12  18  ar  
 27  12  37  1   
 28  13  18  ar  
 29  14  16  1   
 30  15  17  1   
 31  15  19  1   
 32  15  38  1   
 33  16  39  1   
 34  16  40  1   
 35  17  41  1   
 36  17  42  1   
 37  18  43  1   
 38  19  20  1   
 39  19  44  1   
 40  19  45  1   
 41  20  21  ar  
 42  20  22  ar  
 43  21  23  ar  
 44  22  24  ar  
 45  22  46  1   
 46  23  25  ar  
 47  23  47  1   
 48  24  25  ar  
 49  24  48  1   
 50  25  26  1   
 51  26  27  1   
 52  26  49  1   
 53  26  50  1   
 54  27  51  1   
 55  27  52  1   
 56  27  53  1   
@<TRIPOS>SUBSTRUCTURE
  1 ****  15 GROUP 4 **** **** 0

# MOE 2024.06 (io_trps.svl 2023.06)
