@<TRIPOS>MOLECULE
NONAME
52 53 1 0 0 
SMALL
USER_CHARGES


@<TRIPOS>ATOM
  1 S        1.2970     0.5500    -2.7590 S.3   1 <1>  -0.0800 
  2 C        0.8420    -1.0400    -2.1660 C.2   1 <1>  -0.1400 
  3 C        2.0300     0.9630    -1.2150 C.2   1 <1>  -0.1100 
  4 C        1.2820    -1.2120    -0.9090 C.2   1 <1>  -0.1500 
  5 C        0.0460    -1.9650    -3.0660 C.3   1 <1>   0.5230 
  6 C        1.9210    -0.0630    -0.3470 C.2   1 <1>  -0.1810 
  7 N       -1.4470    -1.7210    -3.0620 N.4   1 <1>  -0.9590 
  8 C        2.3390    -0.1050     1.1080 C.3   1 <1>   0.5240 
  9 C       -2.1560    -2.9850    -2.6350 C.3   1 <1>   0.3430 
 10 C       -1.9150    -0.5080    -2.2840 C.3   1 <1>   0.3430 
 11 N        1.1220     0.0340     1.9370 N.4   1 <1>  -0.9590 
 12 C       -2.1720    -3.1930    -1.1040 C.3   1 <1>   0.2000 
 13 C       -3.0760    -0.8360    -1.3330 C.3   1 <1>  -0.1600 
 14 C        0.6910     1.4390     2.1390 C.3   1 <1>   0.2630 
 15 C        1.1260    -0.7730     3.1820 C.3   1 <1>   0.2630 
 16 O       -0.9110    -3.6290    -0.7320 O.3   1 <1>  -0.6800 
 17 C       -2.6400    -1.9250    -0.3060 C.3   1 <1>  -0.1060 
 18 C       -1.5240    -1.3540     0.6000 C.2   1 <1>   0.9060 
 19 C       -3.8540    -2.3360     0.5750 C.3   1 <1>  -0.1600 
 20 O       -0.8140    -2.0920     1.2970 O.co2 1 <1>  -0.9000 
 21 O       -1.2610    -0.1480     0.5920 O.co2 1 <1>  -0.9000 
 22 C       -4.4640    -1.2050     1.4220 C.3   1 <1>  -0.1600 
 23 C       -5.5900    -1.7380     2.3100 C.3   1 <1>  -0.2400 
 24 H        2.4470     1.9500    -1.1230 H     1 <1>   0.1500 
 25 H        1.1540    -2.1070    -0.3230 H     1 <1>   0.1500 
 26 H        0.2370    -2.9750    -2.7390 H     1 <1>   0.0800 
 27 H        0.4270    -1.8770    -4.0690 H     1 <1>   0.0800 
 28 H       -1.6990    -1.5480    -4.0390 H     1 <1>   0.4500 
 29 H        3.0320     0.6900     1.3280 H     1 <1>   0.0800 
 30 H        2.8170    -1.0500     1.3070 H     1 <1>   0.0800 
 31 H       -3.1800    -2.9300    -2.9640 H     1 <1>   0.0800 
 32 H       -1.7110    -3.8480    -3.1020 H     1 <1>   0.0800 
 33 H       -1.1210    -0.0980    -1.6860 H     1 <1>   0.0800 
 34 H       -2.2240     0.2640    -2.9680 H     1 <1>   0.0800 
 35 H        0.3300    -0.3800     1.3650 H     1 <1>   0.4500 
 36 H       -2.8350    -4.0150    -0.8920 H     1 <1>   0.0800 
 37 H       -3.3350     0.0730    -0.8170 H     1 <1>   0.0800 
 38 H       -3.9480    -1.1350    -1.8870 H     1 <1>   0.0800 
 39 H        1.4060     1.9770     2.7370 H     1 <1>   0.0800 
 40 H       -0.2690     1.4540     2.6300 H     1 <1>   0.0800 
 41 H        0.5800     1.9260     1.1840 H     1 <1>   0.0800 
 42 H        1.8960    -0.4350     3.8550 H     1 <1>   0.0800 
 43 H        1.2860    -1.8120     2.9420 H     1 <1>   0.0800 
 44 H        0.1670    -0.6930     3.6670 H     1 <1>   0.0800 
 45 H       -0.7340    -3.2750     0.1950 H     1 <1>   0.4000 
 46 H       -4.6290    -2.7510    -0.0470 H     1 <1>   0.0800 
 47 H       -3.5300    -3.1140     1.2470 H     1 <1>   0.0800 
 48 H       -3.7090    -0.7620     2.0500 H     1 <1>   0.0800 
 49 H       -4.8640    -0.4320     0.7890 H     1 <1>   0.0800 
 50 H       -5.2150    -2.4890     2.9830 H     1 <1>   0.0800 
 51 H       -6.3750    -2.1660     1.7120 H     1 <1>   0.0800 
 52 H       -6.0060    -0.9360     2.8960 H     1 <1>   0.0800 
@<TRIPOS>BOND
  1   1   2  1   
  2   1   3  1   
  3   2   4  2   
  4   2   5  1   
  5   3   6  2   
  6   3  24  1   
  7   4   6  1   
  8   4  25  1   
  9   5   7  1   
 10   5  26  1   
 11   5  27  1   
 12   6   8  1   
 13   7   9  1   
 14   7  10  1   
 15   7  28  1   
 16   8  11  1   
 17   8  29  1   
 18   8  30  1   
 19   9  12  1   
 20   9  31  1   
 21   9  32  1   
 22  10  13  1   
 23  10  33  1   
 24  10  34  1   
 25  11  14  1   
 26  11  15  1   
 27  11  35  1   
 28  12  16  1   
 29  12  17  1   
 30  12  36  1   
 31  13  17  1   
 32  13  37  1   
 33  13  38  1   
 34  14  39  1   
 35  14  40  1   
 36  14  41  1   
 37  15  42  1   
 38  15  43  1   
 39  15  44  1   
 40  16  45  1   
 41  17  18  1   
 42  17  19  1   
 43  18  20  ar  
 44  18  21  ar  
 45  19  22  1   
 46  19  46  1   
 47  19  47  1   
 48  22  23  1   
 49  22  48  1   
 50  22  49  1   
 51  23  50  1   
 52  23  51  1   
 53  23  52  1   
@<TRIPOS>SUBSTRUCTURE
  1 ****  18 GROUP 4 **** **** 0

# MOE 2024.06 (io_trps.svl 2023.06)
