@<TRIPOS>MOLECULE
NONAME
54 57 1 0 0 
SMALL
USER_CHARGES


@<TRIPOS>ATOM
  1 O        1.5550     0.1670     1.2090 O.3   1 <1>  -0.6800 
  2 C        1.8130     0.1280    -0.1600 C.3   1 <1>   0.2000 
  3 C        2.5410    -1.1680    -0.5140 C.3   1 <1>  -0.0800 
  4 C        2.8730     1.1850    -0.4790 C.3   1 <1>   0.3430 
  5 C        3.9970    -0.9080    -0.1050 C.3   1 <1>   0.3430 
  6 C        1.9680    -2.4650     0.0900 C.3   1 <1>  -0.0170 
  7 N        4.1810     0.5770    -0.0630 N.4   1 <1>  -0.9590 
  8 C        2.8790    -3.6370    -0.2350 C.ar  1 <1>  -0.1440 
  9 C        4.5540     1.0240     1.3050 C.3   1 <1>   0.5240 
 10 C        3.6730    -4.2340     0.7250 C.ar  1 <1>  -0.1500 
 11 C        2.9640    -4.1630    -1.5090 C.ar  1 <1>  -0.1500 
 12 C        4.8560     2.5040     1.2430 C.2   1 <1>  -0.1810 
 13 C        4.5060    -5.2820     0.3700 C.ar  1 <1>   0.1600 
 14 C        3.8310    -5.2140    -1.7600 C.ar  1 <1>   0.1600 
 15 C        4.0730     3.5050     1.8030 C.2   1 <1>   0.1390 
 16 C        5.8780     3.1620     0.6540 C.2   1 <1>  -0.3020 
 17 N        4.6100    -5.7760    -0.8520 N.ar  1 <1>  -0.6200 
 18 N        4.5530     4.6810     1.5680 N.2   1 <1>  -0.7070 
 19 N        5.6970     4.4930     0.8600 N.pl3 1 <1>   0.5930 
 20 C        6.5190     5.5510     0.3770 C.ar  1 <1>  -0.0230 
 21 C        7.9010     5.4050     0.2820 C.ar  1 <1>  -0.1500 
 22 C        5.9570     6.7580    -0.0210 C.ar  1 <1>  -0.1500 
 23 C        8.7030     6.4220    -0.2090 C.ar  1 <1>  -0.1440 
 24 C        6.7490     7.7780    -0.5120 C.ar  1 <1>  -0.1500 
 25 C        8.1220     7.6190    -0.6140 C.ar  1 <1>  -0.1440 
 26 C       10.2080     6.2070    -0.2930 C.3   1 <1>  -0.0970 
 27 C        8.9580     8.7670    -1.1620 C.3   1 <1>  -0.0970 
 28 H        0.7030    -0.2720     1.4200 H     1 <1>   0.4000 
 29 H        0.8940     0.2830    -0.7010 H     1 <1>   0.0800 
 30 H        2.5290    -1.2700    -1.5860 H     1 <1>   0.0800 
 31 H        2.6660     2.1130     0.0270 H     1 <1>   0.0800 
 32 H        2.8830     1.3610    -1.5420 H     1 <1>   0.0800 
 33 H        4.6730    -1.3700    -0.8070 H     1 <1>   0.0800 
 34 H        4.1720    -1.3310     0.8710 H     1 <1>   0.0800 
 35 H        0.9870    -2.6550    -0.3090 H     1 <1>   0.0800 
 36 H        1.8750    -2.3810     1.1590 H     1 <1>   0.0800 
 37 H        4.9260     0.8890    -0.6970 H     1 <1>   0.4500 
 38 H        3.7480     0.8360     1.9970 H     1 <1>   0.0800 
 39 H        5.4310     0.4960     1.6430 H     1 <1>   0.0800 
 40 H        3.6550    -3.9050     1.7490 H     1 <1>   0.1500 
 41 H        2.3660    -3.7740    -2.3130 H     1 <1>   0.1500 
 42 H        5.1180    -5.7400     1.1290 H     1 <1>   0.1500 
 43 H        3.8860    -5.6140    -2.7590 H     1 <1>   0.1500 
 44 H        3.1660     3.3470     2.3660 H     1 <1>   0.1500 
 45 H        6.7210     2.7930     0.1000 H     1 <1>   0.1500 
 46 H        8.3580     4.4860     0.6030 H     1 <1>   0.1500 
 47 H        4.8920     6.9030     0.0570 H     1 <1>   0.1500 
 48 H        6.2860     8.7010    -0.8140 H     1 <1>   0.1500 
 49 H       10.4850     5.2410     0.0910 H     1 <1>   0.0800 
 50 H       10.7200     6.9560     0.2840 H     1 <1>   0.0800 
 51 H       10.5320     6.2690    -1.3160 H     1 <1>   0.0800 
 52 H        8.3370     9.5970    -1.4450 H     1 <1>   0.0800 
 53 H        9.5040     8.4440    -2.0300 H     1 <1>   0.0800 
 54 H        9.6530     9.1050    -0.4150 H     1 <1>   0.0800 
@<TRIPOS>BOND
  1   1   2  1   
  2   1  28  1   
  3   2   3  1   
  4   2   4  1   
  5   2  29  1   
  6   3   5  1   
  7   3   6  1   
  8   3  30  1   
  9   4   7  1   
 10   4  31  1   
 11   4  32  1   
 12   5   7  1   
 13   5  33  1   
 14   5  34  1   
 15   6   8  1   
 16   6  35  1   
 17   6  36  1   
 18   7   9  1   
 19   7  37  1   
 20   8  10  ar  
 21   8  11  ar  
 22   9  12  1   
 23   9  38  1   
 24   9  39  1   
 25  10  13  ar  
 26  10  40  1   
 27  11  14  ar  
 28  11  41  1   
 29  12  15  1   
 30  12  16  2   
 31  13  17  ar  
 32  13  42  1   
 33  14  17  ar  
 34  14  43  1   
 35  15  18  2   
 36  15  44  1   
 37  16  19  1   
 38  16  45  1   
 39  18  19  1   
 40  19  20  1   
 41  20  21  ar  
 42  20  22  ar  
 43  21  23  ar  
 44  21  46  1   
 45  22  24  ar  
 46  22  47  1   
 47  23  25  ar  
 48  23  26  1   
 49  24  25  ar  
 50  24  48  1   
 51  25  27  1   
 52  26  49  1   
 53  26  50  1   
 54  26  51  1   
 55  27  52  1   
 56  27  53  1   
 57  27  54  1   
@<TRIPOS>SUBSTRUCTURE
  1 ****   7 GROUP 4 **** **** 0

# MOE 2024.06 (io_trps.svl 2023.06)
