@<TRIPOS>MOLECULE
NONAME
46 48 1 0 0 
SMALL
USER_CHARGES


@<TRIPOS>ATOM
  1 O       -0.3340     0.8350     0.4800 O.2   1 <1>  -0.5700 
  2 C       -0.3540     2.0190     0.2430 C.2   1 <1>   0.5690 
  3 N       -1.2810     2.8640     0.7910 N.am  1 <1>  -0.6600 
  4 C        0.6860     2.5790    -0.7270 C.3   1 <1>   0.1810 
  5 C       -1.3140     4.3220     0.4400 C.3   1 <1>   0.3640 
  6 C       -2.2800     2.4070     1.8010 C.3   1 <1>   0.0600 
  7 O        0.9270     3.9500    -0.5260 O.3   1 <1>  -0.5600 
  8 C       -2.7240     4.7490    -0.0040 C.ar  1 <1>  -0.1430 
  9 C       -0.2390     4.7620    -0.5910 C.3   1 <1>   0.2610 
 10 C       -3.4720     4.1170    -1.0040 C.ar  1 <1>  -0.1430 
 11 C       -3.2740     5.8470     0.6480 C.ar  1 <1>  -0.1500 
 12 C        0.1370     6.2280    -0.3470 C.2   1 <1>   0.5690 
 13 C       -4.7370     4.5960    -1.3140 C.ar  1 <1>  -0.1500 
 14 C       -2.9870     2.9010    -1.7860 C.3   1 <1>  -0.0960 
 15 C       -4.5340     6.3160     0.3290 C.ar  1 <1>  -0.1500 
 16 O       -0.6490     7.1070    -0.6050 O.2   1 <1>  -0.5700 
 17 N        1.3650     6.5260     0.1580 N.am  1 <1>  -0.7300 
 18 C       -5.2690     5.6880    -0.6550 C.ar  1 <1>  -0.1500 
 19 C        1.8420     7.8860     0.5100 C.3   1 <1>   0.1400 
 20 C        2.0790     8.7120    -0.7550 C.3   1 <1>   0.0960 
 21 N        2.4370    10.0870    -0.3820 N.pl3 1 <1>   0.3140 
 22 N        3.6040    10.4050     0.1610 N.2   1 <1>  -0.7070 
 23 C        1.6990    11.1960    -0.4890 C.2   1 <1>   0.0360 
 24 C        3.4890    11.6800     0.3360 C.2   1 <1>   0.3660 
 25 N        2.3270    12.2250    -0.0480 N.2   1 <1>  -0.5650 
 26 H        0.3570     2.4300    -1.7390 H     1 <1>   0.0800 
 27 H        1.6160     2.0600    -0.5850 H     1 <1>   0.0800 
 28 H       -1.0870     4.8470     1.3520 H     1 <1>   0.0800 
 29 H       -2.2170     3.0200     2.6830 H     1 <1>   0.0800 
 30 H       -2.0980     1.3830     2.0800 H     1 <1>   0.0800 
 31 H       -3.2740     2.4790     1.3930 H     1 <1>   0.0800 
 32 H       -0.6340     4.6900    -1.5860 H     1 <1>   0.0800 
 33 H       -2.7200     6.3620     1.4130 H     1 <1>   0.1500 
 34 H       -5.3260     4.1190    -2.0770 H     1 <1>   0.1500 
 35 H       -3.6210     2.7110    -2.6330 H     1 <1>   0.0800 
 36 H       -3.0060     2.0280    -1.1580 H     1 <1>   0.0800 
 37 H       -1.9920     3.0470    -2.1560 H     1 <1>   0.0800 
 38 H       -4.9400     7.1690     0.8430 H     1 <1>   0.1500 
 39 H        2.0170     5.7430     0.2940 H     1 <1>   0.3700 
 40 H       -6.2510     6.0470    -0.9090 H     1 <1>   0.1500 
 41 H        1.0930     8.3670     1.1180 H     1 <1>   0.0800 
 42 H        2.7550     7.8110     1.0770 H     1 <1>   0.0800 
 43 H        1.1900     8.7410    -1.3570 H     1 <1>   0.0800 
 44 H        2.8870     8.2930    -1.3260 H     1 <1>   0.0800 
 45 H        0.7040    11.2010    -0.8970 H     1 <1>   0.1500 
 46 H        4.2680    12.2920     0.7650 H     1 <1>   0.1500 
@<TRIPOS>BOND
  1   1   2  2   
  2   2   3  am  
  3   2   4  1   
  4   3   5  1   
  5   3   6  1   
  6   4   7  1   
  7   4  26  1   
  8   4  27  1   
  9   5   8  1   
 10   5   9  1   
 11   5  28  1   
 12   6  29  1   
 13   6  30  1   
 14   6  31  1   
 15   7   9  1   
 16   8  10  ar  
 17   8  11  ar  
 18   9  12  1   
 19   9  32  1   
 20  10  13  ar  
 21  10  14  1   
 22  11  15  ar  
 23  11  33  1   
 24  12  16  2   
 25  12  17  am  
 26  13  18  ar  
 27  13  34  1   
 28  14  35  1   
 29  14  36  1   
 30  14  37  1   
 31  15  18  ar  
 32  15  38  1   
 33  17  19  1   
 34  17  39  1   
 35  18  40  1   
 36  19  20  1   
 37  19  41  1   
 38  19  42  1   
 39  20  21  1   
 40  20  43  1   
 41  20  44  1   
 42  21  22  1   
 43  21  23  1   
 44  22  24  2   
 45  23  25  2   
 46  23  45  1   
 47  24  25  1   
 48  24  46  1   
@<TRIPOS>SUBSTRUCTURE
  1 ****  12 GROUP 4 **** **** 0

# MOE 2024.06 (io_trps.svl 2023.06)
