@<TRIPOS>MOLECULE
NONAME
47 49 1 0 0 
SMALL
USER_CHARGES


@<TRIPOS>ATOM
  1 O       -0.7610     0.3770    -0.6860 O.2   1 <1>  -0.5700 
  2 C       -1.7760     0.8580    -0.2380 C.2   1 <1>   0.5690 
  3 N       -2.8890     0.0810    -0.0420 N.am  1 <1>  -0.6600 
  4 C       -1.8050     2.3600     0.0870 C.3   1 <1>  -0.0190 
  5 C       -4.2240     0.5280     0.4260 C.3   1 <1>   0.1400 
  6 C       -2.9060    -1.3660    -0.3630 C.3   1 <1>   0.1400 
  7 C       -2.1750     3.1610    -1.1800 C.3   1 <1>  -0.1600 
  8 C       -0.4830     2.8130     0.7440 C.3   1 <1>  -0.1600 
  9 C       -5.1190    -0.7070     0.3120 C.3   1 <1>   0.2000 
 10 C       -4.1730    -1.9050     0.3030 C.3   1 <1>  -0.0800 
 11 C       -2.6540     4.5880    -0.8730 C.3   1 <1>  -0.1600 
 12 C       -0.4140     4.3010     1.1260 C.3   1 <1>  -0.1600 
 13 O       -5.9950    -0.8030     1.3820 O.3   1 <1>  -0.6800 
 14 C       -4.7820    -3.1340    -0.3950 C.3   1 <1>  -0.0170 
 15 C       -1.5400     5.6420    -0.7830 C.3   1 <1>  -0.1600 
 16 C       -0.2340     5.2090    -0.0980 C.3   1 <1>  -0.1600 
 17 C       -3.8400    -4.3260    -0.3620 C.ar  1 <1>   0.1670 
 18 N       -2.9110    -4.3720    -1.3040 N.ar  1 <1>  -0.6200 
 19 C       -3.9790    -5.2980     0.6280 C.ar  1 <1>   0.1600 
 20 C       -2.1370    -5.4380    -1.1880 C.ar  1 <1>   0.1600 
 21 N       -3.2060    -6.3640     0.7460 N.ar  1 <1>  -0.6200 
 22 C       -2.2790    -6.4010    -0.1970 C.ar  1 <1>   0.1600 
 23 H       -2.5740     2.5190     0.8190 H     1 <1>   0.0800 
 24 H       -4.1510     0.8550     1.4490 H     1 <1>   0.0800 
 25 H       -4.5940     1.3240    -0.1970 H     1 <1>   0.0800 
 26 H       -2.9500    -1.4860    -1.4330 H     1 <1>   0.0800 
 27 H       -2.0210    -1.8560     0.0090 H     1 <1>   0.0800 
 28 H       -1.3470     3.1730    -1.8690 H     1 <1>   0.0800 
 29 H       -2.9830     2.6470    -1.6710 H     1 <1>   0.0800 
 30 H       -0.3430     2.2290     1.6370 H     1 <1>   0.0800 
 31 H        0.3400     2.5790     0.0900 H     1 <1>   0.0800 
 32 H       -5.6950    -0.6550    -0.5970 H     1 <1>   0.0800 
 33 H       -3.9110    -2.1620     1.3140 H     1 <1>   0.0800 
 34 H       -3.3300     4.8980    -1.6520 H     1 <1>   0.0800 
 35 H       -3.2200     4.5900     0.0430 H     1 <1>   0.0800 
 36 H       -1.2760     4.5940     1.7000 H     1 <1>   0.0800 
 37 H        0.4480     4.4300     1.7580 H     1 <1>   0.0800 
 38 H       -5.5010    -0.8610     2.2220 H     1 <1>   0.4000 
 39 H       -5.0120    -2.8980    -1.4200 H     1 <1>   0.0800 
 40 H       -5.7060    -3.3940     0.0900 H     1 <1>   0.0800 
 41 H       -1.2940     5.9700    -1.7780 H     1 <1>   0.0800 
 42 H       -1.9350     6.4970    -0.2620 H     1 <1>   0.0800 
 43 H        0.2860     6.1010     0.2080 H     1 <1>   0.0800 
 44 H        0.3990     4.7180    -0.8170 H     1 <1>   0.0800 
 45 H       -4.7630    -5.1870     1.3560 H     1 <1>   0.1500 
 46 H       -1.3510    -5.5550    -1.9130 H     1 <1>   0.1500 
 47 H       -1.5990    -7.2340    -0.1850 H     1 <1>   0.1500 
@<TRIPOS>BOND
  1   1   2  2   
  2   2   3  am  
  3   2   4  1   
  4   3   5  1   
  5   3   6  1   
  6   4   7  1   
  7   4   8  1   
  8   4  23  1   
  9   5   9  1   
 10   5  24  1   
 11   5  25  1   
 12   6  10  1   
 13   6  26  1   
 14   6  27  1   
 15   7  11  1   
 16   7  28  1   
 17   7  29  1   
 18   8  12  1   
 19   8  30  1   
 20   8  31  1   
 21   9  10  1   
 22   9  13  1   
 23   9  32  1   
 24  10  14  1   
 25  10  33  1   
 26  11  15  1   
 27  11  34  1   
 28  11  35  1   
 29  12  16  1   
 30  12  36  1   
 31  12  37  1   
 32  13  38  1   
 33  14  17  1   
 34  14  39  1   
 35  14  40  1   
 36  15  16  1   
 37  15  41  1   
 38  15  42  1   
 39  16  43  1   
 40  16  44  1   
 41  17  18  ar  
 42  17  19  ar  
 43  18  20  ar  
 44  19  21  ar  
 45  19  45  1   
 46  20  22  ar  
 47  20  46  1   
 48  21  22  ar  
 49  22  47  1   
@<TRIPOS>SUBSTRUCTURE
  1 ****   3 GROUP 4 **** **** 0

# MOE 2024.06 (io_trps.svl 2023.06)
