@<TRIPOS>MOLECULE
NONAME
53 56 1 0 0 
SMALL
USER_CHARGES


@<TRIPOS>ATOM
  1 O        0.2740     0.5920     0.2870 O.2   1 <1>  -0.5700 
  2 C       -0.4490     1.4470    -0.1690 C.2   1 <1>   0.5690 
  3 N       -1.8080     1.4200     0.0060 N.am  1 <1>  -0.6600 
  4 C        0.2000     2.5850    -0.9360 C.3   1 <1>  -0.0990 
  5 C       -2.7700     2.4540    -0.5010 C.3   1 <1>   0.1400 
  6 C       -2.4730     0.3110     0.7520 C.3   1 <1>   0.1400 
  7 C        1.7110     2.3840    -1.1300 C.3   1 <1>   0.0960 
  8 C       -3.5800     3.0710     0.6540 C.3   1 <1>   0.1440 
  9 C       -3.2910     0.8780     1.9190 C.3   1 <1>  -0.1600 
 10 N        2.3260     3.5890    -1.7210 N.pl3 1 <1>   0.3140 
 11 C       -4.5540     4.0720     0.0630 C.ar  1 <1>   0.1660 
 12 C       -4.2880     1.9530     1.4490 C.3   1 <1>  -0.1600 
 13 C       -2.6970     3.9650     1.5680 C.3   1 <1>  -0.1600 
 14 N        1.8930     4.1390    -2.8360 N.2   1 <1>  -0.4180 
 15 C        3.3330     4.3280    -1.2790 C.2   1 <1>   0.0060 
 16 N       -5.6280     3.7690    -0.6210 N.ar  1 <1>  -0.6200 
 17 C       -4.1660     5.3540     0.3070 C.ar  1 <1>  -0.1430 
 18 C       -2.8810     5.4170     1.0930 C.3   1 <1>  -0.0170 
 19 N        2.6270     5.1720    -3.0400 N.2   1 <1>   0.0000 
 20 N        3.5310     5.3060    -2.0760 N.2   1 <1>  -0.3380 
 21 C        4.1410     4.0700    -0.0200 C.3   1 <1>  -0.0600 
 22 C       -6.3400     4.8110    -1.0570 C.ar  1 <1>   0.7200 
 23 C       -4.9560     6.3630    -0.1830 C.ar  1 <1>   0.1600 
 24 N       -6.0470     6.1020    -0.8650 N.ar  1 <1>  -0.6200 
 25 N       -7.4860     4.5300    -1.7760 N.pl3 1 <1>  -0.8380 
 26 C       -7.7900     3.1640    -2.2850 C.3   1 <1>   0.1290 
 27 C       -8.5110     5.5700    -2.0660 C.3   1 <1>   0.1290 
 28 H        0.0290     3.4960    -0.3930 H     1 <1>   0.0800 
 29 H       -0.2660     2.6550    -1.9020 H     1 <1>   0.0800 
 30 H       -3.4500     1.9820    -1.1890 H     1 <1>   0.0800 
 31 H       -2.2660     3.2380    -1.0360 H     1 <1>   0.0800 
 32 H       -1.7440    -0.3870     1.1290 H     1 <1>   0.0800 
 33 H       -3.1210    -0.2220     0.0770 H     1 <1>   0.0800 
 34 H        1.8910     1.5490    -1.7840 H     1 <1>   0.0800 
 35 H        2.1790     2.1820    -0.1840 H     1 <1>   0.0800 
 36 H       -2.6150     1.2910     2.6480 H     1 <1>   0.0800 
 37 H       -3.8270     0.0760     2.3940 H     1 <1>   0.0800 
 38 H       -5.0230     1.4880     0.8140 H     1 <1>   0.0800 
 39 H       -4.8120     2.3700     2.2910 H     1 <1>   0.0800 
 40 H       -1.6630     3.6710     1.5640 H     1 <1>   0.0800 
 41 H       -3.0560     3.9020     2.5800 H     1 <1>   0.0800 
 42 H       -2.0740     5.7130     0.4450 H     1 <1>   0.0800 
 43 H       -2.9550     6.0990     1.9220 H     1 <1>   0.0800 
 44 H        4.6130     3.1060    -0.0720 H     1 <1>   0.0800 
 45 H        3.5060     4.1120     0.8460 H     1 <1>   0.0800 
 46 H        4.9070     4.8200     0.0800 H     1 <1>   0.0800 
 47 H       -4.6930     7.3930    -0.0170 H     1 <1>   0.1500 
 48 H       -6.8800     2.6270    -2.4920 H     1 <1>   0.0800 
 49 H       -8.3600     3.2250    -3.1950 H     1 <1>   0.0800 
 50 H       -8.3550     2.6230    -1.5450 H     1 <1>   0.0800 
 51 H       -8.5250     6.3130    -1.2870 H     1 <1>   0.0800 
 52 H       -9.4880     5.1240    -2.1230 H     1 <1>   0.0800 
 53 H       -8.2820     6.0490    -3.0010 H     1 <1>   0.0800 
@<TRIPOS>BOND
  1   1   2  2   
  2   2   3  am  
  3   2   4  1   
  4   3   5  1   
  5   3   6  1   
  6   4   7  1   
  7   4  28  1   
  8   4  29  1   
  9   5   8  1   
 10   5  30  1   
 11   5  31  1   
 12   6   9  1   
 13   6  32  1   
 14   6  33  1   
 15   7  10  1   
 16   7  34  1   
 17   7  35  1   
 18   8  11  1   
 19   8  12  1   
 20   8  13  1   
 21   9  12  1   
 22   9  36  1   
 23   9  37  1   
 24  10  14  1   
 25  10  15  1   
 26  11  16  ar  
 27  11  17  ar  
 28  12  38  1   
 29  12  39  1   
 30  13  18  1   
 31  13  40  1   
 32  13  41  1   
 33  14  19  2   
 34  15  20  2   
 35  15  21  1   
 36  16  22  ar  
 37  17  18  1   
 38  17  23  ar  
 39  18  42  1   
 40  18  43  1   
 41  19  20  1   
 42  21  44  1   
 43  21  45  1   
 44  21  46  1   
 45  22  24  ar  
 46  22  25  1   
 47  23  24  ar  
 48  23  47  1   
 49  25  26  1   
 50  25  27  1   
 51  26  48  1   
 52  26  49  1   
 53  26  50  1   
 54  27  51  1   
 55  27  52  1   
 56  27  53  1   
@<TRIPOS>SUBSTRUCTURE
  1 ****   5 GROUP 4 **** **** 0

# MOE 2024.06 (io_trps.svl 2023.06)
