@<TRIPOS>MOLECULE
NONAME
45 47 1 0 0 
SMALL
USER_CHARGES


@<TRIPOS>ATOM
  1 O        1.5300    -1.2010    -2.4250 O.2   1 <1>  -0.5700 
  2 C        1.3850    -1.8130    -1.3780 C.2   1 <1>   0.5440 
  3 N        0.9550    -1.0800    -0.2830 N.am  1 <1>  -0.6600 
  4 C        1.6740    -3.2510    -1.3620 C.ar  1 <1>   0.3960 
  5 C        0.7610     0.3870    -0.3360 C.3   1 <1>   0.1400 
  6 C        0.8030    -1.5740     1.1080 C.3   1 <1>   0.1400 
  7 N        1.1160    -4.0640    -0.4480 N.ar  1 <1>  -0.6200 
  8 C        2.5320    -3.7590    -2.3470 C.ar  1 <1>   0.1600 
  9 C        0.8500     0.8450     1.1140 C.3   1 <1>  -0.1600 
 10 C        0.3750    -0.3580     1.9230 C.3   1 <1>  -0.1600 
 11 C        1.4500    -5.3280    -0.5810 C.ar  1 <1>   0.4100 
 12 N        2.8830    -5.0320    -2.4900 N.ar  1 <1>  -0.6200 
 13 N        0.8630    -6.1510     0.3360 N.pl3 1 <1>  -0.8690 
 14 C        2.3200    -5.7930    -1.5760 C.ar  1 <1>   0.1600 
 15 C       -0.2430    -6.9980    -0.0950 C.3   1 <1>   0.4690 
 16 C       -1.4370    -6.5560     0.7310 C.2   1 <1>  -0.3320 
 17 C        0.1580    -8.4620     0.1260 C.3   1 <1>  -0.1600 
 18 N       -2.1930    -5.4690     0.4440 N.pl3 1 <1>   0.3140 
 19 C       -1.9570    -7.0980     1.8570 C.2   1 <1>  -0.1500 
 20 C       -0.8890    -9.4610    -0.3940 C.3   1 <1>  -0.2400 
 21 N       -3.1740    -5.3060     1.3470 N.2   1 <1>  -0.7070 
 22 C       -2.0610    -4.5040    -0.6600 C.3   1 <1>   0.0160 
 23 C       -3.0280    -6.2820     2.1870 C.2   1 <1>   0.1390 
 24 H       -0.2150     0.5950    -0.7410 H     1 <1>   0.0800 
 25 H        1.5130     0.8600    -0.9460 H     1 <1>   0.0800 
 26 H        1.7480    -1.9520     1.4570 H     1 <1>   0.0800 
 27 H        0.0560    -2.3480     1.1640 H     1 <1>   0.0800 
 28 H        2.9500    -3.0680    -3.0580 H     1 <1>   0.1500 
 29 H        0.2550     1.7220     1.2940 H     1 <1>   0.0800 
 30 H        1.8770     1.0620     1.3490 H     1 <1>   0.0800 
 31 H        0.7900    -0.3760     2.9150 H     1 <1>   0.0800 
 32 H       -0.6990    -0.3490     1.9950 H     1 <1>   0.0800 
 33 H        0.5230    -5.6120     1.1370 H     1 <1>   0.4000 
 34 H        2.5440    -6.8440    -1.5900 H     1 <1>   0.1500 
 35 H       -0.4430    -6.8500    -1.1440 H     1 <1>   0.0800 
 36 H        0.3270    -8.6320     1.1750 H     1 <1>   0.0800 
 37 H        1.0840    -8.6450    -0.3890 H     1 <1>   0.0800 
 38 H       -1.6410    -7.9650     2.4090 H     1 <1>   0.1500 
 39 H       -1.8290    -9.3310     0.1120 H     1 <1>   0.0800 
 40 H       -0.5510   -10.4680    -0.2260 H     1 <1>   0.0800 
 41 H       -1.0460    -9.3260    -1.4500 H     1 <1>   0.0800 
 42 H       -1.4860    -4.9250    -1.4610 H     1 <1>   0.0800 
 43 H       -1.5780    -3.6190    -0.2910 H     1 <1>   0.0800 
 44 H       -3.0410    -4.2490    -1.0170 H     1 <1>   0.0800 
 45 H       -3.6700    -6.4300     3.0390 H     1 <1>   0.1500 
@<TRIPOS>BOND
  1   1   2  2   
  2   2   3  am  
  3   2   4  1   
  4   3   5  1   
  5   3   6  1   
  6   4   7  ar  
  7   4   8  ar  
  8   5   9  1   
  9   5  24  1   
 10   5  25  1   
 11   6  10  1   
 12   6  26  1   
 13   6  27  1   
 14   7  11  ar  
 15   8  12  ar  
 16   8  28  1   
 17   9  10  1   
 18   9  29  1   
 19   9  30  1   
 20  10  31  1   
 21  10  32  1   
 22  11  13  1   
 23  11  14  ar  
 24  12  14  ar  
 25  13  15  1   
 26  13  33  1   
 27  14  34  1   
 28  15  16  1   
 29  15  17  1   
 30  15  35  1   
 31  16  18  1   
 32  16  19  2   
 33  17  20  1   
 34  17  36  1   
 35  17  37  1   
 36  18  21  1   
 37  18  22  1   
 38  19  23  1   
 39  19  38  1   
 40  20  39  1   
 41  20  40  1   
 42  20  41  1   
 43  21  23  2   
 44  22  42  1   
 45  22  43  1   
 46  22  44  1   
 47  23  45  1   
@<TRIPOS>SUBSTRUCTURE
  1 ****   7 GROUP 4 **** **** 0

# MOE 2024.06 (io_trps.svl 2023.06)
