@<TRIPOS>MOLECULE
NONAME
47 49 1 0 0 
SMALL
USER_CHARGES


@<TRIPOS>ATOM
  1 S        0.3690     1.3680     1.4340 S.o2  1 <1>   1.3330 
  2 O        0.8280     1.5140     2.7950 O.2   1 <1>  -0.6500 
  3 O       -1.0380     1.4360     1.1210 O.2   1 <1>  -0.6500 
  4 N        1.1620     2.5630     0.5200 N.am  1 <1>  -0.8490 
  5 C        0.9990    -0.1530     0.7570 C.3   1 <1>  -0.1350 
  6 C        2.5410     2.8080     0.9930 C.3   1 <1>   0.1960 
  7 C        0.3560     3.7920     0.5250 C.3   1 <1>   0.1960 
  8 C        3.5090     3.0550    -0.1830 C.3   1 <1>   0.3430 
  9 C        0.9730     4.9490    -0.2670 C.3   1 <1>  -0.1600 
 10 N        3.2620     4.3130    -0.9600 N.4   1 <1>  -0.9590 
 11 C        1.8610     4.5100    -1.4270 C.3   1 <1>   0.3430 
 12 C        4.2250     4.4760    -2.0870 C.3   1 <1>   0.5230 
 13 C        4.5090     5.9600    -2.1910 C.2   1 <1>  -0.0400 
 14 O        4.9050     6.5360    -1.0840 O.3   1 <1>  -0.2800 
 15 C        4.4120     6.8810    -3.1740 C.2   1 <1>  -0.1500 
 16 C        5.0180     7.8390    -1.2660 C.2   1 <1>   0.0870 
 17 C        4.7480     8.1000    -2.5740 C.2   1 <1>  -0.1500 
 18 C        5.3550     8.6910    -0.1420 C.ar  1 <1>   0.0530 
 19 C        5.0250     8.3740     1.1910 C.ar  1 <1>   0.0730 
 20 C        6.0310     9.8860    -0.3850 C.ar  1 <1>  -0.1500 
 21 C        4.3180     7.1690     1.5310 C.1   1 <1>   0.4840 
 22 C        5.3810     9.2490     2.2110 C.ar  1 <1>  -0.1500 
 23 C        6.3760    10.7450     0.6400 C.ar  1 <1>  -0.1500 
 24 N        3.7720     6.1750     1.6890 N.1   1 <1>  -0.5570 
 25 C        6.0510    10.4260     1.9430 C.ar  1 <1>  -0.1500 
 26 H        0.5400    -0.9870     1.2530 H     1 <1>   0.0800 
 27 H        2.0590    -0.2190     0.8910 H     1 <1>   0.0800 
 28 H        0.7710    -0.2130    -0.2890 H     1 <1>   0.0800 
 29 H        2.9080     1.9380     1.5110 H     1 <1>   0.0800 
 30 H        2.5720     3.6220     1.6990 H     1 <1>   0.0800 
 31 H        0.1710     4.1080     1.5410 H     1 <1>   0.0800 
 32 H       -0.6020     3.5720     0.0820 H     1 <1>   0.0800 
 33 H        3.4480     2.2070    -0.8440 H     1 <1>   0.0800 
 34 H        4.5100     3.0870     0.2150 H     1 <1>   0.0800 
 35 H        1.5040     5.6080     0.3930 H     1 <1>   0.0800 
 36 H        0.1570     5.5230    -0.6680 H     1 <1>   0.0800 
 37 H        3.4780     5.1020    -0.3200 H     1 <1>   0.4500 
 38 H        1.8450     5.2890    -2.1720 H     1 <1>   0.0800 
 39 H        1.4750     3.6060    -1.8700 H     1 <1>   0.0800 
 40 H        3.8180     4.0930    -3.0080 H     1 <1>   0.0800 
 41 H        5.1480     3.9650    -1.8670 H     1 <1>   0.0800 
 42 H        4.1250     6.7600    -4.2060 H     1 <1>   0.1500 
 43 H        4.7600     9.0540    -3.0730 H     1 <1>   0.1500 
 44 H        6.2980    10.1500    -1.3940 H     1 <1>   0.1500 
 45 H        5.1320     9.0110     3.2330 H     1 <1>   0.1500 
 46 H        6.9000    11.6620     0.4250 H     1 <1>   0.1500 
 47 H        6.3200    11.0940     2.7450 H     1 <1>   0.1500 
@<TRIPOS>BOND
  1   1   2  2   
  2   1   3  2   
  3   1   4  am  
  4   1   5  1   
  5   4   6  1   
  6   4   7  1   
  7   5  26  1   
  8   5  27  1   
  9   5  28  1   
 10   6   8  1   
 11   6  29  1   
 12   6  30  1   
 13   7   9  1   
 14   7  31  1   
 15   7  32  1   
 16   8  10  1   
 17   8  33  1   
 18   8  34  1   
 19   9  11  1   
 20   9  35  1   
 21   9  36  1   
 22  10  11  1   
 23  10  12  1   
 24  10  37  1   
 25  11  38  1   
 26  11  39  1   
 27  12  13  1   
 28  12  40  1   
 29  12  41  1   
 30  13  14  1   
 31  13  15  2   
 32  14  16  1   
 33  15  17  1   
 34  15  42  1   
 35  16  17  2   
 36  16  18  1   
 37  17  43  1   
 38  18  19  ar  
 39  18  20  ar  
 40  19  21  1   
 41  19  22  ar  
 42  20  23  ar  
 43  20  44  1   
 44  21  24  3   
 45  22  25  ar  
 46  22  45  1   
 47  23  25  ar  
 48  23  46  1   
 49  25  47  1   
@<TRIPOS>SUBSTRUCTURE
  1 ****  10 GROUP 4 **** **** 0

# MOE 2024.06 (io_trps.svl 2023.06)
