@<TRIPOS>MOLECULE
NONAME
56 57 1 0 0 
SMALL
USER_CHARGES


@<TRIPOS>ATOM
  1 O       -1.5650    -0.2320     1.9440 O.2   1 <1>  -0.5700 
  2 C       -1.9220     0.2740     0.9050 C.2   1 <1>   0.5690 
  3 N       -2.7120    -0.4320     0.0220 N.am  1 <1>  -0.6600 
  4 C       -1.4480     1.7170     0.6720 C.3   1 <1>  -0.0190 
  5 C       -3.0600    -1.8550     0.3320 C.3   1 <1>   0.1400 
  6 C       -3.2050     0.0380    -1.3050 C.3   1 <1>   0.1400 
  7 C       -2.5960     2.7490     0.6100 C.3   1 <1>  -0.1600 
  8 C       -0.4330     1.8520    -0.4920 C.3   1 <1>  -0.1600 
  9 C       -4.1440    -1.9280     1.4140 C.3   1 <1>   0.1200 
 10 C       -4.7220     0.2240    -1.2720 C.3   1 <1>  -0.2400 
 11 C       -2.0740     4.2000     0.5790 C.3   1 <1>   0.2000 
 12 C       -0.4360     3.2470    -1.1430 C.3   1 <1>  -0.1600 
 13 O       -4.6890    -3.2350     1.4940 O.3   1 <1>  -0.3630 
 14 O       -3.0120     4.9780    -0.1260 O.3   1 <1>  -0.5600 
 15 C       -0.6820     4.3360    -0.0970 C.3   1 <1>   0.2000 
 16 C       -5.4370    -3.6810     0.4540 C.ar  1 <1>   0.0820 
 17 C       -4.1040     5.4120     0.6230 C.3   1 <1>   0.0400 
 18 O       -0.5990     5.5590    -0.7290 O.3   1 <1>  -0.6800 
 19 C       -4.9060    -4.6700    -0.3730 C.ar  1 <1>  -0.1440 
 20 C       -6.7170    -3.1730     0.2180 C.ar  1 <1>  -0.1440 
 21 C       -5.6340    -5.0990    -1.4700 C.ar  1 <1>  -0.1500 
 22 C       -3.5450    -5.2960    -0.0990 C.3   1 <1>  -0.0970 
 23 C       -7.4240    -3.6170    -0.8870 C.ar  1 <1>  -0.1500 
 24 C       -7.3890    -2.1670     1.1430 C.3   1 <1>  -0.0970 
 25 C       -6.8840    -4.5700    -1.7320 C.ar  1 <1>  -0.1500 
 26 H       -0.8970     1.9750     1.5610 H     1 <1>   0.0800 
 27 H       -3.4050    -2.3380    -0.5650 H     1 <1>   0.0800 
 28 H       -2.1810    -2.3710     0.6790 H     1 <1>   0.0800 
 29 H       -2.7430     0.9650    -1.5840 H     1 <1>   0.0800 
 30 H       -2.9450    -0.6860    -2.0580 H     1 <1>   0.0800 
 31 H       -3.2310     2.6190     1.4680 H     1 <1>   0.0800 
 32 H       -3.1860     2.5820    -0.2690 H     1 <1>   0.0800 
 33 H        0.5490     1.6510    -0.0980 H     1 <1>   0.0800 
 34 H       -0.6100     1.1130    -1.2520 H     1 <1>   0.0800 
 35 H       -4.9340    -1.2360     1.2000 H     1 <1>   0.0800 
 36 H       -3.7210    -1.6950     2.3740 H     1 <1>   0.0800 
 37 H       -5.0030     0.8840    -0.4720 H     1 <1>   0.0800 
 38 H       -5.2180    -0.7220    -1.1500 H     1 <1>   0.0800 
 39 H       -5.0500     0.6540    -2.2010 H     1 <1>   0.0800 
 40 H       -1.9870     4.5840     1.5820 H     1 <1>   0.0800 
 41 H       -1.2170     3.2940    -1.8820 H     1 <1>   0.0800 
 42 H        0.5070     3.4160    -1.6340 H     1 <1>   0.0800 
 43 H        0.0960     4.2950     0.6450 H     1 <1>   0.0800 
 44 H       -4.7410     5.9940    -0.0200 H     1 <1>   0.0800 
 45 H       -3.7560     6.0250     1.4370 H     1 <1>   0.0800 
 46 H       -4.6490     4.5610     0.9950 H     1 <1>   0.0800 
 47 H       -1.5260     5.8070    -0.9500 H     1 <1>   0.4000 
 48 H       -5.2320    -5.8520    -2.1250 H     1 <1>   0.1500 
 49 H       -3.4970    -6.2880    -0.5090 H     1 <1>   0.0800 
 50 H       -3.3680    -5.3660     0.9590 H     1 <1>   0.0800 
 51 H       -2.7680    -4.7020    -0.5430 H     1 <1>   0.0800 
 52 H       -8.4050    -3.2290    -1.0930 H     1 <1>   0.1500 
 53 H       -8.4490    -2.3390     1.1740 H     1 <1>   0.0800 
 54 H       -7.2130    -1.1670     0.7900 H     1 <1>   0.0800 
 55 H       -7.0110    -2.2600     2.1450 H     1 <1>   0.0800 
 56 H       -7.4420    -4.9080    -2.5880 H     1 <1>   0.1500 
@<TRIPOS>BOND
  1   1   2  2   
  2   2   3  am  
  3   2   4  1   
  4   3   5  1   
  5   3   6  1   
  6   4   7  1   
  7   4   8  1   
  8   4  26  1   
  9   5   9  1   
 10   5  27  1   
 11   5  28  1   
 12   6  10  1   
 13   6  29  1   
 14   6  30  1   
 15   7  11  1   
 16   7  31  1   
 17   7  32  1   
 18   8  12  1   
 19   8  33  1   
 20   8  34  1   
 21   9  13  1   
 22   9  35  1   
 23   9  36  1   
 24  10  37  1   
 25  10  38  1   
 26  10  39  1   
 27  11  14  1   
 28  11  15  1   
 29  11  40  1   
 30  12  15  1   
 31  12  41  1   
 32  12  42  1   
 33  13  16  1   
 34  14  17  1   
 35  15  18  1   
 36  15  43  1   
 37  16  19  ar  
 38  16  20  ar  
 39  17  44  1   
 40  17  45  1   
 41  17  46  1   
 42  18  47  1   
 43  19  21  ar  
 44  19  22  1   
 45  20  23  ar  
 46  20  24  1   
 47  21  25  ar  
 48  21  48  1   
 49  22  49  1   
 50  22  50  1   
 51  22  51  1   
 52  23  25  ar  
 53  23  52  1   
 54  24  53  1   
 55  24  54  1   
 56  24  55  1   
 57  25  56  1   
@<TRIPOS>SUBSTRUCTURE
  1 ****   3 GROUP 4 **** **** 0

# MOE 2024.06 (io_trps.svl 2023.06)
