@<TRIPOS>MOLECULE
NONAME
52 55 1 0 0 
SMALL
USER_CHARGES


@<TRIPOS>ATOM
  1 O       -0.4130     0.2700     0.4160 O.2   1 <1>  -0.5700 
  2 C       -1.3670     0.9130     0.8110 C.2   1 <1>   0.5440 
  3 N       -2.5580     0.2560     1.0290 N.am  1 <1>  -0.6600 
  4 C       -1.2350     2.3450     1.0170 C.ar  1 <1>   0.0860 
  5 C       -2.6330    -1.2400     1.0910 C.3   1 <1>   0.1400 
  6 C       -3.8910     0.8850     0.7840 C.3   1 <1>   0.1400 
  7 C       -0.5450     3.1390     0.1040 C.ar  1 <1>  -0.1500 
  8 C       -1.7870     2.9760     2.1320 C.ar  1 <1>  -0.1500 
  9 C       -3.4120    -1.8040    -0.1110 C.3   1 <1>   0.3440 
 10 C       -4.6090     0.2020    -0.3980 C.3   1 <1>   0.2950 
 11 C       -0.4200     4.5060     0.2760 C.ar  1 <1>   0.0820 
 12 C       -1.6710     4.3420     2.3170 C.ar  1 <1>  -0.1500 
 13 O       -4.6680    -1.1810    -0.2060 O.3   1 <1>  -0.5600 
 14 C       -3.5930    -3.3130     0.0280 C.ar  1 <1>  -0.1430 
 15 C       -6.0460     0.7100    -0.5490 C.3   1 <1>  -0.1950 
 16 O        0.2690     5.1810    -0.6770 O.3   1 <1>  -0.3620 
 17 C       -0.9920     5.1120     1.3910 C.ar  1 <1>  -0.1500 
 18 C       -4.7040    -3.8590     0.6590 C.ar  1 <1>  -0.1500 
 19 C       -2.6190    -4.1650    -0.4730 C.ar  1 <1>  -0.1500 
 20 C       -6.7720     0.6020    -1.8530 C.3   1 <1>  -0.2000 
 21 C       -6.3500     1.9480    -1.3350 C.3   1 <1>  -0.2000 
 22 C        0.4880     6.5830    -0.5740 C.3   1 <1>   0.1810 
 23 C       -4.8380    -5.2310     0.7860 C.ar  1 <1>  -0.1500 
 24 C       -2.7510    -5.5370    -0.3470 C.ar  1 <1>  -0.1500 
 25 C        1.3090     7.1140    -1.7440 C.2   1 <1>   0.5690 
 26 C       -3.8610    -6.0710     0.2830 C.ar  1 <1>  -0.1500 
 27 O        1.4540     8.3040    -1.8650 O.2   1 <1>  -0.5700 
 28 N        1.8740     6.2740    -2.6340 N.am  1 <1>  -0.8000 
 29 H       -1.6480    -1.6710     1.1080 H     1 <1>   0.0800 
 30 H       -3.1300    -1.5330     1.9980 H     1 <1>   0.0800 
 31 H       -4.4960     0.7910     1.6690 H     1 <1>   0.0800 
 32 H       -3.7850     1.9320     0.5630 H     1 <1>   0.0800 
 33 H       -0.0960     2.6750    -0.7550 H     1 <1>   0.1500 
 34 H       -2.3090     2.3830     2.8630 H     1 <1>   0.1500 
 35 H       -2.8700    -1.5970    -1.0180 H     1 <1>   0.0800 
 36 H       -4.0660     0.3900    -1.3090 H     1 <1>   0.0800 
 37 H       -2.1080     4.8060     3.1860 H     1 <1>   0.1500 
 38 H       -6.6250     0.5440     0.3430 H     1 <1>   0.1000 
 39 H       -0.9180     6.1700     1.5600 H     1 <1>   0.1500 
 40 H       -5.4720    -3.2140     1.0500 H     1 <1>   0.1500 
 41 H       -1.7490    -3.7640    -0.9640 H     1 <1>   0.1500 
 42 H       -6.2550     0.1760    -2.6960 H     1 <1>   0.1000 
 43 H       -7.8150     0.3360    -1.8350 H     1 <1>   0.1000 
 44 H       -7.1100     2.6200    -0.9740 H     1 <1>   0.1000 
 45 H       -5.5570     2.4630    -1.8510 H     1 <1>   0.1000 
 46 H       -0.4660     7.0760    -0.5620 H     1 <1>   0.0800 
 47 H        1.0160     6.7780     0.3420 H     1 <1>   0.0800 
 48 H       -5.7040    -5.6420     1.2740 H     1 <1>   0.1500 
 49 H       -1.9910    -6.1890    -0.7390 H     1 <1>   0.1500 
 50 H       -3.9650    -7.1370     0.3810 H     1 <1>   0.1500 
 51 H        2.4190     6.6380    -3.4160 H     1 <1>   0.3700 
 52 H        1.7630     5.2610    -2.5670 H     1 <1>   0.3700 
@<TRIPOS>BOND
  1   1   2  2   
  2   2   3  am  
  3   2   4  1   
  4   3   5  1   
  5   3   6  1   
  6   4   7  ar  
  7   4   8  ar  
  8   5   9  1   
  9   5  29  1   
 10   5  30  1   
 11   6  10  1   
 12   6  31  1   
 13   6  32  1   
 14   7  11  ar  
 15   7  33  1   
 16   8  12  ar  
 17   8  34  1   
 18   9  13  1   
 19   9  14  1   
 20   9  35  1   
 21  10  13  1   
 22  10  15  1   
 23  10  36  1   
 24  11  16  1   
 25  11  17  ar  
 26  12  17  ar  
 27  12  37  1   
 28  14  18  ar  
 29  14  19  ar  
 30  15  20  1   
 31  15  21  1   
 32  15  38  1   
 33  16  22  1   
 34  17  39  1   
 35  18  23  ar  
 36  18  40  1   
 37  19  24  ar  
 38  19  41  1   
 39  20  21  1   
 40  20  42  1   
 41  20  43  1   
 42  21  44  1   
 43  21  45  1   
 44  22  25  1   
 45  22  46  1   
 46  22  47  1   
 47  23  26  ar  
 48  23  48  1   
 49  24  26  ar  
 50  24  49  1   
 51  25  27  2   
 52  25  28  am  
 53  26  50  1   
 54  28  51  1   
 55  28  52  1   
@<TRIPOS>SUBSTRUCTURE
  1 ****   2 GROUP 4 **** **** 0

# MOE 2024.06 (io_trps.svl 2023.06)
