@<TRIPOS>MOLECULE
NONAME
47 49 1 0 0 
SMALL
USER_CHARGES


@<TRIPOS>ATOM
  1 F       -0.6330    -2.0010    -1.6760 F     1 <1>  -0.3400 
  2 C       -1.7710    -1.8910    -0.9970 C.3   1 <1>   1.1640 
  3 F       -1.4810    -1.1440     0.0670 F     1 <1>  -0.3400 
  4 F       -2.5820    -1.1470    -1.7440 F     1 <1>  -0.3400 
  5 C       -2.3900    -3.2720    -0.6240 C.ar  1 <1>   0.1660 
  6 N       -2.7460    -4.1080    -1.6090 N.ar  1 <1>  -0.6200 
  7 C       -2.5600    -3.6120     0.7170 C.ar  1 <1>  -0.1500 
  8 C       -3.2670    -5.2700    -1.2500 C.ar  1 <1>   0.1600 
  9 C       -3.1140    -4.8250     1.0670 C.ar  1 <1>  -0.1500 
 10 C       -3.4980    -5.6890     0.0550 C.ar  1 <1>   0.0860 
 11 C       -4.1070    -6.9690     0.3330 C.2   1 <1>   0.5440 
 12 O       -3.5420    -7.7450     1.0790 O.2   1 <1>  -0.5700 
 13 N       -5.3290    -7.3230    -0.1960 N.am  1 <1>  -0.6600 
 14 C       -5.8960    -8.6880     0.0390 C.3   1 <1>   0.1400 
 15 C       -6.3260    -6.3360    -0.7020 C.3   1 <1>   0.1400 
 16 C       -6.7320    -8.7550     1.3280 C.3   1 <1>   0.1400 
 17 C       -6.9510    -5.5300     0.4450 C.3   1 <1>  -0.1600 
 18 N       -7.7930    -7.6950     1.3740 N.am  1 <1>  -0.6600 
 19 C       -7.2840    -6.3370     1.7090 C.3   1 <1>   0.1400 
 20 C       -9.1070    -7.8930     1.0050 C.2   1 <1>   0.5440 
 21 O       -9.8390    -6.9300     0.8790 O.2   1 <1>  -0.5700 
 22 C       -9.6270    -9.2120     0.7370 C.ar  1 <1>   0.0860 
 23 C       -9.7640   -10.1440     1.7610 C.ar  1 <1>   0.1600 
 24 C      -10.0030    -9.6070    -0.5380 C.ar  1 <1>  -0.1500 
 25 N      -10.1930   -11.3880     1.6220 N.ar  1 <1>  -0.6200 
 26 C      -10.4660   -10.8940    -0.7130 C.ar  1 <1>  -0.1430 
 27 C      -10.5350   -11.7330     0.3900 C.ar  1 <1>   0.1600 
 28 C      -10.8900   -11.3770    -2.0900 C.3   1 <1>  -0.0970 
 29 H       -2.2630    -2.9370     1.5020 H     1 <1>   0.1500 
 30 H       -3.5370    -5.9450    -2.0450 H     1 <1>   0.1500 
 31 H       -3.2480    -5.1070     2.0980 H     1 <1>   0.1500 
 32 H       -5.0930    -9.4030     0.1090 H     1 <1>   0.0800 
 33 H       -6.5060    -8.9760    -0.7980 H     1 <1>   0.0800 
 34 H       -7.1110    -6.8620    -1.2180 H     1 <1>   0.0800 
 35 H       -5.8740    -5.6680    -1.4130 H     1 <1>   0.0800 
 36 H       -6.0750    -8.6400     2.1730 H     1 <1>   0.0800 
 37 H       -7.1690    -9.7340     1.4020 H     1 <1>   0.0800 
 38 H       -7.8580    -5.0800     0.0830 H     1 <1>   0.0800 
 39 H       -6.2950    -4.7230     0.7150 H     1 <1>   0.0800 
 40 H       -8.0210    -5.8080     2.2900 H     1 <1>   0.0800 
 41 H       -6.3990    -6.4310     2.3160 H     1 <1>   0.0800 
 42 H       -9.4950    -9.8340     2.7570 H     1 <1>   0.1500 
 43 H       -9.9320    -8.9120    -1.3570 H     1 <1>   0.1500 
 44 H      -10.8920   -12.7400     0.2550 H     1 <1>   0.1500 
 45 H      -11.2950   -10.5640    -2.6660 H     1 <1>   0.0800 
 46 H      -11.6450   -12.1390    -2.0070 H     1 <1>   0.0800 
 47 H      -10.0430   -11.7840    -2.6120 H     1 <1>   0.0800 
@<TRIPOS>BOND
  1   1   2  1   
  2   2   3  1   
  3   2   4  1   
  4   2   5  1   
  5   5   6  ar  
  6   5   7  ar  
  7   6   8  ar  
  8   7   9  ar  
  9   7  29  1   
 10   8  10  ar  
 11   8  30  1   
 12   9  10  ar  
 13   9  31  1   
 14  10  11  1   
 15  11  12  2   
 16  11  13  am  
 17  13  14  1   
 18  13  15  1   
 19  14  16  1   
 20  14  32  1   
 21  14  33  1   
 22  15  17  1   
 23  15  34  1   
 24  15  35  1   
 25  16  18  1   
 26  16  36  1   
 27  16  37  1   
 28  17  19  1   
 29  17  38  1   
 30  17  39  1   
 31  18  19  1   
 32  18  20  am  
 33  19  40  1   
 34  19  41  1   
 35  20  21  2   
 36  20  22  1   
 37  22  23  ar  
 38  22  24  ar  
 39  23  25  ar  
 40  23  42  1   
 41  24  26  ar  
 42  24  43  1   
 43  25  27  ar  
 44  26  27  ar  
 45  26  28  1   
 46  27  44  1   
 47  28  45  1   
 48  28  46  1   
 49  28  47  1   
@<TRIPOS>SUBSTRUCTURE
  1 ****  15 GROUP 4 **** **** 0

# MOE 2024.06 (io_trps.svl 2023.06)
