@<TRIPOS>MOLECULE
NONAME
54 58 1 0 0 
SMALL
USER_CHARGES


@<TRIPOS>ATOM
  1 O        1.0900     0.0110     0.7480 O.2   1 <1>  -0.5700 
  2 C        1.8440    -0.6460     0.0550 C.2   1 <1>   0.5440 
  3 N        3.0030    -0.0550    -0.4100 N.am  1 <1>  -0.6600 
  4 C        1.5030    -2.0250    -0.2410 C.ar  1 <1>   0.0860 
  5 C        4.2160    -0.8370    -0.8090 C.3   1 <1>   0.1400 
  6 C        3.1410     1.4290    -0.4190 C.3   1 <1>   0.1400 
  7 C        1.0980    -2.8900     0.7700 C.ar  1 <1>  -0.1500 
  8 C        1.5610    -2.5200    -1.5600 C.ar  1 <1>  -0.1500 
  9 C        5.4290    -0.5360     0.0850 C.3   1 <1>   0.1400 
 10 C        3.8960     1.8950     0.8310 C.3   1 <1>  -0.1600 
 11 C        0.7800    -4.2140     0.4820 C.ar  1 <1>   0.0000 
 12 C        1.2480    -3.8300    -1.8590 C.ar  1 <1>  -0.1500 
 13 N        5.9650     0.8330    -0.1670 N.am  1 <1>  -0.6600 
 14 C        5.4220     1.9390     0.6730 C.3   1 <1>   0.1400 
 15 C        0.8610    -4.6670    -0.8220 C.ar  1 <1>   0.1400 
 16 C        0.3540    -5.3360     1.2220 C.2   1 <1>  -0.1500 
 17 C        6.8400     1.0500    -1.2110 C.2   1 <1>   0.7150 
 18 O        0.5220    -5.9530    -0.8910 O.3   1 <1>  -0.2800 
 19 C        0.2180    -6.3450     0.3410 C.2   1 <1>  -0.0400 
 20 O        7.0170     0.1630    -2.0270 O.2   1 <1>  -0.5700 
 21 C        7.5340     2.2920    -1.3630 C.2   1 <1>  -0.2370 
 22 C       -0.2080    -7.7820     0.5420 C.3   1 <1>  -0.0600 
 23 N        8.4810     2.7270    -0.4770 N.pl3 1 <1>   0.2940 
 24 C        7.4190     3.2320    -2.3550 C.2   1 <1>  -0.1500 
 25 C        8.9280     3.9320    -0.9060 C.2   1 <1>  -0.3020 
 26 C        8.9550     2.0290     0.7430 C.3   1 <1>  -0.0910 
 27 C        8.2960     4.2720    -2.0610 C.2   1 <1>  -0.1500 
 28 C       10.4250     1.7970     0.9370 C.3   1 <1>  -0.2000 
 29 C        9.5220     0.6440     0.6340 C.3   1 <1>  -0.2000 
 30 H        4.4630    -0.6240    -1.8350 H     1 <1>   0.0800 
 31 H        4.0160    -1.8900    -0.7360 H     1 <1>   0.0800 
 32 H        2.1600     1.8720    -0.4230 H     1 <1>   0.0800 
 33 H        3.6470     1.7480    -1.3150 H     1 <1>   0.0800 
 34 H        1.0250    -2.5340     1.7820 H     1 <1>   0.1500 
 35 H        1.8540    -1.8480    -2.3480 H     1 <1>   0.1500 
 36 H        6.2010    -1.2550    -0.1310 H     1 <1>   0.0800 
 37 H        5.1600    -0.6500     1.1200 H     1 <1>   0.0800 
 38 H        3.6250     1.2740     1.6670 H     1 <1>   0.0800 
 39 H        3.5670     2.8900     1.0720 H     1 <1>   0.0800 
 40 H        1.2920    -4.2160    -2.8620 H     1 <1>   0.1500 
 41 H        5.8830     1.9030     1.6450 H     1 <1>   0.0800 
 42 H        5.6780     2.8850     0.2270 H     1 <1>   0.0800 
 43 H        0.1850    -5.3330     2.2830 H     1 <1>   0.1500 
 44 H       -0.4240    -7.9660     1.5780 H     1 <1>   0.0800 
 45 H        0.5790    -8.4420     0.2240 H     1 <1>   0.0800 
 46 H       -1.0890    -7.9830    -0.0410 H     1 <1>   0.0800 
 47 H        6.7720     3.1850    -3.2140 H     1 <1>   0.1500 
 48 H        9.6780     4.4840    -0.3700 H     1 <1>   0.1500 
 49 H        8.3590     2.2740     1.6020 H     1 <1>   0.1000 
 50 H        8.4340     5.1610    -2.6530 H     1 <1>   0.1500 
 51 H       10.8410     1.8670     1.9270 H     1 <1>   0.1000 
 52 H       11.1140     2.1200     0.1740 H     1 <1>   0.1000 
 53 H        9.5850     0.1790    -0.3360 H     1 <1>   0.1000 
 54 H        9.3200    -0.0650     1.4180 H     1 <1>   0.1000 
@<TRIPOS>BOND
  1   1   2  2   
  2   2   3  am  
  3   2   4  1   
  4   3   5  1   
  5   3   6  1   
  6   4   7  ar  
  7   4   8  ar  
  8   5   9  1   
  9   5  30  1   
 10   5  31  1   
 11   6  10  1   
 12   6  32  1   
 13   6  33  1   
 14   7  11  ar  
 15   7  34  1   
 16   8  12  ar  
 17   8  35  1   
 18   9  13  1   
 19   9  36  1   
 20   9  37  1   
 21  10  14  1   
 22  10  38  1   
 23  10  39  1   
 24  11  15  ar  
 25  11  16  1   
 26  12  15  ar  
 27  12  40  1   
 28  13  14  1   
 29  13  17  am  
 30  14  41  1   
 31  14  42  1   
 32  15  18  1   
 33  16  19  2   
 34  16  43  1   
 35  17  20  2   
 36  17  21  1   
 37  18  19  1   
 38  19  22  1   
 39  21  23  1   
 40  21  24  2   
 41  22  44  1   
 42  22  45  1   
 43  22  46  1   
 44  23  25  1   
 45  23  26  1   
 46  24  27  1   
 47  24  47  1   
 48  25  27  2   
 49  25  48  1   
 50  26  28  1   
 51  26  29  1   
 52  26  49  1   
 53  27  50  1   
 54  28  29  1   
 55  28  51  1   
 56  28  52  1   
 57  29  53  1   
 58  29  54  1   
@<TRIPOS>SUBSTRUCTURE
  1 ****   5 GROUP 4 **** **** 0

# MOE 2024.06 (io_trps.svl 2023.06)
