@<TRIPOS>MOLECULE
NONAME
50 52 1 0 0 
SMALL
USER_CHARGES


@<TRIPOS>ATOM
  1 O       -3.9210     2.2580    -2.7010 O.2   1 <1>  -0.5700 
  2 C       -2.8210     2.1210    -2.2200 C.2   1 <1>   0.5690 
  3 N       -2.2760     0.8990    -2.0030 N.am  1 <1>  -0.7300 
  4 C       -1.9980     3.3520    -1.8270 C.3   1 <1>   0.1710 
  5 C       -2.9250    -0.4050    -2.2450 C.3   1 <1>   0.2200 
  6 N       -0.9810     3.0900    -0.7640 N.3   1 <1>  -0.8100 
  7 C       -3.3320    -1.0090    -0.9120 C.3   1 <1>  -0.0800 
  8 C       -1.8960    -1.4120    -2.7600 C.3   1 <1>   0.1200 
  9 C        0.0250     4.1670    -0.7200 C.3   1 <1>   0.2530 
 10 C       -1.6260     2.9100     0.5500 C.3   1 <1>   0.0300 
 11 C       -2.0300    -1.6800    -0.4730 C.3   1 <1>   0.1200 
 12 C       -4.4820    -2.0200    -1.0780 C.3   1 <1>  -0.0160 
 13 O       -1.3790    -2.0780    -1.6430 O.3   1 <1>  -0.5600 
 14 C        1.1650     3.8220     0.2300 C.ar  1 <1>  -0.1440 
 15 C       -4.9020    -2.6080     0.2600 C.ar  1 <1>  -0.1440 
 16 C        1.4850     4.6650     1.2850 C.ar  1 <1>  -0.1500 
 17 C        1.9000     2.6600     0.0450 C.ar  1 <1>  -0.1500 
 18 C       -5.6650    -1.8910     1.1600 C.ar  1 <1>  -0.1500 
 19 C       -4.5440    -3.8840     0.6460 C.ar  1 <1>  -0.1500 
 20 C        2.5250     4.3500     2.1420 C.ar  1 <1>  -0.1500 
 21 C        2.9400     2.3440     0.9010 C.ar  1 <1>  -0.1500 
 22 C       -6.0190    -2.4660     2.3690 C.ar  1 <1>   0.1600 
 23 C       -4.9520    -4.3660     1.8790 C.ar  1 <1>   0.1600 
 24 C        3.2540     3.1890     1.9500 C.ar  1 <1>  -0.1500 
 25 N       -5.6790    -3.6870     2.7510 N.ar  1 <1>  -0.6200 
 26 H       -1.3710     0.8870    -1.5180 H     1 <1>   0.3700 
 27 H       -2.6690     4.1310    -1.5100 H     1 <1>   0.0800 
 28 H       -1.5020     3.6880    -2.7200 H     1 <1>   0.0800 
 29 H       -3.7500    -0.2830    -2.9260 H     1 <1>   0.0800 
 30 H       -3.6330    -0.2490    -0.2130 H     1 <1>   0.0800 
 31 H       -1.0950    -0.9400    -3.3000 H     1 <1>   0.0800 
 32 H       -2.3700    -2.1500    -3.3830 H     1 <1>   0.0800 
 33 H        0.4410     4.3060    -1.7030 H     1 <1>   0.0800 
 34 H       -0.4420     5.0900    -0.4220 H     1 <1>   0.0800 
 35 H       -0.8930     2.6290     1.2880 H     1 <1>   0.0800 
 36 H       -2.3630     2.1270     0.5030 H     1 <1>   0.0800 
 37 H       -2.1050     3.8210     0.8650 H     1 <1>   0.0800 
 38 H       -2.1800    -2.5360     0.1590 H     1 <1>   0.0800 
 39 H       -1.3910    -0.9730     0.0280 H     1 <1>   0.0800 
 40 H       -4.1880    -2.8130    -1.7440 H     1 <1>   0.0800 
 41 H       -5.3310    -1.5250    -1.5180 H     1 <1>   0.0800 
 42 H        0.9260     5.5690     1.4450 H     1 <1>   0.1500 
 43 H        1.6530     1.9990    -0.7670 H     1 <1>   0.1500 
 44 H       -5.9870    -0.8910     0.9320 H     1 <1>   0.1500 
 45 H       -3.9520    -4.5070     0.0010 H     1 <1>   0.1500 
 46 H        2.7690     5.0080     2.9580 H     1 <1>   0.1500 
 47 H        3.5030     1.4390     0.7500 H     1 <1>   0.1500 
 48 H       -6.6140    -1.8920     3.0580 H     1 <1>   0.1500 
 49 H       -4.6630    -5.3630     2.1630 H     1 <1>   0.1500 
 50 H        4.0630     2.9440     2.6160 H     1 <1>   0.1500 
@<TRIPOS>BOND
  1   1   2  2   
  2   2   3  am  
  3   2   4  1   
  4   3   5  1   
  5   3  26  1   
  6   4   6  1   
  7   4  27  1   
  8   4  28  1   
  9   5   7  1   
 10   5   8  1   
 11   5  29  1   
 12   6   9  1   
 13   6  10  1   
 14   7  11  1   
 15   7  12  1   
 16   7  30  1   
 17   8  13  1   
 18   8  31  1   
 19   8  32  1   
 20   9  14  1   
 21   9  33  1   
 22   9  34  1   
 23  10  35  1   
 24  10  36  1   
 25  10  37  1   
 26  11  13  1   
 27  11  38  1   
 28  11  39  1   
 29  12  15  1   
 30  12  40  1   
 31  12  41  1   
 32  14  16  ar  
 33  14  17  ar  
 34  15  18  ar  
 35  15  19  ar  
 36  16  20  ar  
 37  16  42  1   
 38  17  21  ar  
 39  17  43  1   
 40  18  22  ar  
 41  18  44  1   
 42  19  23  ar  
 43  19  45  1   
 44  20  24  ar  
 45  20  46  1   
 46  21  24  ar  
 47  21  47  1   
 48  22  25  ar  
 49  22  48  1   
 50  23  25  ar  
 51  23  49  1   
 52  24  50  1   
@<TRIPOS>SUBSTRUCTURE
  1 ****   3 GROUP 4 **** **** 0

# MOE 2024.06 (io_trps.svl 2023.06)
