@<TRIPOS>MOLECULE
NONAME
38 40 1 0 0 
SMALL
USER_CHARGES


@<TRIPOS>ATOM
  1 S       -2.5100     0.9270    -0.9740 S.3   1 <1>  -0.0800 
  2 C       -1.8910     0.6130     0.6400 C.2   1 <1>  -0.1400 
  3 C       -1.0580     1.8080    -1.4110 C.2   1 <1>  -0.1100 
  4 C       -0.6680     1.1580     0.7860 C.2   1 <1>  -0.1500 
  5 C       -2.7620    -0.1770     1.6060 C.3   1 <1>   0.0810 
  6 C       -0.1940     1.8370    -0.3800 C.2   1 <1>  -0.1500 
  7 C       -2.8020    -1.6670     1.2890 C.2   1 <1>   0.5690 
  8 O       -1.9110    -2.3540     1.7330 O.2   1 <1>  -0.5700 
  9 N       -3.8240    -2.2210     0.5620 N.am  1 <1>  -0.6600 
 10 C       -5.0110    -1.5270     0.0020 C.3   1 <1>   0.1400 
 11 C       -3.8610    -3.6650     0.2270 C.3   1 <1>   0.1400 
 12 C       -5.8080    -2.6150    -0.7210 C.3   1 <1>   0.2000 
 13 C       -5.3160    -3.9450    -0.1520 C.3   1 <1>  -0.0800 
 14 O       -7.1700    -2.4840    -0.4970 O.3   1 <1>  -0.6800 
 15 C       -5.5000    -5.1130    -1.1360 C.3   1 <1>  -0.0170 
 16 C       -5.0550    -6.4350    -0.5330 C.ar  1 <1>   0.1670 
 17 N       -3.7620    -6.7060    -0.5910 N.ar  1 <1>  -0.6200 
 18 C       -5.9940    -7.2890     0.0450 C.ar  1 <1>   0.1600 
 19 C       -3.4710    -7.8700    -0.0350 C.ar  1 <1>   0.1600 
 20 N       -5.7060    -8.4540     0.6010 N.ar  1 <1>  -0.6200 
 21 C       -4.4120    -8.7150     0.5420 C.ar  1 <1>   0.1600 
 22 H       -1.0040     2.2140    -2.4050 H     1 <1>   0.1500 
 23 H       -0.0650     1.1080     1.6770 H     1 <1>   0.1500 
 24 H       -2.3590    -0.0680     2.5950 H     1 <1>   0.0800 
 25 H       -3.7520     0.2350     1.6190 H     1 <1>   0.0800 
 26 H        0.7720     2.3120    -0.3870 H     1 <1>   0.1500 
 27 H       -5.5870    -1.0970     0.8010 H     1 <1>   0.0800 
 28 H       -4.7090    -0.7660    -0.6940 H     1 <1>   0.0800 
 29 H       -3.2030    -3.8490    -0.6050 H     1 <1>   0.0800 
 30 H       -3.5460    -4.2680     1.0630 H     1 <1>   0.0800 
 31 H       -5.6290    -2.5510    -1.7820 H     1 <1>   0.0800 
 32 H       -5.8430    -4.1610     0.7610 H     1 <1>   0.0800 
 33 H       -7.3660    -2.5510     0.4570 H     1 <1>   0.4000 
 34 H       -4.9360    -4.9300    -2.0340 H     1 <1>   0.0800 
 35 H       -6.5370    -5.1780    -1.4160 H     1 <1>   0.0800 
 36 H       -7.0290    -6.9950     0.0490 H     1 <1>   0.1500 
 37 H       -2.4380    -8.1700    -0.0350 H     1 <1>   0.1500 
 38 H       -4.0770    -9.6430     0.9710 H     1 <1>   0.1500 
@<TRIPOS>BOND
  1   1   2  1   
  2   1   3  1   
  3   2   4  2   
  4   2   5  1   
  5   3   6  2   
  6   3  22  1   
  7   4   6  1   
  8   4  23  1   
  9   5   7  1   
 10   5  24  1   
 11   5  25  1   
 12   6  26  1   
 13   7   8  2   
 14   7   9  am  
 15   9  10  1   
 16   9  11  1   
 17  10  12  1   
 18  10  27  1   
 19  10  28  1   
 20  11  13  1   
 21  11  29  1   
 22  11  30  1   
 23  12  13  1   
 24  12  14  1   
 25  12  31  1   
 26  13  15  1   
 27  13  32  1   
 28  14  33  1   
 29  15  16  1   
 30  15  34  1   
 31  15  35  1   
 32  16  17  ar  
 33  16  18  ar  
 34  17  19  ar  
 35  18  20  ar  
 36  18  36  1   
 37  19  21  ar  
 38  19  37  1   
 39  20  21  ar  
 40  21  38  1   
@<TRIPOS>SUBSTRUCTURE
  1 ****  11 GROUP 4 **** **** 0

# MOE 2024.06 (io_trps.svl 2023.06)
