@<TRIPOS>MOLECULE
NONAME
41 43 1 0 0 
SMALL
USER_CHARGES


@<TRIPOS>ATOM
  1 CL       0.6330     0.7400     0.4560 Cl    1 <1>  -0.1770 
  2 C        1.5680    -0.6380    -0.0610 C.ar  1 <1>   0.1770 
  3 C        1.4360    -1.8330     0.6280 C.ar  1 <1>  -0.1500 
  4 C        2.4190    -0.5100    -1.1460 C.ar  1 <1>  -0.1500 
  5 C        2.1710    -2.9410     0.2230 C.ar  1 <1>  -0.1440 
  6 C        3.1580    -1.6070    -1.5590 C.ar  1 <1>  -0.1500 
  7 C        3.0170    -2.7980    -0.8670 C.ar  1 <1>   0.1900 
  8 C        2.0590    -4.2670     0.9510 C.3   1 <1>   0.4870 
  9 F        3.7050    -3.8340    -1.2680 F     1 <1>  -0.1900 
 10 N        1.4320    -5.2760     0.0530 N.4   1 <1>  -0.9590 
 11 C        0.0170    -4.9070    -0.2730 C.3   1 <1>   0.3430 
 12 C        1.3930    -6.6140     0.7220 C.3   1 <1>   0.3430 
 13 C       -0.8570    -5.7980     0.6160 C.3   1 <1>   0.2000 
 14 C       -0.0640    -7.1000     0.6790 C.3   1 <1>  -0.0800 
 15 O       -0.8850    -5.2450     1.8920 O.3   1 <1>  -0.6800 
 16 C       -0.3650    -8.0050    -0.5350 C.3   1 <1>   0.0200 
 17 C        0.4920    -9.2550    -0.5250 C.2   1 <1>  -0.0400 
 18 O        1.7500    -9.1820    -0.8690 O.3   1 <1>  -0.0190 
 19 C        0.2230   -10.5330    -0.2200 C.2   1 <1>  -0.1500 
 20 N        2.3420   -10.3340    -0.7910 N.2   1 <1>  -0.4100 
 21 C        1.4450   -11.1720    -0.4100 C.2   1 <1>   0.1080 
 22 C        1.6960   -12.6490    -0.1980 C.3   1 <1>  -0.0590 
 23 H        0.7640    -1.8760     1.4690 H     1 <1>   0.1500 
 24 H        2.4980     0.4350    -1.6560 H     1 <1>   0.1500 
 25 H        3.8290    -1.5400    -2.3980 H     1 <1>   0.1500 
 26 H        1.4620    -4.1490     1.8410 H     1 <1>   0.0800 
 27 H        3.0440    -4.5950     1.2410 H     1 <1>   0.0800 
 28 H        2.0020    -5.3160    -0.8050 H     1 <1>   0.4500 
 29 H       -0.1910    -3.8650    -0.0980 H     1 <1>   0.0800 
 30 H       -0.1830    -5.1360    -1.3070 H     1 <1>   0.0800 
 31 H        2.0710    -7.3050     0.2510 H     1 <1>   0.0800 
 32 H        1.6850    -6.5090     1.7550 H     1 <1>   0.0800 
 33 H       -1.8660    -5.8990     0.2520 H     1 <1>   0.0800 
 34 H       -0.2950    -7.6550     1.5720 H     1 <1>   0.0800 
 35 H       -1.5740    -5.6690     2.4490 H     1 <1>   0.4000 
 36 H       -0.2000    -7.4870    -1.4630 H     1 <1>   0.0800 
 37 H       -1.3990    -8.3040    -0.5050 H     1 <1>   0.0800 
 38 H       -0.6940   -10.9960     0.0970 H     1 <1>   0.1500 
 39 H        1.0780   -13.2230    -0.8640 H     1 <1>   0.0800 
 40 H        1.4680   -12.9180     0.8170 H     1 <1>   0.0800 
 41 H        2.7270   -12.8800    -0.3960 H     1 <1>   0.0800 
@<TRIPOS>BOND
  1   1   2  1   
  2   2   3  ar  
  3   2   4  ar  
  4   3   5  ar  
  5   3  23  1   
  6   4   6  ar  
  7   4  24  1   
  8   5   7  ar  
  9   5   8  1   
 10   6   7  ar  
 11   6  25  1   
 12   7   9  1   
 13   8  10  1   
 14   8  26  1   
 15   8  27  1   
 16  10  11  1   
 17  10  12  1   
 18  10  28  1   
 19  11  13  1   
 20  11  29  1   
 21  11  30  1   
 22  12  14  1   
 23  12  31  1   
 24  12  32  1   
 25  13  14  1   
 26  13  15  1   
 27  13  33  1   
 28  14  16  1   
 29  14  34  1   
 30  15  35  1   
 31  16  17  1   
 32  16  36  1   
 33  16  37  1   
 34  17  18  1   
 35  17  19  2   
 36  18  20  1   
 37  19  21  1   
 38  19  38  1   
 39  20  21  2   
 40  21  22  1   
 41  22  39  1   
 42  22  40  1   
 43  22  41  1   
@<TRIPOS>SUBSTRUCTURE
  1 ****  10 GROUP 4 **** **** 0

# MOE 2024.06 (io_trps.svl 2023.06)
