@<TRIPOS>MOLECULE
NONAME
48 49 1 0 0 
SMALL
USER_CHARGES


@<TRIPOS>ATOM
  1 S        1.5590     0.3150     1.2020 S.o2  1 <1>   1.3330 
  2 O        1.5700    -1.1310     1.1810 O.2   1 <1>  -0.6500 
  3 O        2.0560     1.0140     2.3670 O.2   1 <1>  -0.6500 
  4 N       -0.0370     0.8210     0.9270 N.am  1 <1>  -0.8490 
  5 C        2.4400     0.9260    -0.2320 C.3   1 <1>  -0.0550 
  6 C       -0.7660    -0.0300    -0.0190 C.3   1 <1>   0.1160 
  7 C       -0.8000     0.9480     2.1710 C.3   1 <1>   0.1160 
  8 C        3.9540     0.6670    -0.1620 C.3   1 <1>  -0.0800 
  9 C        4.7010     1.2710    -1.3310 C.3   1 <1>   0.2200 
 10 C        4.3740    -0.7940    -0.2460 C.3   1 <1>   0.1200 
 11 N        4.9550     2.7000    -1.0650 N.am  1 <1>  -0.7300 
 12 C        5.9650     0.4200    -1.4020 C.3   1 <1>   0.1200 
 13 O        5.6800    -0.7800    -0.7370 O.3   1 <1>  -0.5600 
 14 C        4.1810     3.7090    -1.5580 C.2   1 <1>   0.5440 
 15 O        3.5200     3.4910    -2.5560 O.2   1 <1>  -0.5700 
 16 C        4.1250     4.9970    -0.8950 C.ar  1 <1>   0.0860 
 17 C        4.1240     5.1280     0.5030 C.ar  1 <1>   0.0820 
 18 C        4.0470     6.1630    -1.6570 C.ar  1 <1>  -0.1500 
 19 O        4.1750     4.0030     1.2620 O.3   1 <1>  -0.3630 
 20 C        4.0620     6.3900     1.0880 C.ar  1 <1>  -0.1500 
 21 C        3.9830     7.4160    -1.0770 C.ar  1 <1>  -0.1440 
 22 C        3.7310     3.9730     2.6020 C.3   1 <1>   0.0400 
 23 C        3.9930     7.5250     0.3030 C.ar  1 <1>  -0.1500 
 24 C        3.8990     8.6680    -1.9320 C.3   1 <1>  -0.0970 
 25 H        2.0420     0.4790    -1.1210 H     1 <1>   0.0800 
 26 H        2.2780     1.9850    -0.3010 H     1 <1>   0.0800 
 27 H       -1.7400     0.3840    -0.2140 H     1 <1>   0.0800 
 28 H       -0.8810    -1.0250     0.3800 H     1 <1>   0.0800 
 29 H       -0.2330    -0.0920    -0.9520 H     1 <1>   0.0800 
 30 H       -1.7990     1.2900     1.9640 H     1 <1>   0.0800 
 31 H       -0.3280     1.6650     2.8220 H     1 <1>   0.0800 
 32 H       -0.8470    -0.0010     2.6800 H     1 <1>   0.0800 
 33 H        4.3430     1.0640     0.7610 H     1 <1>   0.0800 
 34 H        4.1480     1.1460    -2.2480 H     1 <1>   0.0800 
 35 H        3.7650    -1.3420    -0.9460 H     1 <1>   0.0800 
 36 H        4.3610    -1.2850     0.7130 H     1 <1>   0.0800 
 37 H        5.3790     2.8870    -0.1510 H     1 <1>   0.3700 
 38 H        6.7850     0.8910    -0.8900 H     1 <1>   0.0800 
 39 H        6.2350     0.1970    -2.4180 H     1 <1>   0.0800 
 40 H        4.0330     6.0670    -2.7300 H     1 <1>   0.1500 
 41 H        4.0710     6.5080     2.1550 H     1 <1>   0.1500 
 42 H        3.7210     2.9490     2.9300 H     1 <1>   0.0800 
 43 H        2.7340     4.3770     2.6500 H     1 <1>   0.0800 
 44 H        4.4090     4.5420     3.2120 H     1 <1>   0.0800 
 45 H        3.9450     8.4950     0.7660 H     1 <1>   0.1500 
 46 H        2.9910     9.2000    -1.7130 H     1 <1>   0.0800 
 47 H        3.9060     8.4220    -2.9780 H     1 <1>   0.0800 
 48 H        4.7370     9.3100    -1.7250 H     1 <1>   0.0800 
@<TRIPOS>BOND
  1   1   2  2   
  2   1   3  2   
  3   1   4  am  
  4   1   5  1   
  5   4   6  1   
  6   4   7  1   
  7   5   8  1   
  8   5  25  1   
  9   5  26  1   
 10   6  27  1   
 11   6  28  1   
 12   6  29  1   
 13   7  30  1   
 14   7  31  1   
 15   7  32  1   
 16   8   9  1   
 17   8  10  1   
 18   8  33  1   
 19   9  11  1   
 20   9  12  1   
 21   9  34  1   
 22  10  13  1   
 23  10  35  1   
 24  10  36  1   
 25  11  14  am  
 26  11  37  1   
 27  12  13  1   
 28  12  38  1   
 29  12  39  1   
 30  14  15  2   
 31  14  16  1   
 32  16  17  ar  
 33  16  18  ar  
 34  17  19  1   
 35  17  20  ar  
 36  18  21  ar  
 37  18  40  1   
 38  19  22  1   
 39  20  23  ar  
 40  20  41  1   
 41  21  23  ar  
 42  21  24  1   
 43  22  42  1   
 44  22  43  1   
 45  22  44  1   
 46  23  45  1   
 47  24  46  1   
 48  24  47  1   
 49  24  48  1   
@<TRIPOS>SUBSTRUCTURE
  1 ****  11 GROUP 4 **** **** 0

# MOE 2024.06 (io_trps.svl 2023.06)
