@<TRIPOS>MOLECULE
NONAME
66 69 1 0 0 
SMALL
USER_CHARGES


@<TRIPOS>ATOM
  1 O        0.3630    -1.4250    -0.0540 O.3   1 <1>  -0.5600 
  2 C       -0.5290    -2.4100     0.4210 C.3   1 <1>   0.2800 
  3 C        0.0470    -0.0790     0.1910 C.3   1 <1>   0.1200 
  4 C       -1.9550    -1.8470     0.6520 C.3   1 <1>  -0.1600 
  5 C        0.0770    -2.9670     1.7200 C.3   1 <1>  -0.1600 
  6 C       -0.5160    -3.5360    -0.6360 C.3   1 <1>  -0.1600 
  7 C       -1.2680     0.3140    -0.5060 C.3   1 <1>   0.2000 
  8 C       -2.3720    -0.7840    -0.3760 C.3   1 <1>   0.2800 
  9 C        1.5060    -3.5060     1.5390 C.3   1 <1>   0.3430 
 10 C        0.7270    -4.4280    -0.6000 C.3   1 <1>   0.3430 
 11 O       -1.6700     1.5410     0.0240 O.3   1 <1>  -0.6800 
 12 O       -2.5000    -1.4230    -1.5920 O.3   1 <1>  -0.6800 
 13 C       -3.7790    -0.2580    -0.0620 C.3   1 <1>  -0.2400 
 14 N        1.8260    -3.6980     0.0870 N.4   1 <1>  -0.9590 
 15 C        3.1900    -4.1640    -0.2780 C.3   1 <1>   0.4230 
 16 C        3.5420    -5.5030     0.3750 C.3   1 <1>  -0.1600 
 17 C        4.2260    -3.1020     0.0900 C.3   1 <1>  -0.1600 
 18 C        4.9490    -5.9390    -0.0370 C.3   1 <1>   0.3430 
 19 C        5.6250    -3.5570    -0.3210 C.3   1 <1>   0.3430 
 20 N        5.9430    -4.8770     0.3070 N.4   1 <1>  -0.9590 
 21 C        7.3190    -5.3500    -0.0720 C.3   1 <1>   0.3430 
 22 C        8.4250    -4.4920     0.5480 C.3   1 <1>  -0.0170 
 23 C        9.7590    -5.1170     0.1950 C.ar  1 <1>  -0.1430 
 24 C       10.3230    -6.0740     1.0260 C.ar  1 <1>  -0.1500 
 25 C       10.4200    -4.7470    -0.9670 C.ar  1 <1>  -0.1500 
 26 C       11.5310    -6.6610     0.6930 C.ar  1 <1>  -0.1500 
 27 C       11.6280    -5.3350    -1.2990 C.ar  1 <1>  -0.1500 
 28 C       12.1840    -6.2930    -0.4700 C.ar  1 <1>  -0.1500 
 29 H       -0.0240     0.0620     1.2550 H     1 <1>   0.0800 
 30 H        0.8510     0.5250    -0.1920 H     1 <1>   0.0800 
 31 H       -2.6770    -2.6450     0.6650 H     1 <1>   0.0800 
 32 H       -1.9950    -1.3960     1.6270 H     1 <1>   0.0800 
 33 H        0.0800    -2.2110     2.4840 H     1 <1>   0.0800 
 34 H       -0.5480    -3.7650     2.0810 H     1 <1>   0.0800 
 35 H       -1.3750    -4.1700    -0.5050 H     1 <1>   0.0800 
 36 H       -0.6050    -3.1060    -1.6180 H     1 <1>   0.0800 
 37 H       -1.0630     0.4940    -1.5470 H     1 <1>   0.0800 
 38 H        1.6070    -4.4360     2.0750 H     1 <1>   0.0800 
 39 H        2.1940    -2.7930     1.9620 H     1 <1>   0.0800 
 40 H        1.0080    -4.6820    -1.6100 H     1 <1>   0.0800 
 41 H        0.5070    -5.3390    -0.0660 H     1 <1>   0.0800 
 42 H       -2.0280     1.4370     0.9260 H     1 <1>   0.4000 
 43 H       -2.9190    -0.8150    -2.2330 H     1 <1>   0.4000 
 44 H       -3.8090     0.1830     0.9180 H     1 <1>   0.0800 
 45 H       -4.4970    -1.0590    -0.0850 H     1 <1>   0.0800 
 46 H       -4.0700     0.4940    -0.7740 H     1 <1>   0.0800 
 47 H        1.7030    -2.7340    -0.2920 H     1 <1>   0.4500 
 48 H        3.2210    -4.2940    -1.3500 H     1 <1>   0.0800 
 49 H        3.5010    -5.4370     1.4470 H     1 <1>   0.0800 
 50 H        2.8480    -6.2600     0.0560 H     1 <1>   0.0800 
 51 H        4.0010    -2.1850    -0.4260 H     1 <1>   0.0800 
 52 H        4.2230    -2.9040     1.1470 H     1 <1>   0.0800 
 53 H        4.9740    -6.1280    -1.0990 H     1 <1>   0.0800 
 54 H        5.2040    -6.8580     0.4690 H     1 <1>   0.0800 
 55 H        6.3460    -2.8160    -0.0120 H     1 <1>   0.0800 
 56 H        5.6780    -3.6440    -1.3960 H     1 <1>   0.0800 
 57 H        5.9490    -4.7630     1.3320 H     1 <1>   0.4500 
 58 H        7.4590    -6.3630     0.2690 H     1 <1>   0.0800 
 59 H        7.4320    -5.3500    -1.1440 H     1 <1>   0.0800 
 60 H        8.3980    -3.4870     0.1670 H     1 <1>   0.0800 
 61 H        8.3210    -4.4600     1.6190 H     1 <1>   0.0800 
 62 H        9.8370    -6.3730     1.9380 H     1 <1>   0.1500 
 63 H       10.0110    -4.0010    -1.6250 H     1 <1>   0.1500 
 64 H       11.9680    -7.4030     1.3390 H     1 <1>   0.1500 
 65 H       12.1400    -5.0460    -2.2010 H     1 <1>   0.1500 
 66 H       13.1240    -6.7490    -0.7280 H     1 <1>   0.1500 
@<TRIPOS>BOND
  1   1   2  1   
  2   1   3  1   
  3   2   4  1   
  4   2   5  1   
  5   2   6  1   
  6   3   7  1   
  7   3  29  1   
  8   3  30  1   
  9   4   8  1   
 10   4  31  1   
 11   4  32  1   
 12   5   9  1   
 13   5  33  1   
 14   5  34  1   
 15   6  10  1   
 16   6  35  1   
 17   6  36  1   
 18   7   8  1   
 19   7  11  1   
 20   7  37  1   
 21   8  12  1   
 22   8  13  1   
 23   9  14  1   
 24   9  38  1   
 25   9  39  1   
 26  10  14  1   
 27  10  40  1   
 28  10  41  1   
 29  11  42  1   
 30  12  43  1   
 31  13  44  1   
 32  13  45  1   
 33  13  46  1   
 34  14  15  1   
 35  14  47  1   
 36  15  16  1   
 37  15  17  1   
 38  15  48  1   
 39  16  18  1   
 40  16  49  1   
 41  16  50  1   
 42  17  19  1   
 43  17  51  1   
 44  17  52  1   
 45  18  20  1   
 46  18  53  1   
 47  18  54  1   
 48  19  20  1   
 49  19  55  1   
 50  19  56  1   
 51  20  21  1   
 52  20  57  1   
 53  21  22  1   
 54  21  58  1   
 55  21  59  1   
 56  22  23  1   
 57  22  60  1   
 58  22  61  1   
 59  23  24  ar  
 60  23  25  ar  
 61  24  26  ar  
 62  24  62  1   
 63  25  27  ar  
 64  25  63  1   
 65  26  28  ar  
 66  26  64  1   
 67  27  28  ar  
 68  27  65  1   
 69  28  66  1   
@<TRIPOS>SUBSTRUCTURE
  1 ****  17 GROUP 4 **** **** 0

# MOE 2024.06 (io_trps.svl 2023.06)
