@<TRIPOS>MOLECULE
NONAME
51 54 1 0 0 
SMALL
USER_CHARGES


@<TRIPOS>ATOM
  1 O       -0.0700    -0.2490    -0.9570 O.2   1 <1>  -0.5700 
  2 C        0.8300    -0.7140    -0.2840 C.2   1 <1>   0.5440 
  3 N        1.7280     0.1040     0.3430 N.am  1 <1>  -0.4930 
  4 C        0.9660    -2.1520    -0.1480 C.ar  1 <1>   0.0860 
  5 C        2.0500     1.4610     0.1080 C.2   1 <1>   0.0630 
  6 C       -0.1350    -2.9860    -0.1610 C.ar  1 <1>  -0.1500 
  7 C        2.2330    -2.7560    -0.0010 C.ar  1 <1>  -0.1500 
  8 C        3.3740     1.9060     0.0360 C.2   1 <1>   0.3720 
  9 C        1.2980     2.5680    -0.0760 C.2   1 <1>  -0.3320 
 10 C       -0.0350    -4.3750    -0.0190 C.ar  1 <1>   0.3100 
 11 C        2.3630    -4.1130     0.1390 C.ar  1 <1>  -0.1500 
 12 N        3.4590     3.1770    -0.1960 N.2   1 <1>  -0.7070 
 13 N        4.4940     1.0630     0.1870 N.pl3 1 <1>  -0.8210 
 14 N        2.1720     3.5870    -0.2740 N.pl3 1 <1>   0.3140 
 15 C       -0.2150     2.7260    -0.0690 C.3   1 <1>  -0.0600 
 16 N       -1.1640    -5.1270    -0.0330 N.ar  1 <1>  -0.6200 
 17 C        1.2440    -4.9570     0.1380 C.ar  1 <1>   0.3100 
 18 C        5.1840     0.8570    -1.1150 C.3   1 <1>   0.2090 
 19 C        5.4910     1.6040     1.1550 C.3   1 <1>   0.2090 
 20 C        1.8460     4.9930    -0.5430 C.3   1 <1>   0.0160 
 21 C       -0.9680    -6.4010     0.1080 C.ar  1 <1>   0.1670 
 22 N        1.4190    -6.2920     0.2840 N.ar  1 <1>  -0.6200 
 23 C        6.6740     0.9140    -0.8140 C.3   1 <1>  -0.1600 
 24 C        6.7640     1.8710     0.3620 C.3   1 <1>  -0.1600 
 25 C        0.3210    -6.9820     0.2660 C.ar  1 <1>   0.1670 
 26 C       -2.2120    -7.2730     0.0950 C.3   1 <1>  -0.0970 
 27 C        0.4760    -8.4850     0.4260 C.3   1 <1>  -0.0970 
 28 H        2.5130    -0.3610     0.8010 H     1 <1>   0.3700 
 29 H       -1.1190    -2.5700    -0.2850 H     1 <1>   0.1500 
 30 H        3.1160    -2.1390    -0.0110 H     1 <1>   0.1500 
 31 H        3.3290    -4.5720     0.2510 H     1 <1>   0.1500 
 32 H       -0.6790     1.8510     0.3500 H     1 <1>   0.0800 
 33 H       -0.5770     2.8550    -1.0730 H     1 <1>   0.0800 
 34 H       -0.5050     3.5720     0.5270 H     1 <1>   0.0800 
 35 H        4.9220     1.6440    -1.8040 H     1 <1>   0.0800 
 36 H        4.9070    -0.0910    -1.5420 H     1 <1>   0.0800 
 37 H        5.6770     0.8570     1.9070 H     1 <1>   0.0800 
 38 H        5.1410     2.5020     1.6380 H     1 <1>   0.0800 
 39 H        1.1520     5.0430    -1.3600 H     1 <1>   0.0800 
 40 H        2.7460     5.5190    -0.8000 H     1 <1>   0.0800 
 41 H        1.4120     5.4270     0.3370 H     1 <1>   0.0800 
 42 H        7.2400     1.2520    -1.6640 H     1 <1>   0.0800 
 43 H        7.0140    -0.0640    -0.5240 H     1 <1>   0.0800 
 44 H        7.6470     1.7210     0.9560 H     1 <1>   0.0800 
 45 H        6.7400     2.8880     0.0100 H     1 <1>   0.0800 
 46 H       -3.0920    -6.6670    -0.0360 H     1 <1>   0.0800 
 47 H       -2.3030    -7.8020     1.0260 H     1 <1>   0.0800 
 48 H       -2.1640    -7.9750    -0.7160 H     1 <1>   0.0800 
 49 H       -0.0490    -8.8210     1.3010 H     1 <1>   0.0800 
 50 H        1.5140    -8.7450     0.5350 H     1 <1>   0.0800 
 51 H        0.0910    -8.9910    -0.4400 H     1 <1>   0.0800 
@<TRIPOS>BOND
  1   1   2  2   
  2   2   3  am  
  3   2   4  1   
  4   3   5  1   
  5   3  28  1   
  6   4   6  ar  
  7   4   7  ar  
  8   5   8  1   
  9   5   9  2   
 10   6  10  ar  
 11   6  29  1   
 12   7  11  ar  
 13   7  30  1   
 14   8  12  2   
 15   8  13  1   
 16   9  14  1   
 17   9  15  1   
 18  10  16  ar  
 19  10  17  ar  
 20  11  17  ar  
 21  11  31  1   
 22  12  14  1   
 23  13  18  1   
 24  13  19  1   
 25  14  20  1   
 26  15  32  1   
 27  15  33  1   
 28  15  34  1   
 29  16  21  ar  
 30  17  22  ar  
 31  18  23  1   
 32  18  35  1   
 33  18  36  1   
 34  19  24  1   
 35  19  37  1   
 36  19  38  1   
 37  20  39  1   
 38  20  40  1   
 39  20  41  1   
 40  21  25  ar  
 41  21  26  1   
 42  22  25  ar  
 43  23  24  1   
 44  23  42  1   
 45  23  43  1   
 46  24  44  1   
 47  24  45  1   
 48  25  27  1   
 49  26  46  1   
 50  26  47  1   
 51  26  48  1   
 52  27  49  1   
 53  27  50  1   
 54  27  51  1   
@<TRIPOS>SUBSTRUCTURE
  1 ****   4 GROUP 4 **** **** 0

# MOE 2024.06 (io_trps.svl 2023.06)
