@<TRIPOS>MOLECULE
NONAME
50 51 1 0 0 
SMALL
USER_CHARGES


@<TRIPOS>ATOM
  1 O        3.9850     0.8260     1.6250 O.2   1 <1>  -0.5700 
  2 C        3.2890     0.0340     1.0080 C.2   1 <1>   0.6900 
  3 N        2.9060     0.3390    -0.2760 N.am  1 <1>  -0.6600 
  4 N        2.9030    -1.1450     1.6000 N.am  1 <1>  -0.6600 
  5 C        2.9360     1.7520    -0.7280 C.3   1 <1>   0.1400 
  6 C        3.0420    -0.6490    -1.3800 C.3   1 <1>   0.1400 
  7 C        3.5930    -1.6450     2.8180 C.3   1 <1>   0.0600 
  8 C        1.5950    -1.7930     1.3150 C.3   1 <1>   0.0600 
  9 C        4.2840     2.0250    -1.3990 C.3   1 <1>  -0.0190 
 10 C        4.3320    -0.3810    -2.1710 C.3   1 <1>  -0.1600 
 11 C        4.3890     3.5080    -1.7100 C.2   1 <1>   0.5690 
 12 C        4.4620     1.0880    -2.6110 C.3   1 <1>  -0.1600 
 13 O        4.1370     3.9060    -2.8230 O.2   1 <1>  -0.5700 
 14 N        4.7580     4.3170    -0.6710 N.am  1 <1>  -0.4940 
 15 C        4.9770     5.7110    -0.5460 C.2   1 <1>  -0.0880 
 16 N        4.4770     6.7330    -1.2990 N.pl3 1 <1>   0.3140 
 17 C        5.7340     6.2880     0.4180 C.2   1 <1>  -0.1810 
 18 N        4.8940     7.9320    -0.8360 N.2   1 <1>  -0.7070 
 19 C        3.5310     6.6890    -2.4210 C.3   1 <1>   0.0160 
 20 C        5.6400     7.6570     0.1830 C.2   1 <1>   0.1080 
 21 C        6.5200     5.6010     1.5230 C.3   1 <1>   0.0210 
 22 C        6.3110     8.7420     0.9940 C.3   1 <1>  -0.0590 
 23 C        5.6300     5.3580     2.7430 C.3   1 <1>  -0.2400 
 24 H        2.7960     2.4060     0.1160 H     1 <1>   0.0800 
 25 H        2.1320     1.9250    -1.4220 H     1 <1>   0.0800 
 26 H        2.1880    -0.5650    -2.0310 H     1 <1>   0.0800 
 27 H        3.0690    -1.6510    -0.9870 H     1 <1>   0.0800 
 28 H        4.5920    -1.2450     2.8720 H     1 <1>   0.0800 
 29 H        3.6540    -2.7180     2.7910 H     1 <1>   0.0800 
 30 H        3.0490    -1.3370     3.6940 H     1 <1>   0.0800 
 31 H        1.0250    -1.2070     0.6160 H     1 <1>   0.0800 
 32 H        1.0270    -1.8820     2.2250 H     1 <1>   0.0800 
 33 H        1.7590    -2.7730     0.9030 H     1 <1>   0.0800 
 34 H        5.0610     1.7970    -0.6900 H     1 <1>   0.0800 
 35 H        4.3590    -1.0220    -3.0350 H     1 <1>   0.0800 
 36 H        5.1710    -0.6420    -1.5490 H     1 <1>   0.0800 
 37 H        5.4270     1.2520    -3.0600 H     1 <1>   0.0800 
 38 H        3.7110     1.3100    -3.3510 H     1 <1>   0.0800 
 39 H        4.9680     3.8080     0.1900 H     1 <1>   0.3700 
 40 H        2.7530     5.9830    -2.2030 H     1 <1>   0.0800 
 41 H        4.0570     6.3950    -3.3100 H     1 <1>   0.0800 
 42 H        3.1040     7.6640    -2.5620 H     1 <1>   0.0800 
 43 H        7.3630     6.2080     1.8000 H     1 <1>   0.0800 
 44 H        6.9020     4.6630     1.1610 H     1 <1>   0.0800 
 45 H        6.1660     8.5630     2.0430 H     1 <1>   0.0800 
 46 H        5.8870     9.6970     0.7430 H     1 <1>   0.0800 
 47 H        7.3620     8.7590     0.7740 H     1 <1>   0.0800 
 48 H        5.2500     6.2930     3.1170 H     1 <1>   0.0800 
 49 H        6.1920     4.8750     3.5220 H     1 <1>   0.0800 
 50 H        4.7970     4.7320     2.4780 H     1 <1>   0.0800 
@<TRIPOS>BOND
  1   1   2  2   
  2   2   3  am  
  3   2   4  am  
  4   3   5  1   
  5   3   6  1   
  6   4   7  1   
  7   4   8  1   
  8   5   9  1   
  9   5  24  1   
 10   5  25  1   
 11   6  10  1   
 12   6  26  1   
 13   6  27  1   
 14   7  28  1   
 15   7  29  1   
 16   7  30  1   
 17   8  31  1   
 18   8  32  1   
 19   8  33  1   
 20   9  11  1   
 21   9  12  1   
 22   9  34  1   
 23  10  12  1   
 24  10  35  1   
 25  10  36  1   
 26  11  13  2   
 27  11  14  am  
 28  12  37  1   
 29  12  38  1   
 30  14  15  1   
 31  14  39  1   
 32  15  16  1   
 33  15  17  2   
 34  16  18  1   
 35  16  19  1   
 36  17  20  1   
 37  17  21  1   
 38  18  20  2   
 39  19  40  1   
 40  19  41  1   
 41  19  42  1   
 42  20  22  1   
 43  21  23  1   
 44  21  43  1   
 45  21  44  1   
 46  22  45  1   
 47  22  46  1   
 48  22  47  1   
 49  23  48  1   
 50  23  49  1   
 51  23  50  1   
@<TRIPOS>SUBSTRUCTURE
  1 ****  14 GROUP 4 **** **** 0

# MOE 2024.06 (io_trps.svl 2023.06)
