@<TRIPOS>MOLECULE
NONAME
43 45 1 0 0 
SMALL
USER_CHARGES


@<TRIPOS>ATOM
  1 O        0.9330     0.1420    -0.7840 O.2   1 <1>  -0.5700 
  2 C        1.8590    -0.5100    -0.3280 C.2   1 <1>   0.7150 
  3 N        2.8520     0.1770     0.3580 N.am  1 <1>  -0.6600 
  4 C        1.8590    -1.9520    -0.5150 C.2   1 <1>   0.0550 
  5 C        3.8010    -0.5140     1.2870 C.3   1 <1>   0.1400 
  6 C        2.8530     1.6720     0.3640 C.3   1 <1>   0.1400 
  7 O        2.9990    -2.6370    -0.6200 O.3   1 <1>  -0.2800 
  8 C        0.8260    -2.8390    -0.6390 C.2   1 <1>  -0.1810 
  9 C        5.1760    -0.7240     0.6360 C.3   1 <1>   0.1400 
 10 C        4.2430     2.3150     0.4860 C.3   1 <1>  -0.1600 
 11 C        2.7260    -3.9070    -0.8040 C.2   1 <1>  -0.0100 
 12 C        1.3920    -4.1010    -0.8260 C.2   1 <1>  -0.1500 
 13 C       -0.6730    -2.5930    -0.6000 C.3   1 <1>  -0.0590 
 14 N        5.9590     0.5490     0.5570 N.am  1 <1>  -0.6600 
 15 C        5.3410     1.5970    -0.3030 C.3   1 <1>   0.1400 
 16 C        7.1290     0.6920     1.2710 C.2   1 <1>   0.5690 
 17 O        7.4860    -0.1440     2.0670 O.2   1 <1>  -0.5700 
 18 C        8.0020     1.9240     1.1620 C.3   1 <1>   0.1570 
 19 N        8.6570     1.9960    -0.1500 N.pl3 1 <1>   0.3140 
 20 N        9.3800     1.0300    -0.6900 N.2   1 <1>  -0.4180 
 21 C        8.6380     3.0120    -1.0120 C.2   1 <1>   0.2700 
 22 N        9.7510     1.4610    -1.8390 N.2   1 <1>   0.0000 
 23 N        9.2960     2.6940    -2.0620 N.2   1 <1>  -0.3380 
 24 N        8.0210     4.2420    -0.8540 N.pl3 1 <1>  -0.8840 
 25 H        3.3990    -1.4730     1.5640 H     1 <1>   0.0800 
 26 H        3.9130     0.0520     2.1950 H     1 <1>   0.0800 
 27 H        2.2240     2.0170     1.1670 H     1 <1>   0.0800 
 28 H        2.4140     2.0180    -0.5570 H     1 <1>   0.0800 
 29 H        5.0550    -1.1310    -0.3520 H     1 <1>   0.0800 
 30 H        5.7150    -1.4540     1.2130 H     1 <1>   0.0800 
 31 H        4.5210     2.3930     1.5220 H     1 <1>   0.0800 
 32 H        4.1590     3.3190     0.1120 H     1 <1>   0.0800 
 33 H        3.5350    -4.6080    -0.9130 H     1 <1>   0.1500 
 34 H        0.8520    -5.0210    -0.9600 H     1 <1>   0.1500 
 35 H       -0.8910    -1.5880    -0.2880 H     1 <1>   0.0800 
 36 H       -1.1380    -3.2720     0.0920 H     1 <1>   0.0800 
 37 H       -1.0930    -2.7470    -1.5770 H     1 <1>   0.0800 
 38 H        6.0760     2.3130    -0.6140 H     1 <1>   0.0800 
 39 H        4.9360     1.1490    -1.1960 H     1 <1>   0.0800 
 40 H        8.7640     1.8840     1.9170 H     1 <1>   0.0800 
 41 H        7.4050     2.8010     1.3180 H     1 <1>   0.0800 
 42 H        7.9270     4.7120    -1.7620 H     1 <1>   0.4000 
 43 H        8.5360     4.8810    -0.2400 H     1 <1>   0.4000 
@<TRIPOS>BOND
  1   1   2  2   
  2   2   3  am  
  3   2   4  1   
  4   3   5  1   
  5   3   6  1   
  6   4   7  1   
  7   4   8  2   
  8   5   9  1   
  9   5  25  1   
 10   5  26  1   
 11   6  10  1   
 12   6  27  1   
 13   6  28  1   
 14   7  11  1   
 15   8  12  1   
 16   8  13  1   
 17   9  14  1   
 18   9  29  1   
 19   9  30  1   
 20  10  15  1   
 21  10  31  1   
 22  10  32  1   
 23  11  12  2   
 24  11  33  1   
 25  12  34  1   
 26  13  35  1   
 27  13  36  1   
 28  13  37  1   
 29  14  15  1   
 30  14  16  am  
 31  15  38  1   
 32  15  39  1   
 33  16  17  2   
 34  16  18  1   
 35  18  19  1   
 36  18  40  1   
 37  18  41  1   
 38  19  20  1   
 39  19  21  1   
 40  20  22  2   
 41  21  23  2   
 42  21  24  1   
 43  22  23  1   
 44  24  42  1   
 45  24  43  1   
@<TRIPOS>SUBSTRUCTURE
  1 ****   9 GROUP 4 **** **** 0

# MOE 2024.06 (io_trps.svl 2023.06)
