@<TRIPOS>MOLECULE
NONAME
36 38 1 0 0 
SMALL
USER_CHARGES


@<TRIPOS>ATOM
  1 F       -0.5410    -0.1540     0.0380 F     1 <1>  -0.1900 
  2 C       -1.6620    -0.8300     0.1110 C.ar  1 <1>   0.1900 
  3 C       -2.8690    -0.1780     0.1530 C.ar  1 <1>   0.1600 
  4 C       -1.6490    -2.2020     0.1460 C.ar  1 <1>   0.1600 
  5 N       -4.0010    -0.8460     0.2260 N.ar  1 <1>  -0.6200 
  6 N       -2.7680    -2.8900     0.2190 N.ar  1 <1>  -0.6200 
  7 C       -3.8990    -2.1790     0.2600 C.ar  1 <1>   0.7200 
  8 N       -5.0720    -2.8850     0.3490 N.pl3 1 <1>  -0.8380 
  9 C       -6.4090    -2.2830     0.1180 C.3   1 <1>   0.2090 
 10 C       -5.1360    -4.3640     0.2650 C.3   1 <1>   0.2090 
 11 C       -7.3050    -3.4560    -0.2840 C.3   1 <1>   0.2000 
 12 C       -6.6270    -4.7000     0.2860 C.3   1 <1>  -0.0800 
 13 O       -8.5880    -3.3340     0.2290 O.3   1 <1>  -0.6800 
 14 C       -6.9780    -5.9860    -0.4770 C.3   1 <1>   0.0210 
 15 C       -6.1640    -7.1630     0.0250 C.2   1 <1>   0.1080 
 16 N       -6.1660    -7.5440     1.2640 N.2   1 <1>  -0.7070 
 17 C       -5.3270    -7.9450    -0.7640 C.2   1 <1>  -0.1500 
 18 N       -5.3220    -8.5920     1.3000 N.pl3 1 <1>   0.3000 
 19 C       -4.7990    -8.8540     0.0830 C.2   1 <1>  -0.3320 
 20 C       -3.8140    -9.9730    -0.1990 C.3   1 <1>  -0.0600 
 21 H       -2.9010     0.8970     0.1270 H     1 <1>   0.1500 
 22 H       -0.7140    -2.7330     0.1130 H     1 <1>   0.1500 
 23 H       -6.7500    -1.8290     1.0320 H     1 <1>   0.0800 
 24 H       -6.3680    -1.5490    -0.6670 H     1 <1>   0.0800 
 25 H       -4.6810    -4.6860    -0.6570 H     1 <1>   0.0800 
 26 H       -4.6220    -4.8200     1.0950 H     1 <1>   0.0800 
 27 H       -7.3710    -3.5020    -1.3580 H     1 <1>   0.0800 
 28 H       -6.9010    -4.8190     1.3200 H     1 <1>   0.0800 
 29 H       -8.5620    -3.3910     1.2050 H     1 <1>   0.4000 
 30 H       -6.7960    -5.8520    -1.5280 H     1 <1>   0.0800 
 31 H       -8.0220    -6.2070    -0.3440 H     1 <1>   0.0800 
 32 H       -5.1550    -7.8280    -1.8190 H     1 <1>   0.1500 
 33 H       -5.1230    -9.1040     2.1680 H     1 <1>   0.2700 
 34 H       -3.5480    -9.9770    -1.2410 H     1 <1>   0.0800 
 35 H       -4.2510   -10.9240     0.0460 H     1 <1>   0.0800 
 36 H       -2.9190    -9.8360     0.3820 H     1 <1>   0.0800 
@<TRIPOS>BOND
  1   1   2  1   
  2   2   3  ar  
  3   2   4  ar  
  4   3   5  ar  
  5   3  21  1   
  6   4   6  ar  
  7   4  22  1   
  8   5   7  ar  
  9   6   7  ar  
 10   7   8  1   
 11   8   9  1   
 12   8  10  1   
 13   9  11  1   
 14   9  23  1   
 15   9  24  1   
 16  10  12  1   
 17  10  25  1   
 18  10  26  1   
 19  11  12  1   
 20  11  13  1   
 21  11  27  1   
 22  12  14  1   
 23  12  28  1   
 24  13  29  1   
 25  14  15  1   
 26  14  30  1   
 27  14  31  1   
 28  15  16  2   
 29  15  17  1   
 30  16  18  1   
 31  17  19  2   
 32  17  32  1   
 33  18  19  1   
 34  18  33  1   
 35  19  20  1   
 36  20  34  1   
 37  20  35  1   
 38  20  36  1   
@<TRIPOS>SUBSTRUCTURE
  1 ****  10 GROUP 4 **** **** 0

# MOE 2024.06 (io_trps.svl 2023.06)
