@<TRIPOS>MOLECULE
NONAME
56 59 1 0 0 
SMALL
USER_CHARGES


@<TRIPOS>ATOM
  1 O       -1.1250     0.5990     0.0880 O.2   1 <1>  -0.5700 
  2 C       -0.8370     1.7530     0.2760 C.2   1 <1>   0.5690 
  3 N       -1.7620     2.7260     0.1310 N.am  1 <1>  -0.7300 
  4 C        0.5980     2.1350     0.6470 C.3   1 <1>   0.1810 
  5 C       -1.5040     4.1560     0.4110 C.3   1 <1>   0.3640 
  6 O        0.7110     3.4260     1.2130 O.3   1 <1>  -0.5600 
  7 C       -2.1170     4.9880    -0.7090 C.ar  1 <1>  -0.1440 
  8 C        0.0160     4.4560     0.5280 C.3   1 <1>   0.2610 
  9 C       -1.8850     4.6740    -2.0430 C.ar  1 <1>   0.1600 
 10 C       -2.9010     6.0880    -0.4190 C.ar  1 <1>  -0.1500 
 11 C        0.2860     5.8200     1.1940 C.2   1 <1>   0.5690 
 12 N       -2.3370     5.3650    -3.0760 N.ar  1 <1>  -0.6200 
 13 C       -3.3950     6.8090    -1.4840 C.ar  1 <1>  -0.1500 
 14 O       -0.6330     6.4030     1.7250 O.2   1 <1>  -0.5700 
 15 N        1.5430     6.3920     1.1860 N.am  1 <1>  -0.6600 
 16 C       -3.0870     6.4120    -2.7730 C.ar  1 <1>   0.1600 
 17 C        2.7760     5.7550     0.6330 C.3   1 <1>   0.1400 
 18 C        1.7950     7.6960     1.8740 C.3   1 <1>   0.1400 
 19 C        3.5600     6.7440    -0.2550 C.3   1 <1>   0.3430 
 20 C        2.5740     8.6600     0.9630 C.3   1 <1>   0.3430 
 21 N        3.8560     8.0570     0.4340 N.4   1 <1>  -0.9590 
 22 C        4.6170     9.0100    -0.4400 C.3   1 <1>   0.4230 
 23 C        5.9200     8.3540    -0.9400 C.3   1 <1>  -0.1600 
 24 C        4.9390    10.3020     0.3370 C.3   1 <1>  -0.1600 
 25 C        6.7860     9.3280    -1.7520 C.3   1 <1>  -0.1600 
 26 C        5.8090    11.2700    -0.4780 C.3   1 <1>  -0.1600 
 27 C        7.0980    10.5950    -0.9530 C.3   1 <1>  -0.1600 
 28 H       -2.7240     2.4540    -0.0880 H     1 <1>   0.3700 
 29 H        1.2130     2.0930    -0.2330 H     1 <1>   0.0800 
 30 H        0.9750     1.4290     1.3650 H     1 <1>   0.0800 
 31 H       -1.9860     4.3980     1.3430 H     1 <1>   0.0800 
 32 H        0.4190     4.4990    -0.4670 H     1 <1>   0.0800 
 33 H       -1.2910     3.8070    -2.2800 H     1 <1>   0.1500 
 34 H       -3.1170     6.3820     0.5960 H     1 <1>   0.1500 
 35 H       -4.0140     7.6730    -1.3190 H     1 <1>   0.1500 
 36 H       -3.4760     6.9850    -3.5980 H     1 <1>   0.1500 
 37 H        3.3980     5.4290     1.4490 H     1 <1>   0.0800 
 38 H        2.5330     4.8860     0.0490 H     1 <1>   0.0800 
 39 H        0.8680     8.1660     2.1550 H     1 <1>   0.0800 
 40 H        2.3500     7.5180     2.7790 H     1 <1>   0.0800 
 41 H        2.9860     6.9290    -1.1480 H     1 <1>   0.0800 
 42 H        4.4800     6.2680    -0.5500 H     1 <1>   0.0800 
 43 H        2.7890     9.5500     1.5290 H     1 <1>   0.0800 
 44 H        1.9370     8.9400     0.1400 H     1 <1>   0.0800 
 45 H        4.4580     7.8570     1.2420 H     1 <1>   0.4500 
 46 H        4.0160     9.2700    -1.2980 H     1 <1>   0.0800 
 47 H        6.4970     8.0060    -0.1010 H     1 <1>   0.0800 
 48 H        5.7060     7.5210    -1.5840 H     1 <1>   0.0800 
 49 H        4.0390    10.8310     0.5890 H     1 <1>   0.0800 
 50 H        5.4630    10.0580     1.2450 H     1 <1>   0.0800 
 51 H        7.7100     8.8480    -2.0300 H     1 <1>   0.0800 
 52 H        6.2760     9.5990    -2.6620 H     1 <1>   0.0800 
 53 H        5.2570    11.6230    -1.3340 H     1 <1>   0.0800 
 54 H        6.0580    12.1290     0.1230 H     1 <1>   0.0800 
 55 H        7.6570    11.2800    -1.5680 H     1 <1>   0.0800 
 56 H        7.7120    10.3470    -0.1030 H     1 <1>   0.0800 
@<TRIPOS>BOND
  1   1   2  2   
  2   2   3  am  
  3   2   4  1   
  4   3   5  1   
  5   3  28  1   
  6   4   6  1   
  7   4  29  1   
  8   4  30  1   
  9   5   7  1   
 10   5   8  1   
 11   5  31  1   
 12   6   8  1   
 13   7   9  ar  
 14   7  10  ar  
 15   8  11  1   
 16   8  32  1   
 17   9  12  ar  
 18   9  33  1   
 19  10  13  ar  
 20  10  34  1   
 21  11  14  2   
 22  11  15  am  
 23  12  16  ar  
 24  13  16  ar  
 25  13  35  1   
 26  15  17  1   
 27  15  18  1   
 28  16  36  1   
 29  17  19  1   
 30  17  37  1   
 31  17  38  1   
 32  18  20  1   
 33  18  39  1   
 34  18  40  1   
 35  19  21  1   
 36  19  41  1   
 37  19  42  1   
 38  20  21  1   
 39  20  43  1   
 40  20  44  1   
 41  21  22  1   
 42  21  45  1   
 43  22  23  1   
 44  22  24  1   
 45  22  46  1   
 46  23  25  1   
 47  23  47  1   
 48  23  48  1   
 49  24  26  1   
 50  24  49  1   
 51  24  50  1   
 52  25  27  1   
 53  25  51  1   
 54  25  52  1   
 55  26  27  1   
 56  26  53  1   
 57  26  54  1   
 58  27  55  1   
 59  27  56  1   
@<TRIPOS>SUBSTRUCTURE
  1 ****  15 GROUP 4 **** **** 0

# MOE 2024.06 (io_trps.svl 2023.06)
