@<TRIPOS>MOLECULE
NONAME
37 39 1 0 0 
SMALL
USER_CHARGES


@<TRIPOS>ATOM
  1 CL       0.2150     0.2200     1.7400 Cl    1 <1>  -0.1770 
  2 C        1.6200     1.0520     1.1160 C.ar  1 <1>   0.1770 
  3 C        2.1610     2.1200     1.8110 C.ar  1 <1>   0.1600 
  4 C        2.1820     0.6340    -0.0700 C.ar  1 <1>  -0.1500 
  5 N        3.2260     2.8120     1.4200 N.ar  1 <1>  -0.6200 
  6 C        3.2800     1.3540    -0.4760 C.ar  1 <1>   0.1900 
  7 C        3.7880     2.4360     0.2710 C.ar  1 <1>   0.4100 
  8 F        3.8470     0.9960    -1.6050 F     1 <1>  -0.1900 
  9 N        4.8930     3.1780    -0.1400 N.pl3 1 <1>  -0.8380 
 10 C        5.1890     4.5170     0.4630 C.3   1 <1>   0.4690 
 11 C        6.1470     2.5010    -0.5420 C.3   1 <1>   0.2090 
 12 C        4.2750     5.6430    -0.0310 C.2   1 <1>   0.2980 
 13 C        6.6550     4.7650     0.1100 C.3   1 <1>  -0.1600 
 14 C        7.2680     3.3710     0.0140 C.3   1 <1>  -0.1600 
 15 O        3.9610     5.6870    -1.3020 O.3   1 <1>  -0.0190 
 16 N        3.7920     6.5870     0.6820 N.2   1 <1>  -0.5650 
 17 N        3.2120     6.7420    -1.4070 N.2   1 <1>  -0.4100 
 18 C        3.1150     7.2540    -0.2440 C.2   1 <1>   0.3350 
 19 C        2.3280     8.5130     0.1240 C.3   1 <1>   0.1010 
 20 C        1.1520     8.7730    -0.8320 C.3   1 <1>  -0.2400 
 21 C        3.2530     9.7370     0.1640 C.3   1 <1>  -0.2400 
 22 H        1.6940     2.4170     2.7340 H     1 <1>   0.1500 
 23 H        1.7880    -0.1890    -0.6350 H     1 <1>   0.1500 
 24 H        5.1060     4.4500     1.5350 H     1 <1>   0.0800 
 25 H        6.1960     1.4990    -0.1500 H     1 <1>   0.0800 
 26 H        6.1960     2.4700    -1.6180 H     1 <1>   0.0800 
 27 H        6.7120     5.2540    -0.8470 H     1 <1>   0.0800 
 28 H        7.1370     5.3800     0.8470 H     1 <1>   0.0800 
 29 H        7.5320     3.0170     0.9950 H     1 <1>   0.0800 
 30 H        8.1400     3.3480    -0.6160 H     1 <1>   0.0800 
 31 H        1.9240     8.3600     1.1100 H     1 <1>   0.0800 
 32 H        1.5130     8.9530    -1.8300 H     1 <1>   0.0800 
 33 H        0.5860     9.6280    -0.5080 H     1 <1>   0.0800 
 34 H        0.5020     7.9170    -0.8530 H     1 <1>   0.0800 
 35 H        3.6830     9.9100    -0.8070 H     1 <1>   0.0800 
 36 H        4.0510     9.5690     0.8660 H     1 <1>   0.0800 
 37 H        2.7080    10.6120     0.4670 H     1 <1>   0.0800 
@<TRIPOS>BOND
  1   1   2  1   
  2   2   3  ar  
  3   2   4  ar  
  4   3   5  ar  
  5   3  22  1   
  6   4   6  ar  
  7   4  23  1   
  8   5   7  ar  
  9   6   7  ar  
 10   6   8  1   
 11   7   9  1   
 12   9  10  1   
 13   9  11  1   
 14  10  12  1   
 15  10  13  1   
 16  10  24  1   
 17  11  14  1   
 18  11  25  1   
 19  11  26  1   
 20  12  15  1   
 21  12  16  2   
 22  13  14  1   
 23  13  27  1   
 24  13  28  1   
 25  14  29  1   
 26  14  30  1   
 27  15  17  1   
 28  16  18  1   
 29  17  18  2   
 30  18  19  1   
 31  19  20  1   
 32  19  21  1   
 33  19  31  1   
 34  20  32  1   
 35  20  33  1   
 36  20  34  1   
 37  21  35  1   
 38  21  36  1   
 39  21  37  1   
@<TRIPOS>SUBSTRUCTURE
  1 ****  12 GROUP 4 **** **** 0

# MOE 2024.06 (io_trps.svl 2023.06)
