@<TRIPOS>MOLECULE
NONAME
42 44 1 0 0 
SMALL
USER_CHARGES


@<TRIPOS>ATOM
  1 O       -2.0450     0.4730    -1.7260 O.2   1 <1>  -0.5700 
  2 C       -1.9350     0.4370    -0.5150 C.2   1 <1>   0.7160 
  3 N       -1.9140    -0.7840     0.0890 N.am  1 <1>  -0.7300 
  4 C       -1.8580     1.6370     0.2840 C.2   1 <1>  -0.0860 
  5 C       -2.0820    -2.0890    -0.5890 C.3   1 <1>   0.2200 
  6 C       -1.5280     2.9290    -0.0170 C.2   1 <1>  -0.3320 
  7 C       -2.1520     1.7010     1.6490 C.2   1 <1>   0.1390 
  8 C       -3.4840    -2.6440    -0.3680 C.3   1 <1>  -0.0800 
  9 C       -1.2540    -3.1320     0.1480 C.3   1 <1>   0.1200 
 10 N       -1.6360     3.6490     1.1150 N.pl3 1 <1>   0.3140 
 11 C       -1.1060     3.5200    -1.3560 C.3   1 <1>  -0.0600 
 12 N       -2.0220     2.8860     2.1470 N.2   1 <1>  -0.7070 
 13 C       -3.3730    -3.3290     0.9990 C.3   1 <1>   0.1200 
 14 C       -4.6380    -1.6280    -0.4770 C.3   1 <1>  -0.0170 
 15 O       -2.0070    -3.4550     1.2770 O.3   1 <1>  -0.5600 
 16 C       -1.3860     5.0860     1.2910 C.3   1 <1>   0.0160 
 17 C       -5.9830    -2.3070    -0.2730 C.ar  1 <1>  -0.1430 
 18 C       -6.5910    -3.0340    -1.2770 C.ar  1 <1>  -0.1500 
 19 C       -6.6650    -2.2310     0.9240 C.ar  1 <1>  -0.1500 
 20 C       -7.8140    -3.6390    -1.0390 C.ar  1 <1>   0.1600 
 21 C       -7.8850    -2.8730     1.0580 C.ar  1 <1>   0.1600 
 22 N       -8.4740    -3.5770     0.1060 N.ar  1 <1>  -0.6200 
 23 H       -1.7620    -0.8540     1.0960 H     1 <1>   0.3700 
 24 H       -1.8190    -2.0190    -1.6320 H     1 <1>   0.0800 
 25 H       -2.4640     0.8580     2.2410 H     1 <1>   0.1500 
 26 H       -3.6500    -3.4160    -1.0990 H     1 <1>   0.0800 
 27 H       -0.2870    -2.7650     0.4460 H     1 <1>   0.0800 
 28 H       -1.1440    -4.0240    -0.4430 H     1 <1>   0.0800 
 29 H       -1.0200     2.7560    -2.1060 H     1 <1>   0.0800 
 30 H       -0.1510     4.0060    -1.2640 H     1 <1>   0.0800 
 31 H       -1.8350     4.2370    -1.6890 H     1 <1>   0.0800 
 32 H       -3.8220    -4.3070     0.9930 H     1 <1>   0.0800 
 33 H       -3.8100    -2.7330     1.7810 H     1 <1>   0.0800 
 34 H       -4.6150    -1.1640    -1.4490 H     1 <1>   0.0800 
 35 H       -4.5260    -0.8470     0.2540 H     1 <1>   0.0800 
 36 H       -2.0090     5.6380     0.6140 H     1 <1>   0.0800 
 37 H       -0.3520     5.2900     1.0920 H     1 <1>   0.0800 
 38 H       -1.6200     5.3620     2.3030 H     1 <1>   0.0800 
 39 H       -6.1260    -3.1350    -2.2400 H     1 <1>   0.1500 
 40 H       -6.2640    -1.6790     1.7540 H     1 <1>   0.1500 
 41 H       -8.2730    -4.2020    -1.8330 H     1 <1>   0.1500 
 42 H       -8.4030    -2.8020     1.9990 H     1 <1>   0.1500 
@<TRIPOS>BOND
  1   1   2  2   
  2   2   3  am  
  3   2   4  1   
  4   3   5  1   
  5   3  23  1   
  6   4   6  2   
  7   4   7  1   
  8   5   8  1   
  9   5   9  1   
 10   5  24  1   
 11   6  10  1   
 12   6  11  1   
 13   7  12  2   
 14   7  25  1   
 15   8  13  1   
 16   8  14  1   
 17   8  26  1   
 18   9  15  1   
 19   9  27  1   
 20   9  28  1   
 21  10  12  1   
 22  10  16  1   
 23  11  29  1   
 24  11  30  1   
 25  11  31  1   
 26  13  15  1   
 27  13  32  1   
 28  13  33  1   
 29  14  17  1   
 30  14  34  1   
 31  14  35  1   
 32  16  36  1   
 33  16  37  1   
 34  16  38  1   
 35  17  18  ar  
 36  17  19  ar  
 37  18  20  ar  
 38  18  39  1   
 39  19  21  ar  
 40  19  40  1   
 41  20  22  ar  
 42  20  41  1   
 43  21  22  ar  
 44  21  42  1   
@<TRIPOS>SUBSTRUCTURE
  1 ****   3 GROUP 4 **** **** 0

# MOE 2024.06 (io_trps.svl 2023.06)
