@<TRIPOS>MOLECULE
NONAME
42 43 1 0 0 
SMALL
USER_CHARGES


@<TRIPOS>ATOM
  1 O        0.2220    -0.2770     0.7590 O.2   1 <1>  -0.5700 
  2 C        1.2530    -0.7440     0.3170 C.2   1 <1>   0.5440 
  3 N        2.3170     0.0820     0.0350 N.am  1 <1>  -0.4940 
  4 C        1.3750    -2.1670     0.1090 C.ar  1 <1>   0.0860 
  5 C        2.4430     1.4920     0.0650 C.2   1 <1>  -0.0880 
  6 C        0.5890    -3.0590     0.8370 C.ar  1 <1>   0.1600 
  7 C        2.2580    -2.7270    -0.8130 C.ar  1 <1>  -0.1500 
  8 N        1.4960     2.4260    -0.2370 N.pl3 1 <1>   0.3140 
  9 C        3.5690     2.1820     0.3730 C.2   1 <1>  -0.1810 
 10 N        0.6200    -4.3770     0.7480 N.ar  1 <1>  -0.6200 
 11 C        2.3000    -4.0960    -0.9190 C.ar  1 <1>  -0.1500 
 12 N        1.9920     3.6780    -0.1380 N.2   1 <1>  -0.7070 
 13 C        0.1210     2.2290    -0.7140 C.3   1 <1>   0.0160 
 14 C        3.2220     3.5230     0.2290 C.2   1 <1>   0.1080 
 15 C        4.9210     1.6310     0.7940 C.3   1 <1>   0.0210 
 16 C        1.4790    -4.8940    -0.1240 C.ar  1 <1>   0.4100 
 17 C        4.1350     4.7050     0.4630 C.3   1 <1>  -0.0590 
 18 C        5.8140     1.4070    -0.4280 C.3   1 <1>  -0.2400 
 19 N        1.5310    -6.2690    -0.2250 N.pl3 1 <1>  -0.8380 
 20 C        2.8300    -6.9910    -0.1870 C.3   1 <1>   0.1290 
 21 C        0.3460    -7.0920     0.1430 C.3   1 <1>   0.1290 
 22 H        3.2050    -0.4000    -0.0890 H     1 <1>   0.3700 
 23 H       -0.1110    -2.6450     1.5430 H     1 <1>   0.1500 
 24 H        2.8820    -2.1130    -1.4360 H     1 <1>   0.1500 
 25 H        2.9540    -4.5730    -1.6220 H     1 <1>   0.1500 
 26 H        0.0810     1.3610    -1.3430 H     1 <1>   0.0800 
 27 H       -0.1870     3.0940    -1.2700 H     1 <1>   0.0800 
 28 H       -0.5250     2.0970     0.1340 H     1 <1>   0.0800 
 29 H        4.7820     0.7020     1.3180 H     1 <1>   0.0800 
 30 H        5.3940     2.3180     1.4730 H     1 <1>   0.0800 
 31 H        5.0920     4.5320     0.0090 H     1 <1>   0.0800 
 32 H        4.2600     4.8600     1.5180 H     1 <1>   0.0800 
 33 H        3.7020     5.5890     0.0310 H     1 <1>   0.0800 
 34 H        5.3490     0.7160    -1.1070 H     1 <1>   0.0800 
 35 H        6.7660     1.0110    -0.1240 H     1 <1>   0.0800 
 36 H        5.9750     2.3370    -0.9440 H     1 <1>   0.0800 
 37 H        3.6490    -6.2970    -0.1120 H     1 <1>   0.0800 
 38 H        2.9450    -7.5760    -1.0820 H     1 <1>   0.0800 
 39 H        2.8610    -7.6430     0.6690 H     1 <1>   0.0800 
 40 H       -0.5600    -6.5600    -0.0940 H     1 <1>   0.0800 
 41 H        0.3610    -7.2970     1.1990 H     1 <1>   0.0800 
 42 H        0.3540    -8.0170    -0.4050 H     1 <1>   0.0800 
@<TRIPOS>BOND
  1   1   2  2   
  2   2   3  am  
  3   2   4  1   
  4   3   5  1   
  5   3  22  1   
  6   4   6  ar  
  7   4   7  ar  
  8   5   8  1   
  9   5   9  2   
 10   6  10  ar  
 11   6  23  1   
 12   7  11  ar  
 13   7  24  1   
 14   8  12  1   
 15   8  13  1   
 16   9  14  1   
 17   9  15  1   
 18  10  16  ar  
 19  11  16  ar  
 20  11  25  1   
 21  12  14  2   
 22  13  26  1   
 23  13  27  1   
 24  13  28  1   
 25  14  17  1   
 26  15  18  1   
 27  15  29  1   
 28  15  30  1   
 29  16  19  1   
 30  17  31  1   
 31  17  32  1   
 32  17  33  1   
 33  18  34  1   
 34  18  35  1   
 35  18  36  1   
 36  19  20  1   
 37  19  21  1   
 38  20  37  1   
 39  20  38  1   
 40  20  39  1   
 41  21  40  1   
 42  21  41  1   
 43  21  42  1   
@<TRIPOS>SUBSTRUCTURE
  1 ****   2 GROUP 4 **** **** 0

# MOE 2024.06 (io_trps.svl 2023.06)
