@<TRIPOS>MOLECULE
NONAME
38 40 1 0 0 
SMALL
USER_CHARGES


@<TRIPOS>ATOM
  1 N        0.8840    -0.0620    -1.0560 N.ar  1 <1>  -0.6200 
  2 C        1.7010    -0.8180    -0.3570 C.ar  1 <1>   0.4100 
  3 C        0.0260    -0.6850    -1.8710 C.ar  1 <1>   0.4700 
  4 N        2.6180    -0.1670     0.4520 N.pl3 1 <1>  -0.8380 
  5 C        1.6120    -2.2220    -0.4470 C.ar  1 <1>   0.0000 
  6 N       -0.1330    -1.9690    -2.0660 N.ar  1 <1>  -0.5670 
  7 C        3.9580    -0.7580     0.7290 C.3   1 <1>   0.3900 
  8 C        2.1950     1.0100     1.2600 C.3   1 <1>   0.2090 
  9 C        0.6800    -2.7280    -1.3300 C.ar  1 <1>   0.1050 
 10 C        2.2180    -3.3570     0.1530 C.2   1 <1>  -0.1500 
 11 C        5.0660     0.2790     0.7290 C.2   1 <1>  -0.1810 
 12 C        2.4900     2.3170     0.5250 C.3   1 <1>  -0.2400 
 13 N        0.7170    -4.0870    -1.3070 N.pl3 1 <1>   0.0330 
 14 C        1.6600    -4.4660    -0.3920 C.2   1 <1>  -0.3020 
 15 C        5.6220     0.8900     1.8470 C.2   1 <1>   0.1390 
 16 C        5.7370     0.8110    -0.3150 C.2   1 <1>  -0.3020 
 17 N        6.5580     1.7320     1.5340 N.2   1 <1>  -0.7070 
 18 N        6.6280     1.6850     0.1900 N.pl3 1 <1>   0.3140 
 19 C        7.5730     2.5220    -0.5750 C.3   1 <1>   0.0960 
 20 C        8.8020     1.7130    -1.0090 C.3   1 <1>  -0.2400 
 21 H       -0.6160    -0.0320    -2.4380 H     1 <1>   0.1500 
 22 H        4.1890    -1.4840    -0.0300 H     1 <1>   0.0800 
 23 H        3.9330    -1.2570     1.6810 H     1 <1>   0.0800 
 24 H        2.6960     1.0020     2.2120 H     1 <1>   0.0800 
 25 H        1.1350     0.9440     1.4440 H     1 <1>   0.0800 
 26 H        2.9770    -3.3210     0.9120 H     1 <1>   0.1500 
 27 H        3.5450     2.4540     0.3910 H     1 <1>   0.0800 
 28 H        2.1130     3.1430     1.0980 H     1 <1>   0.0800 
 29 H        2.0080     2.3190    -0.4350 H     1 <1>   0.0800 
 30 H        0.1140    -4.6850    -1.8790 H     1 <1>   0.2700 
 31 H        1.8700    -5.5010    -0.1830 H     1 <1>   0.1500 
 32 H        5.3200     0.6970     2.8630 H     1 <1>   0.1500 
 33 H        5.6220     0.6230    -1.3660 H     1 <1>   0.1500 
 34 H        7.8750     3.3430     0.0490 H     1 <1>   0.0800 
 35 H        7.0600     2.9140    -1.4340 H     1 <1>   0.0800 
 36 H        9.3100     1.3240    -0.1440 H     1 <1>   0.0800 
 37 H        9.4830     2.3460    -1.5500 H     1 <1>   0.0800 
 38 H        8.5100     0.8980    -1.6470 H     1 <1>   0.0800 
@<TRIPOS>BOND
  1   1   2  ar  
  2   1   3  ar  
  3   2   4  1   
  4   2   5  ar  
  5   3   6  ar  
  6   3  21  1   
  7   4   7  1   
  8   4   8  1   
  9   5   9  ar  
 10   5  10  1   
 11   6   9  ar  
 12   7  11  1   
 13   7  22  1   
 14   7  23  1   
 15   8  12  1   
 16   8  24  1   
 17   8  25  1   
 18   9  13  1   
 19  10  14  2   
 20  10  26  1   
 21  11  15  1   
 22  11  16  2   
 23  12  27  1   
 24  12  28  1   
 25  12  29  1   
 26  13  14  1   
 27  13  30  1   
 28  14  31  1   
 29  15  17  2   
 30  15  32  1   
 31  16  18  1   
 32  16  33  1   
 33  17  18  1   
 34  18  19  1   
 35  19  20  1   
 36  19  34  1   
 37  19  35  1   
 38  20  36  1   
 39  20  37  1   
 40  20  38  1   
@<TRIPOS>SUBSTRUCTURE
  1 ****   4 GROUP 4 **** **** 0

# MOE 2024.06 (io_trps.svl 2023.06)
