@<TRIPOS>MOLECULE
NONAME
37 39 1 0 0 
SMALL
USER_CHARGES


@<TRIPOS>ATOM
  1 O        0.4480    -0.0800     0.0660 O.3   1 <1>  -0.6800 
  2 C        1.7470    -0.1500    -0.4270 C.3   1 <1>   0.2000 
  3 C        2.4310    -1.4330     0.0420 C.3   1 <1>  -0.0800 
  4 C        2.6210     0.9770     0.1210 C.3   1 <1>   0.2090 
  5 C        3.9210    -1.0840    -0.0020 C.3   1 <1>   0.2090 
  6 C        2.0540    -2.6690    -0.7910 C.3   1 <1>  -0.0170 
  7 N        3.9780     0.3810     0.2120 N.pl3 1 <1>  -0.8380 
  8 C        2.7880    -3.9130    -0.3160 C.ar  1 <1>   0.1660 
  9 C        5.1370     1.1110     0.0990 C.ar  1 <1>   0.7200 
 10 N        3.9560    -4.1610    -0.8860 N.ar  1 <1>  -0.6200 
 11 C        2.2260    -4.7220     0.6700 C.ar  1 <1>   0.1600 
 12 N        5.0200     2.4370     0.1350 N.ar  1 <1>  -0.6200 
 13 N        6.2690     0.4230    -0.0350 N.ar  1 <1>  -0.6200 
 14 C        4.5200    -5.2570    -0.4070 C.ar  1 <1>   0.1600 
 15 N        2.7860    -5.8210     1.1480 N.ar  1 <1>  -0.6200 
 16 C        6.1290     3.1240     0.0340 C.ar  1 <1>   0.1670 
 17 C        7.3640     1.1350    -0.1350 C.ar  1 <1>   0.1600 
 18 C        3.9540    -6.0600     0.5760 C.ar  1 <1>   0.1600 
 19 C        7.3500     2.5080    -0.1050 C.ar  1 <1>  -0.1500 
 20 C        6.0080     4.6320     0.0780 C.3   1 <1>  -0.0970 
 21 H       -0.1250    -0.7330    -0.3770 H     1 <1>   0.4000 
 22 H        1.7170    -0.0860    -1.5010 H     1 <1>   0.0800 
 23 H        2.1800    -1.6010     1.0760 H     1 <1>   0.0800 
 24 H        2.3000     1.2660     1.1060 H     1 <1>   0.0800 
 25 H        2.6110     1.8260    -0.5390 H     1 <1>   0.0800 
 26 H        4.3450    -1.3190    -0.9650 H     1 <1>   0.0800 
 27 H        4.4730    -1.6040     0.7640 H     1 <1>   0.0800 
 28 H        2.2900    -2.4980    -1.8270 H     1 <1>   0.0800 
 29 H        0.9940    -2.8380    -0.7230 H     1 <1>   0.0800 
 30 H        1.2720    -4.4480     1.0840 H     1 <1>   0.1500 
 31 H        5.4770    -5.5340    -0.8130 H     1 <1>   0.1500 
 32 H        8.2970     0.6090    -0.2430 H     1 <1>   0.1500 
 33 H        4.4900    -6.9350     0.9000 H     1 <1>   0.1500 
 34 H        8.2590     3.0700    -0.1880 H     1 <1>   0.1500 
 35 H        6.9700     5.1010    -0.0110 H     1 <1>   0.0800 
 36 H        5.5600     4.9280     1.0100 H     1 <1>   0.0800 
 37 H        5.3800     4.9650    -0.7280 H     1 <1>   0.0800 
@<TRIPOS>BOND
  1   1   2  1   
  2   1  21  1   
  3   2   3  1   
  4   2   4  1   
  5   2  22  1   
  6   3   5  1   
  7   3   6  1   
  8   3  23  1   
  9   4   7  1   
 10   4  24  1   
 11   4  25  1   
 12   5   7  1   
 13   5  26  1   
 14   5  27  1   
 15   6   8  1   
 16   6  28  1   
 17   6  29  1   
 18   7   9  1   
 19   8  10  ar  
 20   8  11  ar  
 21   9  12  ar  
 22   9  13  ar  
 23  10  14  ar  
 24  11  15  ar  
 25  11  30  1   
 26  12  16  ar  
 27  13  17  ar  
 28  14  18  ar  
 29  14  31  1   
 30  15  18  ar  
 31  16  19  ar  
 32  16  20  1   
 33  17  19  ar  
 34  17  32  1   
 35  18  33  1   
 36  19  34  1   
 37  20  35  1   
 38  20  36  1   
 39  20  37  1   
@<TRIPOS>SUBSTRUCTURE
  1 ****   5 GROUP 4 **** **** 0

# MOE 2024.06 (io_trps.svl 2023.06)
