@<TRIPOS>MOLECULE
NONAME
49 52 1 0 0 
SMALL
USER_CHARGES


@<TRIPOS>ATOM
  1 S        0.0650    -0.4230     0.2060 S.3   1 <1>  -0.0800 
  2 C       -0.5960     1.2020     0.3520 C.2   1 <1>   0.4620 
  3 C       -1.4370    -1.0760     0.8010 C.2   1 <1>  -0.1400 
  4 N       -1.7990     1.2200     0.8020 N.2   1 <1>  -0.5650 
  5 N        0.1700     2.2780    -0.0120 N.pl3 1 <1>  -0.8220 
  6 C       -2.2640    -0.0500     1.0590 C.2   1 <1>   0.0770 
  7 C       -1.5230    -2.5810     0.9060 C.3   1 <1>   0.5230 
  8 C       -0.3210     3.6630     0.1210 C.3   1 <1>   0.2090 
  9 C        1.5980     2.2370    -0.3910 C.3   1 <1>   0.2090 
 10 N       -2.9460    -3.0100     0.8910 N.4   1 <1>  -0.9590 
 11 C        0.8040     4.5210    -0.4460 C.3   1 <1>  -0.1600 
 12 C        2.0660     3.6810    -0.2570 C.3   1 <1>  -0.1600 
 13 C       -3.7010    -2.6510    -0.3420 C.3   1 <1>   0.3430 
 14 C       -3.1660    -4.4700     1.0910 C.3   1 <1>   0.3430 
 15 C       -4.9670    -3.4970    -0.2290 C.3   1 <1>   0.2000 
 16 C       -4.4480    -4.8290     0.3160 C.3   1 <1>  -0.0800 
 17 O       -5.7660    -2.9180     0.7510 O.3   1 <1>  -0.6800 
 18 C       -4.1740    -5.8440    -0.8130 C.3   1 <1>   0.0200 
 19 C       -3.3520    -7.0150    -0.3100 C.2   1 <1>  -0.0400 
 20 O       -3.6350    -7.5590     0.8430 O.3   1 <1>  -0.0190 
 21 C       -2.2920    -7.6600    -0.8200 C.2   1 <1>  -0.1500 
 22 N       -2.8110    -8.5170     1.1410 N.2   1 <1>  -0.4100 
 23 C       -1.9970    -8.6120     0.1530 C.2   1 <1>   0.1080 
 24 C       -0.8750    -9.6240     0.0690 C.3   1 <1>  -0.0590 
 25 H       -3.2660    -0.1220     1.4480 H     1 <1>   0.1500 
 26 H       -1.0430    -2.9030     1.8160 H     1 <1>   0.0800 
 27 H       -1.0030    -3.0240     0.0730 H     1 <1>   0.0800 
 28 H       -1.2410     3.7980    -0.4230 H     1 <1>   0.0800 
 29 H       -0.4800     3.8820     1.1630 H     1 <1>   0.0800 
 30 H        2.1570     1.5830     0.2570 H     1 <1>   0.0800 
 31 H        1.6830     1.9060    -1.4120 H     1 <1>   0.0800 
 32 H       -3.4480    -2.5330     1.6550 H     1 <1>   0.4500 
 33 H        0.6240     4.6780    -1.4950 H     1 <1>   0.0800 
 34 H        0.8650     5.4750     0.0470 H     1 <1>   0.0800 
 35 H        2.4550     3.8290     0.7350 H     1 <1>   0.0800 
 36 H        2.8310     3.9210    -0.9730 H     1 <1>   0.0800 
 37 H       -3.9350    -1.5990    -0.3870 H     1 <1>   0.0800 
 38 H       -3.1430    -2.9370    -1.2180 H     1 <1>   0.0800 
 39 H       -2.3310    -5.0340     0.7090 H     1 <1>   0.0800 
 40 H       -3.2840    -4.6960     2.1400 H     1 <1>   0.0800 
 41 H       -5.5240    -3.5630    -1.1490 H     1 <1>   0.0800 
 42 H       -5.1610    -5.2740     0.9910 H     1 <1>   0.0800 
 43 H       -6.6600    -3.3230     0.7720 H     1 <1>   0.4000 
 44 H       -3.6470    -5.3820    -1.6300 H     1 <1>   0.0800 
 45 H       -5.1100    -6.2190    -1.1910 H     1 <1>   0.0800 
 46 H       -1.7650    -7.5180    -1.7460 H     1 <1>   0.1500 
 47 H        0.0680    -9.1220    -0.0460 H     1 <1>   0.0800 
 48 H       -1.0340   -10.2770    -0.7690 H     1 <1>   0.0800 
 49 H       -0.8460   -10.2160     0.9670 H     1 <1>   0.0800 
@<TRIPOS>BOND
  1   1   2  1   
  2   1   3  1   
  3   2   4  2   
  4   2   5  1   
  5   3   6  2   
  6   3   7  1   
  7   4   6  1   
  8   5   8  1   
  9   5   9  1   
 10   6  25  1   
 11   7  10  1   
 12   7  26  1   
 13   7  27  1   
 14   8  11  1   
 15   8  28  1   
 16   8  29  1   
 17   9  12  1   
 18   9  30  1   
 19   9  31  1   
 20  10  13  1   
 21  10  14  1   
 22  10  32  1   
 23  11  12  1   
 24  11  33  1   
 25  11  34  1   
 26  12  35  1   
 27  12  36  1   
 28  13  15  1   
 29  13  37  1   
 30  13  38  1   
 31  14  16  1   
 32  14  39  1   
 33  14  40  1   
 34  15  16  1   
 35  15  17  1   
 36  15  41  1   
 37  16  18  1   
 38  16  42  1   
 39  17  43  1   
 40  18  19  1   
 41  18  44  1   
 42  18  45  1   
 43  19  20  1   
 44  19  21  2   
 45  20  22  1   
 46  21  23  1   
 47  21  46  1   
 48  22  23  2   
 49  23  24  1   
 50  24  47  1   
 51  24  48  1   
 52  24  49  1   
@<TRIPOS>SUBSTRUCTURE
  1 ****   7 GROUP 4 **** **** 0

# MOE 2024.06 (io_trps.svl 2023.06)
