@<TRIPOS>MOLECULE
NONAME
45 48 1 0 0 
SMALL
USER_CHARGES


@<TRIPOS>ATOM
  1 S       -0.2010     0.9740     2.7970 S.3   1 <1>  -0.0800 
  2 C       -0.1130     1.9750     1.3630 C.2   1 <1>  -0.1400 
  3 C        1.3720     1.5560     3.3220 C.2   1 <1>  -0.1100 
  4 C        1.0300     2.6700     1.3070 C.2   1 <1>  -0.1810 
  5 C       -1.2140     2.0250     0.3390 C.3   1 <1>   0.0200 
  6 C        1.8820     2.4350     2.4380 C.2   1 <1>  -0.1500 
  7 C        1.3300     3.6010     0.1300 C.3   1 <1>   0.4610 
  8 C       -1.0010     3.3000    -0.4930 C.3   1 <1>   0.1200 
  9 O        0.3470     3.4390    -0.8780 O.3   1 <1>  -0.5600 
 10 C        1.3480     5.0700     0.5780 C.3   1 <1>  -0.1600 
 11 C        2.6650     3.2210    -0.5230 C.3   1 <1>  -0.1600 
 12 C        1.7330     6.0000    -0.5740 C.3   1 <1>   0.1400 
 13 C        3.0430     4.1850    -1.6490 C.3   1 <1>   0.1400 
 14 N        3.0560     5.5720    -1.1080 N.am  1 <1>  -0.6600 
 15 C        4.2090     6.3180    -1.0720 C.2   1 <1>   0.5690 
 16 O        5.2390     5.9130    -1.5600 O.2   1 <1>  -0.5700 
 17 C        4.2110     7.6850    -0.4070 C.3   1 <1>  -0.0990 
 18 C        5.6100     8.2920    -0.2150 C.3   1 <1>  -0.0170 
 19 C        5.5110     9.6580     0.4420 C.ar  1 <1>   0.1670 
 20 N        5.0770     9.6850     1.6970 N.ar  1 <1>  -0.3100 
 21 C        5.8550    10.7940    -0.2720 C.ar  1 <1>  -0.1500 
 22 N        4.9460    10.8340     2.3150 N.ar  1 <1>  -0.3100 
 23 C        5.7260    11.9950     0.3650 C.ar  1 <1>  -0.1500 
 24 C        5.2600    11.9870     1.6760 C.ar  1 <1>   0.1390 
 25 O        5.1260    13.0790     2.2760 O.3   1 <1>  -0.8290 
 26 H        1.7530     1.1720     4.2520 H     1 <1>   0.1500 
 27 H       -2.1740     2.0600     0.8200 H     1 <1>   0.0800 
 28 H       -1.1700     1.1560    -0.2910 H     1 <1>   0.0800 
 29 H        2.8320     2.9320     2.5360 H     1 <1>   0.1500 
 30 H       -1.2850     4.1680     0.0740 H     1 <1>   0.0800 
 31 H       -1.5960     3.2630    -1.3880 H     1 <1>   0.0800 
 32 H        2.0660     5.1910     1.3680 H     1 <1>   0.0800 
 33 H        0.3910     5.3480     0.9760 H     1 <1>   0.0800 
 34 H        2.5990     2.2190    -0.9040 H     1 <1>   0.0800 
 35 H        3.4490     3.2380     0.2110 H     1 <1>   0.0800 
 36 H        1.7510     7.0190    -0.2310 H     1 <1>   0.0800 
 37 H        1.0000     5.9320    -1.3600 H     1 <1>   0.0800 
 38 H        2.3240     4.1220    -2.4480 H     1 <1>   0.0800 
 39 H        4.0080     3.9180    -2.0460 H     1 <1>   0.0800 
 40 H        3.7540     7.5940     0.5610 H     1 <1>   0.0800 
 41 H        3.6180     8.3560    -1.0000 H     1 <1>   0.0800 
 42 H        6.1040     8.3770    -1.1670 H     1 <1>   0.0800 
 43 H        6.2030     7.6480     0.4090 H     1 <1>   0.0800 
 44 H        6.2060    10.7400    -1.2840 H     1 <1>   0.1500 
 45 H        5.9600    12.9390    -0.0850 H     1 <1>   0.1500 
@<TRIPOS>BOND
  1   1   2  1   
  2   1   3  1   
  3   2   4  2   
  4   2   5  1   
  5   3   6  2   
  6   3  26  1   
  7   4   6  1   
  8   4   7  1   
  9   5   8  1   
 10   5  27  1   
 11   5  28  1   
 12   6  29  1   
 13   7   9  1   
 14   7  10  1   
 15   7  11  1   
 16   8   9  1   
 17   8  30  1   
 18   8  31  1   
 19  10  12  1   
 20  10  32  1   
 21  10  33  1   
 22  11  13  1   
 23  11  34  1   
 24  11  35  1   
 25  12  14  1   
 26  12  36  1   
 27  12  37  1   
 28  13  14  1   
 29  13  38  1   
 30  13  39  1   
 31  14  15  am  
 32  15  16  2   
 33  15  17  1   
 34  17  18  1   
 35  17  40  1   
 36  17  41  1   
 37  18  19  1   
 38  18  42  1   
 39  18  43  1   
 40  19  20  ar  
 41  19  21  ar  
 42  20  22  ar  
 43  21  23  ar  
 44  21  44  1   
 45  22  24  ar  
 46  23  24  ar  
 47  23  45  1   
 48  24  25  1   
@<TRIPOS>SUBSTRUCTURE
  1 ****  12 GROUP 4 **** **** 0

# MOE 2024.06 (io_trps.svl 2023.06)
