@<TRIPOS>MOLECULE
NONAME
50 52 1 0 0 
SMALL
USER_CHARGES


@<TRIPOS>ATOM
  1 CL      -2.2510    -1.6760     1.8510 Cl    1 <1>  -0.1240 
  2 C       -2.6390    -0.4380     0.6750 C.2   1 <1>  -0.0280 
  3 N       -2.5590     0.8800     0.9370 N.pl3 1 <1>   0.3140 
  4 C       -3.0630    -0.6020    -0.5950 C.2   1 <1>  -0.1810 
  5 N       -2.9390     1.5830    -0.1470 N.2   1 <1>  -0.7070 
  6 C       -2.1320     1.5310     2.1830 C.3   1 <1>   0.0160 
  7 C       -3.2270     0.7020    -1.0560 C.2   1 <1>   0.1080 
  8 C       -3.3180    -1.8840    -1.3480 C.3   1 <1>   0.5240 
  9 C       -3.6840     1.1160    -2.4390 C.3   1 <1>  -0.0590 
 10 N       -4.1580    -2.7570    -0.4920 N.4   1 <1>  -0.9590 
 11 C       -5.5080    -2.1450    -0.2260 C.3   1 <1>   0.3430 
 12 C       -4.2980    -4.1450    -1.0420 C.3   1 <1>   0.3430 
 13 C       -6.3830    -3.0530     0.6610 C.3   1 <1>   0.1900 
 14 C       -5.2090    -5.0240    -0.1580 C.3   1 <1>   0.1100 
 15 N       -6.5390    -4.4030     0.0520 N.3   1 <1>  -0.8100 
 16 C       -7.7500    -2.3910     0.8890 C.3   1 <1>   0.1200 
 17 C       -7.4680    -5.2350     0.8750 C.3   1 <1>   0.1900 
 18 O       -8.5100    -3.1950     1.7290 O.3   1 <1>  -0.5600 
 19 C       -8.7730    -4.4590     1.1920 C.3   1 <1>   0.1200 
 20 C       -7.7960    -6.5570     0.1440 C.3   1 <1>  -0.1600 
 21 C       -8.8170    -7.4460     0.8770 C.3   1 <1>  -0.1600 
 22 C       -8.9640    -8.8010     0.1780 C.3   1 <1>  -0.2400 
 23 H       -1.1220     1.2420     2.4070 H     1 <1>   0.0800 
 24 H       -2.7840     1.2330     2.9830 H     1 <1>   0.0800 
 25 H       -2.1810     2.5970     2.0580 H     1 <1>   0.0800 
 26 H       -2.3760    -2.3640    -1.5610 H     1 <1>   0.0800 
 27 H       -3.8210    -1.6760    -2.2780 H     1 <1>   0.0800 
 28 H       -3.0370     0.6970    -3.1870 H     1 <1>   0.0800 
 29 H       -3.6510     2.1880    -2.5240 H     1 <1>   0.0800 
 30 H       -4.6940     0.7930    -2.6110 H     1 <1>   0.0800 
 31 H       -3.6750    -2.8150     0.4150 H     1 <1>   0.4500 
 32 H       -5.3880    -1.1910     0.2620 H     1 <1>   0.0800 
 33 H       -6.0250    -1.9810    -1.1560 H     1 <1>   0.0800 
 34 H       -4.7300    -4.1030    -2.0280 H     1 <1>   0.0800 
 35 H       -3.3290    -4.6100    -1.1210 H     1 <1>   0.0800 
 36 H       -5.9090    -3.1460     1.6230 H     1 <1>   0.0800 
 37 H       -4.7330    -5.2080     0.7900 H     1 <1>   0.0800 
 38 H       -5.3180    -5.9660    -0.6620 H     1 <1>   0.0800 
 39 H       -8.2820    -2.2560    -0.0370 H     1 <1>   0.0800 
 40 H       -7.6380    -1.4370     1.3730 H     1 <1>   0.0800 
 41 H       -6.9950    -5.4720     1.8140 H     1 <1>   0.0800 
 42 H       -9.3580    -4.9910     1.9210 H     1 <1>   0.0800 
 43 H       -9.3650    -4.3360     0.3020 H     1 <1>   0.0800 
 44 H       -8.1710    -6.3320    -0.8390 H     1 <1>   0.0800 
 45 H       -6.9000    -7.1390     0.0400 H     1 <1>   0.0800 
 46 H       -8.4980    -7.6080     1.8930 H     1 <1>   0.0800 
 47 H       -9.7830    -6.9720     0.8980 H     1 <1>   0.0800 
 48 H       -8.0270    -9.3290     0.1700 H     1 <1>   0.0800 
 49 H       -9.2960    -8.6680    -0.8370 H     1 <1>   0.0800 
 50 H       -9.6890    -9.4040     0.6960 H     1 <1>   0.0800 
@<TRIPOS>BOND
  1   1   2  1   
  2   2   3  1   
  3   2   4  2   
  4   3   5  1   
  5   3   6  1   
  6   4   7  1   
  7   4   8  1   
  8   5   7  2   
  9   6  23  1   
 10   6  24  1   
 11   6  25  1   
 12   7   9  1   
 13   8  10  1   
 14   8  26  1   
 15   8  27  1   
 16   9  28  1   
 17   9  29  1   
 18   9  30  1   
 19  10  11  1   
 20  10  12  1   
 21  10  31  1   
 22  11  13  1   
 23  11  32  1   
 24  11  33  1   
 25  12  14  1   
 26  12  34  1   
 27  12  35  1   
 28  13  15  1   
 29  13  16  1   
 30  13  36  1   
 31  14  15  1   
 32  14  37  1   
 33  14  38  1   
 34  15  17  1   
 35  16  18  1   
 36  16  39  1   
 37  16  40  1   
 38  17  19  1   
 39  17  20  1   
 40  17  41  1   
 41  18  19  1   
 42  19  42  1   
 43  19  43  1   
 44  20  21  1   
 45  20  44  1   
 46  20  45  1   
 47  21  22  1   
 48  21  46  1   
 49  21  47  1   
 50  22  48  1   
 51  22  49  1   
 52  22  50  1   
@<TRIPOS>SUBSTRUCTURE
  1 ****  11 GROUP 4 **** **** 0

# MOE 2024.06 (io_trps.svl 2023.06)
