@<TRIPOS>MOLECULE
NONAME
50 52 1 0 0 
SMALL
USER_CHARGES


@<TRIPOS>ATOM
  1 S       -0.7170    -0.0040     1.1490 S.o2  1 <1>   1.4470 
  2 O       -1.2640     1.0280     1.9990 O.2   1 <1>  -0.6500 
  3 O       -0.5950    -1.3540     1.6660 O.2   1 <1>  -0.6500 
  4 N       -1.7220    -0.1340    -0.2220 N.am  1 <1>  -0.8490 
  5 C        0.8630     0.5330     0.4410 C.ar  1 <1>  -0.0090 
  6 C       -1.6960    -1.4510    -0.8750 C.3   1 <1>   0.1960 
  7 C       -3.0860     0.3930    -0.0610 C.3   1 <1>   0.1960 
  8 C        0.9170     1.5810    -0.4710 C.ar  1 <1>  -0.1500 
  9 C        2.0570    -0.0850     0.7940 C.ar  1 <1>  -0.1500 
 10 C       -2.5840    -2.5010    -0.1410 C.3   1 <1>   0.4230 
 11 C       -3.9610    -0.5960     0.7220 C.3   1 <1>  -0.1600 
 12 C        2.1160     1.9950    -1.0290 C.ar  1 <1>  -0.1440 
 13 C        3.2610     0.3200     0.2460 C.ar  1 <1>  -0.1500 
 14 N       -2.4870    -3.9130    -0.7050 N.4   1 <1>  -0.9590 
 15 C       -4.0420    -1.9970     0.0540 C.3   1 <1>   0.0000 
 16 C        3.2890     1.3580    -0.6660 C.ar  1 <1>  -0.1500 
 17 C        2.1450     3.1430    -2.0230 C.3   1 <1>  -0.0970 
 18 C       -3.6070    -4.8160    -0.2790 C.3   1 <1>   0.3430 
 19 C       -2.2840    -4.0120    -2.1880 C.3   1 <1>   0.2630 
 20 C       -4.7950    -2.9670     1.0110 C.3   1 <1>  -0.1600 
 21 C       -4.7710    -1.9120    -1.3170 C.3   1 <1>   0.1200 
 22 C       -4.1830    -4.3810     1.0670 C.3   1 <1>  -0.1600 
 23 O       -5.9780    -1.2430    -1.2140 O.3   1 <1>  -0.6800 
 24 H       -2.0350    -1.3230    -1.8870 H     1 <1>   0.0800 
 25 H       -0.6780    -1.8020    -0.9110 H     1 <1>   0.0800 
 26 H       -3.0650     1.3470     0.4410 H     1 <1>   0.0800 
 27 H       -3.5170     0.5670    -1.0330 H     1 <1>   0.0800 
 28 H        0.0040     2.0810    -0.7450 H     1 <1>   0.1500 
 29 H        2.0480    -0.8920     1.5080 H     1 <1>   0.1500 
 30 H       -2.1910    -2.5670     0.8580 H     1 <1>   0.0800 
 31 H       -3.5600    -0.6780     1.7180 H     1 <1>   0.0800 
 32 H       -4.9430    -0.1710     0.8290 H     1 <1>   0.0800 
 33 H        4.1770    -0.1700     0.5300 H     1 <1>   0.1500 
 34 H       -1.6400    -4.2990    -0.2600 H     1 <1>   0.4500 
 35 H        4.2290     1.6710    -1.0880 H     1 <1>   0.1500 
 36 H        2.9250     2.9920    -2.7480 H     1 <1>   0.0800 
 37 H        2.3280     4.0670    -1.5050 H     1 <1>   0.0800 
 38 H        1.2080     3.2170    -2.5440 H     1 <1>   0.0800 
 39 H       -4.3970    -4.7900    -1.0120 H     1 <1>   0.0800 
 40 H       -3.2520    -5.8330    -0.2120 H     1 <1>   0.0800 
 41 H       -3.1230    -3.5880    -2.7140 H     1 <1>   0.0800 
 42 H       -2.1830    -5.0450    -2.4820 H     1 <1>   0.0800 
 43 H       -1.3890    -3.4900    -2.4840 H     1 <1>   0.0800 
 44 H       -4.7970    -2.5800     2.0170 H     1 <1>   0.0800 
 45 H       -5.8280    -3.0430     0.7200 H     1 <1>   0.0800 
 46 H       -4.9790    -2.8880    -1.7170 H     1 <1>   0.0800 
 47 H       -4.1880    -1.3690    -2.0400 H     1 <1>   0.0800 
 48 H       -4.9430    -5.0810     1.3720 H     1 <1>   0.0800 
 49 H       -3.4060    -4.4180     1.8120 H     1 <1>   0.0800 
 50 H       -6.6060    -1.6980    -0.6180 H     1 <1>   0.4000 
@<TRIPOS>BOND
  1   1   2  2   
  2   1   3  2   
  3   1   4  am  
  4   1   5  1   
  5   4   6  1   
  6   4   7  1   
  7   5   8  ar  
  8   5   9  ar  
  9   6  10  1   
 10   6  24  1   
 11   6  25  1   
 12   7  11  1   
 13   7  26  1   
 14   7  27  1   
 15   8  12  ar  
 16   8  28  1   
 17   9  13  ar  
 18   9  29  1   
 19  10  14  1   
 20  10  15  1   
 21  10  30  1   
 22  11  15  1   
 23  11  31  1   
 24  11  32  1   
 25  12  16  ar  
 26  12  17  1   
 27  13  16  ar  
 28  13  33  1   
 29  14  18  1   
 30  14  19  1   
 31  14  34  1   
 32  15  20  1   
 33  15  21  1   
 34  16  35  1   
 35  17  36  1   
 36  17  37  1   
 37  17  38  1   
 38  18  22  1   
 39  18  39  1   
 40  18  40  1   
 41  19  41  1   
 42  19  42  1   
 43  19  43  1   
 44  20  22  1   
 45  20  44  1   
 46  20  45  1   
 47  21  23  1   
 48  21  46  1   
 49  21  47  1   
 50  22  48  1   
 51  22  49  1   
 52  23  50  1   
@<TRIPOS>SUBSTRUCTURE
  1 ****   4 GROUP 4 **** **** 0

# MOE 2024.06 (io_trps.svl 2023.06)
