@<TRIPOS>MOLECULE
NONAME
46 47 1 0 0 
SMALL
USER_CHARGES


@<TRIPOS>ATOM
  1 S       -0.2620     0.0860     0.3450 S.o2  1 <1>   1.3330 
  2 O       -0.2650    -0.4850     1.6730 O.2   1 <1>  -0.6500 
  3 O       -0.9070     1.3580     0.1150 O.2   1 <1>  -0.6500 
  4 N       -0.9420    -1.0550    -0.7120 N.am  1 <1>  -0.8490 
  5 C        1.4220     0.2120    -0.2560 C.3   1 <1>  -0.0550 
  6 C       -2.3790    -0.8420    -0.9110 C.3   1 <1>   0.1160 
  7 C       -0.6950    -2.4440    -0.3080 C.3   1 <1>   0.1160 
  8 C        2.2530     1.2870     0.4720 C.3   1 <1>  -0.0800 
  9 C        3.5810     1.5180    -0.2260 C.3   1 <1>   0.2200 
 10 C        2.6930     0.8320     1.8690 C.3   1 <1>   0.1200 
 11 N        4.0620     2.8780     0.1040 N.am  1 <1>  -0.7300 
 12 C        4.4730     0.4800     0.4420 C.3   1 <1>   0.1200 
 13 O        3.9970     0.3440     1.7480 O.3   1 <1>  -0.5600 
 14 C        4.2850     3.8760    -0.8010 C.2   1 <1>   0.5440 
 15 O        4.1700     3.6210    -1.9830 O.2   1 <1>  -0.5700 
 16 C        4.6590     5.2030    -0.3630 C.ar  1 <1>   0.0860 
 17 C        4.1830     5.7280     0.8350 C.ar  1 <1>   0.1600 
 18 C        5.5000     6.0150    -1.1080 C.ar  1 <1>  -0.1500 
 19 N        4.4800     6.9140     1.3330 N.ar  1 <1>  -0.6200 
 20 C        5.8250     7.2650    -0.6200 C.ar  1 <1>  -0.1440 
 21 C        5.2950     7.6620     0.6070 C.ar  1 <1>   0.1670 
 22 C        6.7430     8.1600    -1.4420 C.3   1 <1>  -0.0970 
 23 C        5.6170     9.0190     1.2050 C.3   1 <1>  -0.0970 
 24 H        1.9070    -0.7400    -0.1710 H     1 <1>   0.0800 
 25 H        1.3780     0.4660    -1.2980 H     1 <1>   0.0800 
 26 H       -2.7740    -1.5720    -1.5970 H     1 <1>   0.0800 
 27 H       -2.5540     0.1360    -1.3270 H     1 <1>   0.0800 
 28 H       -2.9030    -0.9170     0.0280 H     1 <1>   0.0800 
 29 H       -1.0660    -3.1190    -1.0600 H     1 <1>   0.0800 
 30 H       -1.1860    -2.6570     0.6280 H     1 <1>   0.0800 
 31 H        0.3610    -2.6150    -0.1890 H     1 <1>   0.0800 
 32 H        1.6760     2.1960     0.5180 H     1 <1>   0.0800 
 33 H        3.5320     1.3810    -1.2940 H     1 <1>   0.0800 
 34 H        2.0740     0.0570     2.2860 H     1 <1>   0.0800 
 35 H        2.7220     1.6650     2.5490 H     1 <1>   0.0800 
 36 H        4.3320     2.9970     1.0830 H     1 <1>   0.3700 
 37 H        5.5080     0.7730     0.4610 H     1 <1>   0.0800 
 38 H        4.3740    -0.4750    -0.0430 H     1 <1>   0.0800 
 39 H        3.5060     5.1280     1.4170 H     1 <1>   0.1500 
 40 H        5.8820     5.6610    -2.0510 H     1 <1>   0.1500 
 41 H        6.9120     7.7430    -2.4190 H     1 <1>   0.0800 
 42 H        7.6930     8.2650    -0.9500 H     1 <1>   0.0800 
 43 H        6.3020     9.1330    -1.5670 H     1 <1>   0.0800 
 44 H        6.6480     9.2750     1.0500 H     1 <1>   0.0800 
 45 H        5.4330     9.0100     2.2650 H     1 <1>   0.0800 
 46 H        4.9900     9.7670     0.7560 H     1 <1>   0.0800 
@<TRIPOS>BOND
  1   1   2  2   
  2   1   3  2   
  3   1   4  am  
  4   1   5  1   
  5   4   6  1   
  6   4   7  1   
  7   5   8  1   
  8   5  24  1   
  9   5  25  1   
 10   6  26  1   
 11   6  27  1   
 12   6  28  1   
 13   7  29  1   
 14   7  30  1   
 15   7  31  1   
 16   8   9  1   
 17   8  10  1   
 18   8  32  1   
 19   9  11  1   
 20   9  12  1   
 21   9  33  1   
 22  10  13  1   
 23  10  34  1   
 24  10  35  1   
 25  11  14  am  
 26  11  36  1   
 27  12  13  1   
 28  12  37  1   
 29  12  38  1   
 30  14  15  2   
 31  14  16  1   
 32  16  17  ar  
 33  16  18  ar  
 34  17  19  ar  
 35  17  39  1   
 36  18  20  ar  
 37  18  40  1   
 38  19  21  ar  
 39  20  21  ar  
 40  20  22  1   
 41  21  23  1   
 42  22  41  1   
 43  22  42  1   
 44  22  43  1   
 45  23  44  1   
 46  23  45  1   
 47  23  46  1   
@<TRIPOS>SUBSTRUCTURE
  1 ****  11 GROUP 4 **** **** 0

# MOE 2024.06 (io_trps.svl 2023.06)
