@<TRIPOS>MOLECULE
NONAME
55 58 1 0 0 
SMALL
USER_CHARGES


@<TRIPOS>ATOM
  1 O        0.9150     0.0000     1.2470 O.2   1 <1>  -0.5700 
  2 C        1.9000    -0.6370     0.9210 C.2   1 <1>   0.7160 
  3 N        3.1330    -0.2040     1.3940 N.am  1 <1>  -0.6600 
  4 C        1.7500    -1.7710     0.0190 C.2   1 <1>   0.2030 
  5 C        4.3860    -1.0150     1.3330 C.3   1 <1>   0.1400 
  6 C        3.3090     1.1600     1.9530 C.3   1 <1>   0.1400 
  7 N        2.6540    -2.2730    -0.7740 N.2   1 <1>  -0.4100 
  8 C        0.5770    -2.4890    -0.1610 C.2   1 <1>  -0.1500 
  9 C        5.2500    -0.6680     0.1020 C.3   1 <1>   0.3430 
 10 C        3.6040     2.1530     0.8230 C.3   1 <1>  -0.1600 
 11 O        2.1600    -3.2780    -1.4540 O.3   1 <1>  -0.0190 
 12 C        0.9050    -3.4010    -1.0800 C.2   1 <1>  -0.0400 
 13 N        5.5240     0.8030    -0.0600 N.4   1 <1>  -0.9590 
 14 C        4.2900     1.5690    -0.4180 C.3   1 <1>   0.3430 
 15 C        0.0610    -4.4900    -1.7090 C.3   1 <1>  -0.0600 
 16 C        6.5760     1.0160    -1.0830 C.3   1 <1>   0.4810 
 17 C        7.0300     2.4560    -0.9950 C.2   1 <1>  -0.2540 
 18 C        6.8290     3.4060    -1.9190 C.2   1 <1>  -0.2880 
 19 C        7.7970     2.8480     0.2720 C.3   1 <1>   0.1160 
 20 C        7.3850     4.8140    -1.6820 C.3   1 <1>  -0.0220 
 21 C        9.1010     3.6700    -0.0430 C.3   1 <1>   0.0000 
 22 C        7.2060     4.2020     0.7850 C.3   1 <1>   0.0000 
 23 C        8.1080     4.8630    -0.3080 C.3   1 <1>   0.0000 
 24 C       10.0540     3.8760     1.1590 C.3   1 <1>  -0.2400 
 25 C        9.9500     3.1890    -1.2420 C.3   1 <1>  -0.2400 
 26 H        4.9610    -0.8560     2.2290 H     1 <1>   0.0800 
 27 H        4.1430    -2.0640     1.3110 H     1 <1>   0.0800 
 28 H        2.4220     1.4660     2.4870 H     1 <1>   0.0800 
 29 H        4.1190     1.1570     2.6630 H     1 <1>   0.0800 
 30 H       -0.3550    -2.3110     0.3460 H     1 <1>   0.1500 
 31 H        4.7550    -1.0390    -0.7810 H     1 <1>   0.0800 
 32 H        6.1830    -1.2000     0.1910 H     1 <1>   0.0800 
 33 H        4.1800     2.9730     1.2100 H     1 <1>   0.0800 
 34 H        2.6650     2.5690     0.5030 H     1 <1>   0.0800 
 35 H        5.8860     1.1920     0.8160 H     1 <1>   0.4500 
 36 H        4.5380     2.3840    -1.0790 H     1 <1>   0.0800 
 37 H        3.6010     0.9230    -0.9380 H     1 <1>   0.0800 
 38 H       -0.9360    -4.4680    -1.3090 H     1 <1>   0.0800 
 39 H        0.4960    -5.4530    -1.5060 H     1 <1>   0.0800 
 40 H        0.0130    -4.3470    -2.7730 H     1 <1>   0.0800 
 41 H        7.4170     0.3660    -0.9040 H     1 <1>   0.0800 
 42 H        6.1840     0.8120    -2.0660 H     1 <1>   0.0800 
 43 H        6.3100     3.2830    -2.8560 H     1 <1>   0.1500 
 44 H        7.8960     2.0880     1.0270 H     1 <1>   0.0000 
 45 H        6.5810     5.5300    -1.6890 H     1 <1>   0.0800 
 46 H        8.0740     5.0780    -2.4650 H     1 <1>   0.0800 
 47 H        6.1500     4.3180     0.6140 H     1 <1>   0.0000 
 48 H        7.4680     4.4510     1.7980 H     1 <1>   0.0000 
 49 H        8.4880     5.8330    -0.0380 H     1 <1>   0.0000 
 50 H       10.8060     4.6020     0.9030 H     1 <1>   0.0800 
 51 H       10.5500     2.9520     1.3970 H     1 <1>   0.0800 
 52 H        9.5640     4.2220     2.0490 H     1 <1>   0.0800 
 53 H       10.6860     3.9350    -1.4840 H     1 <1>   0.0800 
 54 H        9.3780     3.0000    -2.1290 H     1 <1>   0.0800 
 55 H       10.4660     2.2820    -0.9850 H     1 <1>   0.0800 
@<TRIPOS>BOND
  1   1   2  2   
  2   2   3  am  
  3   2   4  1   
  4   3   5  1   
  5   3   6  1   
  6   4   7  2   
  7   4   8  1   
  8   5   9  1   
  9   5  26  1   
 10   5  27  1   
 11   6  10  1   
 12   6  28  1   
 13   6  29  1   
 14   7  11  1   
 15   8  12  2   
 16   8  30  1   
 17   9  13  1   
 18   9  31  1   
 19   9  32  1   
 20  10  14  1   
 21  10  33  1   
 22  10  34  1   
 23  11  12  1   
 24  12  15  1   
 25  13  14  1   
 26  13  16  1   
 27  13  35  1   
 28  14  36  1   
 29  14  37  1   
 30  15  38  1   
 31  15  39  1   
 32  15  40  1   
 33  16  17  1   
 34  16  41  1   
 35  16  42  1   
 36  17  18  2   
 37  17  19  1   
 38  18  20  1   
 39  18  43  1   
 40  19  21  1   
 41  19  22  1   
 42  19  44  1   
 43  20  23  1   
 44  20  45  1   
 45  20  46  1   
 46  21  23  1   
 47  21  24  1   
 48  21  25  1   
 49  22  23  1   
 50  22  47  1   
 51  22  48  1   
 52  23  49  1   
 53  24  50  1   
 54  24  51  1   
 55  24  52  1   
 56  25  53  1   
 57  25  54  1   
 58  25  55  1   
@<TRIPOS>SUBSTRUCTURE
  1 ****  13 GROUP 4 **** **** 0

# MOE 2024.06 (io_trps.svl 2023.06)
