@<TRIPOS>MOLECULE
Untitled Document
57 60 1 0 0 
SMALL
USER_CHARGES


@<TRIPOS>ATOM
  1 O        0.7010     0.7180    -1.6630 O.2   1 <1>  -0.5700 
  2 C        1.4990     0.8370    -0.7810 C.2   1 <1>   0.4480 
  3 C        2.8300     0.0620    -0.7260 C.3   1 <1>   0.0610 
  4 C        1.2360     1.7840     0.3700 C.3   1 <1>  -0.0990 
  5 C        3.8990     0.8920     0.0750 C.3   1 <1>  -0.0800 
  6 C        3.2890    -0.3180    -2.1580 C.3   1 <1>  -0.2400 
  7 C        2.5680    -1.2710     0.0090 C.3   1 <1>  -0.2400 
  8 C        2.3370     2.8520     0.5210 C.3   1 <1>  -0.1600 
  9 C        3.7460     2.4490    -0.0180 C.3   1 <1>   0.0000 
 10 C        5.3530     0.4260    -0.1720 C.3   1 <1>  -0.1600 
 11 C        4.8320     3.1400     0.8920 C.3   1 <1>  -0.0800 
 12 C        3.8140     2.9300    -1.4900 C.3   1 <1>  -0.2400 
 13 C        6.2980     1.0570     0.8450 C.3   1 <1>   0.2000 
 14 C        6.2970     2.6030     0.7700 C.3   1 <1>   0.0610 
 15 C        4.7950     4.7020     0.9040 C.3   1 <1>  -0.1600 
 16 O        7.5510     0.5110     0.6410 O.3   1 <1>  -0.6800 
 17 C        7.0930     3.2290     1.9100 C.2   1 <1>   0.4950 
 18 C        6.9900     3.2570    -0.4490 C.3   1 <1>   0.2000 
 19 C        5.8670     5.4100     0.0410 C.3   1 <1>  -0.1600 
 20 O        7.1300     2.7700     3.0220 O.2   1 <1>  -0.5700 
 21 C        7.6970     4.4590     1.4740 C.2   1 <1>  -0.1240 
 22 O        8.2460     2.6580    -0.7410 O.3   1 <1>  -0.4300 
 23 C        7.2250     4.6840     0.0480 C.3   1 <1>   0.0580 
 24 C        8.5240     5.2870     2.1360 C.2   1 <1>  -0.3000 
 25 C        8.8850     2.8990    -1.8770 C.2   1 <1>   0.6590 
 26 O        8.4420     3.6310    -2.7200 O.2   1 <1>  -0.5700 
 27 C       10.2070     2.1970    -2.0450 C.3   1 <1>  -0.1790 
 28 H        0.2820     2.2610     0.2310 H     1 <1>   0.0800 
 29 H        1.1760     1.2000     1.2700 H     1 <1>   0.0800 
 30 H        3.7130     0.6690     1.1130 H     1 <1>   0.0800 
 31 H        4.1630    -0.9440    -2.1440 H     1 <1>   0.0800 
 32 H        3.4980     0.5510    -2.7510 H     1 <1>   0.0800 
 33 H        2.5110    -0.8670    -2.6600 H     1 <1>   0.0800 
 34 H        3.4570    -1.8740     0.0550 H     1 <1>   0.0800 
 35 H        1.8090    -1.8340    -0.5070 H     1 <1>   0.0800 
 36 H        2.2220    -1.0990     1.0130 H     1 <1>   0.0800 
 37 H        2.3840     3.0970     1.5680 H     1 <1>   0.0800 
 38 H        2.0050     3.7460     0.0210 H     1 <1>   0.0800 
 39 H        5.6740     0.6750    -1.1660 H     1 <1>   0.0800 
 40 H        5.4120    -0.6420    -0.0550 H     1 <1>   0.0800 
 41 H        4.5470     2.8570     1.8930 H     1 <1>   0.0800 
 42 H        2.9180     2.6710    -2.0240 H     1 <1>   0.0800 
 43 H        4.6290     2.4890    -2.0270 H     1 <1>   0.0800 
 44 H        3.8980     3.9970    -1.5530 H     1 <1>   0.0800 
 45 H        5.9930     0.7520     1.8330 H     1 <1>   0.0800 
 46 H        3.8240     5.0780     0.6360 H     1 <1>   0.0800 
 47 H        4.9540     5.0170     1.9230 H     1 <1>   0.0800 
 48 H        8.0720     1.1120     0.0650 H     1 <1>   0.4000 
 49 H        6.4010     3.2370    -1.3420 H     1 <1>   0.0800 
 50 H        6.0010     6.4150     0.4020 H     1 <1>   0.0800 
 51 H        5.5250     5.4850    -0.9760 H     1 <1>   0.0800 
 52 H        7.9420     5.2190    -0.5510 H     1 <1>   0.0800 
 53 H        8.8480     5.1060     3.1480 H     1 <1>   0.1500 
 54 H        8.9340     6.1940     1.7290 H     1 <1>   0.1500 
 55 H       10.8670     2.4770    -1.2470 H     1 <1>   0.0800 
 56 H       10.6490     2.4740    -2.9840 H     1 <1>   0.0800 
 57 H       10.0560     1.1340    -2.0260 H     1 <1>   0.0800 
@<TRIPOS>BOND
  1   1   2  2   
  2   2   3  1   
  3   2   4  1   
  4   3   5  1   
  5   3   6  1   
  6   3   7  1   
  7   4   8  1   
  8   4  28  1   
  9   4  29  1   
 10   5   9  1   
 11   5  10  1   
 12   5  30  1   
 13   6  31  1   
 14   6  32  1   
 15   6  33  1   
 16   7  34  1   
 17   7  35  1   
 18   7  36  1   
 19   8   9  1   
 20   8  37  1   
 21   8  38  1   
 22   9  11  1   
 23   9  12  1   
 24  10  13  1   
 25  10  39  1   
 26  10  40  1   
 27  11  14  1   
 28  11  15  1   
 29  11  41  1   
 30  12  42  1   
 31  12  43  1   
 32  12  44  1   
 33  13  14  1   
 34  13  16  1   
 35  13  45  1   
 36  14  17  1   
 37  14  18  1   
 38  15  19  1   
 39  15  46  1   
 40  15  47  1   
 41  16  48  1   
 42  17  20  2   
 43  17  21  1   
 44  18  22  1   
 45  18  23  1   
 46  18  49  1   
 47  19  23  1   
 48  19  50  1   
 49  19  51  1   
 50  21  23  1   
 51  21  24  2   
 52  22  25  1   
 53  23  52  1   
 54  24  53  1   
 55  24  54  1   
 56  25  26  2   
 57  25  27  1   
 58  27  55  1   
 59  27  56  1   
 60  27  57  1   
@<TRIPOS>SUBSTRUCTURE
  1 ****  14 GROUP 4 **** **** 0

# MOE 2024.06 (io_trps.svl 2023.06)
