@<TRIPOS>MOLECULE
NONAME
46 49 1 0 0 
SMALL
USER_CHARGES


@<TRIPOS>ATOM
  1 O       -0.1150     0.3780    -0.4980 O.2   1 <1>  -0.5700 
  2 C       -0.1160     1.5950    -0.5310 C.2   1 <1>   0.5440 
  3 N       -1.3270     2.2570    -0.5330 N.am  1 <1>  -0.6600 
  4 C        1.1480     2.3070    -0.5490 C.ar  1 <1>   0.0860 
  5 C       -2.5930     1.4940    -0.7450 C.3   1 <1>   0.1400 
  6 C       -1.4560     3.6980    -0.1600 C.3   1 <1>   0.1400 
  7 C        2.1500     1.9950     0.3750 C.ar  1 <1>  -0.1500 
  8 C        1.4070     3.3170    -1.4850 C.ar  1 <1>  -0.1500 
  9 C       -3.7020     2.4220    -1.2430 C.3   1 <1>  -0.1600 
 10 C       -2.7600     3.9190     0.6020 C.3   1 <1>  -0.1600 
 11 C        3.3440     2.6880     0.3620 C.ar  1 <1>  -0.1430 
 12 C        2.6060     4.0110    -1.4950 C.ar  1 <1>  -0.1500 
 13 C       -3.9790     3.5900    -0.2770 C.3   1 <1>   0.4180 
 14 C        3.5630     3.6800    -0.5560 C.ar  1 <1>   0.0830 
 15 C        4.5630     2.5590     1.2260 C.3   1 <1>  -0.0160 
 16 O       -4.2490     4.6950    -1.1050 O.3   1 <1>  -0.5600 
 17 C       -5.1900     3.2610     0.5950 C.2   1 <1>  -0.2880 
 18 O        4.7670     4.2510    -0.4310 O.3   1 <1>  -0.3630 
 19 C        5.4850     3.6400     0.6320 C.3   1 <1>   0.1200 
 20 C       -5.0050     5.7480    -0.5700 C.3   1 <1>   0.1200 
 21 C       -6.3030     3.9950     0.6460 C.2   1 <1>  -0.2760 
 22 C       -6.4070     5.2670    -0.1740 C.3   1 <1>  -0.0220 
 23 C       -7.5270     3.6500     1.4760 C.3   1 <1>  -0.1020 
 24 H       -2.8830     1.0320     0.1830 H     1 <1>   0.0800 
 25 H       -2.4240     0.7140    -1.4690 H     1 <1>   0.0800 
 26 H       -1.4530     4.3000    -1.0530 H     1 <1>   0.0800 
 27 H       -0.6270     3.9950     0.4590 H     1 <1>   0.0800 
 28 H        1.9790     1.2100     1.0910 H     1 <1>   0.1500 
 29 H        0.6530     3.5520    -2.2160 H     1 <1>   0.1500 
 30 H       -4.6020     1.8540    -1.3920 H     1 <1>   0.0800 
 31 H       -3.4000     2.8050    -2.2010 H     1 <1>   0.0800 
 32 H       -2.8120     4.9290     0.9610 H     1 <1>   0.0800 
 33 H       -2.7520     3.2790     1.4660 H     1 <1>   0.0800 
 34 H        2.8060     4.7880    -2.2110 H     1 <1>   0.1500 
 35 H        5.0050     1.5830     1.1360 H     1 <1>   0.0800 
 36 H        4.3380     2.7670     2.2560 H     1 <1>   0.0800 
 37 H       -5.0570     2.3570     1.1620 H     1 <1>   0.1500 
 38 H        6.3850     3.2130     0.2250 H     1 <1>   0.0800 
 39 H        5.7250     4.3990     1.3550 H     1 <1>   0.0800 
 40 H       -5.0730     6.5170    -1.3200 H     1 <1>   0.0800 
 41 H       -4.4910     6.1450     0.2860 H     1 <1>   0.0800 
 42 H       -6.9950     5.0880    -1.0560 H     1 <1>   0.0800 
 43 H       -6.8840     6.0420     0.3980 H     1 <1>   0.0800 
 44 H       -7.7240     4.4300     2.1900 H     1 <1>   0.0800 
 45 H       -7.3730     2.7290     2.0090 H     1 <1>   0.0800 
 46 H       -8.3850     3.5360     0.8380 H     1 <1>   0.0800 
@<TRIPOS>BOND
  1   1   2  2   
  2   2   3  am  
  3   2   4  1   
  4   3   5  1   
  5   3   6  1   
  6   4   7  ar  
  7   4   8  ar  
  8   5   9  1   
  9   5  24  1   
 10   5  25  1   
 11   6  10  1   
 12   6  26  1   
 13   6  27  1   
 14   7  11  ar  
 15   7  28  1   
 16   8  12  ar  
 17   8  29  1   
 18   9  13  1   
 19   9  30  1   
 20   9  31  1   
 21  10  13  1   
 22  10  32  1   
 23  10  33  1   
 24  11  14  ar  
 25  11  15  1   
 26  12  14  ar  
 27  12  34  1   
 28  13  16  1   
 29  13  17  1   
 30  14  18  1   
 31  15  19  1   
 32  15  35  1   
 33  15  36  1   
 34  16  20  1   
 35  17  21  2   
 36  17  37  1   
 37  18  19  1   
 38  19  38  1   
 39  19  39  1   
 40  20  22  1   
 41  20  40  1   
 42  20  41  1   
 43  21  22  1   
 44  21  23  1   
 45  22  42  1   
 46  22  43  1   
 47  23  44  1   
 48  23  45  1   
 49  23  46  1   
@<TRIPOS>SUBSTRUCTURE
  1 ****   6 GROUP 4 **** **** 0

# MOE 2024.06 (io_trps.svl 2023.06)
