@<TRIPOS>MOLECULE
NONAME
36 37 1 0 0 
SMALL
USER_CHARGES


@<TRIPOS>ATOM
  1 CL      -0.9000    -1.4940    -0.0130 Cl    1 <1>  -0.1770 
  2 C       -2.1060    -0.2460     0.1940 C.ar  1 <1>   0.1770 
  3 C       -1.8810     0.8210     1.0420 C.ar  1 <1>   0.1770 
  4 C       -3.2910    -0.3350    -0.5100 C.ar  1 <1>  -0.1500 
  5 CL      -0.3890     0.9600     1.9410 Cl    1 <1>  -0.1770 
  6 C       -2.8430     1.8010     1.1850 C.ar  1 <1>  -0.1500 
  7 C       -4.2770     0.6420    -0.3920 C.ar  1 <1>  -0.0090 
  8 C       -4.0350     1.7170     0.4770 C.ar  1 <1>  -0.1440 
  9 S       -5.8200     0.4500    -1.3500 S.o2  1 <1>   1.4470 
 10 C       -5.0610     2.8270     0.6780 C.3   1 <1>  -0.0960 
 11 O       -5.7350    -0.7330    -2.1790 O.2   1 <1>  -0.6500 
 12 O       -6.1420     1.7040    -1.9980 O.2   1 <1>  -0.6500 
 13 N       -7.0230     0.1900    -0.1820 N.am  1 <1>  -0.8490 
 14 C       -6.7500    -0.8690     0.8060 C.3   1 <1>   0.1960 
 15 C       -8.3870     0.1480    -0.7420 C.3   1 <1>   0.1960 
 16 C       -6.9490    -2.2820     0.2520 C.3   1 <1>  -0.1860 
 17 C       -9.1030    -1.1950    -0.5340 C.3   1 <1>  -0.1600 
 18 C       -7.0220    -3.1660     1.4750 C.2   1 <1>   0.9060 
 19 C       -8.1320    -2.3540    -0.7370 C.3   1 <1>   0.2000 
 20 O       -5.9730    -3.3660     2.0920 O.co2 1 <1>  -0.9000 
 21 O       -8.1140    -3.5970     1.8680 O.co2 1 <1>  -0.9000 
 22 O       -8.8390    -3.5260    -0.5970 O.3   1 <1>  -0.6800 
 23 H       -3.4440    -1.1830    -1.1570 H     1 <1>   0.1500 
 24 H       -2.6490     2.6220     1.8520 H     1 <1>   0.1500 
 25 H       -4.7460     3.5140     1.4430 H     1 <1>   0.0800 
 26 H       -6.0100     2.4170     0.9760 H     1 <1>   0.0800 
 27 H       -5.1930     3.3830    -0.2340 H     1 <1>   0.0800 
 28 H       -5.7570    -0.7780     1.2110 H     1 <1>   0.0800 
 29 H       -7.4280    -0.7300     1.6330 H     1 <1>   0.0800 
 30 H       -8.9710     0.9290    -0.2870 H     1 <1>   0.0800 
 31 H       -8.3510     0.3530    -1.7990 H     1 <1>   0.0800 
 32 H       -6.0610    -2.5730    -0.2750 H     1 <1>   0.0800 
 33 H       -9.9170    -1.2740    -1.2320 H     1 <1>   0.0800 
 34 H       -9.5080    -1.2360     0.4620 H     1 <1>   0.0800 
 35 H       -7.7610    -2.3270    -1.7480 H     1 <1>   0.0800 
 36 H       -8.7970    -3.7580     0.3820 H     1 <1>   0.4000 
@<TRIPOS>BOND
  1   1   2  1   
  2   2   3  ar  
  3   2   4  ar  
  4   3   5  1   
  5   3   6  ar  
  6   4   7  ar  
  7   4  23  1   
  8   6   8  ar  
  9   6  24  1   
 10   7   8  ar  
 11   7   9  1   
 12   8  10  1   
 13   9  11  2   
 14   9  12  2   
 15   9  13  am  
 16  10  25  1   
 17  10  26  1   
 18  10  27  1   
 19  13  14  1   
 20  13  15  1   
 21  14  16  1   
 22  14  28  1   
 23  14  29  1   
 24  15  17  1   
 25  15  30  1   
 26  15  31  1   
 27  16  18  1   
 28  16  19  1   
 29  16  32  1   
 30  17  19  1   
 31  17  33  1   
 32  17  34  1   
 33  18  20  ar  
 34  18  21  ar  
 35  19  22  1   
 36  19  35  1   
 37  22  36  1   
@<TRIPOS>SUBSTRUCTURE
  1 ****  14 GROUP 4 **** **** 0

# MOE 2024.06 (io_trps.svl 2023.06)
