@<TRIPOS>MOLECULE
NONAME
41 44 1 0 0 
SMALL
USER_CHARGES


@<TRIPOS>ATOM
  1 S        0.2740    -0.9360    -1.7820 S.3   1 <1>  -0.0800 
  2 C       -0.8260    -0.4470    -0.5120 C.2   1 <1>   0.4620 
  3 C       -0.6120    -2.4210    -1.9310 C.2   1 <1>  -0.1100 
  4 N       -1.7420    -1.2960    -0.2500 N.2   1 <1>  -0.5650 
  5 N       -0.6330     0.7500     0.0910 N.pl3 1 <1>  -0.8840 
  6 C       -1.6450    -2.4420    -1.0580 C.2   1 <1>   0.1410 
  7 C       -2.5640    -3.5740    -0.9380 C.2   1 <1>   0.7160 
  8 O       -2.1130    -4.6970    -1.0940 O.2   1 <1>  -0.5700 
  9 N       -3.9220    -3.4600    -0.6910 N.am  1 <1>  -0.6600 
 10 C       -4.7000    -2.1860    -0.7890 C.3   1 <1>   0.1400 
 11 C       -4.7470    -4.6860    -0.4600 C.3   1 <1>   0.1400 
 12 C       -5.5220    -1.9270     0.4950 C.3   1 <1>   0.1430 
 13 C       -6.1780    -4.3570     0.0010 C.3   1 <1>  -0.1600 
 14 C       -6.5310    -0.8410     0.1620 C.ar  1 <1>   0.1670 
 15 C       -6.1780    -3.2250     1.0410 C.3   1 <1>  -0.1600 
 16 C       -4.6710    -1.2360     1.5910 C.3   1 <1>  -0.1600 
 17 N       -7.6420    -1.0070    -0.5170 N.ar  1 <1>  -0.6200 
 18 C       -6.1310     0.3730     0.6420 C.ar  1 <1>  -0.1430 
 19 C       -4.8120     0.2780     1.3680 C.3   1 <1>  -0.0170 
 20 C       -8.3400     0.1050    -0.6900 C.ar  1 <1>   0.7200 
 21 C       -6.9440     1.4560     0.4070 C.ar  1 <1>   0.1600 
 22 N       -8.0680     1.3300    -0.2620 N.ar  1 <1>  -0.6200 
 23 N       -9.4820    -0.0290    -1.3650 N.pl3 1 <1>  -0.9000 
 24 H       -0.2790    -3.1440    -2.6530 H     1 <1>   0.1500 
 25 H       -1.1620     0.9720     0.9340 H     1 <1>   0.4000 
 26 H        0.2130     1.2950    -0.0780 H     1 <1>   0.4000 
 27 H       -5.3790    -2.2780    -1.6190 H     1 <1>   0.0800 
 28 H       -4.0710    -1.3430    -1.0040 H     1 <1>   0.0800 
 29 H       -4.2620    -5.2810     0.2960 H     1 <1>   0.0800 
 30 H       -4.7800    -5.2690    -1.3660 H     1 <1>   0.0800 
 31 H       -6.6260    -5.2400     0.4200 H     1 <1>   0.0800 
 32 H       -6.7730    -4.0680    -0.8490 H     1 <1>   0.0800 
 33 H       -7.1840    -3.0230     1.3640 H     1 <1>   0.0800 
 34 H       -5.6280    -3.5770     1.8960 H     1 <1>   0.0800 
 35 H       -3.6470    -1.5600     1.5820 H     1 <1>   0.0800 
 36 H       -5.0850    -1.4600     2.5590 H     1 <1>   0.0800 
 37 H       -4.0210     0.6430     0.7350 H     1 <1>   0.0800 
 38 H       -4.8220     0.8190     2.2980 H     1 <1>   0.0800 
 39 H       -6.6700     2.4310     0.7690 H     1 <1>   0.1500 
 40 H      -10.1510     0.7230    -1.2300 H     1 <1>   0.4000 
 41 H       -9.8510    -0.9740    -1.4020 H     1 <1>   0.4000 
@<TRIPOS>BOND
  1   1   2  1   
  2   1   3  1   
  3   2   4  2   
  4   2   5  1   
  5   3   6  2   
  6   3  24  1   
  7   4   6  1   
  8   5  25  1   
  9   5  26  1   
 10   6   7  1   
 11   7   8  2   
 12   7   9  am  
 13   9  10  1   
 14   9  11  1   
 15  10  12  1   
 16  10  27  1   
 17  10  28  1   
 18  11  13  1   
 19  11  29  1   
 20  11  30  1   
 21  12  14  1   
 22  12  15  1   
 23  12  16  1   
 24  13  15  1   
 25  13  31  1   
 26  13  32  1   
 27  14  17  ar  
 28  14  18  ar  
 29  15  33  1   
 30  15  34  1   
 31  16  19  1   
 32  16  35  1   
 33  16  36  1   
 34  17  20  ar  
 35  18  19  1   
 36  18  21  ar  
 37  19  37  1   
 38  19  38  1   
 39  20  22  ar  
 40  20  23  1   
 41  21  22  ar  
 42  21  39  1   
 43  23  40  1   
 44  23  41  1   
@<TRIPOS>SUBSTRUCTURE
  1 ****  10 GROUP 4 **** **** 0

# MOE 2024.06 (io_trps.svl 2023.06)
