@<TRIPOS>MOLECULE
NONAME
46 49 1 0 0 
SMALL
USER_CHARGES


@<TRIPOS>ATOM
  1 S       -0.5860    -0.1520    -2.0420 S.3   1 <1>  -0.0800 
  2 C       -1.2810     1.2330    -1.2060 C.2   1 <1>   0.4620 
  3 C       -1.5240    -1.2160    -1.0170 C.ar  1 <1>   0.0400 
  4 N       -2.1100     0.9430    -0.2780 N.2   1 <1>  -0.5650 
  5 N       -0.9030     2.4720    -1.5900 N.pl3 1 <1>  -0.8840 
  6 C       -2.2620    -0.4280    -0.1500 C.ar  1 <1>   0.2270 
  7 C       -1.5580    -2.5930    -1.0270 C.ar  1 <1>  -0.1500 
  8 C       -3.0830    -1.0780     0.7710 C.ar  1 <1>  -0.1440 
  9 C       -2.3860    -3.2520    -0.1190 C.ar  1 <1>   0.0860 
 10 C       -3.1290    -2.4640     0.7760 C.ar  1 <1>  -0.1500 
 11 C       -3.9080    -0.2660     1.7570 C.3   1 <1>  -0.0970 
 12 C       -2.4590    -4.7000    -0.1030 C.2   1 <1>   0.5440 
 13 O       -1.4380    -5.3560    -0.1870 O.2   1 <1>  -0.5700 
 14 N       -3.6600    -5.3700    -0.0130 N.am  1 <1>  -0.6600 
 15 C       -4.9680    -4.8080    -0.4380 C.3   1 <1>   0.1400 
 16 C       -3.7270    -6.8510     0.0530 C.3   1 <1>   0.1400 
 17 C       -5.7830    -6.0200    -0.8880 C.3   1 <1>   0.2000 
 18 C       -5.2060    -7.2020    -0.1140 C.3   1 <1>  -0.0800 
 19 O       -7.1290    -5.8680    -0.6010 O.3   1 <1>  -0.6800 
 20 C       -5.4430    -8.5500    -0.8100 C.3   1 <1>   0.0200 
 21 C       -4.7910    -9.6800    -0.0380 C.2   1 <1>  -0.0400 
 22 O       -5.1920    -9.9600     1.1740 O.3   1 <1>  -0.0190 
 23 C       -3.7990   -10.5270    -0.3500 C.2   1 <1>  -0.1500 
 24 N       -4.5190   -10.9470     1.6900 N.2   1 <1>  -0.4100 
 25 C       -3.6730   -11.3090     0.7940 C.2   1 <1>   0.1080 
 26 C       -2.6760   -12.4330     0.9700 C.3   1 <1>  -0.0590 
 27 H       -0.2260     2.6380    -2.3350 H     1 <1>   0.4000 
 28 H       -1.2850     3.2910    -1.1160 H     1 <1>   0.4000 
 29 H       -0.9560    -3.1550    -1.7200 H     1 <1>   0.1500 
 30 H       -3.7480    -2.9690     1.4950 H     1 <1>   0.1500 
 31 H       -4.4820    -0.9020     2.4050 H     1 <1>   0.0800 
 32 H       -4.5800     0.3820     1.2230 H     1 <1>   0.0800 
 33 H       -3.2570     0.3420     2.3600 H     1 <1>   0.0800 
 34 H       -5.4360    -4.3270     0.4020 H     1 <1>   0.0800 
 35 H       -4.8410    -4.1100    -1.2480 H     1 <1>   0.0800 
 36 H       -3.1380    -7.2650    -0.7490 H     1 <1>   0.0800 
 37 H       -3.3400    -7.2070     0.9940 H     1 <1>   0.0800 
 38 H       -5.6750    -6.1540    -1.9510 H     1 <1>   0.0800 
 39 H       -5.6380    -7.2290     0.8720 H     1 <1>   0.0800 
 40 H       -7.2720    -5.8330     0.3650 H     1 <1>   0.4000 
 41 H       -5.0400    -8.5250    -1.8070 H     1 <1>   0.0800 
 42 H       -6.5000    -8.7390    -0.8830 H     1 <1>   0.0800 
 43 H       -3.2180   -10.6100    -1.2500 H     1 <1>   0.1500 
 44 H       -2.8410   -13.1870     0.2230 H     1 <1>   0.0800 
 45 H       -2.7920   -12.8770     1.9430 H     1 <1>   0.0800 
 46 H       -1.6760   -12.0520     0.8780 H     1 <1>   0.0800 
@<TRIPOS>BOND
  1   1   2  1   
  2   1   3  1   
  3   2   4  2   
  4   2   5  1   
  5   3   6  ar  
  6   3   7  ar  
  7   4   6  1   
  8   5  27  1   
  9   5  28  1   
 10   6   8  ar  
 11   7   9  ar  
 12   7  29  1   
 13   8  10  ar  
 14   8  11  1   
 15   9  10  ar  
 16   9  12  1   
 17  10  30  1   
 18  11  31  1   
 19  11  32  1   
 20  11  33  1   
 21  12  13  2   
 22  12  14  am  
 23  14  15  1   
 24  14  16  1   
 25  15  17  1   
 26  15  34  1   
 27  15  35  1   
 28  16  18  1   
 29  16  36  1   
 30  16  37  1   
 31  17  18  1   
 32  17  19  1   
 33  17  38  1   
 34  18  20  1   
 35  18  39  1   
 36  19  40  1   
 37  20  21  1   
 38  20  41  1   
 39  20  42  1   
 40  21  22  1   
 41  21  23  2   
 42  22  24  1   
 43  23  25  1   
 44  23  43  1   
 45  24  25  2   
 46  25  26  1   
 47  26  44  1   
 48  26  45  1   
 49  26  46  1   
@<TRIPOS>SUBSTRUCTURE
  1 ****  14 GROUP 4 **** **** 0

# MOE 2024.06 (io_trps.svl 2023.06)
