@<TRIPOS>MOLECULE
NONAME
46 47 1 0 0 
SMALL
USER_CHARGES


@<TRIPOS>ATOM
  1 O       -0.4680     0.6940    -1.9770 O.co2 1 <1>  -0.9000 
  2 C       -0.9780     0.8540    -0.8610 C.2   1 <1>   0.9060 
  3 O       -1.7830     0.0270    -0.4020 O.co2 1 <1>  -0.9000 
  4 C       -0.6370     2.0890    -0.0170 C.3   1 <1>  -0.1060 
  5 C       -1.9980     2.6930     0.4050 C.3   1 <1>   0.2000 
  6 C        0.0790     3.1050    -0.9360 C.3   1 <1>   0.2090 
  7 C        0.3030     1.5930     1.1330 C.3   1 <1>  -0.1600 
  8 O       -2.6030     1.8880     1.3500 O.3   1 <1>  -0.6800 
  9 C       -1.9650     4.1310     0.9250 C.3   1 <1>  -0.1600 
 10 N        0.0960     4.5020    -0.3760 N.pl3 1 <1>  -0.8380 
 11 C        0.6890     2.5710     2.2540 C.3   1 <1>  -0.1600 
 12 C       -1.2520     5.0460    -0.0660 C.3   1 <1>   0.2090 
 13 C        1.2320     5.2890    -0.3920 C.ar  1 <1>   0.7200 
 14 C        1.7750     1.9720     3.1530 C.3   1 <1>  -0.2400 
 15 N        1.0620     6.6110    -0.3210 N.ar  1 <1>  -0.6200 
 16 N        2.4070     4.6690    -0.4770 N.ar  1 <1>  -0.6200 
 17 C        2.1480     7.3420    -0.3340 C.ar  1 <1>   0.1600 
 18 C        3.4740     5.4270    -0.4870 C.ar  1 <1>   0.1600 
 19 C        3.4100     6.8000    -0.4160 C.ar  1 <1>  -0.1440 
 20 C        4.6540     7.6820    -0.4280 C.3   1 <1>   0.0630 
 21 C        5.4310     7.5090    -1.7360 C.3   1 <1>  -0.2400 
 22 C        5.5480     7.3790     0.7780 C.3   1 <1>  -0.2400 
 23 H       -2.6420     2.6780    -0.4590 H     1 <1>   0.0800 
 24 H       -0.4370     3.1460    -1.8810 H     1 <1>   0.0800 
 25 H        1.0720     2.7490    -1.1460 H     1 <1>   0.0800 
 26 H       -0.1580     0.7370     1.5980 H     1 <1>   0.0800 
 27 H        1.2070     1.2340     0.6710 H     1 <1>   0.0800 
 28 H       -2.5160     0.9640     0.9830 H     1 <1>   0.4000 
 29 H       -2.9730     4.4780     1.0550 H     1 <1>   0.0800 
 30 H       -1.4700     4.1930     1.8710 H     1 <1>   0.0800 
 31 H        1.0520     3.4930     1.8390 H     1 <1>   0.0800 
 32 H       -0.1750     2.7770     2.8570 H     1 <1>   0.0800 
 33 H       -1.1880     6.0310     0.3620 H     1 <1>   0.0800 
 34 H       -1.8180     5.1120    -0.9790 H     1 <1>   0.0800 
 35 H        2.6650     1.7790     2.5800 H     1 <1>   0.0800 
 36 H        1.4320     1.0500     3.5880 H     1 <1>   0.0800 
 37 H        2.0160     2.6610     3.9430 H     1 <1>   0.0800 
 38 H        2.0240     8.4090    -0.2760 H     1 <1>   0.1500 
 39 H        4.4270     4.9350    -0.5540 H     1 <1>   0.1500 
 40 H        4.3480     8.7130    -0.3600 H     1 <1>   0.0800 
 41 H        5.8030     6.5050    -1.8330 H     1 <1>   0.0800 
 42 H        6.2650     8.1880    -1.7670 H     1 <1>   0.0800 
 43 H        4.7900     7.7180    -2.5750 H     1 <1>   0.0800 
 44 H        5.9220     6.3710     0.7370 H     1 <1>   0.0800 
 45 H        4.9900     7.4990     1.6900 H     1 <1>   0.0800 
 46 H        6.3850     8.0540     0.8010 H     1 <1>   0.0800 
@<TRIPOS>BOND
  1   1   2  ar  
  2   2   3  ar  
  3   2   4  1   
  4   4   5  1   
  5   4   6  1   
  6   4   7  1   
  7   5   8  1   
  8   5   9  1   
  9   5  23  1   
 10   6  10  1   
 11   6  24  1   
 12   6  25  1   
 13   7  11  1   
 14   7  26  1   
 15   7  27  1   
 16   8  28  1   
 17   9  12  1   
 18   9  29  1   
 19   9  30  1   
 20  10  12  1   
 21  10  13  1   
 22  11  14  1   
 23  11  31  1   
 24  11  32  1   
 25  12  33  1   
 26  12  34  1   
 27  13  15  ar  
 28  13  16  ar  
 29  14  35  1   
 30  14  36  1   
 31  14  37  1   
 32  15  17  ar  
 33  16  18  ar  
 34  17  19  ar  
 35  17  38  1   
 36  18  19  ar  
 37  18  39  1   
 38  19  20  1   
 39  20  21  1   
 40  20  22  1   
 41  20  40  1   
 42  21  41  1   
 43  21  42  1   
 44  21  43  1   
 45  22  44  1   
 46  22  45  1   
 47  22  46  1   
@<TRIPOS>SUBSTRUCTURE
  1 ****  10 GROUP 4 **** **** 0

# MOE 2024.06 (io_trps.svl 2023.06)
