@<TRIPOS>MOLECULE
NONAME
40 42 1 0 0 
SMALL
USER_CHARGES


@<TRIPOS>ATOM
  1 O        0.1120    -0.2790     1.9990 O.2   1 <1>  -0.5700 
  2 C       -0.7140     0.5120     1.6070 C.2   1 <1>   0.5690 
  3 N       -1.8180     0.0920     0.9110 N.am  1 <1>  -0.6600 
  4 C       -0.4970     1.9770     1.9480 C.3   1 <1>   0.1570 
  5 C       -2.8490     0.9490     0.2670 C.3   1 <1>   0.1400 
  6 C       -2.0600    -1.3370     0.6060 C.3   1 <1>   0.1400 
  7 N       -0.3000     2.8030     0.7400 N.pl3 1 <1>   0.0480 
  8 C       -3.7290    -0.0160    -0.5290 C.3   1 <1>   0.2000 
  9 C       -3.4960    -1.3950     0.0850 C.3   1 <1>  -0.0800 
 10 C        0.5490     2.5500    -0.2930 C.2   1 <1>  -0.3020 
 11 C       -0.9610     3.9540     0.4380 C.2   1 <1>  -0.3020 
 12 O       -5.0690     0.3210    -0.4410 O.3   1 <1>  -0.6800 
 13 C       -3.7460    -2.5430    -0.9030 C.3   1 <1>   0.0200 
 14 C        0.4250     3.5220    -1.2330 C.2   1 <1>  -0.1500 
 15 C       -0.5400     4.4190    -0.7660 C.2   1 <1>  -0.1500 
 16 C       -3.4210    -3.8830    -0.2710 C.2   1 <1>  -0.0400 
 17 O       -4.0880    -4.2890     0.7760 O.3   1 <1>  -0.0190 
 18 C       -2.5140    -4.8230    -0.5740 C.2   1 <1>  -0.1500 
 19 N       -3.6710    -5.4490     1.1940 N.2   1 <1>  -0.4100 
 20 C       -2.7240    -5.7960     0.3990 C.2   1 <1>   0.1080 
 21 C       -1.9470    -7.0880     0.5160 C.3   1 <1>  -0.0590 
 22 H        0.3740     2.0690     2.5680 H     1 <1>   0.0800 
 23 H       -1.3460     2.3420     2.4920 H     1 <1>   0.0800 
 24 H       -3.4200     1.4580     1.0240 H     1 <1>   0.0800 
 25 H       -2.3920     1.6590    -0.3990 H     1 <1>   0.0800 
 26 H       -1.3600    -1.6530    -0.1490 H     1 <1>   0.0800 
 27 H       -1.9330    -1.9470     1.4850 H     1 <1>   0.0800 
 28 H       -3.4410     0.0080    -1.5670 H     1 <1>   0.0800 
 29 H       -4.1350    -1.5190     0.9420 H     1 <1>   0.0800 
 30 H        1.1980     1.6900    -0.3060 H     1 <1>   0.1500 
 31 H       -1.6960     4.3880     1.0920 H     1 <1>   0.1500 
 32 H       -5.3880     0.2220     0.4770 H     1 <1>   0.4000 
 33 H       -3.1400    -2.4110    -1.7820 H     1 <1>   0.0800 
 34 H       -4.7780    -2.5400    -1.2060 H     1 <1>   0.0800 
 35 H        0.9560     3.6110    -2.1660 H     1 <1>   0.1500 
 36 H       -0.8640     5.3040    -1.2860 H     1 <1>   0.1500 
 37 H       -1.7840    -4.8530    -1.3610 H     1 <1>   0.1500 
 38 H       -2.0440    -7.6560    -0.3910 H     1 <1>   0.0800 
 39 H       -2.3280    -7.6720     1.3350 H     1 <1>   0.0800 
 40 H       -0.9090    -6.8750     0.6940 H     1 <1>   0.0800 
@<TRIPOS>BOND
  1   1   2  2   
  2   2   3  am  
  3   2   4  1   
  4   3   5  1   
  5   3   6  1   
  6   4   7  1   
  7   4  22  1   
  8   4  23  1   
  9   5   8  1   
 10   5  24  1   
 11   5  25  1   
 12   6   9  1   
 13   6  26  1   
 14   6  27  1   
 15   7  10  1   
 16   7  11  1   
 17   8   9  1   
 18   8  12  1   
 19   8  28  1   
 20   9  13  1   
 21   9  29  1   
 22  10  14  2   
 23  10  30  1   
 24  11  15  2   
 25  11  31  1   
 26  12  32  1   
 27  13  16  1   
 28  13  33  1   
 29  13  34  1   
 30  14  15  1   
 31  14  35  1   
 32  15  36  1   
 33  16  17  1   
 34  16  18  2   
 35  17  19  1   
 36  18  20  1   
 37  18  37  1   
 38  19  20  2   
 39  20  21  1   
 40  21  38  1   
 41  21  39  1   
 42  21  40  1   
@<TRIPOS>SUBSTRUCTURE
  1 ****   6 GROUP 4 **** **** 0

# MOE 2024.06 (io_trps.svl 2023.06)
