@<TRIPOS>MOLECULE
NONAME
39 41 1 0 0 
SMALL
USER_CHARGES


@<TRIPOS>ATOM
  1 O       -0.3340     0.1080     0.4080 O.2   1 <1>  -0.5700 
  2 C       -1.3830     0.7060     0.5670 C.2   1 <1>   0.7150 
  3 N       -2.5570    -0.0090     0.5180 N.am  1 <1>  -0.6600 
  4 C       -1.3850     2.1330     0.7800 C.2   1 <1>  -0.2370 
  5 C       -3.8910     0.5860     0.2640 C.3   1 <1>   0.1400 
  6 C       -2.5810    -1.4720     0.2680 C.3   1 <1>   0.1400 
  7 N       -0.5210     2.9990     0.1540 N.pl3 1 <1>   0.0480 
  8 C       -2.1870     2.8840     1.6040 C.2   1 <1>  -0.1500 
  9 C       -4.7250    -0.5530    -0.3210 C.3   1 <1>   0.2000 
 10 C       -4.0640    -1.8380     0.1710 C.3   1 <1>  -0.0800 
 11 C       -0.8010     4.2560     0.5760 C.2   1 <1>  -0.3020 
 12 C        0.5400     2.6520    -0.8110 C.3   1 <1>   0.0160 
 13 C       -1.8220     4.2190     1.4700 C.2   1 <1>  -0.1500 
 14 O       -6.0410    -0.5020     0.1140 O.3   1 <1>  -0.6800 
 15 C       -4.3600    -3.0410    -0.7400 C.3   1 <1>  -0.0170 
 16 C       -3.7440    -4.3230    -0.2020 C.ar  1 <1>   0.1670 
 17 N       -2.4670    -4.5290    -0.4830 N.ar  1 <1>  -0.6200 
 18 C       -4.5190    -5.2070     0.5460 C.ar  1 <1>   0.1600 
 19 C       -2.0220    -5.6640     0.0300 C.ar  1 <1>   0.1600 
 20 N       -4.0750    -6.3420     1.0620 N.ar  1 <1>  -0.6200 
 21 C       -2.7990    -6.5400     0.7780 C.ar  1 <1>   0.1600 
 22 H       -4.3090     0.9240     1.1960 H     1 <1>   0.0800 
 23 H       -3.8170     1.4050    -0.4310 H     1 <1>   0.0800 
 24 H       -2.0700    -1.6800    -0.6580 H     1 <1>   0.0800 
 25 H       -2.0910    -2.0050     1.0660 H     1 <1>   0.0800 
 26 H       -2.9620     2.5260     2.2580 H     1 <1>   0.1500 
 27 H       -4.7180    -0.4950    -1.3960 H     1 <1>   0.0800 
 28 H       -4.4020    -2.0540     1.1700 H     1 <1>   0.0800 
 29 H       -0.2610     5.1180     0.2260 H     1 <1>   0.1500 
 30 H        0.9560     3.5480    -1.2330 H     1 <1>   0.0800 
 31 H        0.1260     2.0430    -1.5930 H     1 <1>   0.0800 
 32 H        1.3110     2.1020    -0.3030 H     1 <1>   0.0800 
 33 H       -2.2730     5.0480     1.9890 H     1 <1>   0.1500 
 34 H       -6.0800    -0.5340     1.0890 H     1 <1>   0.4000 
 35 H       -3.9770    -2.8570    -1.7290 H     1 <1>   0.0800 
 36 H       -5.4250    -3.1650    -0.8250 H     1 <1>   0.0800 
 37 H       -5.5510    -4.9650     0.7290 H     1 <1>   0.1500 
 38 H       -0.9910    -5.9130    -0.1490 H     1 <1>   0.1500 
 39 H       -2.3460    -7.4400     1.1540 H     1 <1>   0.1500 
@<TRIPOS>BOND
  1   1   2  2   
  2   2   3  am  
  3   2   4  1   
  4   3   5  1   
  5   3   6  1   
  6   4   7  1   
  7   4   8  2   
  8   5   9  1   
  9   5  22  1   
 10   5  23  1   
 11   6  10  1   
 12   6  24  1   
 13   6  25  1   
 14   7  11  1   
 15   7  12  1   
 16   8  13  1   
 17   8  26  1   
 18   9  10  1   
 19   9  14  1   
 20   9  27  1   
 21  10  15  1   
 22  10  28  1   
 23  11  13  2   
 24  11  29  1   
 25  12  30  1   
 26  12  31  1   
 27  12  32  1   
 28  13  33  1   
 29  14  34  1   
 30  15  16  1   
 31  15  35  1   
 32  15  36  1   
 33  16  17  ar  
 34  16  18  ar  
 35  17  19  ar  
 36  18  20  ar  
 37  18  37  1   
 38  19  21  ar  
 39  19  38  1   
 40  20  21  ar  
 41  21  39  1   
@<TRIPOS>SUBSTRUCTURE
  1 ****   6 GROUP 4 **** **** 0

# MOE 2024.06 (io_trps.svl 2023.06)
