@<TRIPOS>MOLECULE
NONAME
22 22 1 0 0 
SMALL
USER_CHARGES


@<TRIPOS>ATOM
  1 O       -0.0680     0.4350    -0.8610 O.2   1 <1>  -0.5700 
  2 C       -0.0370     1.5910    -0.5370 C.2   1 <1>   0.5690 
  3 N       -1.1840     2.2560    -0.2380 N.am  1 <1>  -0.7300 
  4 C        1.3180     2.3410    -0.4820 C.3   1 <1>   0.4840 
  5 C       -1.2780     3.7080     0.0930 C.3   1 <1>   0.1400 
  6 N        1.1680     3.8400    -0.5310 N.4   1 <1>  -0.9060 
  7 C        2.1110     1.9840     0.7770 C.3   1 <1>  -0.2400 
  8 C        0.1090     4.3460     0.3880 C.3   1 <1>   0.4230 
  9 C        0.0670     5.8630     0.2540 C.3   1 <1>  -0.2400 
 10 H       -2.0590     1.7180    -0.3030 H     1 <1>   0.3700 
 11 H        1.8900     2.0180    -1.3360 H     1 <1>   0.0800 
 12 H       -1.7460     4.2170    -0.7330 H     1 <1>   0.0800 
 13 H       -1.9140     3.8350     0.9530 H     1 <1>   0.0800 
 14 H        2.0680     4.2820    -0.3170 H     1 <1>   0.4500 
 15 H        0.9120     4.0990    -1.4900 H     1 <1>   0.4500 
 16 H        1.5640     2.2270     1.6700 H     1 <1>   0.0800 
 17 H        3.0670     2.4770     0.7860 H     1 <1>   0.0800 
 18 H        2.2900     0.9220     0.7870 H     1 <1>   0.0800 
 19 H        0.3770     4.1010     1.4030 H     1 <1>   0.0800 
 20 H       -0.1970     6.1620    -0.7460 H     1 <1>   0.0800 
 21 H        1.0160     6.2960     0.5180 H     1 <1>   0.0800 
 22 H       -0.6720     6.2650     0.9260 H     1 <1>   0.0800 
@<TRIPOS>BOND
  1   1   2  2   
  2   2   3  am  
  3   2   4  1   
  4   3   5  1   
  5   3  10  1   
  6   4   6  1   
  7   4   7  1   
  8   4  11  1   
  9   5   8  1   
 10   5  12  1   
 11   5  13  1   
 12   6   8  1   
 13   6  14  1   
 14   6  15  1   
 15   7  16  1   
 16   7  17  1   
 17   7  18  1   
 18   8   9  1   
 19   8  19  1   
 20   9  20  1   
 21   9  21  1   
 22   9  22  1   
@<TRIPOS>SUBSTRUCTURE
  1 ****   4 GROUP 4 **** **** 0

# MOE 2024.06 (io_trps.svl 2023.06)
