@<TRIPOS>MOLECULE
NONAME
48 50 1 0 0 
SMALL
USER_CHARGES


@<TRIPOS>ATOM
  1 S       -0.0610    -0.4770     0.6670 S.3   1 <1>  -0.0800 
  2 C       -1.3480    -0.9420    -0.4430 C.2   1 <1>  -0.0450 
  3 C       -0.1200     1.2230     0.2030 C.2   1 <1>  -0.0450 
  4 C       -1.7550    -2.3240    -0.5030 C.2   1 <1>   0.7150 
  5 C       -1.7570     0.1730    -1.1050 C.2   1 <1>  -0.1500 
  6 C        0.7630     2.1780     0.8100 C.2   1 <1>   0.5940 
  7 C       -1.0820     1.3660    -0.7450 C.2   1 <1>  -0.1500 
  8 O       -1.0620    -3.2130    -0.0380 O.2   1 <1>  -0.5700 
  9 N       -2.9540    -2.7030    -1.0680 N.am  1 <1>  -0.6600 
 10 O        0.7400     3.3500     0.5290 O.2   1 <1>  -0.5700 
 11 C        1.7740     1.7350     1.8470 C.3   1 <1>  -0.1790 
 12 C       -3.1240    -4.1080    -1.5260 C.3   1 <1>   0.1400 
 13 C       -4.2240    -2.0520    -0.6500 C.3   1 <1>   0.1400 
 14 C       -3.7060    -4.9520    -0.3680 C.3   1 <1>   0.4230 
 15 C       -4.8300    -2.8680     0.5010 C.3   1 <1>  -0.1600 
 16 N       -3.7370    -6.4480    -0.6460 N.4   1 <1>  -0.9590 
 17 C       -5.0550    -4.3710     0.1550 C.3   1 <1>   0.0000 
 18 C       -4.6500    -7.2190     0.2610 C.3   1 <1>   0.3430 
 19 C       -3.9810    -6.8400    -2.0730 C.3   1 <1>   0.2630 
 20 C       -5.4690    -5.1250     1.4540 C.3   1 <1>  -0.1600 
 21 C       -6.1590    -4.5170    -0.9310 C.3   1 <1>   0.1200 
 22 C       -4.8140    -6.5120     1.6040 C.3   1 <1>  -0.1600 
 23 O       -7.3080    -3.8240    -0.5910 O.3   1 <1>  -0.6800 
 24 H       -2.5270     0.1860    -1.8570 H     1 <1>   0.1500 
 25 H       -1.3270     2.3090    -1.2050 H     1 <1>   0.1500 
 26 H        2.4360     1.0040     1.4230 H     1 <1>   0.0800 
 27 H        1.2680     1.3140     2.6950 H     1 <1>   0.0800 
 28 H        2.3550     2.5780     2.1740 H     1 <1>   0.0800 
 29 H       -3.7670    -4.1150    -2.3870 H     1 <1>   0.0800 
 30 H       -2.1650    -4.5040    -1.8170 H     1 <1>   0.0800 
 31 H       -4.0420    -1.0450    -0.3130 H     1 <1>   0.0800 
 32 H       -4.9040    -2.0040    -1.4840 H     1 <1>   0.0800 
 33 H       -3.0090    -4.8150     0.4440 H     1 <1>   0.0800 
 34 H       -4.1600    -2.7840     1.3390 H     1 <1>   0.0800 
 35 H       -5.7530    -2.4050     0.8040 H     1 <1>   0.0800 
 36 H       -2.7820    -6.7610    -0.4120 H     1 <1>   0.4500 
 37 H       -5.6220    -7.3140    -0.1950 H     1 <1>   0.0800 
 38 H       -4.2580    -8.2120     0.4160 H     1 <1>   0.0800 
 39 H       -4.9510    -6.5010    -2.3980 H     1 <1>   0.0800 
 40 H       -3.9400    -7.9130    -2.1770 H     1 <1>   0.0800 
 41 H       -3.2300    -6.4120    -2.7170 H     1 <1>   0.0800 
 42 H       -5.2040    -4.5510     2.3270 H     1 <1>   0.0800 
 43 H       -6.5380    -5.2390     1.4900 H     1 <1>   0.0800 
 44 H       -6.4360    -5.5450    -1.0770 H     1 <1>   0.0800 
 45 H       -5.8370    -4.1160    -1.8750 H     1 <1>   0.0800 
 46 H       -5.4220    -7.1190     2.2530 H     1 <1>   0.0800 
 47 H       -3.8500    -6.4180     2.0750 H     1 <1>   0.0800 
 48 H       -7.7210    -4.1670     0.2260 H     1 <1>   0.4000 
@<TRIPOS>BOND
  1   1   2  1   
  2   1   3  1   
  3   2   4  1   
  4   2   5  2   
  5   3   6  1   
  6   3   7  2   
  7   4   8  2   
  8   4   9  am  
  9   5   7  1   
 10   5  24  1   
 11   6  10  2   
 12   6  11  1   
 13   7  25  1   
 14   9  12  1   
 15   9  13  1   
 16  11  26  1   
 17  11  27  1   
 18  11  28  1   
 19  12  14  1   
 20  12  29  1   
 21  12  30  1   
 22  13  15  1   
 23  13  31  1   
 24  13  32  1   
 25  14  16  1   
 26  14  17  1   
 27  14  33  1   
 28  15  17  1   
 29  15  34  1   
 30  15  35  1   
 31  16  18  1   
 32  16  19  1   
 33  16  36  1   
 34  17  20  1   
 35  17  21  1   
 36  18  22  1   
 37  18  37  1   
 38  18  38  1   
 39  19  39  1   
 40  19  40  1   
 41  19  41  1   
 42  20  22  1   
 43  20  42  1   
 44  20  43  1   
 45  21  23  1   
 46  21  44  1   
 47  21  45  1   
 48  22  46  1   
 49  22  47  1   
 50  23  48  1   
@<TRIPOS>SUBSTRUCTURE
  1 ****   9 GROUP 4 **** **** 0

# MOE 2024.06 (io_trps.svl 2023.06)
