@<TRIPOS>MOLECULE
NONAME
47 49 1 0 0 
SMALL
USER_CHARGES


@<TRIPOS>ATOM
  1 S       -1.2690     1.3900    -0.6520 S.3   1 <1>  -0.0800 
  2 C       -2.1850     0.6750     0.6670 C.2   1 <1>  -0.1400 
  3 C       -2.6610     2.3260    -1.1690 C.2   1 <1>  -0.1100 
  4 C       -3.4470     1.1450     0.6720 C.2   1 <1>  -0.1500 
  5 C       -1.4840    -0.3280     1.5630 C.3   1 <1>   0.3200 
  6 C       -3.7180     2.0840    -0.3730 C.2   1 <1>  -0.1500 
  7 N       -1.6590    -1.6800     0.9720 N.am  1 <1>  -0.6600 
  8 C       -2.8120    -2.3780     1.2340 C.2   1 <1>   0.5690 
  9 C       -0.6090    -2.1050    -0.0020 C.3   1 <1>   0.1400 
 10 O       -3.4910    -2.1090     2.2020 O.2   1 <1>  -0.5700 
 11 C       -3.2940    -3.4890     0.2880 C.3   1 <1>   0.2610 
 12 C        0.3380    -3.1160     0.6450 C.3   1 <1>   0.1200 
 13 O       -2.6310    -4.7160     0.5490 O.3   1 <1>  -0.5600 
 14 C       -4.8320    -3.6610     0.3620 C.3   1 <1>   0.3640 
 15 O        1.2660    -3.5150    -0.3130 O.3   1 <1>  -0.5600 
 16 C       -2.9180    -5.7420    -0.3780 C.3   1 <1>   0.1810 
 17 N       -5.2640    -4.8980    -0.3330 N.am  1 <1>  -0.7300 
 18 C       -5.5390    -2.4640    -0.2640 C.ar  1 <1>  -0.1430 
 19 C        2.1790    -4.4570     0.1490 C.3   1 <1>   0.0400 
 20 C       -4.4170    -5.8990    -0.6650 C.2   1 <1>   0.5690 
 21 C       -6.0890    -1.4830     0.5510 C.ar  1 <1>   0.1600 
 22 C       -5.6370    -2.3110    -1.6360 C.ar  1 <1>  -0.1500 
 23 O       -4.8270    -6.8940    -1.2040 O.2   1 <1>  -0.5700 
 24 N       -6.7120    -0.3970     0.1220 N.ar  1 <1>  -0.6200 
 25 C       -6.2800    -1.1840    -2.1000 C.ar  1 <1>  -0.1500 
 26 C       -6.7920    -0.2730    -1.1920 C.ar  1 <1>   0.1600 
 27 H       -2.5380     2.9650    -2.0250 H     1 <1>   0.1500 
 28 H       -4.2190     0.8610     1.3680 H     1 <1>   0.1500 
 29 H       -1.9230    -0.2960     2.5450 H     1 <1>   0.0800 
 30 H       -0.4400    -0.0870     1.6580 H     1 <1>   0.0800 
 31 H       -4.6950     2.5250    -0.4690 H     1 <1>   0.1500 
 32 H       -1.0580    -2.5480    -0.8710 H     1 <1>   0.0800 
 33 H       -0.0410    -1.2500    -0.3240 H     1 <1>   0.0800 
 34 H       -3.0490    -3.1970    -0.7150 H     1 <1>   0.0800 
 35 H       -0.2050    -3.9830     0.9790 H     1 <1>   0.0800 
 36 H        0.8640    -2.6640     1.4680 H     1 <1>   0.0800 
 37 H       -5.1250    -3.7480     1.3950 H     1 <1>   0.0800 
 38 H       -2.4000    -5.5240    -1.2940 H     1 <1>   0.0800 
 39 H       -2.5360    -6.6620     0.0240 H     1 <1>   0.0800 
 40 H       -6.2620    -5.0180    -0.5080 H     1 <1>   0.3700 
 41 H        2.8490    -4.6980    -0.6580 H     1 <1>   0.0800 
 42 H        1.6520    -5.3430     0.4590 H     1 <1>   0.0800 
 43 H        2.7370    -4.0400     0.9700 H     1 <1>   0.0800 
 44 H       -6.0070    -1.5910     1.6210 H     1 <1>   0.1500 
 45 H       -5.2320    -3.0360    -2.3220 H     1 <1>   0.1500 
 46 H       -6.3860    -1.0100    -3.1550 H     1 <1>   0.1500 
 47 H       -7.2930     0.6030    -1.5670 H     1 <1>   0.1500 
@<TRIPOS>BOND
  1   1   2  1   
  2   1   3  1   
  3   2   4  2   
  4   2   5  1   
  5   3   6  2   
  6   3  27  1   
  7   4   6  1   
  8   4  28  1   
  9   5   7  1   
 10   5  29  1   
 11   5  30  1   
 12   6  31  1   
 13   7   8  am  
 14   7   9  1   
 15   8  10  2   
 16   8  11  1   
 17   9  12  1   
 18   9  32  1   
 19   9  33  1   
 20  11  13  1   
 21  11  14  1   
 22  11  34  1   
 23  12  15  1   
 24  12  35  1   
 25  12  36  1   
 26  13  16  1   
 27  14  17  1   
 28  14  18  1   
 29  14  37  1   
 30  15  19  1   
 31  16  20  1   
 32  16  38  1   
 33  16  39  1   
 34  17  20  am  
 35  17  40  1   
 36  18  21  ar  
 37  18  22  ar  
 38  19  41  1   
 39  19  42  1   
 40  19  43  1   
 41  20  23  2   
 42  21  24  ar  
 43  21  44  1   
 44  22  25  ar  
 45  22  45  1   
 46  24  26  ar  
 47  25  26  ar  
 48  25  46  1   
 49  26  47  1   
@<TRIPOS>SUBSTRUCTURE
  1 ****   8 GROUP 4 **** **** 0

# MOE 2024.06 (io_trps.svl 2023.06)
