@<TRIPOS>MOLECULE
NONAME
47 50 1 0 0 
SMALL
USER_CHARGES


@<TRIPOS>ATOM
  1 O       -1.8470    -1.5580     1.2420 O.2   1 <1>  -0.5700 
  2 C       -2.7260    -0.9870     0.6530 C.2   1 <1>   0.4230 
  3 C       -3.4140     0.2070     1.0330 C.ar  1 <1>   0.0860 
  4 C       -3.2800    -1.4830    -0.6660 C.3   1 <1>  -0.0990 
  5 C       -4.3750     0.5360     0.0980 C.ar  1 <1>  -0.1440 
  6 C       -3.2360     1.0130     2.1500 C.ar  1 <1>  -0.1500 
  7 C       -4.3860    -0.4720    -1.0390 C.3   1 <1>  -0.0160 
  8 C       -5.1880     1.6590     0.2310 C.ar  1 <1>   0.0860 
  9 C       -4.0220     2.1410     2.3070 C.ar  1 <1>  -0.1500 
 10 C       -6.1940     1.9950    -0.7590 C.2   1 <1>   0.5440 
 11 C       -4.9810     2.4580     1.3570 C.ar  1 <1>  -0.1500 
 12 O       -5.8330     2.2780    -1.8860 O.2   1 <1>  -0.5700 
 13 N       -7.5440     1.9940    -0.4670 N.am  1 <1>  -0.6600 
 14 C       -8.5190     2.5490    -1.4580 C.3   1 <1>   0.1400 
 15 C       -8.1130     1.4530     0.8050 C.3   1 <1>   0.1400 
 16 C       -9.9260     2.0110    -1.1980 C.3   1 <1>  -0.1600 
 17 C       -9.2930     2.3140     1.2580 C.3   1 <1>  -0.1600 
 18 C      -10.4180     2.3930     0.2080 C.3   1 <1>   0.4180 
 19 O      -10.8220     3.7400     0.1990 O.3   1 <1>  -0.5600 
 20 C      -11.5780     1.4890     0.6250 C.2   1 <1>  -0.2880 
 21 C      -12.1080     4.0390    -0.2720 C.3   1 <1>   0.1200 
 22 C      -12.8280     1.9120     0.8250 C.2   1 <1>  -0.2760 
 23 C      -13.1760     3.3720     0.6050 C.3   1 <1>  -0.0220 
 24 C      -13.9760     1.0290     1.2800 C.3   1 <1>  -0.1020 
 25 H       -3.6810    -2.4730    -0.5440 H     1 <1>   0.0800 
 26 H       -2.5000    -1.4950    -1.4060 H     1 <1>   0.0800 
 27 H       -2.4850     0.7510     2.8760 H     1 <1>   0.1500 
 28 H       -5.3460    -0.9550    -1.1070 H     1 <1>   0.0800 
 29 H       -4.1630     0.0150    -1.9730 H     1 <1>   0.0800 
 30 H       -3.8860     2.7750     3.1680 H     1 <1>   0.1500 
 31 H       -5.5830     3.3420     1.4810 H     1 <1>   0.1500 
 32 H       -8.2150     2.2830    -2.4570 H     1 <1>   0.0800 
 33 H       -8.5210     3.6230    -1.3820 H     1 <1>   0.0800 
 34 H       -7.3720     1.4320     1.5830 H     1 <1>   0.0800 
 35 H       -8.4440     0.4420     0.6370 H     1 <1>   0.0800 
 36 H       -9.8980     0.9420    -1.2960 H     1 <1>   0.0800 
 37 H      -10.6010     2.3740    -1.9480 H     1 <1>   0.0800 
 38 H       -8.9160     3.3010     1.4630 H     1 <1>   0.0800 
 39 H       -9.6830     1.9230     2.1790 H     1 <1>   0.0800 
 40 H      -11.2800     0.4640     0.7540 H     1 <1>   0.1500 
 41 H      -12.1930     3.7010    -1.2880 H     1 <1>   0.0800 
 42 H      -12.2240     5.1080    -0.2530 H     1 <1>   0.0800 
 43 H      -14.1260     3.4590     0.1090 H     1 <1>   0.0800 
 44 H      -13.2410     3.8800     1.5500 H     1 <1>   0.0800 
 45 H      -14.3760     1.3920     2.2100 H     1 <1>   0.0800 
 46 H      -13.6390     0.0180     1.4260 H     1 <1>   0.0800 
 47 H      -14.7580     1.0240     0.5420 H     1 <1>   0.0800 
@<TRIPOS>BOND
  1   1   2  2   
  2   2   3  1   
  3   2   4  1   
  4   3   5  ar  
  5   3   6  ar  
  6   4   7  1   
  7   4  25  1   
  8   4  26  1   
  9   5   7  1   
 10   5   8  ar  
 11   6   9  ar  
 12   6  27  1   
 13   7  28  1   
 14   7  29  1   
 15   8  10  1   
 16   8  11  ar  
 17   9  11  ar  
 18   9  30  1   
 19  10  12  2   
 20  10  13  am  
 21  11  31  1   
 22  13  14  1   
 23  13  15  1   
 24  14  16  1   
 25  14  32  1   
 26  14  33  1   
 27  15  17  1   
 28  15  34  1   
 29  15  35  1   
 30  16  18  1   
 31  16  36  1   
 32  16  37  1   
 33  17  18  1   
 34  17  38  1   
 35  17  39  1   
 36  18  19  1   
 37  18  20  1   
 38  19  21  1   
 39  20  22  2   
 40  20  40  1   
 41  21  23  1   
 42  21  41  1   
 43  21  42  1   
 44  22  23  1   
 45  22  24  1   
 46  23  43  1   
 47  23  44  1   
 48  24  45  1   
 49  24  46  1   
 50  24  47  1   
@<TRIPOS>SUBSTRUCTURE
  1 ****  15 GROUP 4 **** **** 0

# MOE 2024.06 (io_trps.svl 2023.06)
