@<TRIPOS>MOLECULE
NONAME
53 55 1 0 0 
SMALL
USER_CHARGES


@<TRIPOS>ATOM
  1 O        2.9970    -0.8300    -2.3200 O.2   1 <1>  -0.5700 
  2 C        2.8750    -1.0210    -1.1250 C.2   1 <1>   0.5440 
  3 N        3.4620    -0.1300    -0.2480 N.am  1 <1>  -0.6600 
  4 C        2.1350    -2.1820    -0.6660 C.ar  1 <1>   0.0860 
  5 C        3.8240    -0.4780     1.1620 C.3   1 <1>   0.1400 
  6 C        4.0000     1.1780    -0.7100 C.3   1 <1>   0.1400 
  7 C        2.4030    -3.4500    -1.1820 C.ar  1 <1>  -0.1500 
  8 C        1.1280    -2.0780     0.2950 C.ar  1 <1>  -0.1500 
  9 C        5.3460    -0.4600     1.3470 C.3   1 <1>   0.2000 
 10 C        5.5250     1.1590    -0.6110 C.3   1 <1>  -0.1600 
 11 C        1.7120    -4.5660    -0.7470 C.ar  1 <1>  -0.1500 
 12 C        0.4330    -3.1900     0.7350 C.ar  1 <1>  -0.1500 
 13 O        5.6140    -0.6010     2.7030 O.3   1 <1>  -0.6800 
 14 C        5.9820     0.8460     0.8180 C.3   1 <1>   0.2200 
 15 C        0.7260    -4.4380     0.2150 C.ar  1 <1>  -0.1500 
 16 N        7.4610     0.7670     0.8110 N.am  1 <1>  -0.7300 
 17 C        8.2890     0.8490     1.8810 C.2   1 <1>   0.5690 
 18 O        7.8560     0.9370     3.0040 O.2   1 <1>  -0.5700 
 19 C        9.7940     0.8090     1.6650 C.3   1 <1>   0.0440 
 20 C       10.1660     0.7080     0.1840 C.ar  1 <1>  -0.1430 
 21 C       10.2470     1.8290    -0.6380 C.ar  1 <1>  -0.1430 
 22 C       10.3990    -0.5510    -0.3520 C.ar  1 <1>  -0.1500 
 23 C       10.5600     1.6650    -1.9790 C.ar  1 <1>  -0.1500 
 24 C        9.9980     3.2360    -0.1130 C.3   1 <1>  -0.0970 
 25 C       10.7070    -0.7110    -1.6910 C.ar  1 <1>  -0.1430 
 26 C       10.7870     0.4060    -2.5030 C.ar  1 <1>  -0.1500 
 27 C       10.9580    -2.0950    -2.2600 C.3   1 <1>  -0.0970 
 28 H        3.3730     0.2420     1.8230 H     1 <1>   0.0800 
 29 H        3.4630    -1.4570     1.4220 H     1 <1>   0.0800 
 30 H        3.7030     1.3740    -1.7270 H     1 <1>   0.0800 
 31 H        3.5960     1.9630    -0.0930 H     1 <1>   0.0800 
 32 H        3.1640    -3.5490    -1.9360 H     1 <1>   0.1500 
 33 H        0.8900    -1.1080     0.6960 H     1 <1>   0.1500 
 34 H        5.7750    -1.3040     0.8360 H     1 <1>   0.0800 
 35 H        5.9060     2.1190    -0.9090 H     1 <1>   0.0800 
 36 H        5.8990     0.4160    -1.2930 H     1 <1>   0.0800 
 37 H        1.9390    -5.5350    -1.1590 H     1 <1>   0.1500 
 38 H       -0.3370    -3.0860     1.4800 H     1 <1>   0.1500 
 39 H        6.4660    -0.1350     2.9160 H     1 <1>   0.4000 
 40 H        5.6750     1.6560     1.4600 H     1 <1>   0.0800 
 41 H        0.1870    -5.3060     0.5550 H     1 <1>   0.1500 
 42 H        7.9000     0.6590    -0.1100 H     1 <1>   0.3700 
 43 H       10.2300     1.6840     2.1060 H     1 <1>   0.0800 
 44 H       10.1830    -0.0380     2.1980 H     1 <1>   0.0800 
 45 H       10.3370    -1.4220     0.2780 H     1 <1>   0.1500 
 46 H       10.6300     2.5190    -2.6290 H     1 <1>   0.1500 
 47 H        9.9990     3.9530    -0.9140 H     1 <1>   0.0800 
 48 H       10.7700     3.5100     0.5830 H     1 <1>   0.0800 
 49 H        9.0440     3.2910     0.3810 H     1 <1>   0.0800 
 50 H       11.0300     0.3020    -3.5460 H     1 <1>   0.1500 
 51 H       10.7460    -2.1150    -3.3140 H     1 <1>   0.0800 
 52 H       10.3300    -2.8200    -1.7740 H     1 <1>   0.0800 
 53 H       11.9870    -2.3690    -2.1080 H     1 <1>   0.0800 
@<TRIPOS>BOND
  1   1   2  2   
  2   2   3  am  
  3   2   4  1   
  4   3   5  1   
  5   3   6  1   
  6   4   7  ar  
  7   4   8  ar  
  8   5   9  1   
  9   5  28  1   
 10   5  29  1   
 11   6  10  1   
 12   6  30  1   
 13   6  31  1   
 14   7  11  ar  
 15   7  32  1   
 16   8  12  ar  
 17   8  33  1   
 18   9  13  1   
 19   9  14  1   
 20   9  34  1   
 21  10  14  1   
 22  10  35  1   
 23  10  36  1   
 24  11  15  ar  
 25  11  37  1   
 26  12  15  ar  
 27  12  38  1   
 28  13  39  1   
 29  14  16  1   
 30  14  40  1   
 31  15  41  1   
 32  16  17  am  
 33  16  42  1   
 34  17  18  2   
 35  17  19  1   
 36  19  20  1   
 37  19  43  1   
 38  19  44  1   
 39  20  21  ar  
 40  20  22  ar  
 41  21  23  ar  
 42  21  24  1   
 43  22  25  ar  
 44  22  45  1   
 45  23  26  ar  
 46  23  46  1   
 47  24  47  1   
 48  24  48  1   
 49  24  49  1   
 50  25  26  ar  
 51  25  27  1   
 52  26  50  1   
 53  27  51  1   
 54  27  52  1   
 55  27  53  1   
@<TRIPOS>SUBSTRUCTURE
  1 ****  14 GROUP 4 **** **** 0

# MOE 2024.06 (io_trps.svl 2023.06)
