@<TRIPOS>MOLECULE
NONAME
45 47 1 0 0 
SMALL
USER_CHARGES


@<TRIPOS>ATOM
  1 O        0.7430     0.2590     0.7530 O.co2 1 <1>  -0.9030 
  2 C        1.4480    -0.7540     0.8880 C.2   1 <1>   0.9770 
  3 O        0.9410    -1.8030     1.3140 O.co2 1 <1>  -0.9030 
  4 C        2.8600    -0.7010     0.5410 C.ar  1 <1>  -0.1870 
  5 C        3.4340     0.4880     0.1010 C.ar  1 <1>  -0.1180 
  6 C        3.6850    -1.8380     0.6360 C.ar  1 <1>  -0.1580 
  7 C        4.7770     0.5220    -0.2280 C.ar  1 <1>   0.3020 
  8 C        5.0250    -1.8030     0.3070 C.ar  1 <1>  -0.1180 
  9 N        5.5870     1.5380    -0.6830 N.pl3 1 <1>  -0.7040 
 10 C        5.5710    -0.6020    -0.1300 C.ar  1 <1>   0.3020 
 11 C        6.8160     1.0630    -0.8640 C.cat 1 <1>   1.0690 
 12 N        6.8540    -0.2390    -0.5240 N.pl3 1 <1>  -0.7680 
 13 N        7.8360     1.8070    -1.3350 N.pl3 1 <1>  -0.5970 
 14 C        8.0540    -1.0190    -0.1260 C.3   1 <1>   0.2670 
 15 C        8.0060     3.2040    -0.8470 C.3   1 <1>   0.3410 
 16 C        9.0320     1.2620    -2.0340 C.3   1 <1>   0.0790 
 17 C        8.6290     3.1870     0.5440 C.2   1 <1>  -0.0030 
 18 N        8.5480     2.1890     1.3610 N.2   1 <1>  -0.3450 
 19 N        9.3230     4.2000     1.0800 N.pl3 1 <1>   0.0390 
 20 N        9.1990     2.5290     2.4670 N.2   1 <1>  -0.3450 
 21 C        9.6490     3.7210     2.2820 C.2   1 <1>   0.0270 
 22 C        9.7080     5.5220     0.5300 C.3   1 <1>   0.0870 
 23 C        8.5380     6.5080     0.5300 C.3   1 <1>   0.1120 
 24 O        7.5530     6.0630    -0.3500 O.3   1 <1>  -0.5650 
 25 C        6.4540     6.9150    -0.4250 C.3   1 <1>   0.0310 
 26 H        2.8290     1.3760     0.0200 H     1 <1>   0.1420 
 27 H        3.2350    -2.7580     0.9780 H     1 <1>   0.1420 
 28 H        5.6320    -2.6850     0.3860 H     1 <1>   0.1420 
 29 H        5.2810     2.4910    -0.8470 H     1 <1>   0.4440 
 30 H        7.8180    -1.6600     0.7060 H     1 <1>   0.0710 
 31 H        8.8460    -0.3590     0.1840 H     1 <1>   0.0710 
 32 H        8.3900    -1.6240    -0.9490 H     1 <1>   0.0710 
 33 H        7.0530     3.6980    -0.8000 H     1 <1>   0.0710 
 34 H        8.6310     3.7560    -1.5280 H     1 <1>   0.0710 
 35 H        8.8240     0.2840    -2.4340 H     1 <1>   0.0710 
 36 H        9.8610     1.1980    -1.3490 H     1 <1>   0.0710 
 37 H        9.3050     1.9070    -2.8520 H     1 <1>   0.0710 
 38 H       10.2240     4.2740     3.0030 H     1 <1>   0.1420 
 39 H       10.0830     5.4000    -0.4690 H     1 <1>   0.0710 
 40 H       10.5020     5.9220     1.1350 H     1 <1>   0.0710 
 41 H        8.8760     7.4760     0.1980 H     1 <1>   0.0710 
 42 H        8.1160     6.5960     1.5170 H     1 <1>   0.0710 
 43 H        5.7540     6.5050    -1.1310 H     1 <1>   0.0710 
 44 H        6.7770     7.8860    -0.7610 H     1 <1>   0.0710 
 45 H        5.9920     6.9870     0.5450 H     1 <1>   0.0710 
@<TRIPOS>BOND
  1   1   2  ar  
  2   2   3  ar  
  3   2   4  1   
  4   4   5  ar  
  5   4   6  ar  
  6   5   7  ar  
  7   5  26  1   
  8   6   8  ar  
  9   6  27  1   
 10   7   9  1   
 11   7  10  ar  
 12   8  10  ar  
 13   8  28  1   
 14   9  11  ar  
 15   9  29  1   
 16  10  12  1   
 17  11  12  ar  
 18  11  13  ar  
 19  12  14  1   
 20  13  15  1   
 21  13  16  1   
 22  14  30  1   
 23  14  31  1   
 24  14  32  1   
 25  15  17  1   
 26  15  33  1   
 27  15  34  1   
 28  16  35  1   
 29  16  36  1   
 30  16  37  1   
 31  17  18  2   
 32  17  19  1   
 33  18  20  1   
 34  19  21  1   
 35  19  22  1   
 36  20  21  2   
 37  21  38  1   
 38  22  23  1   
 39  22  39  1   
 40  22  40  1   
 41  23  24  1   
 42  23  41  1   
 43  23  42  1   
 44  24  25  1   
 45  25  43  1   
 46  25  44  1   
 47  25  45  1   
@<TRIPOS>SUBSTRUCTURE
  1 ****   9 GROUP 4 **** **** 0

# MOE 2024.06 (io_trps.svl 2023.06)
