@<TRIPOS>MOLECULE
NONAME
51 52 1 0 0 
SMALL
USER_CHARGES


@<TRIPOS>ATOM
  1 F       -1.4190    -1.2670     2.7530 F     1 <1>  -0.1900 
  2 C       -1.9740    -1.5650     1.6060 C.ar  1 <1>   0.1900 
  3 C       -2.2550    -2.8890     1.2980 C.ar  1 <1>  -0.1440 
  4 C       -2.2550    -0.5160     0.7520 C.ar  1 <1>  -0.1500 
  5 C       -2.8580    -3.1620     0.0670 C.ar  1 <1>   0.1170 
  6 C       -1.9150    -4.0170     2.2750 C.3   1 <1>  -0.0970 
  7 C       -2.8470    -0.7940    -0.4640 C.ar  1 <1>  -0.1500 
  8 N       -3.1890    -4.4860    -0.2650 N.am  1 <1>  -0.5470 
  9 C       -3.1450    -2.1040    -0.7960 C.ar  1 <1>  -0.1500 
 10 C       -3.3940    -5.0980    -1.4750 C.2   1 <1>   0.5690 
 11 O       -3.1950    -4.5530    -2.5340 O.2   1 <1>  -0.5700 
 12 C       -3.8390    -6.5680    -1.4690 C.3   1 <1>   0.1710 
 13 N       -5.2950    -6.8250    -1.2560 N.3   1 <1>  -0.8100 
 14 C       -5.5970    -8.2640    -1.4130 C.3   1 <1>   0.1100 
 15 C       -5.8450    -6.2420    -0.0230 C.3   1 <1>   0.1100 
 16 C       -7.1080    -8.5430    -1.3130 C.3   1 <1>   0.2000 
 17 C       -7.3600    -6.4730     0.0390 C.3   1 <1>  -0.1600 
 18 O       -7.3220    -9.9150    -1.4200 O.3   1 <1>  -0.6800 
 19 C       -7.7450    -7.9730    -0.0140 C.3   1 <1>   0.0000 
 20 C       -7.1740    -8.7220     1.2230 C.3   1 <1>   0.1200 
 21 C       -9.2940    -8.1410    -0.0100 C.3   1 <1>  -0.1600 
 22 O       -7.6190    -8.1650     2.4140 O.3   1 <1>  -0.6800 
 23 C      -10.0600    -7.5600    -1.2140 C.3   1 <1>  -0.1600 
 24 C      -11.5670    -7.7720    -1.0490 C.3   1 <1>  -0.2400 
 25 H       -2.0140     0.4930     1.0370 H     1 <1>   0.1500 
 26 H       -1.3630    -4.7900     1.7700 H     1 <1>   0.0800 
 27 H       -2.8170    -4.4330     2.6850 H     1 <1>   0.0800 
 28 H       -1.3070    -3.6680     3.0900 H     1 <1>   0.0800 
 29 H       -3.0780     0.0020    -1.1520 H     1 <1>   0.1500 
 30 H       -3.2950    -5.0960     0.5410 H     1 <1>   0.3700 
 31 H       -3.6140    -2.3000    -1.7440 H     1 <1>   0.1500 
 32 H       -3.2730    -7.0910    -0.7210 H     1 <1>   0.0800 
 33 H       -3.5620    -6.9780    -2.4250 H     1 <1>   0.0800 
 34 H       -5.2640    -8.5840    -2.3860 H     1 <1>   0.0800 
 35 H       -5.0640    -8.8270    -0.6680 H     1 <1>   0.0800 
 36 H       -5.3560    -6.6630     0.8390 H     1 <1>   0.0800 
 37 H       -5.6790    -5.1780    -0.0240 H     1 <1>   0.0800 
 38 H       -7.5670    -8.0910    -2.1740 H     1 <1>   0.0800 
 39 H       -7.7570    -6.0090     0.9230 H     1 <1>   0.0800 
 40 H       -7.7860    -5.9540    -0.8000 H     1 <1>   0.0800 
 41 H       -7.0170   -10.3810    -0.6210 H     1 <1>   0.4000 
 42 H       -6.1000    -8.6970     1.2430 H     1 <1>   0.0800 
 43 H       -7.4870    -9.7520     1.2230 H     1 <1>   0.0800 
 44 H       -9.5220    -9.1910     0.0470 H     1 <1>   0.0800 
 45 H       -9.6890    -7.6910     0.8840 H     1 <1>   0.0800 
 46 H       -7.5580    -7.1920     2.3810 H     1 <1>   0.4000 
 47 H       -9.8730    -6.5060    -1.3130 H     1 <1>   0.0800 
 48 H       -9.7490    -8.0460    -2.1220 H     1 <1>   0.0800 
 49 H      -11.9230    -7.2780    -0.1620 H     1 <1>   0.0800 
 50 H      -11.7940    -8.8210    -0.9770 H     1 <1>   0.0800 
 51 H      -12.0910    -7.3680    -1.8980 H     1 <1>   0.0800 
@<TRIPOS>BOND
  1   1   2  1   
  2   2   3  ar  
  3   2   4  ar  
  4   3   5  ar  
  5   3   6  1   
  6   4   7  ar  
  7   4  25  1   
  8   5   8  1   
  9   5   9  ar  
 10   6  26  1   
 11   6  27  1   
 12   6  28  1   
 13   7   9  ar  
 14   7  29  1   
 15   8  10  am  
 16   8  30  1   
 17   9  31  1   
 18  10  11  2   
 19  10  12  1   
 20  12  13  1   
 21  12  32  1   
 22  12  33  1   
 23  13  14  1   
 24  13  15  1   
 25  14  16  1   
 26  14  34  1   
 27  14  35  1   
 28  15  17  1   
 29  15  36  1   
 30  15  37  1   
 31  16  18  1   
 32  16  19  1   
 33  16  38  1   
 34  17  19  1   
 35  17  39  1   
 36  17  40  1   
 37  18  41  1   
 38  19  20  1   
 39  19  21  1   
 40  20  22  1   
 41  20  42  1   
 42  20  43  1   
 43  21  23  1   
 44  21  44  1   
 45  21  45  1   
 46  22  46  1   
 47  23  24  1   
 48  23  47  1   
 49  23  48  1   
 50  24  49  1   
 51  24  50  1   
 52  24  51  1   
@<TRIPOS>SUBSTRUCTURE
  1 ****  15 GROUP 4 **** **** 0

# MOE 2024.06 (io_trps.svl 2023.06)
