@<TRIPOS>MOLECULE
NONAME
55 58 1 0 0 
SMALL
USER_CHARGES


@<TRIPOS>ATOM
  1 S       -2.3460     2.2270    -0.3710 S.o2  1 <1>   1.2040 
  2 O       -3.0820     2.2510    -1.6150 O.2   1 <1>  -0.6500 
  3 O       -1.8710     3.4620     0.2110 O.2   1 <1>  -0.6500 
  4 C       -3.3280     1.3210     0.8490 C.ar  1 <1>  -0.0090 
  5 C       -0.9340     1.1630    -0.5970 C.3   1 <1>  -0.1350 
  6 C       -4.0160     0.1730     0.4840 C.ar  1 <1>  -0.1500 
  7 C       -3.4160     1.7400     2.1710 C.ar  1 <1>  -0.1500 
  8 C       -4.7900    -0.5530     1.3850 C.ar  1 <1>   0.0860 
  9 C       -4.1710     1.0350     3.0920 C.ar  1 <1>  -0.1500 
 10 C       -5.5090    -1.7310     0.9480 C.2   1 <1>   0.5440 
 11 C       -4.8520    -0.1020     2.7000 C.ar  1 <1>  -0.1500 
 12 O       -4.8780    -2.7330     0.6740 O.2   1 <1>  -0.5700 
 13 N       -6.8800    -1.7250     0.7990 N.am  1 <1>  -0.6600 
 14 C       -7.7200    -0.4860     0.8780 C.3   1 <1>   0.1400 
 15 C       -7.6360    -2.9330     0.3620 C.3   1 <1>   0.1400 
 16 C       -8.3650    -0.1730    -0.4850 C.3   1 <1>   0.1440 
 17 C       -8.2950    -2.6700    -0.9980 C.3   1 <1>  -0.1600 
 18 C       -9.2260     1.0660    -0.3270 C.ar  1 <1>   0.1670 
 19 C       -9.1650    -1.3990    -0.9780 C.3   1 <1>  -0.1600 
 20 C       -7.3130     0.2940    -1.5280 C.3   1 <1>  -0.1600 
 21 N      -10.3900     1.1090     0.2720 N.ar  1 <1>  -0.6200 
 22 C       -8.6300     2.1620    -0.8720 C.ar  1 <1>  -0.1440 
 23 C       -7.2890     1.8310    -1.4810 C.3   1 <1>  -0.0170 
 24 C      -10.9720     2.3110     0.3010 C.ar  1 <1>   0.7200 
 25 C       -9.2990     3.3570    -0.7910 C.ar  1 <1>   0.1600 
 26 N      -10.4710     3.4420    -0.2070 N.ar  1 <1>  -0.6200 
 27 N      -12.2060     2.3920     0.9170 N.pl3 1 <1>  -0.8380 
 28 C      -13.0230     1.1840     1.2190 C.3   1 <1>   0.1290 
 29 C      -12.8250     3.6980     1.2760 C.3   1 <1>   0.1290 
 30 H       -0.2640     1.5940    -1.3160 H     1 <1>   0.0800 
 31 H       -1.2410     0.1990    -0.9530 H     1 <1>   0.0800 
 32 H       -0.4070     1.0390     0.3290 H     1 <1>   0.0800 
 33 H       -3.9630    -0.1760    -0.5330 H     1 <1>   0.1500 
 34 H       -2.8920     2.6290     2.4840 H     1 <1>   0.1500 
 35 H       -4.2290     1.3740     4.1130 H     1 <1>   0.1500 
 36 H       -5.4400    -0.6530     3.4140 H     1 <1>   0.1500 
 37 H       -7.1410     0.3600     1.2000 H     1 <1>   0.0800 
 38 H       -8.4970    -0.6420     1.6060 H     1 <1>   0.0800 
 39 H       -8.3910    -3.1550     1.0970 H     1 <1>   0.0800 
 40 H       -6.9850    -3.7870     0.2900 H     1 <1>   0.0800 
 41 H       -8.9030    -3.5160    -1.2630 H     1 <1>   0.0800 
 42 H       -7.5240    -2.5800    -1.7430 H     1 <1>   0.0800 
 43 H       -9.5710    -1.2090    -1.9560 H     1 <1>   0.0800 
 44 H       -9.9950    -1.5600    -0.3120 H     1 <1>   0.0800 
 45 H       -7.6350     0.0010    -2.5120 H     1 <1>   0.0800 
 46 H       -6.3390    -0.1280    -1.3590 H     1 <1>   0.0800 
 47 H       -7.1760     2.2560    -2.4630 H     1 <1>   0.0800 
 48 H       -6.4990     2.1820    -0.8380 H     1 <1>   0.0800 
 49 H       -8.8690     4.2510    -1.2080 H     1 <1>   0.1500 
 50 H      -12.7880     0.3870     0.5340 H     1 <1>   0.0800 
 51 H      -14.0700     1.4120     1.1250 H     1 <1>   0.0800 
 52 H      -12.8180     0.8540     2.2220 H     1 <1>   0.0800 
 53 H      -12.0650     4.4310     1.4840 H     1 <1>   0.0800 
 54 H      -13.4390     3.5880     2.1520 H     1 <1>   0.0800 
 55 H      -13.4310     4.0450     0.4570 H     1 <1>   0.0800 
@<TRIPOS>BOND
  1   1   2  2   
  2   1   3  2   
  3   1   4  1   
  4   1   5  1   
  5   4   6  ar  
  6   4   7  ar  
  7   5  30  1   
  8   5  31  1   
  9   5  32  1   
 10   6   8  ar  
 11   6  33  1   
 12   7   9  ar  
 13   7  34  1   
 14   8  10  1   
 15   8  11  ar  
 16   9  11  ar  
 17   9  35  1   
 18  10  12  2   
 19  10  13  am  
 20  11  36  1   
 21  13  14  1   
 22  13  15  1   
 23  14  16  1   
 24  14  37  1   
 25  14  38  1   
 26  15  17  1   
 27  15  39  1   
 28  15  40  1   
 29  16  18  1   
 30  16  19  1   
 31  16  20  1   
 32  17  19  1   
 33  17  41  1   
 34  17  42  1   
 35  18  21  ar  
 36  18  22  ar  
 37  19  43  1   
 38  19  44  1   
 39  20  23  1   
 40  20  45  1   
 41  20  46  1   
 42  21  24  ar  
 43  22  23  1   
 44  22  25  ar  
 45  23  47  1   
 46  23  48  1   
 47  24  26  ar  
 48  24  27  1   
 49  25  26  ar  
 50  25  49  1   
 51  27  28  1   
 52  27  29  1   
 53  28  50  1   
 54  28  51  1   
 55  28  52  1   
 56  29  53  1   
 57  29  54  1   
 58  29  55  1   
@<TRIPOS>SUBSTRUCTURE
  1 ****  14 GROUP 4 **** **** 0

# MOE 2024.06 (io_trps.svl 2023.06)
