@<TRIPOS>MOLECULE
NONAME
54 56 1 0 0 
SMALL
USER_CHARGES


@<TRIPOS>ATOM
  1 CL       1.0930     0.7170    -1.7260 Cl    1 <1>  -0.1770 
  2 C        2.6360     0.0130    -1.3020 C.ar  1 <1>   0.1770 
  3 C        3.3330     0.4610    -0.1890 C.ar  1 <1>  -0.1440 
  4 C        3.1380    -0.9900    -2.1120 C.ar  1 <1>  -0.1500 
  5 C        4.5650    -0.1100     0.0960 C.ar  1 <1>  -0.1500 
  6 C        2.7910     1.5530     0.7150 C.3   1 <1>   0.2840 
  7 C        4.3650    -1.5570    -1.8130 C.ar  1 <1>  -0.1500 
  8 C        5.0770    -1.1140    -0.7110 C.ar  1 <1>  -0.1500 
  9 N        3.3640     2.8410     0.2830 N.am  1 <1>  -0.7300 
 10 C        4.1840     3.6130     1.0400 C.2   1 <1>   0.5690 
 11 O        4.4430     3.3210     2.1830 O.2   1 <1>  -0.5700 
 12 C        4.7800     4.8670     0.4010 C.3   1 <1>  -0.0190 
 13 C        5.9720     4.5130    -0.5050 C.3   1 <1>  -0.1600 
 14 C        5.2270     5.9160     1.4360 C.3   1 <1>  -0.1600 
 15 C        6.5610     5.7530    -1.1830 C.3   1 <1>   0.2090 
 16 C        5.7910     7.1680     0.7640 C.3   1 <1>   0.2090 
 17 N        6.8750     6.8060    -0.1830 N.pl3 1 <1>  -0.8380 
 18 C        8.1810     6.9710     0.2230 C.ar  1 <1>   0.4100 
 19 N        8.7880     5.9050     0.7030 N.ar  1 <1>  -0.6200 
 20 C        8.8350     8.1950     0.1390 C.ar  1 <1>  -0.1430 
 21 C       10.0280     6.0770     1.1090 C.ar  1 <1>   0.4770 
 22 C       10.1280     8.2370     0.5900 C.ar  1 <1>   0.1600 
 23 C        8.1790     9.4450    -0.4390 C.3   1 <1>  -0.0170 
 24 N       10.7470     7.1830     1.0850 N.ar  1 <1>  -0.6200 
 25 C       10.7180     4.8570     1.6690 C.3   1 <1>  -0.0970 
 26 C        8.2670     9.4420    -1.9700 C.3   1 <1>  -0.1600 
 27 C        7.6070    10.6860    -2.5740 C.3   1 <1>  -0.2400 
 28 H        2.5740    -1.3200    -2.9650 H     1 <1>   0.1500 
 29 H        5.1310     0.2300     0.9480 H     1 <1>   0.1500 
 30 H        3.0640     1.3470     1.7370 H     1 <1>   0.0800 
 31 H        1.7170     1.6030     0.6690 H     1 <1>   0.0800 
 32 H        4.7640    -2.3400    -2.4360 H     1 <1>   0.1500 
 33 H        6.0330    -1.5520    -0.4780 H     1 <1>   0.1500 
 34 H        3.2070     3.0680    -0.6980 H     1 <1>   0.3700 
 35 H        4.0120     5.3120    -0.2060 H     1 <1>   0.0800 
 36 H        5.6680     3.8110    -1.2610 H     1 <1>   0.0800 
 37 H        6.7420     4.0440     0.0830 H     1 <1>   0.0800 
 38 H        5.9890     5.4970     2.0710 H     1 <1>   0.0800 
 39 H        4.3960     6.1900     2.0600 H     1 <1>   0.0800 
 40 H        5.8600     6.1520    -1.8960 H     1 <1>   0.0800 
 41 H        7.4590     5.4820    -1.7130 H     1 <1>   0.0800 
 42 H        6.1770     7.8350     1.5170 H     1 <1>   0.0800 
 43 H        5.0140     7.6810     0.2250 H     1 <1>   0.0800 
 44 H       10.6860     9.1570     0.5470 H     1 <1>   0.1500 
 45 H        8.6680    10.3220    -0.0530 H     1 <1>   0.0800 
 46 H        7.1490     9.4900    -0.1360 H     1 <1>   0.0800 
 47 H        9.9970     4.0960     1.9080 H     1 <1>   0.0800 
 48 H       11.2540     5.1210     2.5600 H     1 <1>   0.0800 
 49 H       11.4070     4.4740     0.9400 H     1 <1>   0.0800 
 50 H        7.7770     8.5610    -2.3500 H     1 <1>   0.0800 
 51 H        9.3000     9.4020    -2.2700 H     1 <1>   0.0800 
 52 H        6.5660    10.7280    -2.3050 H     1 <1>   0.0800 
 53 H        7.6820    10.6570    -3.6460 H     1 <1>   0.0800 
 54 H        8.0930    11.5800    -2.2220 H     1 <1>   0.0800 
@<TRIPOS>BOND
  1   1   2  1   
  2   2   3  ar  
  3   2   4  ar  
  4   3   5  ar  
  5   3   6  1   
  6   4   7  ar  
  7   4  28  1   
  8   5   8  ar  
  9   5  29  1   
 10   6   9  1   
 11   6  30  1   
 12   6  31  1   
 13   7   8  ar  
 14   7  32  1   
 15   8  33  1   
 16   9  10  am  
 17   9  34  1   
 18  10  11  2   
 19  10  12  1   
 20  12  13  1   
 21  12  14  1   
 22  12  35  1   
 23  13  15  1   
 24  13  36  1   
 25  13  37  1   
 26  14  16  1   
 27  14  38  1   
 28  14  39  1   
 29  15  17  1   
 30  15  40  1   
 31  15  41  1   
 32  16  17  1   
 33  16  42  1   
 34  16  43  1   
 35  17  18  1   
 36  18  19  ar  
 37  18  20  ar  
 38  19  21  ar  
 39  20  22  ar  
 40  20  23  1   
 41  21  24  ar  
 42  21  25  1   
 43  22  24  ar  
 44  22  44  1   
 45  23  26  1   
 46  23  45  1   
 47  23  46  1   
 48  25  47  1   
 49  25  48  1   
 50  25  49  1   
 51  26  27  1   
 52  26  50  1   
 53  26  51  1   
 54  27  52  1   
 55  27  53  1   
 56  27  54  1   
@<TRIPOS>SUBSTRUCTURE
  1 ****  13 GROUP 4 **** **** 0

# MOE 2024.06 (io_trps.svl 2023.06)
