@<TRIPOS>MOLECULE
NONAME
49 50 1 0 0 
SMALL
USER_CHARGES


@<TRIPOS>ATOM
  1 CL       1.9190     0.1630    -1.6210 Cl    1 <1>  -0.1770 
  2 C        0.8780     1.5600    -1.4530 C.ar  1 <1>   0.1770 
  3 C        1.1040     2.5270    -0.4760 C.ar  1 <1>  -0.1440 
  4 C       -0.1780     1.6610    -2.3390 C.ar  1 <1>  -0.1500 
  5 C        0.2370     3.6110    -0.4230 C.ar  1 <1>  -0.1500 
  6 C        2.2520     2.4540     0.5310 C.3   1 <1>   0.3640 
  7 C       -1.0340     2.7440    -2.2670 C.ar  1 <1>  -0.1500 
  8 C       -0.8230     3.7190    -1.3080 C.ar  1 <1>  -0.1500 
  9 N        2.0770     1.2320     1.3550 N.am  1 <1>  -0.7300 
 10 C        3.6570     2.5600    -0.1290 C.3   1 <1>   0.2610 
 11 C        3.0550     0.3270     1.5670 C.2   1 <1>   0.5690 
 12 O        4.6630     1.9180     0.6540 O.3   1 <1>  -0.5600 
 13 C        4.0050     4.0370    -0.3360 C.2   1 <1>   0.5690 
 14 O        2.8590    -0.6470     2.2480 O.2   1 <1>  -0.5700 
 15 C        4.4190     0.5530     0.9140 C.3   1 <1>   0.1810 
 16 O        3.2400     4.7350    -0.9570 O.2   1 <1>  -0.5700 
 17 N        5.1580     4.5090     0.2160 N.am  1 <1>  -0.7300 
 18 C        5.7010     5.8920     0.3100 C.3   1 <1>   0.2200 
 19 C        5.1050     6.6200     1.5480 C.3   1 <1>  -0.0800 
 20 C        5.6180     6.6630    -1.0400 C.3   1 <1>  -0.0800 
 21 C        5.3630     5.8380     2.8480 C.3   1 <1>  -0.2400 
 22 C        3.6040     6.9390     1.4370 C.3   1 <1>  -0.2400 
 23 C        6.3050     5.8890    -2.1800 C.3   1 <1>  -0.2400 
 24 C        6.2600     8.0590    -0.9580 C.3   1 <1>  -0.2400 
 25 H       -0.3270     0.8960    -3.0800 H     1 <1>   0.1500 
 26 H        0.3830     4.3910     0.3060 H     1 <1>   0.1500 
 27 H        2.1600     3.2910     1.2020 H     1 <1>   0.0800 
 28 H       -1.8580     2.8310    -2.9540 H     1 <1>   0.1500 
 29 H       -1.4820     4.5680    -1.2530 H     1 <1>   0.1500 
 30 H        1.1520     1.0500     1.7450 H     1 <1>   0.3700 
 31 H        3.6520     2.0920    -1.0950 H     1 <1>   0.0800 
 32 H        4.4710     0.0110    -0.0130 H     1 <1>   0.0800 
 33 H        5.1920     0.1980     1.5700 H     1 <1>   0.0800 
 34 H        5.6940     3.8140     0.7450 H     1 <1>   0.3700 
 35 H        6.7540     5.7830     0.5100 H     1 <1>   0.0800 
 36 H        5.6230     7.5560     1.6530 H     1 <1>   0.0800 
 37 H        4.5850     6.8030    -1.3050 H     1 <1>   0.0800 
 38 H        4.8150     4.9120     2.8570 H     1 <1>   0.0800 
 39 H        5.0530     6.4200     3.6980 H     1 <1>   0.0800 
 40 H        6.4110     5.6210     2.9540 H     1 <1>   0.0800 
 41 H        3.0230     6.0360     1.3960 H     1 <1>   0.0800 
 42 H        3.3990     7.5140     0.5530 H     1 <1>   0.0800 
 43 H        3.2820     7.5100     2.2890 H     1 <1>   0.0800 
 44 H        7.3400     5.7100    -1.9480 H     1 <1>   0.0800 
 45 H        6.2490     6.4460    -3.0980 H     1 <1>   0.0800 
 46 H        5.8200     4.9440    -2.3440 H     1 <1>   0.0800 
 47 H        7.2790     7.9910    -0.6210 H     1 <1>   0.0800 
 48 H        5.7110     8.6950    -0.2880 H     1 <1>   0.0800 
 49 H        6.2510     8.5300    -1.9250 H     1 <1>   0.0800 
@<TRIPOS>BOND
  1   1   2  1   
  2   2   3  ar  
  3   2   4  ar  
  4   3   5  ar  
  5   3   6  1   
  6   4   7  ar  
  7   4  25  1   
  8   5   8  ar  
  9   5  26  1   
 10   6   9  1   
 11   6  10  1   
 12   6  27  1   
 13   7   8  ar  
 14   7  28  1   
 15   8  29  1   
 16   9  11  am  
 17   9  30  1   
 18  10  12  1   
 19  10  13  1   
 20  10  31  1   
 21  11  14  2   
 22  11  15  1   
 23  12  15  1   
 24  13  16  2   
 25  13  17  am  
 26  15  32  1   
 27  15  33  1   
 28  17  18  1   
 29  17  34  1   
 30  18  19  1   
 31  18  20  1   
 32  18  35  1   
 33  19  21  1   
 34  19  22  1   
 35  19  36  1   
 36  20  23  1   
 37  20  24  1   
 38  20  37  1   
 39  21  38  1   
 40  21  39  1   
 41  21  40  1   
 42  22  41  1   
 43  22  42  1   
 44  22  43  1   
 45  23  44  1   
 46  23  45  1   
 47  23  46  1   
 48  24  47  1   
 49  24  48  1   
 50  24  49  1   
@<TRIPOS>SUBSTRUCTURE
  1 ****  10 GROUP 4 **** **** 0

# MOE 2024.06 (io_trps.svl 2023.06)
