@<TRIPOS>MOLECULE
NONAME
42 44 1 0 0 
SMALL
USER_CHARGES


@<TRIPOS>ATOM
  1 S       -1.5260     0.1420    -0.5520 S.3   1 <1>  -0.4600 
  2 C       -1.4220    -0.8300     0.9950 C.3   1 <1>   0.1310 
  3 C       -1.2220     1.8410     0.0000 C.3   1 <1>  -0.0100 
  4 C       -1.4030    -2.3350     0.7390 C.2   1 <1>   0.5690 
  5 O       -0.4140    -2.9450     1.0730 O.2   1 <1>  -0.5700 
  6 N       -2.4860    -2.9780     0.1960 N.am  1 <1>  -0.6600 
  7 C       -3.7540    -2.3530    -0.2540 C.3   1 <1>   0.1400 
  8 C       -2.5130    -4.4380    -0.0480 C.3   1 <1>   0.1400 
  9 C       -4.6530    -3.5170    -0.6790 C.3   1 <1>   0.2000 
 10 C       -3.9990    -4.7860    -0.1320 C.3   1 <1>  -0.0800 
 11 O       -5.9300    -3.3890    -0.1550 O.3   1 <1>  -0.6800 
 12 C       -4.3000    -6.0260    -0.9890 C.3   1 <1>  -0.0170 
 13 C       -3.6240    -7.2640    -0.4270 C.ar  1 <1>   0.1670 
 14 N       -2.4240    -7.5310    -0.8430 N.ar  1 <1>  -0.6200 
 15 C       -4.3140    -8.0480     0.5120 C.ar  1 <1>  -0.1500 
 16 C       -1.8050    -8.6250    -0.3310 C.ar  1 <1>   0.3100 
 17 C       -3.7190    -9.1540     1.0390 C.ar  1 <1>  -0.1500 
 18 C       -2.4170    -9.4730     0.6180 C.ar  1 <1>   0.0000 
 19 C       -0.5020    -8.9290    -0.7570 C.ar  1 <1>  -0.1500 
 20 C       -1.7040   -10.5890     1.0990 C.ar  1 <1>  -0.1500 
 21 C        0.1740   -10.0180    -0.2760 C.ar  1 <1>  -0.1500 
 22 C       -0.4350   -10.8570     0.6630 C.ar  1 <1>  -0.1500 
 23 H       -0.5130    -0.5370     1.4880 H     1 <1>   0.0800 
 24 H       -2.2650    -0.5630     1.6020 H     1 <1>   0.0800 
 25 H       -1.2730     2.4790    -0.8650 H     1 <1>   0.0800 
 26 H       -0.2430     1.8780     0.4430 H     1 <1>   0.0800 
 27 H       -1.9830     2.1030     0.7130 H     1 <1>   0.0800 
 28 H       -4.1930    -1.7920     0.5530 H     1 <1>   0.0800 
 29 H       -3.5670    -1.7080    -1.0950 H     1 <1>   0.0800 
 30 H       -2.0140    -4.6470    -0.9800 H     1 <1>   0.0800 
 31 H       -2.0200    -4.9770     0.7440 H     1 <1>   0.0800 
 32 H       -4.7280    -3.5430    -1.7530 H     1 <1>   0.0800 
 33 H       -4.3350    -4.9610     0.8750 H     1 <1>   0.0800 
 34 H       -5.8940    -3.3830     0.8210 H     1 <1>   0.4000 
 35 H       -3.9560    -5.8670    -1.9960 H     1 <1>   0.0800 
 36 H       -5.3630    -6.1840    -1.0320 H     1 <1>   0.0800 
 37 H       -5.3070    -7.7630     0.8060 H     1 <1>   0.1500 
 38 H       -4.2150    -9.7790     1.7600 H     1 <1>   0.1500 
 39 H       -0.0520    -8.2700    -1.4770 H     1 <1>   0.1500 
 40 H       -2.1780   -11.2290     1.8220 H     1 <1>   0.1500 
 41 H        1.1730   -10.2390    -0.6110 H     1 <1>   0.1500 
 42 H        0.1080   -11.7100     1.0320 H     1 <1>   0.1500 
@<TRIPOS>BOND
  1   1   2  1   
  2   1   3  1   
  3   2   4  1   
  4   2  23  1   
  5   2  24  1   
  6   3  25  1   
  7   3  26  1   
  8   3  27  1   
  9   4   5  2   
 10   4   6  am  
 11   6   7  1   
 12   6   8  1   
 13   7   9  1   
 14   7  28  1   
 15   7  29  1   
 16   8  10  1   
 17   8  30  1   
 18   8  31  1   
 19   9  10  1   
 20   9  11  1   
 21   9  32  1   
 22  10  12  1   
 23  10  33  1   
 24  11  34  1   
 25  12  13  1   
 26  12  35  1   
 27  12  36  1   
 28  13  14  ar  
 29  13  15  ar  
 30  14  16  ar  
 31  15  17  ar  
 32  15  37  1   
 33  16  18  ar  
 34  16  19  ar  
 35  17  18  ar  
 36  17  38  1   
 37  18  20  ar  
 38  19  21  ar  
 39  19  39  1   
 40  20  22  ar  
 41  20  40  1   
 42  21  22  ar  
 43  21  41  1   
 44  22  42  1   
@<TRIPOS>SUBSTRUCTURE
  1 ****   8 GROUP 4 **** **** 0

# MOE 2024.06 (io_trps.svl 2023.06)
