@<TRIPOS>MOLECULE
NONAME
51 54 1 0 0 
SMALL
USER_CHARGES


@<TRIPOS>ATOM
  1 O        0.0730    -0.1200    -0.2120 O.2   1 <1>  -0.5700 
  2 C       -0.9760     0.4790    -0.2870 C.2   1 <1>   0.5690 
  3 N       -2.1720    -0.1520    -0.0520 N.am  1 <1>  -0.6600 
  4 C       -0.9240     1.9470    -0.6750 C.3   1 <1>  -0.0990 
  5 C       -2.1640    -1.5450     0.4900 C.3   1 <1>   0.1400 
  6 C       -3.5090     0.4600    -0.3240 C.3   1 <1>   0.1400 
  7 C        0.3300     2.6320    -0.1290 C.3   1 <1>   0.1400 
  8 C       -3.4670    -1.8570     1.2260 C.3   1 <1>  -0.1600 
  9 C       -4.4880    -0.6230    -0.7680 C.3   1 <1>  -0.1600 
 10 N        0.3580     4.0480    -0.5640 N.am  1 <1>  -0.7300 
 11 C       -4.7100    -1.6640     0.3410 C.3   1 <1>   0.4600 
 12 C       -0.3500     5.0450     0.0180 C.2   1 <1>   0.5690 
 13 O       -5.7110    -1.1840     1.2110 O.3   1 <1>  -0.5600 
 14 C       -5.1500    -3.0000    -0.2530 C.2   1 <1>  -0.3320 
 15 O       -1.1270     4.8490     0.9180 O.2   1 <1>  -0.5700 
 16 C       -0.1570     6.4470    -0.4960 C.3   1 <1>  -0.1790 
 17 C       -7.0620    -1.3870     0.8670 C.3   1 <1>   0.1200 
 18 N       -4.4040    -3.8160    -1.0590 N.pl3 1 <1>   0.0330 
 19 C       -6.3570    -3.5640    -0.0470 C.2   1 <1>  -0.1810 
 20 C       -7.4030    -2.8850     0.8000 C.3   1 <1>   0.0210 
 21 C       -5.1610    -4.9220    -1.3610 C.ar  1 <1>  -0.1520 
 22 C       -6.3980    -4.7940    -0.7350 C.ar  1 <1>   0.0000 
 23 C       -4.8650    -6.0420    -2.1420 C.ar  1 <1>  -0.1500 
 24 C       -7.3570    -5.8010    -0.8860 C.ar  1 <1>  -0.1500 
 25 C       -5.8180    -7.0240    -2.2830 C.ar  1 <1>  -0.1500 
 26 C       -7.0640    -6.9040    -1.6550 C.ar  1 <1>  -0.1500 
 27 H       -1.7760     2.4600    -0.2730 H     1 <1>   0.0800 
 28 H       -0.9380     2.0150    -1.7460 H     1 <1>   0.0800 
 29 H       -1.3370    -1.6610     1.1710 H     1 <1>   0.0800 
 30 H       -2.0220    -2.2330    -0.3240 H     1 <1>   0.0800 
 31 H       -3.4310     1.1980    -1.1040 H     1 <1>   0.0800 
 32 H       -3.8720     0.9400     0.5700 H     1 <1>   0.0800 
 33 H        1.2160     2.1320    -0.4820 H     1 <1>   0.0800 
 34 H        0.3230     2.5890     0.9480 H     1 <1>   0.0800 
 35 H       -3.5230    -1.2030     2.0780 H     1 <1>   0.0800 
 36 H       -3.4400    -2.8650     1.5960 H     1 <1>   0.0800 
 37 H       -4.0790    -1.0980    -1.6400 H     1 <1>   0.0800 
 38 H       -5.4200    -0.1800    -1.0600 H     1 <1>   0.0800 
 39 H        1.0010     4.2660    -1.3270 H     1 <1>   0.3700 
 40 H        0.8680     6.7400    -0.3720 H     1 <1>   0.0800 
 41 H       -0.7820     7.1240     0.0560 H     1 <1>   0.0800 
 42 H       -0.4240     6.4940    -1.5350 H     1 <1>   0.0800 
 43 H       -7.2480    -0.9230    -0.0850 H     1 <1>   0.0800 
 44 H       -7.6670    -0.9020     1.6120 H     1 <1>   0.0800 
 45 H       -3.4490    -3.6480    -1.3890 H     1 <1>   0.2700 
 46 H       -8.3760    -3.0170     0.3640 H     1 <1>   0.0800 
 47 H       -7.4040    -3.3080     1.7880 H     1 <1>   0.0800 
 48 H       -3.9060    -6.1280    -2.6200 H     1 <1>   0.1500 
 49 H       -8.3070    -5.6950    -0.3980 H     1 <1>   0.1500 
 50 H       -5.6150    -7.8970    -2.8780 H     1 <1>   0.1500 
 51 H       -7.7920    -7.6860    -1.7810 H     1 <1>   0.1500 
@<TRIPOS>BOND
  1   1   2  2   
  2   2   3  am  
  3   2   4  1   
  4   3   5  1   
  5   3   6  1   
  6   4   7  1   
  7   4  27  1   
  8   4  28  1   
  9   5   8  1   
 10   5  29  1   
 11   5  30  1   
 12   6   9  1   
 13   6  31  1   
 14   6  32  1   
 15   7  10  1   
 16   7  33  1   
 17   7  34  1   
 18   8  11  1   
 19   8  35  1   
 20   8  36  1   
 21   9  11  1   
 22   9  37  1   
 23   9  38  1   
 24  10  12  am  
 25  10  39  1   
 26  11  13  1   
 27  11  14  1   
 28  12  15  2   
 29  12  16  1   
 30  13  17  1   
 31  14  18  1   
 32  14  19  2   
 33  16  40  1   
 34  16  41  1   
 35  16  42  1   
 36  17  20  1   
 37  17  43  1   
 38  17  44  1   
 39  18  21  1   
 40  18  45  1   
 41  19  20  1   
 42  19  22  1   
 43  20  46  1   
 44  20  47  1   
 45  21  22  ar  
 46  21  23  ar  
 47  22  24  ar  
 48  23  25  ar  
 49  23  48  1   
 50  24  26  ar  
 51  24  49  1   
 52  25  26  ar  
 53  25  50  1   
 54  26  51  1   
@<TRIPOS>SUBSTRUCTURE
  1 ****   9 GROUP 4 **** **** 0

# MOE 2024.06 (io_trps.svl 2023.06)
