@<TRIPOS>MOLECULE
NONAME
54 56 1 0 0 
SMALL
USER_CHARGES


@<TRIPOS>ATOM
  1 O        2.2540    -0.4130    -2.3610 O.2   1 <1>  -0.5700 
  2 C        2.4480    -0.5650    -1.1700 C.2   1 <1>   0.7150 
  3 N        2.9380     0.5120    -0.4450 N.am  1 <1>  -0.6600 
  4 C        2.2050    -1.8590    -0.5800 C.2   1 <1>   0.0550 
  5 C        2.8890     0.6210     1.0450 C.3   1 <1>   0.1400 
  6 C        3.5320     1.6930    -1.1210 C.3   1 <1>   0.1400 
  7 O        2.8250    -2.2480     0.5100 O.3   1 <1>  -0.0190 
  8 C        1.4190    -2.8950    -0.9470 C.2   1 <1>  -0.1500 
  9 C        4.2410     0.2820     1.7060 C.3   1 <1>   0.3430 
 10 C        5.0370     1.4830    -1.3140 C.3   1 <1>  -0.1600 
 11 N        2.4960    -3.4390     0.8920 N.2   1 <1>  -0.4100 
 12 C        1.6430    -3.8630     0.0230 C.2   1 <1>   0.1080 
 13 N        5.4160     1.0240     1.1290 N.4   1 <1>  -0.9590 
 14 C        5.7320     0.5990    -0.2710 C.3   1 <1>   0.3430 
 15 C        0.9720    -5.2340     0.0490 C.3   1 <1>   0.1010 
 16 C        6.6170     0.8910     2.0240 C.3   1 <1>   0.3430 
 17 C        0.1240    -5.4020     1.3160 C.3   1 <1>  -0.2400 
 18 C        2.0140    -6.3540    -0.0500 C.3   1 <1>  -0.2400 
 19 C        7.5240     2.1430     1.9760 C.3   1 <1>   0.3430 
 20 O        6.7100     3.2720     2.0150 O.3   1 <1>  -0.6800 
 21 C        8.3900     2.1600     0.7170 C.ar  1 <1>  -0.1440 
 22 C        8.1510     3.0090    -0.3600 C.ar  1 <1>  -0.1500 
 23 C        9.4580     1.2750     0.6420 C.ar  1 <1>  -0.1500 
 24 C        8.9510     2.9610    -1.4870 C.ar  1 <1>  -0.1500 
 25 C       10.2590     1.2270    -0.4850 C.ar  1 <1>  -0.1500 
 26 C       10.0050     2.0680    -1.5520 C.ar  1 <1>  -0.1500 
 27 H        2.1290    -0.0340     1.4360 H     1 <1>   0.0800 
 28 H        2.6000     1.6200     1.3210 H     1 <1>   0.0800 
 29 H        3.3570     2.5740    -0.5280 H     1 <1>   0.0800 
 30 H        3.0610     1.8580    -2.0780 H     1 <1>   0.0800 
 31 H        0.7660    -2.9680    -1.7980 H     1 <1>   0.1500 
 32 H        4.4100    -0.7790     1.6180 H     1 <1>   0.0800 
 33 H        4.1600     0.5060     2.7570 H     1 <1>   0.0800 
 34 H        5.5210     2.4400    -1.3650 H     1 <1>   0.0800 
 35 H        5.1830     1.0200    -2.2740 H     1 <1>   0.0800 
 36 H        5.2250     2.0410     1.1230 H     1 <1>   0.4500 
 37 H        6.7950     0.6460    -0.4440 H     1 <1>   0.0800 
 38 H        5.4230    -0.4250    -0.4130 H     1 <1>   0.0800 
 39 H        0.3190    -5.3060    -0.8040 H     1 <1>   0.0800 
 40 H        7.1870     0.0160     1.7620 H     1 <1>   0.0800 
 41 H        6.2890     0.7740     3.0430 H     1 <1>   0.0800 
 42 H        0.7460    -5.3500     2.1920 H     1 <1>   0.0800 
 43 H       -0.3820    -6.3500     1.3060 H     1 <1>   0.0800 
 44 H       -0.6120    -4.6200     1.3730 H     1 <1>   0.0800 
 45 H        2.6790    -6.3220     0.7960 H     1 <1>   0.0800 
 46 H        2.5970    -6.2370    -0.9460 H     1 <1>   0.0800 
 47 H        1.5320    -7.3150    -0.0750 H     1 <1>   0.0800 
 48 H        8.1600     2.1630     2.8450 H     1 <1>   0.0800 
 49 H        7.2770     4.0730     2.0030 H     1 <1>   0.4000 
 50 H        7.3430     3.7210    -0.3460 H     1 <1>   0.1500 
 51 H        9.6880     0.6130     1.4600 H     1 <1>   0.1500 
 52 H        8.7610     3.6220    -2.3170 H     1 <1>   0.1500 
 53 H       11.0870     0.5390    -0.5340 H     1 <1>   0.1500 
 54 H       10.6300     2.0320    -2.4280 H     1 <1>   0.1500 
@<TRIPOS>BOND
  1   1   2  2   
  2   2   3  am  
  3   2   4  1   
  4   3   5  1   
  5   3   6  1   
  6   4   7  1   
  7   4   8  2   
  8   5   9  1   
  9   5  27  1   
 10   5  28  1   
 11   6  10  1   
 12   6  29  1   
 13   6  30  1   
 14   7  11  1   
 15   8  12  1   
 16   8  31  1   
 17   9  13  1   
 18   9  32  1   
 19   9  33  1   
 20  10  14  1   
 21  10  34  1   
 22  10  35  1   
 23  11  12  2   
 24  12  15  1   
 25  13  14  1   
 26  13  16  1   
 27  13  36  1   
 28  14  37  1   
 29  14  38  1   
 30  15  17  1   
 31  15  18  1   
 32  15  39  1   
 33  16  19  1   
 34  16  40  1   
 35  16  41  1   
 36  17  42  1   
 37  17  43  1   
 38  17  44  1   
 39  18  45  1   
 40  18  46  1   
 41  18  47  1   
 42  19  20  1   
 43  19  21  1   
 44  19  48  1   
 45  20  49  1   
 46  21  22  ar  
 47  21  23  ar  
 48  22  24  ar  
 49  22  50  1   
 50  23  25  ar  
 51  23  51  1   
 52  24  26  ar  
 53  24  52  1   
 54  25  26  ar  
 55  25  53  1   
 56  26  54  1   
@<TRIPOS>SUBSTRUCTURE
  1 ****  14 GROUP 4 **** **** 0

# MOE 2024.06 (io_trps.svl 2023.06)
