@<TRIPOS>MOLECULE
NONAME
58 61 1 0 0 
SMALL
USER_CHARGES


@<TRIPOS>ATOM
  1 F       -5.6140    -0.4640     2.3070 F     1 <1>  -0.1900 
  2 C       -5.1910    -1.6180     1.8720 C.ar  1 <1>   0.1900 
  3 C       -5.1410    -2.6860     2.7450 C.ar  1 <1>  -0.1500 
  4 C       -4.8060    -1.7360     0.5510 C.ar  1 <1>  -0.1500 
  5 C       -4.6910    -3.9070     2.2740 C.ar  1 <1>  -0.1500 
  6 C       -4.3590    -2.9640     0.0970 C.ar  1 <1>  -0.1500 
  7 C       -4.2910    -4.0780     0.9430 C.ar  1 <1>   0.0530 
  8 C       -3.8260    -5.3640     0.4630 C.2   1 <1>   0.4250 
  9 O       -3.3200    -5.4720    -0.7520 O.3   1 <1>  -0.2800 
 10 N       -3.8410    -6.5010     1.0970 N.2   1 <1>  -0.5650 
 11 C       -2.9800    -6.7160    -0.9150 C.2   1 <1>  -0.0400 
 12 C       -3.2920    -7.3650     0.2160 C.2   1 <1>   0.0460 
 13 C       -2.3570    -7.1340    -2.2310 C.3   1 <1>  -0.0600 
 14 C       -3.1370    -8.8330     0.5750 C.3   1 <1>   0.5240 
 15 N       -4.3790    -9.2440     1.2930 N.4   1 <1>  -0.9590 
 16 C       -5.5270    -9.3160     0.3260 C.3   1 <1>   0.3430 
 17 C       -4.1670   -10.4340     2.1550 C.3   1 <1>   0.3430 
 18 C       -6.3810   -10.6010     0.4050 C.3   1 <1>   0.0000 
 19 C       -5.4720   -10.8450     2.8390 C.3   1 <1>  -0.1600 
 20 C       -6.7000   -10.8160     1.9100 C.3   1 <1>   0.2000 
 21 C       -7.6900   -10.2660    -0.3550 C.3   1 <1>   0.1200 
 22 C       -5.6690   -11.8350    -0.2490 C.3   1 <1>  -0.0170 
 23 O       -7.4320   -11.9760     2.1100 O.3   1 <1>  -0.6800 
 24 O       -8.5640   -11.3360    -0.3450 O.3   1 <1>  -0.6800 
 25 C       -4.5300   -11.4980    -1.2090 C.ar  1 <1>  -0.1430 
 26 C       -4.7840   -10.8470    -2.4080 C.ar  1 <1>  -0.1500 
 27 C       -3.2250   -11.8610    -0.9040 C.ar  1 <1>  -0.1500 
 28 C       -3.7470   -10.5260    -3.2670 C.ar  1 <1>  -0.1500 
 29 C       -2.1870   -11.5430    -1.7630 C.ar  1 <1>  -0.1500 
 30 C       -2.4470   -10.8710    -2.9430 C.ar  1 <1>  -0.1500 
 31 H       -5.4470    -2.5570     3.7680 H     1 <1>   0.1500 
 32 H       -4.8570    -0.8820    -0.1010 H     1 <1>   0.1500 
 33 H       -4.6450    -4.7430     2.9500 H     1 <1>   0.1500 
 34 H       -4.0560    -3.0580    -0.9320 H     1 <1>   0.1500 
 35 H       -2.0800    -8.1710    -2.2120 H     1 <1>   0.0800 
 36 H       -1.4760    -6.5450    -2.4180 H     1 <1>   0.0800 
 37 H       -3.0540    -6.9730    -3.0340 H     1 <1>   0.0800 
 38 H       -2.2830    -8.9400     1.2230 H     1 <1>   0.0800 
 39 H       -2.9850    -9.4260    -0.3120 H     1 <1>   0.0800 
 40 H       -4.5560    -8.4180     1.8920 H     1 <1>   0.4500 
 41 H       -6.1720    -8.4740     0.5220 H     1 <1>   0.0800 
 42 H       -5.1670    -9.1910    -0.6810 H     1 <1>   0.0800 
 43 H       -3.8150   -11.2530     1.5520 H     1 <1>   0.0800 
 44 H       -3.4170   -10.2260     2.9020 H     1 <1>   0.0800 
 45 H       -5.6500   -10.1740     3.6610 H     1 <1>   0.0800 
 46 H       -5.3340   -11.8260     3.2600 H     1 <1>   0.0800 
 47 H       -7.3350   -10.0080     2.2360 H     1 <1>   0.0800 
 48 H       -7.4970   -10.0220    -1.3860 H     1 <1>   0.0800 
 49 H       -8.2000    -9.4330     0.1010 H     1 <1>   0.0800 
 50 H       -5.2780   -12.4800     0.5160 H     1 <1>   0.0800 
 51 H       -6.3780   -12.4400    -0.7870 H     1 <1>   0.0800 
 52 H       -6.9170   -12.7820     1.9070 H     1 <1>   0.4000 
 53 H       -8.6700   -11.6760     0.5760 H     1 <1>   0.4000 
 54 H       -5.7900   -10.5950    -2.6950 H     1 <1>   0.1500 
 55 H       -2.9990   -12.4130    -0.0090 H     1 <1>   0.1500 
 56 H       -3.9530   -10.0230    -4.1970 H     1 <1>   0.1500 
 57 H       -1.1770   -11.8340    -1.5270 H     1 <1>   0.1500 
 58 H       -1.6420   -10.6330    -3.6190 H     1 <1>   0.1500 
@<TRIPOS>BOND
  1   1   2  1   
  2   2   3  ar  
  3   2   4  ar  
  4   3   5  ar  
  5   3  31  1   
  6   4   6  ar  
  7   4  32  1   
  8   5   7  ar  
  9   5  33  1   
 10   6   7  ar  
 11   6  34  1   
 12   7   8  1   
 13   8   9  1   
 14   8  10  2   
 15   9  11  1   
 16  10  12  1   
 17  11  12  2   
 18  11  13  1   
 19  12  14  1   
 20  13  35  1   
 21  13  36  1   
 22  13  37  1   
 23  14  15  1   
 24  14  38  1   
 25  14  39  1   
 26  15  16  1   
 27  15  17  1   
 28  15  40  1   
 29  16  18  1   
 30  16  41  1   
 31  16  42  1   
 32  17  19  1   
 33  17  43  1   
 34  17  44  1   
 35  18  20  1   
 36  18  21  1   
 37  18  22  1   
 38  19  20  1   
 39  19  45  1   
 40  19  46  1   
 41  20  23  1   
 42  20  47  1   
 43  21  24  1   
 44  21  48  1   
 45  21  49  1   
 46  22  25  1   
 47  22  50  1   
 48  22  51  1   
 49  23  52  1   
 50  24  53  1   
 51  25  26  ar  
 52  25  27  ar  
 53  26  28  ar  
 54  26  54  1   
 55  27  29  ar  
 56  27  55  1   
 57  28  30  ar  
 58  28  56  1   
 59  29  30  ar  
 60  29  57  1   
 61  30  58  1   
@<TRIPOS>SUBSTRUCTURE
  1 ****  12 GROUP 4 **** **** 0

# MOE 2024.06 (io_trps.svl 2023.06)
