@<TRIPOS>MOLECULE
NONAME
41 43 1 0 0 
SMALL
USER_CHARGES


@<TRIPOS>ATOM
  1 O        2.3500     0.0580     1.6910 O.3   1 <1>  -0.6800 
  2 C        1.9080    -0.2420     0.4040 C.3   1 <1>   0.2000 
  3 C        2.6500    -1.4640    -0.1380 C.3   1 <1>  -0.0800 
  4 C        2.3770     0.8670    -0.5410 C.3   1 <1>   0.3430 
  5 C        3.9780    -0.9100    -0.6720 C.3   1 <1>   0.3430 
  6 C        2.8480    -2.6300     0.8500 C.3   1 <1>   0.0210 
  7 N        3.8180     0.5710    -0.8290 N.4   1 <1>  -0.9590 
  8 C        3.5490    -3.7990     0.1840 C.2   1 <1>   0.1080 
  9 C        4.7210     1.2810     0.1250 C.3   1 <1>   0.4860 
 10 N        4.7260    -3.7060    -0.3560 N.2   1 <1>  -0.7070 
 11 C        3.0230    -5.0820     0.0820 C.2   1 <1>  -0.1500 
 12 C        4.5690     2.7790    -0.0440 C.ar  1 <1>  -0.1440 
 13 N        4.9890    -4.9500    -0.8110 N.pl3 1 <1>   0.3000 
 14 C        3.9690    -5.7960    -0.5620 C.2   1 <1>  -0.3320 
 15 C        5.1520     3.4280    -1.1220 C.ar  1 <1>   0.1600 
 16 C        3.8490     3.5220     0.8730 C.ar  1 <1>  -0.1500 
 17 C        3.9630    -7.2620    -0.9540 C.3   1 <1>  -0.0600 
 18 N        5.0560     4.7220    -1.3630 N.ar  1 <1>  -0.6200 
 19 C        3.7500     4.8770     0.6390 C.ar  1 <1>  -0.1500 
 20 C        4.3610     5.4200    -0.4790 C.ar  1 <1>   0.1600 
 21 H        1.9010    -0.5020     2.3600 H     1 <1>   0.4000 
 22 H        0.8360    -0.3500     0.4150 H     1 <1>   0.0800 
 23 H        2.1020    -1.8410    -0.9850 H     1 <1>   0.0800 
 24 H        2.2300     1.8410    -0.1060 H     1 <1>   0.0800 
 25 H        1.8120     0.8050    -1.4560 H     1 <1>   0.0800 
 26 H        4.2230    -1.3820    -1.6100 H     1 <1>   0.0800 
 27 H        4.7660    -1.1320     0.0310 H     1 <1>   0.0800 
 28 H        1.8950    -2.9590     1.2230 H     1 <1>   0.0800 
 29 H        3.4470    -2.3210     1.6890 H     1 <1>   0.0800 
 30 H        4.0510     0.8670    -1.7840 H     1 <1>   0.4500 
 31 H        4.4760     1.0060     1.1380 H     1 <1>   0.0800 
 32 H        5.7460     1.0020    -0.0600 H     1 <1>   0.0800 
 33 H        2.0670    -5.4150     0.4480 H     1 <1>   0.1500 
 34 H        5.8700    -5.1970    -1.2800 H     1 <1>   0.2700 
 35 H        5.7310     2.8610    -1.8320 H     1 <1>   0.1500 
 36 H        3.3830     3.0770     1.7380 H     1 <1>   0.1500 
 37 H        3.0430    -7.7250    -0.6440 H     1 <1>   0.0800 
 38 H        4.7800    -7.7780    -0.4810 H     1 <1>   0.0800 
 39 H        4.0550    -7.3650    -2.0210 H     1 <1>   0.0800 
 40 H        3.2060     5.5140     1.3140 H     1 <1>   0.1500 
 41 H        4.2760     6.4800    -0.6530 H     1 <1>   0.1500 
@<TRIPOS>BOND
  1   1   2  1   
  2   1  21  1   
  3   2   3  1   
  4   2   4  1   
  5   2  22  1   
  6   3   5  1   
  7   3   6  1   
  8   3  23  1   
  9   4   7  1   
 10   4  24  1   
 11   4  25  1   
 12   5   7  1   
 13   5  26  1   
 14   5  27  1   
 15   6   8  1   
 16   6  28  1   
 17   6  29  1   
 18   7   9  1   
 19   7  30  1   
 20   8  10  2   
 21   8  11  1   
 22   9  12  1   
 23   9  31  1   
 24   9  32  1   
 25  10  13  1   
 26  11  14  2   
 27  11  33  1   
 28  12  15  ar  
 29  12  16  ar  
 30  13  14  1   
 31  13  34  1   
 32  14  17  1   
 33  15  18  ar  
 34  15  35  1   
 35  16  19  ar  
 36  16  36  1   
 37  17  37  1   
 38  17  38  1   
 39  17  39  1   
 40  18  20  ar  
 41  19  20  ar  
 42  19  40  1   
 43  20  41  1   
@<TRIPOS>SUBSTRUCTURE
  1 ****   5 GROUP 4 **** **** 0

# MOE 2024.06 (io_trps.svl 2023.06)
