@<TRIPOS>MOLECULE
NONAME
58 62 1 0 0 
SMALL
USER_CHARGES


@<TRIPOS>ATOM
  1 O       -2.6250     0.7590    -2.2180 O.2   1 <1>  -0.5700 
  2 C       -2.2700     0.8150    -1.0570 C.2   1 <1>   0.7160 
  3 N       -1.9990    -0.3450    -0.4040 N.am  1 <1>  -0.7300 
  4 C       -2.2260     2.0670    -0.3480 C.2   1 <1>  -0.0860 
  5 C       -2.0420    -1.7080    -0.9780 C.3   1 <1>   0.2200 
  6 C       -1.3110     2.7290     0.4310 C.2   1 <1>  -0.3320 
  7 C       -3.3230     2.9310    -0.3620 C.2   1 <1>   0.1390 
  8 C       -3.2510    -2.4820    -0.4640 C.3   1 <1>  -0.0800 
  9 C       -0.9100    -2.5220    -0.3700 C.3   1 <1>   0.1200 
 10 N       -1.9020     3.8720     0.8280 N.pl3 1 <1>   0.3000 
 11 C        0.1350     2.4540     0.8490 C.3   1 <1>   0.1000 
 12 N       -3.1460     3.9990     0.3450 N.2   1 <1>  -0.7070 
 13 C       -2.7590    -3.0130     0.8900 C.3   1 <1>   0.1200 
 14 C       -4.5640    -1.6720    -0.3910 C.3   1 <1>  -0.0160 
 15 O       -1.3670    -2.8790     0.8980 O.3   1 <1>  -0.5600 
 16 C        1.0810     3.3220     0.0020 C.3   1 <1>  -0.1600 
 17 C        0.5550     0.9800     0.7580 C.3   1 <1>  -0.1600 
 18 C       -5.8260    -2.4410     0.0180 C.ar  1 <1>  -0.1440 
 19 C        2.5500     3.1270     0.4040 C.3   1 <1>  -0.1600 
 20 C        2.0160     0.7790     1.1830 C.3   1 <1>  -0.1600 
 21 C       -7.0160    -1.7260     0.3050 C.ar  1 <1>   0.0000 
 22 C       -5.8830    -3.8030     0.1180 C.ar  1 <1>  -0.1500 
 23 C        2.9560     1.6500     0.3390 C.3   1 <1>  -0.1600 
 24 C       -8.1570    -2.4660     0.7030 C.ar  1 <1>   0.3100 
 25 C       -7.1450    -0.3190     0.2160 C.ar  1 <1>  -0.1500 
 26 C       -7.0670    -4.4380     0.5120 C.ar  1 <1>   0.1600 
 27 N       -8.1650    -3.8180     0.8020 N.ar  1 <1>  -0.6200 
 28 C       -9.3440    -1.7810     1.0070 C.ar  1 <1>  -0.1500 
 29 C       -8.3170     0.3180     0.5180 C.ar  1 <1>  -0.1500 
 30 C       -9.4330    -0.4190     0.9210 C.ar  1 <1>  -0.1500 
 31 H       -1.7520    -0.3060     0.5860 H     1 <1>   0.3700 
 32 H       -1.9920    -1.6740    -2.0540 H     1 <1>   0.0800 
 33 H       -4.2300     2.7280    -0.9080 H     1 <1>   0.1500 
 34 H       -3.3950    -3.3170    -1.1250 H     1 <1>   0.0800 
 35 H        0.0080    -1.9680    -0.2860 H     1 <1>   0.0800 
 36 H       -0.7440    -3.4270    -0.9300 H     1 <1>   0.0800 
 37 H       -1.4780     4.6000     1.4170 H     1 <1>   0.2700 
 38 H        0.2420     2.7490     1.8790 H     1 <1>   0.0800 
 39 H       -3.0050    -4.0510     1.0310 H     1 <1>   0.0800 
 40 H       -3.1480    -2.4350     1.7110 H     1 <1>   0.0800 
 41 H       -4.7410    -1.2230    -1.3540 H     1 <1>   0.0800 
 42 H       -4.4260    -0.8760     0.3180 H     1 <1>   0.0800 
 43 H        0.9590     3.0620    -1.0360 H     1 <1>   0.0800 
 44 H        0.8220     4.3600     0.1090 H     1 <1>   0.0800 
 45 H       -0.0760     0.3850     1.3940 H     1 <1>   0.0800 
 46 H        0.4510     0.6420    -0.2570 H     1 <1>   0.0800 
 47 H        3.1820     3.7020    -0.2520 H     1 <1>   0.0800 
 48 H        2.6990     3.4920     1.4060 H     1 <1>   0.0800 
 49 H        2.1280     1.0340     2.2230 H     1 <1>   0.0800 
 50 H        2.2860    -0.2570     1.0670 H     1 <1>   0.0800 
 51 H       -5.0460    -4.4380    -0.0950 H     1 <1>   0.1500 
 52 H        3.9670     1.5360     0.6910 H     1 <1>   0.0800 
 53 H        2.9250     1.3180    -0.6850 H     1 <1>   0.0800 
 54 H       -6.3070     0.2730    -0.0980 H     1 <1>   0.1500 
 55 H       -7.0620    -5.5120     0.5800 H     1 <1>   0.1500 
 56 H      -10.1890    -2.3710     1.3110 H     1 <1>   0.1500 
 57 H       -8.3970     1.3900     0.4480 H     1 <1>   0.1500 
 58 H      -10.3490     0.0940     1.1570 H     1 <1>   0.1500 
@<TRIPOS>BOND
  1   1   2  2   
  2   2   3  am  
  3   2   4  1   
  4   3   5  1   
  5   3  31  1   
  6   4   6  2   
  7   4   7  1   
  8   5   8  1   
  9   5   9  1   
 10   5  32  1   
 11   6  10  1   
 12   6  11  1   
 13   7  12  2   
 14   7  33  1   
 15   8  13  1   
 16   8  14  1   
 17   8  34  1   
 18   9  15  1   
 19   9  35  1   
 20   9  36  1   
 21  10  12  1   
 22  10  37  1   
 23  11  16  1   
 24  11  17  1   
 25  11  38  1   
 26  13  15  1   
 27  13  39  1   
 28  13  40  1   
 29  14  18  1   
 30  14  41  1   
 31  14  42  1   
 32  16  19  1   
 33  16  43  1   
 34  16  44  1   
 35  17  20  1   
 36  17  45  1   
 37  17  46  1   
 38  18  21  ar  
 39  18  22  ar  
 40  19  23  1   
 41  19  47  1   
 42  19  48  1   
 43  20  23  1   
 44  20  49  1   
 45  20  50  1   
 46  21  24  ar  
 47  21  25  ar  
 48  22  26  ar  
 49  22  51  1   
 50  23  52  1   
 51  23  53  1   
 52  24  27  ar  
 53  24  28  ar  
 54  25  29  ar  
 55  25  54  1   
 56  26  27  ar  
 57  26  55  1   
 58  28  30  ar  
 59  28  56  1   
 60  29  30  ar  
 61  29  57  1   
 62  30  58  1   
@<TRIPOS>SUBSTRUCTURE
  1 ****   3 GROUP 4 **** **** 0

# MOE 2024.06 (io_trps.svl 2023.06)
