@<TRIPOS>MOLECULE
NONAME
56 60 1 0 0 
SMALL
USER_CHARGES


@<TRIPOS>ATOM
  1 O        0.5820    -0.6370    -0.1240 O.3   1 <1>  -0.6800 
  2 C        1.9490    -0.6680     0.0020 C.3   1 <1>   0.2800 
  3 C        2.4890     0.7660    -0.0620 C.3   1 <1>  -0.1600 
  4 C        2.5370    -1.5090    -1.1400 C.3   1 <1>  -0.1600 
  5 C        2.2990    -1.3040     1.3540 C.3   1 <1>  -0.1600 
  6 C        4.0200     0.7370     0.0890 C.3   1 <1>   0.3690 
  7 C        4.0710    -1.5410    -1.0000 C.3   1 <1>  -0.0800 
  8 C        3.8300    -1.3360     1.5160 C.3   1 <1>  -0.0800 
  9 N        4.4800     2.1360     0.0200 N.pl3 1 <1>  -0.8690 
 10 C        4.6110    -0.0980    -1.0650 C.3   1 <1>  -0.1600 
 11 C        4.3700     0.1060     1.4510 C.3   1 <1>  -0.1600 
 12 C        4.4420    -2.1610     0.3640 C.3   1 <1>  -0.1600 
 13 C        5.6710     2.7520     0.0760 C.ar  1 <1>   0.4100 
 14 N        5.5940     4.0580    -0.0420 N.ar  1 <1>  -0.6200 
 15 C        6.9040     2.0950     0.2440 C.ar  1 <1>  -0.1500 
 16 C        6.7190     4.7570    -0.0030 C.ar  1 <1>   0.7710 
 17 C        8.0430     2.8280     0.2860 C.ar  1 <1>   0.2180 
 18 N        7.9160     4.1690     0.1590 N.ar  1 <1>  -0.1790 
 19 N        6.6650     6.1060    -0.1280 N.pl3 1 <1>  -0.8380 
 20 C        9.4310     2.2250     0.4650 C.3   1 <1>  -0.0170 
 21 C        7.7870     7.0820    -0.1760 C.3   1 <1>   0.2090 
 22 C        5.3650     6.8200    -0.2740 C.3   1 <1>   0.2090 
 23 C       10.3230     2.4560    -0.7620 C.3   1 <1>  -0.2400 
 24 C        7.1570     8.3860    -0.6450 C.3   1 <1>  -0.1600 
 25 C        5.7090     8.3000    -0.1810 C.3   1 <1>  -0.1600 
 26 H        0.3400    -0.3000    -1.0060 H     1 <1>   0.4000 
 27 H        2.0560     1.3430     0.7360 H     1 <1>   0.0800 
 28 H        2.2270     1.2090    -1.0050 H     1 <1>   0.0800 
 29 H        2.2710    -1.0850    -2.0920 H     1 <1>   0.0800 
 30 H        2.1490    -2.5120    -1.0920 H     1 <1>   0.0800 
 31 H        1.9060    -2.3040     1.4000 H     1 <1>   0.0800 
 32 H        1.8580    -0.7320     2.1520 H     1 <1>   0.0800 
 33 H        4.4970    -2.1290    -1.7970 H     1 <1>   0.0800 
 34 H        4.0860    -1.7820     2.4630 H     1 <1>   0.0800 
 35 H        3.6910     2.7790    -0.0870 H     1 <1>   0.4000 
 36 H        5.6800    -0.1320    -1.0060 H     1 <1>   0.0800 
 37 H        4.3440     0.3460    -2.0070 H     1 <1>   0.0800 
 38 H        3.9340     0.6900     2.2430 H     1 <1>   0.0800 
 39 H        5.4300     0.0820     1.6030 H     1 <1>   0.0800 
 40 H        5.5130    -2.1990     0.4700 H     1 <1>   0.0800 
 41 H        4.0780    -3.1730     0.4120 H     1 <1>   0.0800 
 42 H        6.9270     1.0300     0.3380 H     1 <1>   0.1500 
 43 H        8.7110     4.7930     0.1780 H     1 <1>   0.4570 
 44 H        9.3410     1.1640     0.6300 H     1 <1>   0.0800 
 45 H        9.8990     2.6440     1.3390 H     1 <1>   0.0800 
 46 H        8.5610     6.7720    -0.8590 H     1 <1>   0.0800 
 47 H        8.1930     7.2140     0.8140 H     1 <1>   0.0800 
 48 H        4.6690     6.5320     0.4980 H     1 <1>   0.0800 
 49 H        4.9410     6.5950    -1.2390 H     1 <1>   0.0800 
 50 H        9.8670     2.0380    -1.6430 H     1 <1>   0.0800 
 51 H       11.2730     1.9700    -0.6170 H     1 <1>   0.0800 
 52 H       10.5070     3.5020    -0.9270 H     1 <1>   0.0800 
 53 H        7.1930     8.4300    -1.7200 H     1 <1>   0.0800 
 54 H        7.6640     9.2460    -0.2440 H     1 <1>   0.0800 
 55 H        5.6300     8.6150     0.8450 H     1 <1>   0.0800 
 56 H        5.0480     8.9010    -0.7810 H     1 <1>   0.0800 
@<TRIPOS>BOND
  1   1   2  1   
  2   1  26  1   
  3   2   3  1   
  4   2   4  1   
  5   2   5  1   
  6   3   6  1   
  7   3  27  1   
  8   3  28  1   
  9   4   7  1   
 10   4  29  1   
 11   4  30  1   
 12   5   8  1   
 13   5  31  1   
 14   5  32  1   
 15   6   9  1   
 16   6  10  1   
 17   6  11  1   
 18   7  10  1   
 19   7  12  1   
 20   7  33  1   
 21   8  11  1   
 22   8  12  1   
 23   8  34  1   
 24   9  13  1   
 25   9  35  1   
 26  10  36  1   
 27  10  37  1   
 28  11  38  1   
 29  11  39  1   
 30  12  40  1   
 31  12  41  1   
 32  13  14  ar  
 33  13  15  ar  
 34  14  16  ar  
 35  15  17  ar  
 36  15  42  1   
 37  16  18  ar  
 38  16  19  1   
 39  17  18  ar  
 40  17  20  1   
 41  18  43  1   
 42  19  21  1   
 43  19  22  1   
 44  20  23  1   
 45  20  44  1   
 46  20  45  1   
 47  21  24  1   
 48  21  46  1   
 49  21  47  1   
 50  22  25  1   
 51  22  48  1   
 52  22  49  1   
 53  23  50  1   
 54  23  51  1   
 55  23  52  1   
 56  24  25  1   
 57  24  53  1   
 58  24  54  1   
 59  25  55  1   
 60  25  56  1   
@<TRIPOS>SUBSTRUCTURE
  1 ****  13 GROUP 4 **** **** 0

# MOE 2024.06 (io_trps.svl 2023.06)
