@<TRIPOS>MOLECULE
NONAME
40 41 1 0 0 
SMALL
USER_CHARGES


@<TRIPOS>ATOM
  1 O       -1.8490     0.2150     1.8600 O.2   1 <1>  -0.5700 
  2 C       -1.8220     0.7610     0.7790 C.2   1 <1>   0.5690 
  3 N       -2.1210     0.0540    -0.3630 N.am  1 <1>  -0.6600 
  4 C       -1.4820     2.2580     0.7870 C.3   1 <1>  -0.0190 
  5 C       -2.4440    -1.4000    -0.2580 C.3   1 <1>   0.3200 
  6 C       -2.3800     0.6050    -1.7250 C.3   1 <1>   0.0600 
  7 C       -2.7070     3.1510     0.4870 C.3   1 <1>  -0.1600 
  8 C       -0.2300     2.6200    -0.0520 C.3   1 <1>  -0.1600 
  9 C       -3.8980    -1.5850     0.1410 C.2   1 <1>   0.0060 
 10 C       -2.4030     4.6530     0.6650 C.3   1 <1>   0.2000 
 11 C       -0.2530     4.0610    -0.5910 C.3   1 <1>  -0.1600 
 12 N       -4.8200    -2.1110    -0.6010 N.2   1 <1>  -0.5650 
 13 N       -4.3380    -1.1900     1.3530 N.pl3 1 <1>   0.0330 
 14 O       -3.2090     5.3650    -0.2420 O.3   1 <1>  -0.5600 
 15 C       -0.9130     5.0090     0.4130 C.3   1 <1>   0.2000 
 16 C       -5.9220    -2.0560     0.1730 C.2   1 <1>   0.0770 
 17 C       -5.6480    -1.4950     1.3710 C.2   1 <1>  -0.3020 
 18 C       -4.5240     5.5760     0.1720 C.3   1 <1>   0.0400 
 19 O       -0.8300     6.2890    -0.0940 O.3   1 <1>  -0.6800 
 20 H       -1.2180     2.4830     1.8070 H     1 <1>   0.0800 
 21 H       -2.2680    -1.8880    -1.2010 H     1 <1>   0.0800 
 22 H       -1.8090    -1.8660     0.4760 H     1 <1>   0.0800 
 23 H       -1.8590     0.0170    -2.4600 H     1 <1>   0.0800 
 24 H       -2.0500     1.6210    -1.8200 H     1 <1>   0.0800 
 25 H       -3.4360     0.5620    -1.9330 H     1 <1>   0.0800 
 26 H       -3.5100     2.8760     1.1480 H     1 <1>   0.0800 
 27 H       -3.0380     2.9840    -0.5190 H     1 <1>   0.0800 
 28 H        0.6360     2.4960     0.5770 H     1 <1>   0.0800 
 29 H       -0.1020     1.9440    -0.8770 H     1 <1>   0.0800 
 30 H       -2.6470     4.9650     1.6670 H     1 <1>   0.0800 
 31 H       -0.8120     4.0890    -1.5110 H     1 <1>   0.0800 
 32 H        0.7530     4.3850    -0.7950 H     1 <1>   0.0800 
 33 H       -3.7530    -0.7330     2.0670 H     1 <1>   0.2700 
 34 H       -0.3620     4.9850     1.3380 H     1 <1>   0.0800 
 35 H       -6.8700    -2.4280    -0.1800 H     1 <1>   0.1500 
 36 H       -6.2910    -1.3020     2.2090 H     1 <1>   0.1500 
 37 H       -5.0290     6.1370    -0.5940 H     1 <1>   0.0800 
 38 H       -4.5230     6.1380     1.0890 H     1 <1>   0.0800 
 39 H       -5.0170     4.6290     0.3070 H     1 <1>   0.0800 
 40 H       -1.6840     6.4450    -0.5600 H     1 <1>   0.4000 
@<TRIPOS>BOND
  1   1   2  2   
  2   2   3  am  
  3   2   4  1   
  4   3   5  1   
  5   3   6  1   
  6   4   7  1   
  7   4   8  1   
  8   4  20  1   
  9   5   9  1   
 10   5  21  1   
 11   5  22  1   
 12   6  23  1   
 13   6  24  1   
 14   6  25  1   
 15   7  10  1   
 16   7  26  1   
 17   7  27  1   
 18   8  11  1   
 19   8  28  1   
 20   8  29  1   
 21   9  12  2   
 22   9  13  1   
 23  10  14  1   
 24  10  15  1   
 25  10  30  1   
 26  11  15  1   
 27  11  31  1   
 28  11  32  1   
 29  12  16  1   
 30  13  17  1   
 31  13  33  1   
 32  14  18  1   
 33  15  19  1   
 34  15  34  1   
 35  16  17  2   
 36  16  35  1   
 37  17  36  1   
 38  18  37  1   
 39  18  38  1   
 40  18  39  1   
 41  19  40  1   
@<TRIPOS>SUBSTRUCTURE
  1 ****   2 GROUP 4 **** **** 0

# MOE 2024.06 (io_trps.svl 2023.06)
