@<TRIPOS>MOLECULE
NONAME
48 50 1 0 0 
SMALL
USER_CHARGES


@<TRIPOS>ATOM
  1 O        0.5110    -0.2960     1.3630 O.2   1 <1>  -0.5700 
  2 C       -0.3540     0.4630     1.0000 C.2   1 <1>   0.5690 
  3 N       -1.4570     0.0320     0.3160 N.am  1 <1>  -0.6600 
  4 C       -0.1750     1.9320     1.3120 C.3   1 <1>  -0.0990 
  5 C       -2.5750     0.8740    -0.1910 C.3   1 <1>   0.1400 
  6 C       -1.7000    -1.3970     0.0090 C.3   1 <1>   0.1400 
  7 C        0.4470     2.6410     0.1120 C.3   1 <1>   0.1400 
  8 C       -3.5540    -0.1100    -0.8360 C.3   1 <1>   0.2000 
  9 C       -3.2000    -1.4840    -0.2710 C.3   1 <1>  -0.0800 
 10 N        0.2880     4.1050     0.2610 N.am  1 <1>  -0.7300 
 11 O       -4.8710     0.1980    -0.5270 O.3   1 <1>  -0.6800 
 12 C       -3.5940    -2.6320    -1.2130 C.3   1 <1>  -0.0170 
 13 C       -0.8360     4.7800    -0.0820 C.2   1 <1>   0.5690 
 14 C       -3.2370    -3.9840    -0.6190 C.ar  1 <1>   0.1670 
 15 O       -1.8210     4.2210    -0.4970 O.2   1 <1>  -0.5700 
 16 C       -0.8470     6.2770     0.0790 C.3   1 <1>  -0.1790 
 17 N       -2.0820    -4.4890    -0.9260 N.ar  1 <1>  -0.6200 
 18 C       -4.1600    -4.6130     0.2310 C.ar  1 <1>  -0.1500 
 19 C       -1.7550    -5.6920    -0.3880 C.ar  1 <1>   0.3100 
 20 C       -3.8590    -5.8200     0.7850 C.ar  1 <1>  -0.1500 
 21 C       -2.6160    -6.3990     0.4790 C.ar  1 <1>   0.0000 
 22 C       -0.5090    -6.2600    -0.7000 C.ar  1 <1>  -0.1500 
 23 C       -2.1990    -7.6410     0.9970 C.ar  1 <1>  -0.1500 
 24 C       -0.1210    -7.4690    -0.1860 C.ar  1 <1>  -0.1500 
 25 C       -0.9770    -8.1670     0.6720 C.ar  1 <1>  -0.1500 
 26 H       -1.1280     2.3630     1.5540 H     1 <1>   0.0800 
 27 H        0.4680     2.0340     2.1660 H     1 <1>   0.0800 
 28 H       -3.0370     1.3960     0.6290 H     1 <1>   0.0800 
 29 H       -2.2170     1.5810    -0.9190 H     1 <1>   0.0800 
 30 H       -1.1290    -1.6730    -0.8620 H     1 <1>   0.0800 
 31 H       -1.4120    -2.0280     0.8340 H     1 <1>   0.0800 
 32 H       -0.0480     2.3300    -0.7930 H     1 <1>   0.0800 
 33 H        1.4900     2.3860     0.0280 H     1 <1>   0.0800 
 34 H       -3.4420    -0.0840    -1.9070 H     1 <1>   0.0800 
 35 H       -3.6900    -1.6170     0.6780 H     1 <1>   0.0800 
 36 H        1.0890     4.6110     0.6420 H     1 <1>   0.3700 
 37 H       -4.9870     0.2530     0.4410 H     1 <1>   0.4000 
 38 H       -3.0910    -2.5200    -2.1580 H     1 <1>   0.0800 
 39 H       -4.6520    -2.5940    -1.4040 H     1 <1>   0.0800 
 40 H       -0.0560     6.7100    -0.5030 H     1 <1>   0.0800 
 41 H       -0.7170     6.5310     1.1140 H     1 <1>   0.0800 
 42 H       -1.7870     6.6700    -0.2620 H     1 <1>   0.0800 
 43 H       -5.0990    -4.1310     0.4370 H     1 <1>   0.1500 
 44 H       -4.5400    -6.3320     1.4410 H     1 <1>   0.1500 
 45 H        0.1340    -5.7080    -1.3600 H     1 <1>   0.1500 
 46 H       -2.8610    -8.1720     1.6570 H     1 <1>   0.1500 
 47 H        0.8370    -7.8920    -0.4340 H     1 <1>   0.1500 
 48 H       -0.6600    -9.1160     1.0700 H     1 <1>   0.1500 
@<TRIPOS>BOND
  1   1   2  2   
  2   2   3  am  
  3   2   4  1   
  4   3   5  1   
  5   3   6  1   
  6   4   7  1   
  7   4  26  1   
  8   4  27  1   
  9   5   8  1   
 10   5  28  1   
 11   5  29  1   
 12   6   9  1   
 13   6  30  1   
 14   6  31  1   
 15   7  10  1   
 16   7  32  1   
 17   7  33  1   
 18   8   9  1   
 19   8  11  1   
 20   8  34  1   
 21   9  12  1   
 22   9  35  1   
 23  10  13  am  
 24  10  36  1   
 25  11  37  1   
 26  12  14  1   
 27  12  38  1   
 28  12  39  1   
 29  13  15  2   
 30  13  16  1   
 31  14  17  ar  
 32  14  18  ar  
 33  16  40  1   
 34  16  41  1   
 35  16  42  1   
 36  17  19  ar  
 37  18  20  ar  
 38  18  43  1   
 39  19  21  ar  
 40  19  22  ar  
 41  20  21  ar  
 42  20  44  1   
 43  21  23  ar  
 44  22  24  ar  
 45  22  45  1   
 46  23  25  ar  
 47  23  46  1   
 48  24  25  ar  
 49  24  47  1   
 50  25  48  1   
@<TRIPOS>SUBSTRUCTURE
  1 ****   6 GROUP 4 **** **** 0

# MOE 2024.06 (io_trps.svl 2023.06)
