@<TRIPOS>MOLECULE
NONAME
43 45 1 0 0 
SMALL
USER_CHARGES


@<TRIPOS>ATOM
  1 CL       2.9250     0.2220    -1.0050 Cl    1 <1>  -0.1770 
  2 C        1.8160     1.5660    -1.1690 C.ar  1 <1>   0.1770 
  3 C        1.6690     2.5180    -0.1620 C.ar  1 <1>  -0.1440 
  4 C        1.0940     1.6400    -2.3460 C.ar  1 <1>  -0.1500 
  5 C        0.7720     3.5580    -0.3780 C.ar  1 <1>  -0.1500 
  6 C        2.4350     2.4690     1.1590 C.3   1 <1>   0.3640 
  7 C        0.2040     2.6800    -2.5400 C.ar  1 <1>  -0.1500 
  8 C        0.0470     3.6390    -1.5550 C.ar  1 <1>  -0.1500 
  9 N        2.0640     1.2250     1.8740 N.am  1 <1>  -0.7300 
 10 C        3.9720     2.6430     0.9870 C.3   1 <1>   0.2610 
 11 C        2.9630     0.3700     2.4070 C.2   1 <1>   0.5690 
 12 O        4.6940     2.0620     2.0700 O.3   1 <1>  -0.5600 
 13 C        4.3110     4.1340     0.8640 C.2   1 <1>   0.5690 
 14 O        2.6030    -0.6260     2.9810 O.2   1 <1>  -0.5700 
 15 C        4.4530     0.6820     2.2570 C.3   1 <1>   0.1810 
 16 O        3.8340     4.7900    -0.0330 O.2   1 <1>  -0.5700 
 17 N        5.1590     4.6960     1.7650 N.am  1 <1>  -0.7300 
 18 C        5.5590     6.1210     1.8220 C.3   1 <1>   0.2780 
 19 C        6.5880     6.4320     0.7420 C.2   1 <1>  -0.0380 
 20 N        6.2290     6.2410    -0.5660 N.pl3 1 <1>  -0.5500 
 21 C        7.8390     6.8940     0.9610 C.2   1 <1>  -0.1360 
 22 C        7.0850     6.5040    -1.5920 C.2   1 <1>   0.4390 
 23 C        8.7000     7.1560    -0.1390 C.2   1 <1>   0.7670 
 24 N        8.2760     6.9450    -1.4240 N.2   1 <1>  -0.6610 
 25 C        6.5660     6.2440    -2.9840 C.3   1 <1>  -0.1790 
 26 O        9.8310     7.5740     0.0490 O.2   1 <1>  -0.5700 
 27 H        1.2280     0.8870    -3.1020 H     1 <1>   0.1500 
 28 H        0.6290     4.3210     0.3690 H     1 <1>   0.1500 
 29 H        2.0960     3.2870     1.7710 H     1 <1>   0.0800 
 30 H       -0.3630     2.7450    -3.4540 H     1 <1>   0.1500 
 31 H       -0.6430     4.4520    -1.7050 H     1 <1>   0.1500 
 32 H        1.0730     0.9840     1.9290 H     1 <1>   0.3700 
 33 H        4.3040     2.1630     0.0870 H     1 <1>   0.0800 
 34 H        4.8510     0.1460     1.4150 H     1 <1>   0.0800 
 35 H        4.9720     0.3740     3.1460 H     1 <1>   0.0800 
 36 H        5.6030     4.0640     2.4410 H     1 <1>   0.3700 
 37 H        4.6900     6.7390     1.6690 H     1 <1>   0.0800 
 38 H        5.9620     6.3410     2.7950 H     1 <1>   0.0800 
 39 H        5.2940     5.8450    -0.7660 H     1 <1>   0.4000 
 40 H        8.2400     7.0840     1.9360 H     1 <1>   0.1500 
 41 H        5.6990     6.8490    -3.1690 H     1 <1>   0.0800 
 42 H        6.3090     5.2070    -3.0900 H     1 <1>   0.0800 
 43 H        7.3200     6.4900    -3.7100 H     1 <1>   0.0800 
@<TRIPOS>BOND
  1   1   2  1   
  2   2   3  ar  
  3   2   4  ar  
  4   3   5  ar  
  5   3   6  1   
  6   4   7  ar  
  7   4  27  1   
  8   5   8  ar  
  9   5  28  1   
 10   6   9  1   
 11   6  10  1   
 12   6  29  1   
 13   7   8  ar  
 14   7  30  1   
 15   8  31  1   
 16   9  11  am  
 17   9  32  1   
 18  10  12  1   
 19  10  13  1   
 20  10  33  1   
 21  11  14  2   
 22  11  15  1   
 23  12  15  1   
 24  13  16  2   
 25  13  17  am  
 26  15  34  1   
 27  15  35  1   
 28  17  18  1   
 29  17  36  1   
 30  18  19  1   
 31  18  37  1   
 32  18  38  1   
 33  19  20  1   
 34  19  21  2   
 35  20  22  1   
 36  20  39  1   
 37  21  23  1   
 38  21  40  1   
 39  22  24  2   
 40  22  25  1   
 41  23  24  1   
 42  23  26  2   
 43  25  41  1   
 44  25  42  1   
 45  25  43  1   
@<TRIPOS>SUBSTRUCTURE
  1 ****  13 GROUP 4 **** **** 0

# MOE 2024.06 (io_trps.svl 2023.06)
