@<TRIPOS>MOLECULE
NONAME
42 43 1 0 0 
SMALL
USER_CHARGES


@<TRIPOS>ATOM
  1 O       -2.3500     1.7740    -1.7540 O.2   1 <1>  -0.5700 
  2 C       -2.3550     0.5710    -1.7180 C.2   1 <1>   0.5690 
  3 N       -1.8480    -0.1350    -2.7500 N.am  1 <1>  -0.8000 
  4 C       -2.9310    -0.1340    -0.4950 C.3   1 <1>   0.1810 
  5 O       -3.1840    -1.5120    -0.7510 O.3   1 <1>  -0.3630 
  6 C       -3.7370    -2.3080     0.1960 C.ar  1 <1>   0.0830 
  7 C       -4.0070    -3.6140    -0.1760 C.ar  1 <1>  -0.1500 
  8 C       -4.0430    -1.8850     1.4860 C.ar  1 <1>  -0.1500 
  9 C       -4.5890    -4.5000     0.7180 C.ar  1 <1>  -0.1430 
 10 C       -4.6120    -2.7690     2.3840 C.ar  1 <1>  -0.1500 
 11 C       -4.8850    -4.0720     2.0050 C.ar  1 <1>  -0.1500 
 12 C       -4.9100    -5.9170     0.2900 C.3   1 <1>   0.4860 
 13 N       -6.3630    -6.0040    -0.0120 N.4   1 <1>  -0.9590 
 14 C       -6.8290    -7.3940    -0.1650 C.3   1 <1>   0.4230 
 15 C       -6.7630    -5.2190    -1.2050 C.3   1 <1>   0.4230 
 16 C       -7.9780    -7.3090    -1.1560 C.3   1 <1>  -0.1600 
 17 C       -7.2450    -7.9490     1.1910 C.3   1 <1>  -0.2400 
 18 C       -7.5560    -6.1800    -2.0870 C.3   1 <1>  -0.1600 
 19 C       -7.6240    -4.0530    -0.7280 C.3   1 <1>  -0.2400 
 20 H       -1.4710     0.3480    -3.5650 H     1 <1>   0.3700 
 21 H       -1.8500    -1.1550    -2.7660 H     1 <1>   0.3700 
 22 H       -3.8580     0.3380    -0.2230 H     1 <1>   0.0800 
 23 H       -2.2300    -0.0600     0.3160 H     1 <1>   0.0800 
 24 H       -3.7530    -3.9170    -1.1760 H     1 <1>   0.1500 
 25 H       -3.8450    -0.8810     1.8120 H     1 <1>   0.1500 
 26 H       -4.8420    -2.4400     3.3840 H     1 <1>   0.1500 
 27 H       -5.3240    -4.7400     2.7260 H     1 <1>   0.1500 
 28 H       -4.6570    -6.5920     1.0910 H     1 <1>   0.0800 
 29 H       -4.3300    -6.1840    -0.5780 H     1 <1>   0.0800 
 30 H       -6.8630    -5.5850     0.7780 H     1 <1>   0.4500 
 31 H       -6.0440    -7.9960    -0.5950 H     1 <1>   0.0800 
 32 H       -5.9020    -4.8460    -1.7380 H     1 <1>   0.0800 
 33 H       -8.1220    -8.2380    -1.6790 H     1 <1>   0.0800 
 34 H       -8.8920    -7.0480    -0.6500 H     1 <1>   0.0800 
 35 H       -8.0210    -7.3520     1.6350 H     1 <1>   0.0800 
 36 H       -6.4030    -7.9990     1.8580 H     1 <1>   0.0800 
 37 H       -7.6230    -8.9490     1.0660 H     1 <1>   0.0800 
 38 H       -8.3980    -5.7100    -2.5670 H     1 <1>   0.0800 
 39 H       -6.9040    -6.5620    -2.8540 H     1 <1>   0.0800 
 40 H       -8.4990    -4.3990    -0.2080 H     1 <1>   0.0800 
 41 H       -7.9460    -3.4750    -1.5770 H     1 <1>   0.0800 
 42 H       -7.0590    -3.3980    -0.0880 H     1 <1>   0.0800 
@<TRIPOS>BOND
  1   1   2  2   
  2   2   3  am  
  3   2   4  1   
  4   3  20  1   
  5   3  21  1   
  6   4   5  1   
  7   4  22  1   
  8   4  23  1   
  9   5   6  1   
 10   6   7  ar  
 11   6   8  ar  
 12   7   9  ar  
 13   7  24  1   
 14   8  10  ar  
 15   8  25  1   
 16   9  11  ar  
 17   9  12  1   
 18  10  11  ar  
 19  10  26  1   
 20  11  27  1   
 21  12  13  1   
 22  12  28  1   
 23  12  29  1   
 24  13  14  1   
 25  13  15  1   
 26  13  30  1   
 27  14  16  1   
 28  14  17  1   
 29  14  31  1   
 30  15  18  1   
 31  15  19  1   
 32  15  32  1   
 33  16  18  1   
 34  16  33  1   
 35  16  34  1   
 36  17  35  1   
 37  17  36  1   
 38  17  37  1   
 39  18  38  1   
 40  18  39  1   
 41  19  40  1   
 42  19  41  1   
 43  19  42  1   
@<TRIPOS>SUBSTRUCTURE
  1 ****   7 GROUP 4 **** **** 0

# MOE 2024.06 (io_trps.svl 2023.06)
