@<TRIPOS>MOLECULE
NONAME
41 43 1 0 0 
SMALL
USER_CHARGES


@<TRIPOS>ATOM
  1 O       -0.4020     0.5580    -1.3260 O.co2 1 <1>  -0.9000 
  2 C       -1.3990     1.1740    -0.8940 C.2   1 <1>   0.9790 
  3 O       -2.4710     0.5320    -0.8170 O.co2 1 <1>  -0.9000 
  4 C       -1.3520     2.5850    -0.4610 C.ar  1 <1>   0.1310 
  5 N       -0.2850     3.3750    -0.6330 N.ar  1 <1>  -0.6200 
  6 C       -2.4630     3.1310     0.1640 C.ar  1 <1>  -0.1500 
  7 C       -0.3430     4.6200    -0.1800 C.ar  1 <1>   0.7200 
  8 C       -2.4290     4.4330     0.5940 C.ar  1 <1>   0.1660 
  9 N       -1.3730     5.1870     0.4390 N.ar  1 <1>  -0.6200 
 10 N        0.7760     5.4000    -0.3580 N.pl3 1 <1>  -0.8380 
 11 C       -3.6230     5.0630     1.2760 C.3   1 <1>  -0.0970 
 12 C        0.9470     6.6830     0.3770 C.3   1 <1>   0.4690 
 13 C        2.0860     4.8140    -0.7290 C.3   1 <1>   0.2090 
 14 C        0.1420     7.8700    -0.1690 C.2   1 <1>   0.2980 
 15 C        2.4520     6.9610     0.3020 C.3   1 <1>  -0.1600 
 16 C        3.1040     5.5980     0.0880 C.3   1 <1>  -0.1600 
 17 O       -0.0200     7.9870    -1.4640 O.3   1 <1>  -0.0190 
 18 N       -0.3670     8.8120     0.5300 N.2   1 <1>  -0.5650 
 19 N       -0.6890     9.0920    -1.6020 N.2   1 <1>  -0.4100 
 20 C       -0.8940     9.5570    -0.4330 C.2   1 <1>   0.3350 
 21 C       -1.6500    10.8440    -0.0970 C.3   1 <1>   0.1010 
 22 C       -2.7130    11.1930    -1.1510 C.3   1 <1>  -0.2400 
 23 C       -0.6740    12.0160     0.0740 C.3   1 <1>  -0.2400 
 24 H       -3.3380     2.5240     0.3040 H     1 <1>   0.1500 
 25 H       -4.4390     4.3680     1.3400 H     1 <1>   0.0800 
 26 H       -3.9390     5.9240     0.7160 H     1 <1>   0.0800 
 27 H       -3.3470     5.3740     2.2660 H     1 <1>   0.0800 
 28 H        0.6730     6.5260     1.4060 H     1 <1>   0.0800 
 29 H        2.1420     3.7610    -0.5040 H     1 <1>   0.0800 
 30 H        2.2440     4.9600    -1.7840 H     1 <1>   0.0800 
 31 H        2.6540     7.5910    -0.5460 H     1 <1>   0.0800 
 32 H        2.8030     7.4520     1.1910 H     1 <1>   0.0800 
 33 H        3.2410     5.1010     1.0330 H     1 <1>   0.0800 
 34 H        4.0510     5.6650    -0.4160 H     1 <1>   0.0800 
 35 H       -2.1540    10.6820     0.8400 H     1 <1>   0.0800 
 36 H       -2.2500    11.3830    -2.1030 H     1 <1>   0.0800 
 37 H       -3.2670    12.0650    -0.8530 H     1 <1>   0.0800 
 38 H       -3.3990    10.3720    -1.2640 H     1 <1>   0.0800 
 39 H       -0.1450    12.1950    -0.8450 H     1 <1>   0.0800 
 40 H        0.0430    11.7840     0.8420 H     1 <1>   0.0800 
 41 H       -1.2020    12.9090     0.3550 H     1 <1>   0.0800 
@<TRIPOS>BOND
  1   1   2  ar  
  2   2   3  ar  
  3   2   4  1   
  4   4   5  ar  
  5   4   6  ar  
  6   5   7  ar  
  7   6   8  ar  
  8   6  24  1   
  9   7   9  ar  
 10   7  10  1   
 11   8   9  ar  
 12   8  11  1   
 13  10  12  1   
 14  10  13  1   
 15  11  25  1   
 16  11  26  1   
 17  11  27  1   
 18  12  14  1   
 19  12  15  1   
 20  12  28  1   
 21  13  16  1   
 22  13  29  1   
 23  13  30  1   
 24  14  17  1   
 25  14  18  2   
 26  15  16  1   
 27  15  31  1   
 28  15  32  1   
 29  16  33  1   
 30  16  34  1   
 31  17  19  1   
 32  18  20  1   
 33  19  20  2   
 34  20  21  1   
 35  21  22  1   
 36  21  23  1   
 37  21  35  1   
 38  22  36  1   
 39  22  37  1   
 40  22  38  1   
 41  23  39  1   
 42  23  40  1   
 43  23  41  1   
@<TRIPOS>SUBSTRUCTURE
  1 ****   9 GROUP 4 **** **** 0

# MOE 2024.06 (io_trps.svl 2023.06)
