@<TRIPOS>MOLECULE
NONAME
51 52 1 0 0 
SMALL
USER_CHARGES


@<TRIPOS>ATOM
  1 S        0.2850     0.1740     0.8640 S.o2  1 <1>   1.0900 
  2 O        0.0410    -0.3180    -0.4710 O.2   1 <1>  -0.6500 
  3 O       -0.7260     0.9470     1.5460 O.2   1 <1>  -0.6500 
  4 C        1.7920     1.1300     0.8260 C.3   1 <1>  -0.0550 
  5 C        0.7020    -1.2170     1.8960 C.3   1 <1>  -0.1350 
  6 C        1.5970     2.4070     0.0150 C.3   1 <1>   0.1100 
  7 N        2.8500     3.1850    -0.0120 N.3   1 <1>  -0.8100 
  8 C        2.5640     4.6100    -0.1690 C.3   1 <1>   0.1100 
  9 C        3.7560     2.7080    -1.0600 C.3   1 <1>   0.1100 
 10 C        3.8560     5.4000     0.0240 C.3   1 <1>  -0.1600 
 11 C        5.1030     3.4110    -0.9050 C.3   1 <1>  -0.1600 
 12 C        4.9500     4.9380    -0.9500 C.3   1 <1>   0.4230 
 13 N        6.2510     5.5910    -0.6080 N.4   1 <1>  -0.9590 
 14 C        6.2210     7.0920    -0.5200 C.3   1 <1>   0.3430 
 15 C        7.4220     5.1680    -1.4540 C.3   1 <1>   0.3430 
 16 C        7.5430     7.6470     0.0650 C.3   1 <1>   0.1100 
 17 C        8.7440     5.8090    -0.9670 C.3   1 <1>   0.1100 
 18 N        8.5640     6.5890     0.2790 N.3   1 <1>  -0.8100 
 19 C        9.8540     7.1440     0.7440 C.3   1 <1>   0.1100 
 20 C        9.7770     7.6190     2.2000 C.3   1 <1>   0.1200 
 21 O       11.0190     8.0960     2.5870 O.3   1 <1>  -0.6800 
 22 H        2.5750     0.5430     0.3900 H     1 <1>   0.0800 
 23 H        2.0760     1.4020     1.8240 H     1 <1>   0.0800 
 24 H       -0.1450    -1.8700     1.9860 H     1 <1>   0.0800 
 25 H        0.9800    -0.8890     2.8790 H     1 <1>   0.0800 
 26 H        1.5140    -1.7750     1.4700 H     1 <1>   0.0800 
 27 H        0.8160     2.9800     0.4900 H     1 <1>   0.0800 
 28 H        1.2720     2.1740    -0.9870 H     1 <1>   0.0800 
 29 H        1.8510     4.9210     0.5790 H     1 <1>   0.0800 
 30 H        2.1370     4.7990    -1.1410 H     1 <1>   0.0800 
 31 H        3.3330     2.9040    -2.0320 H     1 <1>   0.0800 
 32 H        3.9040     1.6450    -0.9660 H     1 <1>   0.0800 
 33 H        4.1810     5.2630     1.0410 H     1 <1>   0.0800 
 34 H        3.6230     6.4360    -0.1310 H     1 <1>   0.0800 
 35 H        5.7370     3.0710    -1.7020 H     1 <1>   0.0800 
 36 H        5.5310     3.1080     0.0350 H     1 <1>   0.0800 
 37 H        4.6560     5.2210    -1.9480 H     1 <1>   0.0800 
 38 H        6.5190     5.2960     0.3440 H     1 <1>   0.4500 
 39 H        5.4140     7.4160     0.1140 H     1 <1>   0.0800 
 40 H        6.0600     7.5130    -1.4980 H     1 <1>   0.0800 
 41 H        7.2530     5.4410    -2.4830 H     1 <1>   0.0800 
 42 H        7.5360     4.0980    -1.4140 H     1 <1>   0.0800 
 43 H        7.3210     8.1270     1.0030 H     1 <1>   0.0800 
 44 H        7.9290     8.4040    -0.5980 H     1 <1>   0.0800 
 45 H        9.1370     6.4450    -1.7430 H     1 <1>   0.0800 
 46 H        9.4640     5.0250    -0.7990 H     1 <1>   0.0800 
 47 H       10.1530     7.9650     0.1120 H     1 <1>   0.0800 
 48 H       10.6070     6.3760     0.6870 H     1 <1>   0.0800 
 49 H        9.5040     6.8120     2.8580 H     1 <1>   0.0800 
 50 H        9.0780     8.4290     2.3070 H     1 <1>   0.0800 
 51 H       11.6570     7.3660     2.7070 H     1 <1>   0.4000 
@<TRIPOS>BOND
  1   1   2  2   
  2   1   3  2   
  3   1   4  1   
  4   1   5  1   
  5   4   6  1   
  6   4  22  1   
  7   4  23  1   
  8   5  24  1   
  9   5  25  1   
 10   5  26  1   
 11   6   7  1   
 12   6  27  1   
 13   6  28  1   
 14   7   8  1   
 15   7   9  1   
 16   8  10  1   
 17   8  29  1   
 18   8  30  1   
 19   9  11  1   
 20   9  31  1   
 21   9  32  1   
 22  10  12  1   
 23  10  33  1   
 24  10  34  1   
 25  11  12  1   
 26  11  35  1   
 27  11  36  1   
 28  12  13  1   
 29  12  37  1   
 30  13  14  1   
 31  13  15  1   
 32  13  38  1   
 33  14  16  1   
 34  14  39  1   
 35  14  40  1   
 36  15  17  1   
 37  15  41  1   
 38  15  42  1   
 39  16  18  1   
 40  16  43  1   
 41  16  44  1   
 42  17  18  1   
 43  17  45  1   
 44  17  46  1   
 45  18  19  1   
 46  19  20  1   
 47  19  47  1   
 48  19  48  1   
 49  20  21  1   
 50  20  49  1   
 51  20  50  1   
 52  21  51  1   
@<TRIPOS>SUBSTRUCTURE
  1 ****  12 GROUP 4 **** **** 0

# MOE 2024.06 (io_trps.svl 2023.06)
