@<TRIPOS>MOLECULE
NONAME
39 41 1 0 0 
SMALL
USER_CHARGES


@<TRIPOS>ATOM
  1 CL       0.9400     0.0560     1.3610 Cl    1 <1>  -0.1770 
  2 C        1.4580    -1.2630     0.3230 C.ar  1 <1>   0.1770 
  3 C        0.7940    -2.5010     0.3310 C.ar  1 <1>   0.4100 
  4 C        2.5390    -1.0470    -0.4970 C.ar  1 <1>  -0.1500 
  5 N        1.1760    -3.5140    -0.4460 N.ar  1 <1>  -0.6200 
  6 N       -0.3100    -2.7360     1.1440 N.pl3 1 <1>  -0.8380 
  7 C        2.9240    -2.1050    -1.2980 C.ar  1 <1>  -0.1500 
  8 C        2.2190    -3.2940    -1.2310 C.ar  1 <1>   0.1600 
  9 C       -1.5900    -2.0390     0.8100 C.3   1 <1>   0.2090 
 10 C       -0.5360    -4.1060     1.7110 C.3   1 <1>   0.2090 
 11 C       -2.5110    -2.9050    -0.0710 C.3   1 <1>   0.2090 
 12 C       -1.4730    -4.9610     0.8350 C.3   1 <1>   0.2090 
 13 N       -2.7600    -4.2560     0.5240 N.pl3 1 <1>  -0.8210 
 14 C       -3.7580    -5.0190    -0.0850 C.2   1 <1>   0.5990 
 15 N       -4.6890    -4.5620    -0.8330 N.2   1 <1>  -0.4100 
 16 N       -3.8200    -6.3340     0.0830 N.2   1 <1>  -0.5650 
 17 O       -5.4210    -5.5810    -1.1970 O.3   1 <1>  -0.0190 
 18 C       -4.8460    -6.6030    -0.6120 C.2   1 <1>   0.2980 
 19 C       -5.4390    -7.9850    -0.8120 C.3   1 <1>   0.0200 
 20 C       -6.8170    -8.1130    -0.1470 C.3   1 <1>  -0.1600 
 21 C       -7.4080    -9.5140    -0.3350 C.3   1 <1>  -0.2400 
 22 H        3.0540    -0.1030    -0.5080 H     1 <1>   0.1500 
 23 H        3.7630    -2.0080    -1.9640 H     1 <1>   0.1500 
 24 H        2.5290    -4.1110    -1.8600 H     1 <1>   0.1500 
 25 H       -1.3830    -1.1170     0.2960 H     1 <1>   0.0800 
 26 H       -2.1050    -1.7980     1.7230 H     1 <1>   0.0800 
 27 H       -0.9700    -4.0090     2.6900 H     1 <1>   0.0800 
 28 H        0.4070    -4.6120     1.8210 H     1 <1>   0.0800 
 29 H       -2.0580    -3.0230    -1.0410 H     1 <1>   0.0800 
 30 H       -3.4460    -2.3880    -0.1990 H     1 <1>   0.0800 
 31 H       -1.6760    -5.8800     1.3560 H     1 <1>   0.0800 
 32 H       -0.9690    -5.2050    -0.0840 H     1 <1>   0.0800 
 33 H       -4.7670    -8.7110    -0.3900 H     1 <1>   0.0800 
 34 H       -5.5190    -8.1760    -1.8670 H     1 <1>   0.0800 
 35 H       -7.4890    -7.3840    -0.5680 H     1 <1>   0.0800 
 36 H       -6.7220    -7.9040     0.9060 H     1 <1>   0.0800 
 37 H       -7.5330    -9.7360    -1.3810 H     1 <1>   0.0800 
 38 H       -8.3700    -9.5740     0.1420 H     1 <1>   0.0800 
 39 H       -6.7650   -10.2580     0.1040 H     1 <1>   0.0800 
@<TRIPOS>BOND
  1   1   2  1   
  2   2   3  ar  
  3   2   4  ar  
  4   3   5  ar  
  5   3   6  1   
  6   4   7  ar  
  7   4  22  1   
  8   5   8  ar  
  9   6   9  1   
 10   6  10  1   
 11   7   8  ar  
 12   7  23  1   
 13   8  24  1   
 14   9  11  1   
 15   9  25  1   
 16   9  26  1   
 17  10  12  1   
 18  10  27  1   
 19  10  28  1   
 20  11  13  1   
 21  11  29  1   
 22  11  30  1   
 23  12  13  1   
 24  12  31  1   
 25  12  32  1   
 26  13  14  1   
 27  14  15  2   
 28  14  16  1   
 29  15  17  1   
 30  16  18  2   
 31  17  18  1   
 32  18  19  1   
 33  19  20  1   
 34  19  33  1   
 35  19  34  1   
 36  20  21  1   
 37  20  35  1   
 38  20  36  1   
 39  21  37  1   
 40  21  38  1   
 41  21  39  1   
@<TRIPOS>SUBSTRUCTURE
  1 ****  13 GROUP 4 **** **** 0

# MOE 2024.06 (io_trps.svl 2023.06)
