@<TRIPOS>MOLECULE
NONAME
49 52 1 0 0 
SMALL
USER_CHARGES


@<TRIPOS>ATOM
  1 O       -0.2430     0.3930     0.0280 O.2   1 <1>  -0.5700 
  2 C       -1.3190     0.9420    -0.0180 C.2   1 <1>   0.5690 
  3 N       -2.4820     0.2280    -0.0710 N.am  1 <1>  -0.6600 
  4 C       -1.3810     2.4600    -0.0220 C.3   1 <1>  -0.0990 
  5 C       -3.8550     0.7850    -0.1640 C.3   1 <1>   0.1400 
  6 C       -2.5150    -1.2530    -0.0280 C.3   1 <1>   0.1400 
  7 C       -0.0080     3.1300     0.1440 C.3   1 <1>   0.0200 
  8 C       -4.7560    -0.4320    -0.3710 C.3   1 <1>   0.2000 
  9 C       -3.9820    -1.6110     0.2120 C.3   1 <1>  -0.0800 
 10 C       -0.0990     4.6490     0.1490 C.2   1 <1>   0.0060 
 11 O       -5.9710    -0.2850     0.2780 O.3   1 <1>  -0.6800 
 12 C       -4.3920    -2.9650    -0.3870 C.3   1 <1>   0.0210 
 13 N       -1.1900     5.3300     0.0590 N.2   1 <1>  -0.5650 
 14 N        1.0150     5.4190     0.2530 N.pl3 1 <1>   0.0330 
 15 C       -3.5100    -4.0810     0.1390 C.2   1 <1>   0.1080 
 16 C       -0.7870     6.6310     0.1050 C.ar  1 <1>   0.2270 
 17 C        0.5880     6.7060     0.2260 C.ar  1 <1>  -0.1520 
 18 N       -3.3960    -4.3520     1.4020 N.2   1 <1>  -0.7070 
 19 C       -2.7270    -4.9160    -0.6510 C.2   1 <1>  -0.1500 
 20 C       -1.5440     7.7990     0.0480 C.ar  1 <1>  -0.1500 
 21 C        1.2450     7.9360     0.2940 C.ar  1 <1>  -0.1500 
 22 N       -2.5280    -5.3790     1.4530 N.pl3 1 <1>   0.3000 
 23 C       -2.1070    -5.7380     0.2220 C.2   1 <1>  -0.3320 
 24 C       -0.9060     9.0190     0.1140 C.ar  1 <1>  -0.1500 
 25 C        0.4880     9.0860     0.2370 C.ar  1 <1>  -0.1500 
 26 C       -1.1220    -6.8600    -0.0490 C.3   1 <1>  -0.0600 
 27 H       -1.8150     2.7820    -0.9500 H     1 <1>   0.0800 
 28 H       -2.0210     2.7790     0.7790 H     1 <1>   0.0800 
 29 H       -4.0970     1.2880     0.7570 H     1 <1>   0.0800 
 30 H       -3.9350     1.4650    -0.9940 H     1 <1>   0.0800 
 31 H       -2.1710    -1.6370    -0.9730 H     1 <1>   0.0800 
 32 H       -1.8850    -1.6320     0.7590 H     1 <1>   0.0800 
 33 H        0.6340     2.8210    -0.6610 H     1 <1>   0.0800 
 34 H        0.4330     2.8040     1.0700 H     1 <1>   0.0800 
 35 H       -4.9460    -0.5660    -1.4230 H     1 <1>   0.0800 
 36 H       -4.1240    -1.6430     1.2790 H     1 <1>   0.0800 
 37 H       -5.8440    -0.3320     1.2460 H     1 <1>   0.4000 
 38 H       -4.3220    -2.9320    -1.4590 H     1 <1>   0.0800 
 39 H       -5.4120    -3.1800    -0.1230 H     1 <1>   0.0800 
 40 H        1.9820     5.1010     0.3340 H     1 <1>   0.2700 
 41 H       -2.6490    -4.8900    -1.7230 H     1 <1>   0.1500 
 42 H       -2.6100     7.7170    -0.0460 H     1 <1>   0.1500 
 43 H        2.3150     7.9780     0.3880 H     1 <1>   0.1500 
 44 H       -2.2430    -5.8100     2.3400 H     1 <1>   0.2700 
 45 H       -1.4750     9.9320     0.0720 H     1 <1>   0.1500 
 46 H        0.9630    10.0510     0.2870 H     1 <1>   0.1500 
 47 H       -0.9460    -6.9510    -1.1060 H     1 <1>   0.0800 
 48 H       -1.5120    -7.7940     0.3150 H     1 <1>   0.0800 
 49 H       -0.1840    -6.6570     0.4370 H     1 <1>   0.0800 
@<TRIPOS>BOND
  1   1   2  2   
  2   2   3  am  
  3   2   4  1   
  4   3   5  1   
  5   3   6  1   
  6   4   7  1   
  7   4  27  1   
  8   4  28  1   
  9   5   8  1   
 10   5  29  1   
 11   5  30  1   
 12   6   9  1   
 13   6  31  1   
 14   6  32  1   
 15   7  10  1   
 16   7  33  1   
 17   7  34  1   
 18   8   9  1   
 19   8  11  1   
 20   8  35  1   
 21   9  12  1   
 22   9  36  1   
 23  10  13  2   
 24  10  14  1   
 25  11  37  1   
 26  12  15  1   
 27  12  38  1   
 28  12  39  1   
 29  13  16  1   
 30  14  17  1   
 31  14  40  1   
 32  15  18  2   
 33  15  19  1   
 34  16  17  ar  
 35  16  20  ar  
 36  17  21  ar  
 37  18  22  1   
 38  19  23  2   
 39  19  41  1   
 40  20  24  ar  
 41  20  42  1   
 42  21  25  ar  
 43  21  43  1   
 44  22  23  1   
 45  22  44  1   
 46  23  26  1   
 47  24  25  ar  
 48  24  45  1   
 49  25  46  1   
 50  26  47  1   
 51  26  48  1   
 52  26  49  1   
@<TRIPOS>SUBSTRUCTURE
  1 ****   2 GROUP 4 **** **** 0

# MOE 2024.06 (io_trps.svl 2023.06)
