@<TRIPOS>MOLECULE
NONAME
52 54 1 0 0 
SMALL
USER_CHARGES


@<TRIPOS>ATOM
  1 O        0.8730    -0.1630    -0.2610 O.3   1 <1>  -0.3630 
  2 C        0.4680    -1.4120     0.0890 C.ar  1 <1>   0.0830 
  3 C        1.9640     0.0570    -1.1270 C.3   1 <1>   0.0400 
  4 C       -0.5770    -1.5190     0.9970 C.ar  1 <1>  -0.1440 
  5 C        1.0550    -2.5680    -0.4160 C.ar  1 <1>  -0.1500 
  6 C       -1.0280    -2.7710     1.3730 C.ar  1 <1>  -0.1500 
  7 C       -1.2250    -0.2690     1.5790 C.3   1 <1>  -0.0960 
  8 C        0.6070    -3.8240    -0.0370 C.ar  1 <1>  -0.1430 
  9 C       -0.4620    -3.9260     0.8510 C.ar  1 <1>  -0.1430 
 10 C        1.3340    -5.0350    -0.6110 C.3   1 <1>  -0.0970 
 11 C       -1.0450    -5.2610     1.2790 C.3   1 <1>   0.4860 
 12 N       -1.6700    -5.9090     0.0890 N.4   1 <1>  -0.9590 
 13 C       -3.1460    -5.7070    -0.0030 C.3   1 <1>   0.4230 
 14 C       -1.2890    -7.3540     0.0320 C.3   1 <1>   0.2630 
 15 C       -3.7210    -6.3490    -1.2650 C.3   1 <1>  -0.1600 
 16 C       -3.5390    -4.2370    -0.1370 C.3   1 <1>  -0.1600 
 17 C       -5.0200    -5.5910    -1.5550 C.3   1 <1>  -0.0800 
 18 C       -4.9000    -4.2370    -0.8410 C.3   1 <1>  -0.0800 
 19 C       -6.2760    -6.2700    -0.9880 C.3   1 <1>  -0.1600 
 20 C       -6.0960    -4.1440     0.1190 C.3   1 <1>  -0.1600 
 21 C       -7.1130    -5.1220    -0.4460 C.3   1 <1>   0.2000 
 22 O       -7.9540    -5.5690     0.5470 O.3   1 <1>  -0.6800 
 23 H        2.0990     1.1190    -1.2300 H     1 <1>   0.0800 
 24 H        1.7430    -0.3770    -2.0860 H     1 <1>   0.0800 
 25 H        2.8460    -0.3820    -0.6960 H     1 <1>   0.0800 
 26 H        1.8720    -2.4950    -1.1080 H     1 <1>   0.1500 
 27 H       -1.8320    -2.8330     2.0840 H     1 <1>   0.1500 
 28 H       -2.0090    -0.5150     2.2700 H     1 <1>   0.0800 
 29 H       -1.6390     0.3290     0.7860 H     1 <1>   0.0800 
 30 H       -0.4840     0.3160     2.0950 H     1 <1>   0.0800 
 31 H        2.3170    -4.7560    -0.9500 H     1 <1>   0.0800 
 32 H        0.7980    -5.4350    -1.4510 H     1 <1>   0.0800 
 33 H        1.4630    -5.7970     0.1360 H     1 <1>   0.0800 
 34 H       -1.7730    -5.1210     2.0600 H     1 <1>   0.0800 
 35 H       -0.2470    -5.8740     1.6650 H     1 <1>   0.0800 
 36 H       -1.2570    -5.4090    -0.7110 H     1 <1>   0.4500 
 37 H       -3.6420    -6.1260     0.8590 H     1 <1>   0.0800 
 38 H       -1.7310    -7.8920     0.8550 H     1 <1>   0.0800 
 39 H       -0.2170    -7.4630     0.0850 H     1 <1>   0.0800 
 40 H       -1.6270    -7.7980    -0.8900 H     1 <1>   0.0800 
 41 H       -3.0520    -6.1910    -2.0930 H     1 <1>   0.0800 
 42 H       -3.8990    -7.4030    -1.1450 H     1 <1>   0.0800 
 43 H       -3.5950    -3.7430     0.8140 H     1 <1>   0.0800 
 44 H       -2.8340    -3.7230    -0.7680 H     1 <1>   0.0800 
 45 H       -5.1450    -5.4390    -2.6160 H     1 <1>   0.0800 
 46 H       -4.9550    -3.4340    -1.5600 H     1 <1>   0.0800 
 47 H       -6.0180    -6.9400    -0.1880 H     1 <1>   0.0800 
 48 H       -6.8100    -6.8090    -1.7510 H     1 <1>   0.0800 
 49 H       -6.4980    -3.1460     0.1490 H     1 <1>   0.0800 
 50 H       -5.8120    -4.4480     1.1110 H     1 <1>   0.0800 
 51 H       -7.7010    -4.6660    -1.2260 H     1 <1>   0.0800 
 52 H       -7.4520    -5.9880     1.2680 H     1 <1>   0.4000 
@<TRIPOS>BOND
  1   1   2  1   
  2   1   3  1   
  3   2   4  ar  
  4   2   5  ar  
  5   3  23  1   
  6   3  24  1   
  7   3  25  1   
  8   4   6  ar  
  9   4   7  1   
 10   5   8  ar  
 11   5  26  1   
 12   6   9  ar  
 13   6  27  1   
 14   7  28  1   
 15   7  29  1   
 16   7  30  1   
 17   8   9  ar  
 18   8  10  1   
 19   9  11  1   
 20  10  31  1   
 21  10  32  1   
 22  10  33  1   
 23  11  12  1   
 24  11  34  1   
 25  11  35  1   
 26  12  13  1   
 27  12  14  1   
 28  12  36  1   
 29  13  15  1   
 30  13  16  1   
 31  13  37  1   
 32  14  38  1   
 33  14  39  1   
 34  14  40  1   
 35  15  17  1   
 36  15  41  1   
 37  15  42  1   
 38  16  18  1   
 39  16  43  1   
 40  16  44  1   
 41  17  18  1   
 42  17  19  1   
 43  17  45  1   
 44  18  20  1   
 45  18  46  1   
 46  19  21  1   
 47  19  47  1   
 48  19  48  1   
 49  20  21  1   
 50  20  49  1   
 51  20  50  1   
 52  21  22  1   
 53  21  51  1   
 54  22  52  1   
@<TRIPOS>SUBSTRUCTURE
  1 ****  16 GROUP 4 **** **** 0

# MOE 2024.06 (io_trps.svl 2023.06)
