@<TRIPOS>MOLECULE
NONAME
56 58 1 0 0 
SMALL
USER_CHARGES


@<TRIPOS>ATOM
  1 O       -1.6370    -0.0970    -2.2620 O.2   1 <1>  -0.5700 
  2 C       -1.8180     0.3280    -1.1470 C.2   1 <1>   0.5690 
  3 N       -2.0160    -0.5070    -0.0960 N.am  1 <1>  -0.7300 
  4 C       -1.8580     1.8370    -0.9100 C.3   1 <1>  -0.0190 
  5 C       -2.0440    -1.9840    -0.1700 C.3   1 <1>   0.2200 
  6 C       -0.7990     2.2560     0.1400 C.3   1 <1>  -0.1600 
  7 C       -3.3030     2.2510    -0.5370 C.3   1 <1>  -0.1600 
  8 C       -3.4710    -2.5080    -0.1000 C.3   1 <1>  -0.0800 
  9 C       -1.4810    -2.5480     1.1270 C.3   1 <1>   0.1200 
 10 C       -0.1160     3.5950    -0.1820 C.3   1 <1>  -0.1600 
 11 C       -3.5240     3.7620    -0.3910 C.3   1 <1>  -0.1600 
 12 C       -3.7590    -2.5090     1.4060 C.3   1 <1>   0.1200 
 13 C       -4.5030    -1.7650    -0.9730 C.3   1 <1>  -0.0170 
 14 O       -2.5200    -2.4390     2.0530 O.3   1 <1>  -0.5600 
 15 C        0.9100     3.9590     0.8950 C.3   1 <1>  -0.2400 
 16 C       -5.0090     4.0810    -0.1910 C.3   1 <1>  -0.2400 
 17 C       -5.8820    -2.4120    -0.8670 C.ar  1 <1>  -0.1440 
 18 C       -6.9050    -1.9460    -0.0040 C.ar  1 <1>   0.0000 
 19 C       -6.1580    -3.5050    -1.6360 C.ar  1 <1>  -0.1500 
 20 C       -8.1260    -2.6670     0.0130 C.ar  1 <1>   0.3100 
 21 C       -6.8000    -0.8150     0.8400 C.ar  1 <1>  -0.1500 
 22 C       -7.4030    -4.1370    -1.5490 C.ar  1 <1>   0.1600 
 23 N       -8.3580    -3.7560    -0.7630 N.ar  1 <1>  -0.6200 
 24 C       -9.1560    -2.2440     0.8680 C.ar  1 <1>  -0.1500 
 25 C       -7.8250    -0.4280     1.6600 C.ar  1 <1>  -0.1500 
 26 C       -9.0190    -1.1510     1.6780 C.ar  1 <1>  -0.1500 
 27 H       -2.1770    -0.1320     0.8410 H     1 <1>   0.3700 
 28 H       -1.6090     2.2970    -1.8510 H     1 <1>   0.0800 
 29 H       -1.5100    -2.3340    -1.0380 H     1 <1>   0.0800 
 30 H       -1.2470     2.2930     1.1180 H     1 <1>   0.0800 
 31 H       -0.0260     1.5060     0.1720 H     1 <1>   0.0800 
 32 H       -3.9590     1.8850    -1.3090 H     1 <1>   0.0800 
 33 H       -3.5900     1.7680     0.3810 H     1 <1>   0.0800 
 34 H       -3.4550    -3.5360    -0.4160 H     1 <1>   0.0800 
 35 H       -0.6190    -2.0080     1.4790 H     1 <1>   0.0800 
 36 H       -1.2430    -3.5920     1.0190 H     1 <1>   0.0800 
 37 H        0.3850     3.5210    -1.1320 H     1 <1>   0.0800 
 38 H       -0.8380     4.3870    -0.2550 H     1 <1>   0.0800 
 39 H       -2.9780     4.1330     0.4590 H     1 <1>   0.0800 
 40 H       -3.1690     4.2690    -1.2720 H     1 <1>   0.0800 
 41 H       -4.2700    -3.4040     1.7160 H     1 <1>   0.0800 
 42 H       -4.3240    -1.6460     1.7060 H     1 <1>   0.0800 
 43 H       -4.1750    -1.8110    -1.9980 H     1 <1>   0.0800 
 44 H       -4.5510    -0.7240    -0.7240 H     1 <1>   0.0800 
 45 H        1.6690     3.1990     0.9650 H     1 <1>   0.0800 
 46 H        0.4310     4.0610     1.8530 H     1 <1>   0.0800 
 47 H        1.3840     4.8930     0.6490 H     1 <1>   0.0800 
 48 H       -5.3830     3.5970     0.6940 H     1 <1>   0.0800 
 49 H       -5.5830     3.7490    -1.0380 H     1 <1>   0.0800 
 50 H       -5.1450     5.1430    -0.0830 H     1 <1>   0.0800 
 51 H       -5.4330    -3.9080    -2.3200 H     1 <1>   0.1500 
 52 H       -5.8980    -0.2350     0.8440 H     1 <1>   0.1500 
 53 H       -7.5770    -4.9960    -2.1750 H     1 <1>   0.1500 
 54 H      -10.0670    -2.8140     0.8620 H     1 <1>   0.1500 
 55 H       -7.7270     0.4340     2.2970 H     1 <1>   0.1500 
 56 H       -9.8180    -0.8390     2.3280 H     1 <1>   0.1500 
@<TRIPOS>BOND
  1   1   2  2   
  2   2   3  am  
  3   2   4  1   
  4   3   5  1   
  5   3  27  1   
  6   4   6  1   
  7   4   7  1   
  8   4  28  1   
  9   5   8  1   
 10   5   9  1   
 11   5  29  1   
 12   6  10  1   
 13   6  30  1   
 14   6  31  1   
 15   7  11  1   
 16   7  32  1   
 17   7  33  1   
 18   8  12  1   
 19   8  13  1   
 20   8  34  1   
 21   9  14  1   
 22   9  35  1   
 23   9  36  1   
 24  10  15  1   
 25  10  37  1   
 26  10  38  1   
 27  11  16  1   
 28  11  39  1   
 29  11  40  1   
 30  12  14  1   
 31  12  41  1   
 32  12  42  1   
 33  13  17  1   
 34  13  43  1   
 35  13  44  1   
 36  15  45  1   
 37  15  46  1   
 38  15  47  1   
 39  16  48  1   
 40  16  49  1   
 41  16  50  1   
 42  17  18  ar  
 43  17  19  ar  
 44  18  20  ar  
 45  18  21  ar  
 46  19  22  ar  
 47  19  51  1   
 48  20  23  ar  
 49  20  24  ar  
 50  21  25  ar  
 51  21  52  1   
 52  22  23  ar  
 53  22  53  1   
 54  24  26  ar  
 55  24  54  1   
 56  25  26  ar  
 57  25  55  1   
 58  26  56  1   
@<TRIPOS>SUBSTRUCTURE
  1 ****  13 GROUP 4 **** **** 0

# MOE 2024.06 (io_trps.svl 2023.06)
