@<TRIPOS>MOLECULE
NONAME
45 47 1 0 0 
SMALL
USER_CHARGES


@<TRIPOS>ATOM
  1 O       -0.8360    -0.0770    -0.5500 O.2   1 <1>  -0.5700 
  2 C       -1.7880     0.6650    -0.6250 C.2   1 <1>   0.5690 
  3 N       -3.0120     0.2130    -1.0470 N.am  1 <1>  -0.6600 
  4 C       -1.5910     2.1290    -0.2460 C.3   1 <1>  -0.0990 
  5 C       -3.1980    -1.2210    -1.4410 C.3   1 <1>   0.3210 
  6 C       -4.2290     1.0850    -1.1920 C.3   1 <1>   0.1400 
  7 C       -0.2700     2.4110     0.4860 C.3   1 <1>  -0.0170 
  8 C       -4.1720    -1.9260    -0.5050 C.2   1 <1>   0.0460 
  9 C       -5.1610     1.0640     0.0360 C.3   1 <1>   0.1200 
 10 C       -0.1500     3.8890     0.8240 C.ar  1 <1>  -0.1440 
 11 N       -5.4410    -2.1780    -0.8920 N.2   1 <1>  -0.5650 
 12 C       -3.9560    -2.3670     0.7570 C.2   1 <1>  -0.3320 
 13 O       -4.4400     0.8670     1.2040 O.3   1 <1>  -0.6800 
 14 C        0.6070     4.7300     0.0150 C.ar  1 <1>  -0.1500 
 15 C       -0.8000     4.4020     1.9470 C.ar  1 <1>  -0.1500 
 16 C       -5.9670    -2.7610     0.1350 C.2   1 <1>   0.0360 
 17 N       -5.1170    -2.9050     1.1720 N.pl3 1 <1>   0.0330 
 18 C       -2.7110    -2.3170     1.6270 C.3   1 <1>  -0.0600 
 19 C        0.6910     6.0660     0.3570 C.ar  1 <1>   0.0820 
 20 C       -0.7040     5.7490     2.2760 C.ar  1 <1>  -0.1500 
 21 O        1.3570     7.0430    -0.2680 O.3   1 <1>  -0.3630 
 22 C        0.0540     6.5610     1.4570 C.ar  1 <1>   0.0820 
 23 C        1.1340     8.2340     0.4840 C.3   1 <1>   0.4000 
 24 O        0.2900     7.8730     1.5750 O.3   1 <1>  -0.3620 
 25 H       -2.3990     2.4370     0.3910 H     1 <1>   0.0800 
 26 H       -1.6230     2.7180    -1.1430 H     1 <1>   0.0800 
 27 H       -2.2610    -1.7480    -1.4200 H     1 <1>   0.0800 
 28 H       -3.5730    -1.2700    -2.4470 H     1 <1>   0.0800 
 29 H       -4.7910     0.7720    -2.0550 H     1 <1>   0.0800 
 30 H       -3.9310     2.1010    -1.3760 H     1 <1>   0.0800 
 31 H        0.5590     2.1110    -0.1310 H     1 <1>   0.0800 
 32 H       -0.2280     1.8290     1.3910 H     1 <1>   0.0800 
 33 H       -5.8740     0.2630    -0.0490 H     1 <1>   0.0800 
 34 H       -5.7000     1.9910     0.1210 H     1 <1>   0.0800 
 35 H       -3.9230     0.0390     1.0880 H     1 <1>   0.4000 
 36 H        1.1200     4.3690    -0.8570 H     1 <1>   0.1500 
 37 H       -1.3870     3.7500     2.5700 H     1 <1>   0.1500 
 38 H       -6.9850    -3.1070     0.1790 H     1 <1>   0.1500 
 39 H       -5.3190    -3.3340     2.0800 H     1 <1>   0.2700 
 40 H       -1.8890    -1.8800     1.0890 H     1 <1>   0.0800 
 41 H       -2.4260    -3.3100     1.9260 H     1 <1>   0.0800 
 42 H       -2.8930    -1.7260     2.5070 H     1 <1>   0.0800 
 43 H       -1.2000     6.1570     3.1380 H     1 <1>   0.1500 
 44 H        0.6360     8.9620    -0.1320 H     1 <1>   0.0800 
 45 H        2.0710     8.6040     0.8600 H     1 <1>   0.0800 
@<TRIPOS>BOND
  1   1   2  2   
  2   2   3  am  
  3   2   4  1   
  4   3   5  1   
  5   3   6  1   
  6   4   7  1   
  7   4  25  1   
  8   4  26  1   
  9   5   8  1   
 10   5  27  1   
 11   5  28  1   
 12   6   9  1   
 13   6  29  1   
 14   6  30  1   
 15   7  10  1   
 16   7  31  1   
 17   7  32  1   
 18   8  11  1   
 19   8  12  2   
 20   9  13  1   
 21   9  33  1   
 22   9  34  1   
 23  10  14  ar  
 24  10  15  ar  
 25  11  16  2   
 26  12  17  1   
 27  12  18  1   
 28  13  35  1   
 29  14  19  ar  
 30  14  36  1   
 31  15  20  ar  
 32  15  37  1   
 33  16  17  1   
 34  16  38  1   
 35  17  39  1   
 36  18  40  1   
 37  18  41  1   
 38  18  42  1   
 39  19  21  1   
 40  19  22  ar  
 41  20  22  ar  
 42  20  43  1   
 43  21  23  1   
 44  22  24  1   
 45  23  24  1   
 46  23  44  1   
 47  23  45  1   
@<TRIPOS>SUBSTRUCTURE
  1 ****   4 GROUP 4 **** **** 0

# MOE 2024.06 (io_trps.svl 2023.06)
