@<TRIPOS>MOLECULE
NONAME
63 66 1 0 0 
SMALL
USER_CHARGES


@<TRIPOS>ATOM
  1 S       -0.2050     0.0090    -0.4130 S.o2  1 <1>   1.0900 
  2 O       -0.1530    -1.3840    -0.0510 O.2   1 <1>  -0.6500 
  3 O       -0.4720     0.4450    -1.7630 O.2   1 <1>  -0.6500 
  4 C        1.3090     0.8040     0.1150 C.3   1 <1>  -0.0550 
  5 C       -1.3660     0.8470     0.6600 C.3   1 <1>  -0.0550 
  6 C        1.2340     2.3390    -0.0050 C.3   1 <1>  -0.1600 
  7 C       -1.2940     2.3800     0.5120 C.3   1 <1>  -0.1600 
  8 C        0.0980     2.9490     0.8480 C.3   1 <1>   0.4230 
  9 N        0.0550     4.4380     0.7300 N.4   1 <1>  -0.9590 
 10 C       -0.0760     4.9440    -0.6790 C.3   1 <1>   0.3430 
 11 C        1.2030     5.0770     1.4460 C.3   1 <1>   0.3430 
 12 C       -0.2770     6.4560    -0.6720 C.3   1 <1>  -0.1600 
 13 C        1.0190     6.5900     1.4760 C.3   1 <1>  -0.1600 
 14 C        0.8730     7.1380     0.0600 C.3   1 <1>   0.2890 
 15 N        0.6040     8.5800     0.1380 N.pl3 1 <1>  -0.8690 
 16 C        1.5150     9.5760     0.0410 C.ar  1 <1>   0.4100 
 17 N        2.7790     9.2190    -0.0590 N.ar  1 <1>  -0.6200 
 18 C        1.1010    10.9320     0.0620 C.ar  1 <1>  -0.1440 
 19 C        3.6870    10.1790    -0.1370 C.ar  1 <1>   0.7710 
 20 C        2.0680    11.8930     0.0090 C.ar  1 <1>   0.2170 
 21 C       -0.3980    11.2470     0.1350 C.3   1 <1>  -0.0970 
 22 N        3.3510    11.4760    -0.0980 N.ar  1 <1>  -0.1790 
 23 N        4.9950     9.8460    -0.2540 N.pl3 1 <1>  -0.8380 
 24 C        1.8470    13.4010     0.0560 C.3   1 <1>  -0.0960 
 25 C        5.4470     8.4280    -0.2790 C.3   1 <1>   0.2090 
 26 C        6.1690    10.7510    -0.4100 C.3   1 <1>   0.2090 
 27 C        6.9660     8.4880    -0.2070 C.3   1 <1>  -0.1600 
 28 C        7.3230     9.8410    -0.8070 C.3   1 <1>  -0.1600 
 29 H        2.1200     0.4440    -0.4920 H     1 <1>   0.0800 
 30 H        1.5260     0.5290     1.1310 H     1 <1>   0.0800 
 31 H       -1.1780     0.5720     1.6810 H     1 <1>   0.0800 
 32 H       -2.3610     0.5190     0.4190 H     1 <1>   0.0800 
 33 H        1.0900     2.5720    -1.0460 H     1 <1>   0.0800 
 34 H        2.1830     2.7400     0.3020 H     1 <1>   0.0800 
 35 H       -2.0280     2.8150     1.1680 H     1 <1>   0.0800 
 36 H       -1.5630     2.6200    -0.5020 H     1 <1>   0.0800 
 37 H        0.3000     2.7030     1.8790 H     1 <1>   0.0800 
 38 H       -0.7950     4.7420     1.2250 H     1 <1>   0.4500 
 39 H       -0.9140     4.4790    -1.1710 H     1 <1>   0.0800 
 40 H        0.8150     4.7080    -1.2380 H     1 <1>   0.0800 
 41 H        2.1270     4.8410     0.9420 H     1 <1>   0.0800 
 42 H        1.2640     4.7060     2.4570 H     1 <1>   0.0800 
 43 H       -1.2180     6.6910    -0.2060 H     1 <1>   0.0800 
 44 H       -0.3060     6.8070    -1.6880 H     1 <1>   0.0800 
 45 H        1.8830     7.0370     1.9360 H     1 <1>   0.0800 
 46 H        0.1570     6.8400     2.0690 H     1 <1>   0.0800 
 47 H        1.7870     6.9660    -0.4880 H     1 <1>   0.0800 
 48 H       -0.3780     8.8280     0.2800 H     1 <1>   0.4000 
 49 H       -0.9350    10.6650    -0.5940 H     1 <1>   0.0800 
 50 H       -0.6190    12.2770    -0.0700 H     1 <1>   0.0800 
 51 H       -0.7780    11.0080     1.1140 H     1 <1>   0.0800 
 52 H        4.1270    12.1220    -0.1490 H     1 <1>   0.4570 
 53 H        0.9400    13.6520     0.5730 H     1 <1>   0.0800 
 54 H        1.7930    13.7970    -0.9430 H     1 <1>   0.0800 
 55 H        2.6500    13.8890     0.5780 H     1 <1>   0.0800 
 56 H        5.1370     7.9720    -1.2060 H     1 <1>   0.0800 
 57 H        5.0400     7.8720     0.5500 H     1 <1>   0.0800 
 58 H        6.3900    11.2200     0.5350 H     1 <1>   0.0800 
 59 H        6.0030    11.4990    -1.1680 H     1 <1>   0.0800 
 60 H        7.4240     7.6700    -0.7360 H     1 <1>   0.0800 
 61 H        7.2710     8.4500     0.8250 H     1 <1>   0.0800 
 62 H        8.2680    10.2100    -0.4500 H     1 <1>   0.0800 
 63 H        7.3610     9.7660    -1.8800 H     1 <1>   0.0800 
@<TRIPOS>BOND
  1   1   2  2   
  2   1   3  2   
  3   1   4  1   
  4   1   5  1   
  5   4   6  1   
  6   4  29  1   
  7   4  30  1   
  8   5   7  1   
  9   5  31  1   
 10   5  32  1   
 11   6   8  1   
 12   6  33  1   
 13   6  34  1   
 14   7   8  1   
 15   7  35  1   
 16   7  36  1   
 17   8   9  1   
 18   8  37  1   
 19   9  10  1   
 20   9  11  1   
 21   9  38  1   
 22  10  12  1   
 23  10  39  1   
 24  10  40  1   
 25  11  13  1   
 26  11  41  1   
 27  11  42  1   
 28  12  14  1   
 29  12  43  1   
 30  12  44  1   
 31  13  14  1   
 32  13  45  1   
 33  13  46  1   
 34  14  15  1   
 35  14  47  1   
 36  15  16  1   
 37  15  48  1   
 38  16  17  ar  
 39  16  18  ar  
 40  17  19  ar  
 41  18  20  ar  
 42  18  21  1   
 43  19  22  ar  
 44  19  23  1   
 45  20  22  ar  
 46  20  24  1   
 47  21  49  1   
 48  21  50  1   
 49  21  51  1   
 50  22  52  1   
 51  23  25  1   
 52  23  26  1   
 53  24  53  1   
 54  24  54  1   
 55  24  55  1   
 56  25  27  1   
 57  25  56  1   
 58  25  57  1   
 59  26  28  1   
 60  26  58  1   
 61  26  59  1   
 62  27  28  1   
 63  27  60  1   
 64  27  61  1   
 65  28  62  1   
 66  28  63  1   
@<TRIPOS>SUBSTRUCTURE
  1 ****  14 GROUP 4 **** **** 0

# MOE 2024.06 (io_trps.svl 2023.06)
