@<TRIPOS>MOLECULE
NONAME
56 59 1 0 0 
SMALL
USER_CHARGES


@<TRIPOS>ATOM
  1 O       -2.9710     1.7140     2.5590 O.2   1 <1>  -0.5700 
  2 C       -2.7560     1.8300     1.3750 C.2   1 <1>   0.5690 
  3 N       -2.7280     0.7320     0.5560 N.am  1 <1>  -0.6600 
  4 C       -2.5460     3.2280     0.8350 C.3   1 <1>   0.1570 
  5 C       -2.4140     0.7190    -0.8980 C.3   1 <1>   0.1400 
  6 C       -2.8540    -0.6550     1.0660 C.3   1 <1>   0.1400 
  7 N       -1.1610     3.3990     0.3710 N.pl3 1 <1>   0.3140 
  8 C       -2.7840    -0.6920    -1.3500 C.3   1 <1>   0.2000 
  9 C       -2.4750    -1.5540    -0.1200 C.3   1 <1>  -0.0800 
 10 N       -0.8930     3.5210    -0.9400 N.2   1 <1>  -0.7070 
 11 C       -0.0370     3.4850     1.1040 C.2   1 <1>  -0.3320 
 12 O       -4.1470    -0.7180    -1.6090 O.3   1 <1>  -0.6800 
 13 C       -3.1660    -2.9340    -0.1130 C.3   1 <1>  -0.0170 
 14 C        0.3840     3.6910    -1.0120 C.2   1 <1>   0.1080 
 15 C        1.0120     3.6680     0.2450 C.2   1 <1>  -0.0860 
 16 C       -0.0120     3.3860     2.6260 C.3   1 <1>  -0.0600 
 17 C       -2.7760    -3.8950     1.0180 C.ar  1 <1>  -0.1440 
 18 C        1.0430     3.9220    -2.3570 C.3   1 <1>  -0.0590 
 19 C        2.4160     3.8120     0.5390 C.2   1 <1>   0.5950 
 20 C       -3.5120    -5.0920     1.2050 C.ar  1 <1>   0.0000 
 21 C       -1.7310    -3.6730     1.8720 C.ar  1 <1>  -0.1500 
 22 O        2.8400     4.3760     1.5150 O.2   1 <1>  -0.5700 
 23 C        3.4510     3.2080    -0.3860 C.3   1 <1>  -0.1790 
 24 C       -3.1330    -5.9480     2.2690 C.ar  1 <1>   0.3100 
 25 C       -4.5990    -5.4960     0.3940 C.ar  1 <1>  -0.1500 
 26 C       -1.4370    -4.5890     2.8890 C.ar  1 <1>   0.1600 
 27 N       -2.0960    -5.6820     3.1010 N.ar  1 <1>  -0.6200 
 28 C       -3.8530    -7.1350     2.4810 C.ar  1 <1>  -0.1500 
 29 C       -5.2790    -6.6610     0.6260 C.ar  1 <1>  -0.1500 
 30 C       -4.9050    -7.4930     1.6840 C.ar  1 <1>  -0.1500 
 31 H       -2.7410     3.9480     1.6060 H     1 <1>   0.0800 
 32 H       -3.2150     3.4060     0.0170 H     1 <1>   0.0800 
 33 H       -2.9570     1.4720    -1.4430 H     1 <1>   0.0800 
 34 H       -1.3570     0.8730    -1.0300 H     1 <1>   0.0800 
 35 H       -2.2060    -0.8070     1.9120 H     1 <1>   0.0800 
 36 H       -3.8740    -0.8260     1.3690 H     1 <1>   0.0800 
 37 H       -2.2600    -1.0030    -2.2370 H     1 <1>   0.0800 
 38 H       -1.4100    -1.6990    -0.1050 H     1 <1>   0.0800 
 39 H       -4.6170    -0.2890    -0.8670 H     1 <1>   0.4000 
 40 H       -2.9600    -3.4220    -1.0500 H     1 <1>   0.0800 
 41 H       -4.2290    -2.7730    -0.0620 H     1 <1>   0.0800 
 42 H        0.9830     3.5250     3.0090 H     1 <1>   0.0800 
 43 H       -0.3570     2.4190     2.9450 H     1 <1>   0.0800 
 44 H       -0.6430     4.1410     3.0600 H     1 <1>   0.0800 
 45 H        1.7540     4.7240    -2.2910 H     1 <1>   0.0800 
 46 H        0.2970     4.1920    -3.0830 H     1 <1>   0.0800 
 47 H        1.5320     3.0260    -2.6890 H     1 <1>   0.0800 
 48 H       -1.0970    -2.8110     1.8090 H     1 <1>   0.1500 
 49 H        3.0460     2.3530    -0.8930 H     1 <1>   0.0800 
 50 H        4.3020     2.8940     0.1890 H     1 <1>   0.0800 
 51 H        3.7710     3.9430    -1.1010 H     1 <1>   0.0800 
 52 H       -4.9060    -4.8810    -0.4310 H     1 <1>   0.1500 
 53 H       -0.6070    -4.3680     3.5390 H     1 <1>   0.1500 
 54 H       -3.5440    -7.7590     3.2990 H     1 <1>   0.1500 
 55 H       -6.1050    -6.9520     0.0000 H     1 <1>   0.1500 
 56 H       -5.4470    -8.4060     1.8580 H     1 <1>   0.1500 
@<TRIPOS>BOND
  1   1   2  2   
  2   2   3  am  
  3   2   4  1   
  4   3   5  1   
  5   3   6  1   
  6   4   7  1   
  7   4  31  1   
  8   4  32  1   
  9   5   8  1   
 10   5  33  1   
 11   5  34  1   
 12   6   9  1   
 13   6  35  1   
 14   6  36  1   
 15   7  10  1   
 16   7  11  1   
 17   8   9  1   
 18   8  12  1   
 19   8  37  1   
 20   9  13  1   
 21   9  38  1   
 22  10  14  2   
 23  11  15  2   
 24  11  16  1   
 25  12  39  1   
 26  13  17  1   
 27  13  40  1   
 28  13  41  1   
 29  14  15  1   
 30  14  18  1   
 31  15  19  1   
 32  16  42  1   
 33  16  43  1   
 34  16  44  1   
 35  17  20  ar  
 36  17  21  ar  
 37  18  45  1   
 38  18  46  1   
 39  18  47  1   
 40  19  22  2   
 41  19  23  1   
 42  20  24  ar  
 43  20  25  ar  
 44  21  26  ar  
 45  21  48  1   
 46  23  49  1   
 47  23  50  1   
 48  23  51  1   
 49  24  27  ar  
 50  24  28  ar  
 51  25  29  ar  
 52  25  52  1   
 53  26  27  ar  
 54  26  53  1   
 55  28  30  ar  
 56  28  54  1   
 57  29  30  ar  
 58  29  55  1   
 59  30  56  1   
@<TRIPOS>SUBSTRUCTURE
  1 ****   6 GROUP 4 **** **** 0

# MOE 2024.06 (io_trps.svl 2023.06)
