@<TRIPOS>MOLECULE
NONAME
54 56 1 0 0 
SMALL
USER_CHARGES


@<TRIPOS>ATOM
  1 O       -3.9170     2.1090    -1.6170 O.2   1 <1>  -0.5700 
  2 C       -3.1620     1.9440    -0.6920 C.2   1 <1>   0.5690 
  3 N       -2.6990     0.7170    -0.3540 N.am  1 <1>  -0.7300 
  4 C       -2.7140     3.1390     0.1260 C.3   1 <1>  -0.0990 
  5 C       -3.0030    -0.5310    -1.0870 C.3   1 <1>   0.2200 
  6 C       -1.2330     3.4790    -0.1120 C.3   1 <1>  -0.1600 
  7 C       -3.9510    -1.3800    -0.2580 C.3   1 <1>  -0.0800 
  8 C       -1.7580    -1.4090    -1.1330 C.3   1 <1>   0.1200 
  9 C       -0.8000     4.7150     0.6840 C.3   1 <1>  -0.0160 
 10 C       -2.9890    -2.1180     0.6820 C.3   1 <1>   0.1200 
 11 C       -4.7610    -2.3470    -1.1430 C.3   1 <1>  -0.0160 
 12 O       -1.7240    -2.0920     0.0850 O.3   1 <1>  -0.5600 
 13 C        0.6730     5.0040     0.4480 C.ar  1 <1>  -0.1440 
 14 C       -5.7290    -3.1800    -0.3170 C.ar  1 <1>  -0.1440 
 15 C        1.0690     5.7800    -0.6290 C.ar  1 <1>  -0.1500 
 16 C        1.6360     4.4930     1.3040 C.ar  1 <1>  -0.1500 
 17 C       -5.5000    -4.5130    -0.0390 C.ar  1 <1>  -0.1500 
 18 C       -6.8920    -2.6420     0.1960 C.ar  1 <1>  -0.1500 
 19 C        2.4110     6.0430    -0.8470 C.ar  1 <1>  -0.1500 
 20 C        2.9770     4.7560     1.0850 C.ar  1 <1>  -0.1500 
 21 C       -6.4150    -5.2210     0.7220 C.ar  1 <1>   0.1600 
 22 C       -7.7420    -3.4380     0.9460 C.ar  1 <1>   0.1600 
 23 C        3.3740     5.5330     0.0080 C.ar  1 <1>  -0.1440 
 24 N       -7.5300    -4.7140     1.2230 N.ar  1 <1>  -0.6200 
 25 C        4.8460     5.8230    -0.2310 C.3   1 <1>  -0.0170 
 26 C        5.2670     7.1010     0.4980 C.3   1 <1>  -0.2400 
 27 H       -2.0560     0.6000     0.4310 H     1 <1>   0.3700 
 28 H       -3.3250     3.9810    -0.1460 H     1 <1>   0.0800 
 29 H       -2.8840     2.9280     1.1650 H     1 <1>   0.0800 
 30 H       -3.3800    -0.3050    -2.0710 H     1 <1>   0.0800 
 31 H       -0.6170     2.6440     0.1710 H     1 <1>   0.0800 
 32 H       -1.0760     3.6630    -1.1610 H     1 <1>   0.0800 
 33 H       -4.6370    -0.7650     0.2970 H     1 <1>   0.0800 
 34 H       -0.8530    -0.8410    -1.2570 H     1 <1>   0.0800 
 35 H       -1.8370    -2.1420    -1.9160 H     1 <1>   0.0800 
 36 H       -0.9700     4.5550     1.7350 H     1 <1>   0.0800 
 37 H       -1.3840     5.5680     0.3850 H     1 <1>   0.0800 
 38 H       -3.2710    -3.1410     0.8570 H     1 <1>   0.0800 
 39 H       -2.9120    -1.6050     1.6240 H     1 <1>   0.0800 
 40 H       -4.1000    -2.9980    -1.6890 H     1 <1>   0.0800 
 41 H       -5.3260    -1.7810    -1.8640 H     1 <1>   0.0800 
 42 H        0.3350     6.1830    -1.3040 H     1 <1>   0.1500 
 43 H        1.3470     3.8880     2.1440 H     1 <1>   0.1500 
 44 H       -4.6190    -5.0090    -0.4050 H     1 <1>   0.1500 
 45 H       -7.1450    -1.6130     0.0200 H     1 <1>   0.1500 
 46 H        2.7020     6.6500    -1.6860 H     1 <1>   0.1500 
 47 H        3.7120     4.3540     1.7590 H     1 <1>   0.1500 
 48 H       -6.2200    -6.2590     0.9300 H     1 <1>   0.1500 
 49 H       -8.6440    -3.0010     1.3390 H     1 <1>   0.1500 
 50 H        5.4400     4.9960     0.1180 H     1 <1>   0.0800 
 51 H        5.0280     5.9320    -1.2860 H     1 <1>   0.0800 
 52 H        5.1040     6.9940     1.5550 H     1 <1>   0.0800 
 53 H        4.6890     7.9360     0.1430 H     1 <1>   0.0800 
 54 H        6.3100     7.3010     0.3250 H     1 <1>   0.0800 
@<TRIPOS>BOND
  1   1   2  2   
  2   2   3  am  
  3   2   4  1   
  4   3   5  1   
  5   3  27  1   
  6   4   6  1   
  7   4  28  1   
  8   4  29  1   
  9   5   7  1   
 10   5   8  1   
 11   5  30  1   
 12   6   9  1   
 13   6  31  1   
 14   6  32  1   
 15   7  10  1   
 16   7  11  1   
 17   7  33  1   
 18   8  12  1   
 19   8  34  1   
 20   8  35  1   
 21   9  13  1   
 22   9  36  1   
 23   9  37  1   
 24  10  12  1   
 25  10  38  1   
 26  10  39  1   
 27  11  14  1   
 28  11  40  1   
 29  11  41  1   
 30  13  15  ar  
 31  13  16  ar  
 32  14  17  ar  
 33  14  18  ar  
 34  15  19  ar  
 35  15  42  1   
 36  16  20  ar  
 37  16  43  1   
 38  17  21  ar  
 39  17  44  1   
 40  18  22  ar  
 41  18  45  1   
 42  19  23  ar  
 43  19  46  1   
 44  20  23  ar  
 45  20  47  1   
 46  21  24  ar  
 47  21  48  1   
 48  22  24  ar  
 49  22  49  1   
 50  23  25  1   
 51  25  26  1   
 52  25  50  1   
 53  25  51  1   
 54  26  52  1   
 55  26  53  1   
 56  26  54  1   
@<TRIPOS>SUBSTRUCTURE
  1 ****   3 GROUP 4 **** **** 0

# MOE 2024.06 (io_trps.svl 2023.06)
