@<TRIPOS>MOLECULE
NONAME
52 55 1 0 0 
SMALL
USER_CHARGES


@<TRIPOS>ATOM
  1 O        0.0930     0.5730    -0.5690 O.2   1 <1>  -0.5700 
  2 C        0.9930    -0.1010    -1.0360 C.2   1 <1>   0.5440 
  3 N        2.1050     0.5300    -1.5610 N.am  1 <1>  -0.6600 
  4 C        0.8750    -1.5390    -1.0380 C.ar  1 <1>   0.0860 
  5 C        3.1670    -0.2050    -2.3110 C.3   1 <1>   0.1400 
  6 C        2.2840     2.0030    -1.4290 C.3   1 <1>   0.1400 
  7 C        1.4100    -2.2980     0.0200 C.ar  1 <1>   0.0000 
  8 C        0.2600    -2.2280    -2.0710 C.ar  1 <1>  -0.1500 
  9 C        4.3110    -0.6560    -1.3890 C.3   1 <1>   0.1100 
 10 C        3.7370     2.4150    -1.1570 C.3   1 <1>  -0.1600 
 11 C        1.3500    -3.6900     0.0000 C.ar  1 <1>  -0.1520 
 12 C        2.0620    -1.9490     1.2200 C.2   1 <1>  -0.1500 
 13 C        0.1920    -3.6230    -2.0860 C.ar  1 <1>  -0.1500 
 14 N        5.1960     0.4390    -0.9350 N.3   1 <1>  -0.8100 
 15 C        4.4800     1.4910    -0.1890 C.3   1 <1>   0.1100 
 16 N        1.9550    -4.1680     1.1390 N.pl3 1 <1>   0.0480 
 17 C        0.7370    -4.3600    -1.0600 C.ar  1 <1>  -0.1500 
 18 C        2.3800    -3.0950     1.8670 C.2   1 <1>  -0.3020 
 19 C        6.3300    -0.1200    -0.1500 C.3   1 <1>   0.2900 
 20 C        2.0740    -5.5820     1.5280 C.3   1 <1>   0.0160 
 21 C        7.5630     0.7810    -0.0900 C.2   1 <1>   0.2980 
 22 O        7.5750     1.8490     0.6440 O.3   1 <1>  -0.2800 
 23 N        8.6800     0.5960    -0.6880 N.2   1 <1>  -0.3380 
 24 C        8.7580     2.3360     0.4560 C.2   1 <1>   0.2980 
 25 N        9.4610     1.6170    -0.3310 N.2   1 <1>  -0.3380 
 26 C        9.1690     3.6250     1.1440 C.3   1 <1>   0.0200 
 27 C        8.3210     4.8160     0.6780 C.3   1 <1>  -0.2400 
 28 H        3.5600     0.4130    -3.0990 H     1 <1>   0.0800 
 29 H        2.7380    -1.0740    -2.7760 H     1 <1>   0.0800 
 30 H        1.6780     2.3590    -0.6130 H     1 <1>   0.0800 
 31 H        1.9330     2.4810    -2.3270 H     1 <1>   0.0800 
 32 H       -0.1760    -1.6720    -2.8820 H     1 <1>   0.1500 
 33 H        4.9060    -1.3580    -1.9480 H     1 <1>   0.0800 
 34 H        3.9060    -1.1780    -0.5420 H     1 <1>   0.0800 
 35 H        3.7110     3.4010    -0.7330 H     1 <1>   0.0800 
 36 H        4.2840     2.4900    -2.0800 H     1 <1>   0.0800 
 37 H        2.2460    -0.9340     1.5290 H     1 <1>   0.1500 
 38 H       -0.2940    -4.1180    -2.9100 H     1 <1>   0.1500 
 39 H        3.8040     1.0580     0.5310 H     1 <1>   0.0800 
 40 H        5.1870     2.0970     0.3480 H     1 <1>   0.0800 
 41 H        0.6900    -5.4350    -1.0660 H     1 <1>   0.1500 
 42 H        2.8800    -3.2080     2.8130 H     1 <1>   0.1500 
 43 H        6.6490    -1.0420    -0.6040 H     1 <1>   0.0800 
 44 H        6.0050    -0.3460     0.8500 H     1 <1>   0.0800 
 45 H        2.6220    -6.1130     0.7710 H     1 <1>   0.0800 
 46 H        1.0910    -6.0050     1.6280 H     1 <1>   0.0800 
 47 H        2.5930    -5.6570     2.4660 H     1 <1>   0.0800 
 48 H       10.2050     3.8160     0.9280 H     1 <1>   0.0800 
 49 H        9.0660     3.4970     2.2060 H     1 <1>   0.0800 
 50 H        8.4240     4.9480    -0.3850 H     1 <1>   0.0800 
 51 H        8.6430     5.7160     1.1720 H     1 <1>   0.0800 
 52 H        7.2830     4.6480     0.9060 H     1 <1>   0.0800 
@<TRIPOS>BOND
  1   1   2  2   
  2   2   3  am  
  3   2   4  1   
  4   3   5  1   
  5   3   6  1   
  6   4   7  ar  
  7   4   8  ar  
  8   5   9  1   
  9   5  28  1   
 10   5  29  1   
 11   6  10  1   
 12   6  30  1   
 13   6  31  1   
 14   7  11  ar  
 15   7  12  1   
 16   8  13  ar  
 17   8  32  1   
 18   9  14  1   
 19   9  33  1   
 20   9  34  1   
 21  10  15  1   
 22  10  35  1   
 23  10  36  1   
 24  11  16  1   
 25  11  17  ar  
 26  12  18  2   
 27  12  37  1   
 28  13  17  ar  
 29  13  38  1   
 30  14  15  1   
 31  14  19  1   
 32  15  39  1   
 33  15  40  1   
 34  16  18  1   
 35  16  20  1   
 36  17  41  1   
 37  18  42  1   
 38  19  21  1   
 39  19  43  1   
 40  19  44  1   
 41  20  45  1   
 42  20  46  1   
 43  20  47  1   
 44  21  22  1   
 45  21  23  2   
 46  22  24  1   
 47  23  25  1   
 48  24  25  2   
 49  24  26  1   
 50  26  27  1   
 51  26  48  1   
 52  26  49  1   
 53  27  50  1   
 54  27  51  1   
 55  27  52  1   
@<TRIPOS>SUBSTRUCTURE
  1 ****   9 GROUP 4 **** **** 0

# MOE 2024.06 (io_trps.svl 2023.06)
