@<TRIPOS>MOLECULE
NONAME
56 58 1 0 0 
SMALL
USER_CHARGES


@<TRIPOS>ATOM
  1 O       -1.0720     0.9970    -2.1390 O.2   1 <1>  -0.5700 
  2 C       -1.4370     1.5490    -1.1180 C.2   1 <1>   0.5440 
  3 N       -2.5310     1.0380    -0.4440 N.am  1 <1>  -0.6600 
  4 C       -0.7260     2.7270    -0.6580 C.ar  1 <1>   0.0860 
  5 C       -3.0770    -0.2990    -0.8280 C.3   1 <1>   0.1400 
  6 C       -3.2890     1.8170     0.5810 C.3   1 <1>   0.1400 
  7 C       -0.5020     3.8040    -1.5130 C.ar  1 <1>  -0.1500 
  8 C       -0.2440     2.8300     0.6470 C.ar  1 <1>  -0.1500 
  9 C       -4.0520    -0.1760    -2.0080 C.3   1 <1>   0.1400 
 10 C       -4.8110     1.8150     0.3740 C.3   1 <1>  -0.1600 
 11 C        0.1530     4.9430    -1.0830 C.ar  1 <1>  -0.1500 
 12 C        0.4100     3.9680     1.0830 C.ar  1 <1>  -0.1500 
 13 N       -5.3520     0.4310    -1.5900 N.am  1 <1>  -0.6600 
 14 C       -5.2610     1.8300    -1.0910 C.3   1 <1>   0.1400 
 15 C        0.6120     5.0340     0.2220 C.ar  1 <1>  -0.1430 
 16 C       -6.5610    -0.2220    -1.6190 C.2   1 <1>   0.6300 
 17 C        1.3260     6.2830     0.7080 C.3   1 <1>   0.2630 
 18 O       -7.5950     0.3430    -1.3450 O.2   1 <1>  -0.5700 
 19 C       -6.6420    -1.7000    -2.0030 C.3   1 <1>  -0.1000 
 20 O        0.4520     6.9690     1.5250 O.3   1 <1>  -0.6800 
 21 C       -7.4280    -2.7070    -1.2100 C.3   1 <1>  -0.1950 
 22 C       -5.9380    -2.7710    -1.2030 C.3   1 <1>  -0.2000 
 23 C       -8.1860    -2.3410     0.0720 C.3   1 <1>  -0.0650 
 24 C       -8.3920    -3.5760     0.9550 C.3   1 <1>  -0.1600 
 25 C       -9.1410    -3.2190     2.2450 C.3   1 <1>  -0.1600 
 26 C       -9.3370    -4.4540     3.1280 C.3   1 <1>  -0.2400 
 27 H       -2.2600    -0.9350    -1.1230 H     1 <1>   0.0800 
 28 H       -3.5650    -0.7620     0.0110 H     1 <1>   0.0800 
 29 H       -3.0620     1.4270     1.5580 H     1 <1>   0.0800 
 30 H       -2.9640     2.8420     0.5570 H     1 <1>   0.0800 
 31 H       -0.8490     3.7360    -2.5300 H     1 <1>   0.1500 
 32 H       -0.3850     2.0050     1.3220 H     1 <1>   0.1500 
 33 H       -4.2080    -1.1510    -2.4290 H     1 <1>   0.0800 
 34 H       -3.6040     0.4290    -2.7780 H     1 <1>   0.0800 
 35 H       -5.2510     0.9720     0.8770 H     1 <1>   0.0800 
 36 H       -5.2020     2.6930     0.8550 H     1 <1>   0.0800 
 37 H        0.3060     5.7570    -1.7710 H     1 <1>   0.1500 
 38 H        0.7650     4.0260     2.0990 H     1 <1>   0.1500 
 39 H       -4.5780     2.3990    -1.6990 H     1 <1>   0.0800 
 40 H       -6.2270     2.3020    -1.1600 H     1 <1>   0.0800 
 41 H        1.5990     6.9240    -0.1120 H     1 <1>   0.0800 
 42 H        2.2040     6.0380     1.2800 H     1 <1>   0.0800 
 43 H       -6.6740    -1.8110    -3.0710 H     1 <1>   0.1000 
 44 H       -0.4460     6.9090     1.1450 H     1 <1>   0.4000 
 45 H       -7.9540    -3.4490    -1.7860 H     1 <1>   0.1000 
 46 H       -5.4580    -3.5810    -1.7240 H     1 <1>   0.1000 
 47 H       -5.4200    -2.4930    -0.3020 H     1 <1>   0.1000 
 48 H       -7.6400    -1.5940     0.6220 H     1 <1>   0.0800 
 49 H       -9.1400    -1.9190    -0.1960 H     1 <1>   0.0800 
 50 H       -8.9510    -4.3150     0.4080 H     1 <1>   0.0800 
 51 H       -7.4320    -3.9980     1.2030 H     1 <1>   0.0800 
 52 H       -8.5850    -2.4770     2.7930 H     1 <1>   0.0800 
 53 H      -10.1030    -2.8010     2.0000 H     1 <1>   0.0800 
 54 H       -8.3860    -4.8750     3.4020 H     1 <1>   0.0800 
 55 H       -9.9100    -5.2000     2.6060 H     1 <1>   0.0800 
 56 H       -9.8640    -4.1830     4.0260 H     1 <1>   0.0800 
@<TRIPOS>BOND
  1   1   2  2   
  2   2   3  am  
  3   2   4  1   
  4   3   5  1   
  5   3   6  1   
  6   4   7  ar  
  7   4   8  ar  
  8   5   9  1   
  9   5  27  1   
 10   5  28  1   
 11   6  10  1   
 12   6  29  1   
 13   6  30  1   
 14   7  11  ar  
 15   7  31  1   
 16   8  12  ar  
 17   8  32  1   
 18   9  13  1   
 19   9  33  1   
 20   9  34  1   
 21  10  14  1   
 22  10  35  1   
 23  10  36  1   
 24  11  15  ar  
 25  11  37  1   
 26  12  15  ar  
 27  12  38  1   
 28  13  14  1   
 29  13  16  am  
 30  14  39  1   
 31  14  40  1   
 32  15  17  1   
 33  16  18  2   
 34  16  19  1   
 35  17  20  1   
 36  17  41  1   
 37  17  42  1   
 38  19  21  1   
 39  19  22  1   
 40  19  43  1   
 41  20  44  1   
 42  21  22  1   
 43  21  23  1   
 44  21  45  1   
 45  22  46  1   
 46  22  47  1   
 47  23  24  1   
 48  23  48  1   
 49  23  49  1   
 50  24  25  1   
 51  24  50  1   
 52  24  51  1   
 53  25  26  1   
 54  25  52  1   
 55  25  53  1   
 56  26  54  1   
 57  26  55  1   
 58  26  56  1   
@<TRIPOS>SUBSTRUCTURE
  1 ****   3 GROUP 4 **** **** 0

# MOE 2024.06 (io_trps.svl 2023.06)
