@<TRIPOS>MOLECULE
NONAME
57 60 1 0 0 
SMALL
USER_CHARGES


@<TRIPOS>ATOM
  1 O       -3.4430     2.3280    -1.3380 O.2   1 <1>  -0.5700 
  2 C       -3.0490     1.3750    -0.6910 C.2   1 <1>   0.5440 
  3 N       -3.6180     0.1380    -0.9320 N.am  1 <1>  -0.6600 
  4 C       -1.9960     1.5910     0.2820 C.ar  1 <1>   0.0860 
  5 C       -3.1130    -1.1320    -0.2900 C.3   1 <1>   0.3640 
  6 C       -4.8140     0.0460    -1.8250 C.3   1 <1>   0.1400 
  7 C       -0.7460     2.0500    -0.1330 C.ar  1 <1>  -0.1500 
  8 C       -2.1820     1.3640     1.6470 C.ar  1 <1>  -0.1500 
  9 C       -1.6120    -1.2800    -0.5630 C.ar  1 <1>  -0.1430 
 10 C       -3.8220    -2.4580    -0.7220 C.3   1 <1>   0.2000 
 11 C       -4.9820    -1.3450    -2.4300 C.3   1 <1>   0.1200 
 12 C        0.2870     2.2680     0.7610 C.ar  1 <1>  -0.1440 
 13 C       -1.1590     1.5730     2.5520 C.ar  1 <1>  -0.1500 
 14 C       -0.7560    -1.6310     0.4700 C.ar  1 <1>  -0.1500 
 15 C       -1.0790    -1.0640    -1.8280 C.ar  1 <1>  -0.1500 
 16 O       -5.0360    -2.2740    -1.4000 O.3   1 <1>  -0.5600 
 17 C       -4.1490    -3.3740     0.4700 C.3   1 <1>   0.1200 
 18 C        0.0740     2.0300     2.1160 C.ar  1 <1>   0.0830 
 19 C        1.6310     2.7680     0.2590 C.3   1 <1>  -0.0170 
 20 C        0.6020    -1.7690     0.2490 C.ar  1 <1>   0.0830 
 21 C        0.2810    -1.1910    -2.0570 C.ar  1 <1>  -0.1500 
 22 O       -3.0290    -3.6210     1.2570 O.3   1 <1>  -0.6800 
 23 O        1.0450     2.2300     3.0340 O.3   1 <1>  -0.3630 
 24 C        2.7130     2.6010     1.3290 C.3   1 <1>  -0.1600 
 25 O        1.3690    -2.1520     1.2970 O.3   1 <1>  -0.3630 
 26 C        1.1400    -1.5460    -1.0210 C.ar  1 <1>   0.0830 
 27 C        2.1700     3.0170     2.7000 C.3   1 <1>   0.1200 
 28 C        2.1380    -1.1380     1.8970 C.3   1 <1>   0.0400 
 29 O        2.4860    -1.6880    -1.1940 O.3   1 <1>  -0.3630 
 30 C        3.0710    -1.6490    -2.4760 C.3   1 <1>   0.0400 
 31 H       -3.2520    -1.0260     0.7720 H     1 <1>   0.0800 
 32 H       -5.6930     0.2940    -1.2570 H     1 <1>   0.0800 
 33 H       -4.7290     0.7590    -2.6270 H     1 <1>   0.0800 
 34 H       -0.5960     2.2340    -1.1820 H     1 <1>   0.1500 
 35 H       -3.1410     1.0240     1.9950 H     1 <1>   0.1500 
 36 H       -3.1790    -2.9980    -1.3940 H     1 <1>   0.0800 
 37 H       -4.1690    -1.5880    -3.0920 H     1 <1>   0.0800 
 38 H       -5.9080    -1.4020    -2.9740 H     1 <1>   0.0800 
 39 H       -1.3070     1.3920     3.6010 H     1 <1>   0.1500 
 40 H       -1.1290    -1.8000     1.4640 H     1 <1>   0.1500 
 41 H       -1.7260    -0.7840    -2.6420 H     1 <1>   0.1500 
 42 H       -4.5280    -4.3190     0.1210 H     1 <1>   0.0800 
 43 H       -4.8860    -2.9050     1.0980 H     1 <1>   0.0800 
 44 H        1.9150     2.2310    -0.6300 H     1 <1>   0.0800 
 45 H        1.5320     3.8090     0.0080 H     1 <1>   0.0800 
 46 H        0.6490    -1.0070    -3.0470 H     1 <1>   0.1500 
 47 H       -2.3400    -4.1060     0.7580 H     1 <1>   0.4000 
 48 H        3.5690     3.2010     1.0770 H     1 <1>   0.0800 
 49 H        3.0290     1.5760     1.3760 H     1 <1>   0.0800 
 50 H        1.8600     4.0470     2.6930 H     1 <1>   0.0800 
 51 H        2.9100     2.8730     3.4670 H     1 <1>   0.0800 
 52 H        2.6410    -1.5560     2.7490 H     1 <1>   0.0800 
 53 H        1.4830    -0.3430     2.2070 H     1 <1>   0.0800 
 54 H        2.8570    -0.7780     1.1830 H     1 <1>   0.0800 
 55 H        4.1210    -1.8520    -2.3690 H     1 <1>   0.0800 
 56 H        2.9290    -0.6690    -2.8950 H     1 <1>   0.0800 
 57 H        2.6140    -2.4040    -3.0910 H     1 <1>   0.0800 
@<TRIPOS>BOND
  1   1   2  2   
  2   2   3  am  
  3   2   4  1   
  4   3   5  1   
  5   3   6  1   
  6   4   7  ar  
  7   4   8  ar  
  8   5   9  1   
  9   5  10  1   
 10   5  31  1   
 11   6  11  1   
 12   6  32  1   
 13   6  33  1   
 14   7  12  ar  
 15   7  34  1   
 16   8  13  ar  
 17   8  35  1   
 18   9  14  ar  
 19   9  15  ar  
 20  10  16  1   
 21  10  17  1   
 22  10  36  1   
 23  11  16  1   
 24  11  37  1   
 25  11  38  1   
 26  12  18  ar  
 27  12  19  1   
 28  13  18  ar  
 29  13  39  1   
 30  14  20  ar  
 31  14  40  1   
 32  15  21  ar  
 33  15  41  1   
 34  17  22  1   
 35  17  42  1   
 36  17  43  1   
 37  18  23  1   
 38  19  24  1   
 39  19  44  1   
 40  19  45  1   
 41  20  25  1   
 42  20  26  ar  
 43  21  26  ar  
 44  21  46  1   
 45  22  47  1   
 46  23  27  1   
 47  24  27  1   
 48  24  48  1   
 49  24  49  1   
 50  25  28  1   
 51  26  29  1   
 52  27  50  1   
 53  27  51  1   
 54  28  52  1   
 55  28  53  1   
 56  28  54  1   
 57  29  30  1   
 58  30  55  1   
 59  30  56  1   
 60  30  57  1   
@<TRIPOS>SUBSTRUCTURE
  1 ****   9 GROUP 4 **** **** 0

# MOE 2024.06 (io_trps.svl 2023.06)
