@<TRIPOS>MOLECULE
NONAME
53 56 1 0 0 
SMALL
USER_CHARGES


@<TRIPOS>ATOM
  1 F       -0.1990    -0.6180     0.4400 F     1 <1>  -0.1900 
  2 C       -0.7970    -1.7720     0.2820 C.ar  1 <1>   0.1900 
  3 C       -0.0840    -2.9750     0.2150 C.ar  1 <1>   0.0820 
  4 C       -2.1740    -1.7420     0.1820 C.ar  1 <1>  -0.1500 
  5 O        1.2680    -3.1330     0.3010 O.3   1 <1>  -0.3630 
  6 C       -0.8110    -4.1420     0.0430 C.ar  1 <1>  -0.1500 
  7 C       -2.8660    -2.9260     0.0090 C.ar  1 <1>  -0.1500 
  8 C        2.1540    -2.0620     0.5380 C.3   1 <1>   0.0400 
  9 C       -2.2040    -4.1530    -0.0610 C.ar  1 <1>   0.0530 
 10 C       -2.9200    -5.3950    -0.2380 C.2   1 <1>   0.0870 
 11 O       -2.3170    -6.4370    -0.7620 O.3   1 <1>  -0.0190 
 12 C       -4.1890    -5.7840     0.0410 C.2   1 <1>  -0.2330 
 13 N       -3.0970    -7.4830    -0.8540 N.2   1 <1>  -0.4100 
 14 C       -4.2350    -7.1110    -0.3840 C.2   1 <1>   0.3720 
 15 C       -5.2660    -5.0780     0.6440 C.2   1 <1>   1.0330 
 16 N       -5.3260    -7.9830    -0.3270 N.pl3 1 <1>  -0.8210 
 17 O       -5.9670    -4.3090    -0.0360 O.co2 1 <1>  -0.9000 
 18 O       -5.5520    -5.2560     1.8380 O.co2 1 <1>  -0.9000 
 19 C       -5.5130    -8.6000     1.0310 C.3   1 <1>   0.2700 
 20 C       -6.6250    -7.4320    -0.7990 C.3   1 <1>   0.2090 
 21 C       -6.7460    -9.5170     1.1510 C.2   1 <1>   0.5690 
 22 C       -7.6350    -8.5720    -0.9950 C.3   1 <1>   0.1400 
 23 O       -6.7950   -10.2740     2.0970 O.2   1 <1>  -0.5700 
 24 N       -7.7570    -9.4650     0.2100 N.am  1 <1>  -0.6600 
 25 C       -8.9690   -10.3240     0.3330 C.3   1 <1>   0.2200 
 26 C       -9.2270   -11.1300    -0.9490 C.3   1 <1>  -0.1600 
 27 C      -10.1890    -9.4760     0.7160 C.3   1 <1>  -0.1600 
 28 C      -10.4770   -12.0100    -0.7990 C.3   1 <1>  -0.1600 
 29 C      -11.4440   -10.3510     0.8600 C.3   1 <1>  -0.1600 
 30 C      -11.7020   -11.1690    -0.4140 C.3   1 <1>  -0.1600 
 31 H       -2.7010    -0.8060     0.2360 H     1 <1>   0.1500 
 32 H       -0.2750    -5.0730    -0.0070 H     1 <1>   0.1500 
 33 H       -3.9390    -2.8920    -0.0760 H     1 <1>   0.1500 
 34 H        3.1520    -2.4590     0.5940 H     1 <1>   0.0800 
 35 H        1.8950    -1.5940     1.4720 H     1 <1>   0.0800 
 36 H        2.0850    -1.3640    -0.2770 H     1 <1>   0.0800 
 37 H       -5.6040    -7.8210     1.7680 H     1 <1>   0.0800 
 38 H       -4.6390    -9.1780     1.2700 H     1 <1>   0.0800 
 39 H       -6.4810    -6.8990    -1.7230 H     1 <1>   0.0800 
 40 H       -7.0290    -6.7440    -0.0760 H     1 <1>   0.0800 
 41 H       -7.3180    -9.1630    -1.8350 H     1 <1>   0.0800 
 42 H       -8.5900    -8.1390    -1.2290 H     1 <1>   0.0800 
 43 H       -8.8120   -11.0350     1.1270 H     1 <1>   0.0800 
 44 H       -8.3730   -11.7520    -1.1530 H     1 <1>   0.0800 
 45 H       -9.3780   -10.4670    -1.7820 H     1 <1>   0.0800 
 46 H      -10.3720    -8.7300    -0.0350 H     1 <1>   0.0800 
 47 H       -9.9920    -8.9780     1.6490 H     1 <1>   0.0800 
 48 H      -10.3010   -12.7520    -0.0380 H     1 <1>   0.0800 
 49 H      -10.6690   -12.5270    -1.7240 H     1 <1>   0.0800 
 50 H      -12.2960    -9.7280     1.0690 H     1 <1>   0.0800 
 51 H      -11.3140   -11.0210     1.6920 H     1 <1>   0.0800 
 52 H      -12.5490   -11.8160    -0.2600 H     1 <1>   0.0800 
 53 H      -11.9440   -10.5000    -1.2230 H     1 <1>   0.0800 
@<TRIPOS>BOND
  1   1   2  1   
  2   2   3  ar  
  3   2   4  ar  
  4   3   5  1   
  5   3   6  ar  
  6   4   7  ar  
  7   4  31  1   
  8   5   8  1   
  9   6   9  ar  
 10   6  32  1   
 11   7   9  ar  
 12   7  33  1   
 13   8  34  1   
 14   8  35  1   
 15   8  36  1   
 16   9  10  1   
 17  10  11  1   
 18  10  12  2   
 19  11  13  1   
 20  12  14  1   
 21  12  15  1   
 22  13  14  2   
 23  14  16  1   
 24  15  17  ar  
 25  15  18  ar  
 26  16  19  1   
 27  16  20  1   
 28  19  21  1   
 29  19  37  1   
 30  19  38  1   
 31  20  22  1   
 32  20  39  1   
 33  20  40  1   
 34  21  23  2   
 35  21  24  am  
 36  22  24  1   
 37  22  41  1   
 38  22  42  1   
 39  24  25  1   
 40  25  26  1   
 41  25  27  1   
 42  25  43  1   
 43  26  28  1   
 44  26  44  1   
 45  26  45  1   
 46  27  29  1   
 47  27  46  1   
 48  27  47  1   
 49  28  30  1   
 50  28  48  1   
 51  28  49  1   
 52  29  30  1   
 53  29  50  1   
 54  29  51  1   
 55  30  52  1   
 56  30  53  1   
@<TRIPOS>SUBSTRUCTURE
  1 ****  14 GROUP 4 **** **** 0

# MOE 2024.06 (io_trps.svl 2023.06)
