@<TRIPOS>MOLECULE
NONAME
50 53 1 0 0 
SMALL
USER_CHARGES


@<TRIPOS>ATOM
  1 O        0.1520    -3.0110     1.2370 O.3   1 <1>  -0.6800 
  2 C        0.1910    -2.2480     0.0800 C.3   1 <1>   0.2000 
  3 C        1.5130    -1.4620    -0.0830 C.3   1 <1>   0.0000 
  4 C        0.0870    -3.1570    -1.1330 C.3   1 <1>  -0.1600 
  5 C        2.6990    -2.2020     0.5820 C.3   1 <1>   0.2090 
  6 C        1.3800    -0.0540     0.5510 C.3   1 <1>  -0.1600 
  7 C        1.7130    -1.4100    -1.6240 C.3   1 <1>  -0.1600 
  8 C        0.6410    -2.2990    -2.2650 C.3   1 <1>  -0.1600 
  9 N        4.0280    -1.5000     0.4030 N.pl3 1 <1>  -0.8380 
 10 C        2.7290     0.5520     0.9890 C.3   1 <1>  -0.1600 
 11 C        5.2150    -2.1360     0.6040 C.ar  1 <1>   0.1000 
 12 C        3.9190    -0.0140     0.2110 C.3   1 <1>   0.2090 
 13 C        6.4600    -1.7250     0.0140 C.ar  1 <1>   0.0000 
 14 C        5.2670    -3.2270     1.4770 C.ar  1 <1>  -0.1500 
 15 C        7.6740    -2.2410     0.5170 C.ar  1 <1>   0.3610 
 16 C        6.5610    -0.8700    -1.0970 C.ar  1 <1>  -0.1500 
 17 C        6.4530    -3.7690     1.8820 C.ar  1 <1>   0.2110 
 18 N        7.6150    -3.2620     1.4380 N.ar  1 <1>  -0.1790 
 19 C        8.9230    -1.7720     0.0510 C.ar  1 <1>  -0.1440 
 20 C        7.7700    -0.4510    -1.5790 C.ar  1 <1>  -0.1500 
 21 C        8.9650    -0.8790    -1.0010 C.ar  1 <1>  -0.1440 
 22 C       10.2150    -2.2730     0.7120 C.3   1 <1>  -0.0970 
 23 C       10.2590    -0.3340    -1.5960 C.3   1 <1>  -0.0970 
 24 H       -0.6960    -3.4920     1.2890 H     1 <1>   0.4000 
 25 H       -0.6440    -1.5680     0.0930 H     1 <1>   0.0800 
 26 H        0.7140    -4.0230    -1.0040 H     1 <1>   0.0800 
 27 H       -0.9260    -3.4590    -1.3280 H     1 <1>   0.0800 
 28 H        2.7650    -3.1970     0.1760 H     1 <1>   0.0800 
 29 H        2.5030    -2.2850     1.6370 H     1 <1>   0.0800 
 30 H        0.8860     0.6110    -0.1360 H     1 <1>   0.0800 
 31 H        0.7580    -0.1170     1.4270 H     1 <1>   0.0800 
 32 H        1.6310    -0.4090    -2.0090 H     1 <1>   0.0800 
 33 H        2.6850    -1.7840    -1.8950 H     1 <1>   0.0800 
 34 H        1.0430    -2.9010    -3.0620 H     1 <1>   0.0800 
 35 H       -0.1460    -1.6790    -2.6600 H     1 <1>   0.0800 
 36 H        2.8900     0.3490     2.0330 H     1 <1>   0.0800 
 37 H        2.6970     1.6200     0.8720 H     1 <1>   0.0800 
 38 H        4.8210     0.4640     0.5530 H     1 <1>   0.0800 
 39 H        3.7900     0.2100    -0.8330 H     1 <1>   0.0800 
 40 H        4.3570    -3.6350     1.8760 H     1 <1>   0.1500 
 41 H        5.6660    -0.5470    -1.5940 H     1 <1>   0.1500 
 42 H        6.4720    -4.5980     2.5720 H     1 <1>   0.1500 
 43 H        8.5070    -3.6490     1.7470 H     1 <1>   0.4570 
 44 H        7.7960     0.2190    -2.4240 H     1 <1>   0.1500 
 45 H       11.0620    -1.6620     0.4590 H     1 <1>   0.0800 
 46 H       10.4330    -3.2770     0.3920 H     1 <1>   0.0800 
 47 H       10.1350    -2.2450     1.7840 H     1 <1>   0.0800 
 48 H       10.0700     0.2310    -2.4920 H     1 <1>   0.0800 
 49 H       10.9240    -1.1390    -1.8530 H     1 <1>   0.0800 
 50 H       10.7470     0.3160    -0.8910 H     1 <1>   0.0800 
@<TRIPOS>BOND
  1   1   2  1   
  2   1  24  1   
  3   2   3  1   
  4   2   4  1   
  5   2  25  1   
  6   3   5  1   
  7   3   6  1   
  8   3   7  1   
  9   4   8  1   
 10   4  26  1   
 11   4  27  1   
 12   5   9  1   
 13   5  28  1   
 14   5  29  1   
 15   6  10  1   
 16   6  30  1   
 17   6  31  1   
 18   7   8  1   
 19   7  32  1   
 20   7  33  1   
 21   8  34  1   
 22   8  35  1   
 23   9  11  1   
 24   9  12  1   
 25  10  12  1   
 26  10  36  1   
 27  10  37  1   
 28  11  13  ar  
 29  11  14  ar  
 30  12  38  1   
 31  12  39  1   
 32  13  15  ar  
 33  13  16  ar  
 34  14  17  ar  
 35  14  40  1   
 36  15  18  ar  
 37  15  19  ar  
 38  16  20  ar  
 39  16  41  1   
 40  17  18  ar  
 41  17  42  1   
 42  18  43  1   
 43  19  21  ar  
 44  19  22  1   
 45  20  21  ar  
 46  20  44  1   
 47  21  23  1   
 48  22  45  1   
 49  22  46  1   
 50  22  47  1   
 51  23  48  1   
 52  23  49  1   
 53  23  50  1   
@<TRIPOS>SUBSTRUCTURE
  1 ****  11 GROUP 4 **** **** 0

# MOE 2024.06 (io_trps.svl 2023.06)
