@<TRIPOS>MOLECULE
NONAME
38 39 1 0 0 
SMALL
USER_CHARGES


@<TRIPOS>ATOM
  1 F       -0.8750    -0.8490    -0.9620 F     1 <1>  -0.3400 
  2 C       -0.1210    -1.4640    -0.0610 C.3   1 <1>   1.0200 
  3 F        1.0820    -0.9140    -0.1310 F     1 <1>  -0.3400 
  4 F       -0.6200    -1.1410     1.1240 F     1 <1>  -0.3400 
  5 C       -0.0820    -2.9760    -0.2770 C.3   1 <1>  -0.1600 
  6 C       -1.4730    -3.6500    -0.1990 C.3   1 <1>  -0.0990 
  7 C       -1.4380    -5.1550    -0.4230 C.2   1 <1>   0.5690 
  8 O       -0.3710    -5.7060    -0.5560 O.2   1 <1>  -0.5700 
  9 N       -2.6100    -5.8560    -0.4670 N.am  1 <1>  -0.6600 
 10 C       -3.9750    -5.3170    -0.2430 C.3   1 <1>   0.1400 
 11 C       -2.6540    -7.3220    -0.6710 C.3   1 <1>   0.1400 
 12 C       -4.9000    -6.5330    -0.3260 C.3   1 <1>   0.2000 
 13 C       -4.0070    -7.7560    -0.1070 C.3   1 <1>  -0.0800 
 14 O       -5.8890    -6.4860     0.6430 O.3   1 <1>  -0.6800 
 15 C       -4.5760    -9.0250    -0.7610 C.3   1 <1>   0.0200 
 16 C       -3.7230   -10.2600    -0.5230 C.2   1 <1>  -0.0400 
 17 O       -4.0040   -11.3510    -1.1840 O.3   1 <1>  -0.0190 
 18 C       -2.6710   -10.5230     0.2690 C.2   1 <1>  -0.1500 
 19 N       -3.1960   -12.3250    -0.8840 N.2   1 <1>  -0.4100 
 20 C       -2.3810   -11.8560    -0.0110 C.2   1 <1>   0.1080 
 21 C       -1.2600   -12.6500     0.6220 C.3   1 <1>  -0.0590 
 22 H        0.3540    -3.1650    -1.2410 H     1 <1>   0.0800 
 23 H        0.5650    -3.4030     0.4670 H     1 <1>   0.0800 
 24 H       -2.1180    -3.2170    -0.9420 H     1 <1>   0.0800 
 25 H       -1.9030    -3.4680     0.7690 H     1 <1>   0.0800 
 26 H       -4.0260    -4.8600     0.7300 H     1 <1>   0.0800 
 27 H       -4.2250    -4.6010    -1.0060 H     1 <1>   0.0800 
 28 H       -2.5900    -7.5290    -1.7260 H     1 <1>   0.0800 
 29 H       -1.8340    -7.8040    -0.1650 H     1 <1>   0.0800 
 30 H       -5.3750    -6.5610    -1.2920 H     1 <1>   0.0800 
 31 H       -3.8810    -7.9210     0.9490 H     1 <1>   0.0800 
 32 H       -5.4990    -6.5280     1.5380 H     1 <1>   0.4000 
 33 H       -4.6680    -8.8730    -1.8220 H     1 <1>   0.0800 
 34 H       -5.5620    -9.2150    -0.3730 H     1 <1>   0.0800 
 35 H       -2.1450    -9.8980     0.9650 H     1 <1>   0.1500 
 36 H       -0.3150   -12.1930     0.3940 H     1 <1>   0.0800 
 37 H       -1.2620   -13.6550     0.2400 H     1 <1>   0.0800 
 38 H       -1.3920   -12.6830     1.6880 H     1 <1>   0.0800 
@<TRIPOS>BOND
  1   1   2  1   
  2   2   3  1   
  3   2   4  1   
  4   2   5  1   
  5   5   6  1   
  6   5  22  1   
  7   5  23  1   
  8   6   7  1   
  9   6  24  1   
 10   6  25  1   
 11   7   8  2   
 12   7   9  am  
 13   9  10  1   
 14   9  11  1   
 15  10  12  1   
 16  10  26  1   
 17  10  27  1   
 18  11  13  1   
 19  11  28  1   
 20  11  29  1   
 21  12  13  1   
 22  12  14  1   
 23  12  30  1   
 24  13  15  1   
 25  13  31  1   
 26  14  32  1   
 27  15  16  1   
 28  15  33  1   
 29  15  34  1   
 30  16  17  1   
 31  16  18  2   
 32  17  19  1   
 33  18  20  1   
 34  18  35  1   
 35  19  20  2   
 36  20  21  1   
 37  21  36  1   
 38  21  37  1   
 39  21  38  1   
@<TRIPOS>SUBSTRUCTURE
  1 ****   9 GROUP 4 **** **** 0

# MOE 2024.06 (io_trps.svl 2023.06)
