@<TRIPOS>MOLECULE
NONAME
42 45 1 0 0 
SMALL
USER_CHARGES


@<TRIPOS>ATOM
  1 O        1.0000     0.1070     0.1090 O.2   1 <1>  -0.5700 
  2 C        1.2260     1.2880     0.1060 C.2   1 <1>   0.4230 
  3 C        2.2530     1.9880    -0.6000 C.ar  1 <1>   0.0860 
  4 C        0.4100     2.2770     0.9090 C.3   1 <1>  -0.0990 
  5 C        2.1950     3.3430    -0.3430 C.ar  1 <1>  -0.1440 
  6 C        3.2300     1.4880    -1.4510 C.ar  1 <1>  -0.1500 
  7 C        1.0450     3.6500     0.6060 C.3   1 <1>  -0.0160 
  8 C        3.0960     4.2480    -0.9070 C.ar  1 <1>   0.0860 
  9 C        4.1320     2.3580    -2.0350 C.ar  1 <1>  -0.1500 
 10 C        3.0510     5.6710    -0.6260 C.2   1 <1>   0.5440 
 11 C        4.0620     3.7160    -1.7680 C.ar  1 <1>  -0.1500 
 12 O        1.9890     6.2610    -0.6000 O.2   1 <1>  -0.5700 
 13 N        4.2270     6.3410    -0.3740 N.am  1 <1>  -0.4940 
 14 C        4.4560     7.7300    -0.1880 C.2   1 <1>  -0.0880 
 15 N        5.6300     8.2950     0.2160 N.pl3 1 <1>   0.3140 
 16 C        3.5930     8.7560    -0.3790 C.2   1 <1>  -0.1500 
 17 N        5.5310     9.6480     0.2720 N.2   1 <1>  -0.7070 
 18 C        6.8920     7.5760     0.5600 C.3   1 <1>   0.1760 
 19 C        4.3100     9.9050    -0.0810 C.2   1 <1>   0.1390 
 20 C        7.4930     7.9910     1.9040 C.3   1 <1>  -0.1600 
 21 C        8.0180     7.8360    -0.4420 C.3   1 <1>  -0.1600 
 22 C        8.9560     7.5530     1.8170 C.3   1 <1>  -0.1600 
 23 C        9.3190     7.5690     0.3260 C.3   1 <1>  -0.1600 
 24 H        0.4760     2.0380     1.9550 H     1 <1>   0.0800 
 25 H       -0.6160     2.2440     0.5920 H     1 <1>   0.0800 
 26 H        3.2680     0.4290    -1.6460 H     1 <1>   0.1500 
 27 H        1.4070     4.1170     1.5050 H     1 <1>   0.0800 
 28 H        0.3300     4.3010     0.1300 H     1 <1>   0.0800 
 29 H        4.8870     1.9760    -2.7020 H     1 <1>   0.1500 
 30 H        4.7630     4.3760    -2.2490 H     1 <1>   0.1500 
 31 H        5.0440     5.7370    -0.3110 H     1 <1>   0.3700 
 32 H        2.5670     8.7160    -0.6950 H     1 <1>   0.1500 
 33 H        6.6960     6.5220     0.5940 H     1 <1>   0.0800 
 34 H        3.9070    10.9030    -0.1350 H     1 <1>   0.1500 
 35 H        6.9830     7.5330     2.7330 H     1 <1>   0.0800 
 36 H        7.4560     9.0630     2.0070 H     1 <1>   0.0800 
 37 H        7.9980     8.8700    -0.7430 H     1 <1>   0.0800 
 38 H        7.9320     7.2090    -1.3110 H     1 <1>   0.0800 
 39 H        9.0570     6.5520     2.2000 H     1 <1>   0.0800 
 40 H        9.5920     8.2080     2.3880 H     1 <1>   0.0800 
 41 H       10.0380     8.3430     0.1170 H     1 <1>   0.0800 
 42 H        9.7400     6.6200     0.0410 H     1 <1>   0.0800 
@<TRIPOS>BOND
  1   1   2  2   
  2   2   3  1   
  3   2   4  1   
  4   3   5  ar  
  5   3   6  ar  
  6   4   7  1   
  7   4  24  1   
  8   4  25  1   
  9   5   7  1   
 10   5   8  ar  
 11   6   9  ar  
 12   6  26  1   
 13   7  27  1   
 14   7  28  1   
 15   8  10  1   
 16   8  11  ar  
 17   9  11  ar  
 18   9  29  1   
 19  10  12  2   
 20  10  13  am  
 21  11  30  1   
 22  13  14  1   
 23  13  31  1   
 24  14  15  1   
 25  14  16  2   
 26  15  17  1   
 27  15  18  1   
 28  16  19  1   
 29  16  32  1   
 30  17  19  2   
 31  18  20  1   
 32  18  21  1   
 33  18  33  1   
 34  19  34  1   
 35  20  22  1   
 36  20  35  1   
 37  20  36  1   
 38  21  23  1   
 39  21  37  1   
 40  21  38  1   
 41  22  23  1   
 42  22  39  1   
 43  22  40  1   
 44  23  41  1   
 45  23  42  1   
@<TRIPOS>SUBSTRUCTURE
  1 ****  13 GROUP 4 **** **** 0

# MOE 2024.06 (io_trps.svl 2023.06)
