@<TRIPOS>MOLECULE
NONAME
42 43 1 0 0 
SMALL
USER_CHARGES


@<TRIPOS>ATOM
  1 S        0.2220     0.4120    -1.2540 S.o2  1 <1>   1.3330 
  2 O        0.4700    -0.8450    -1.9250 O.2   1 <1>  -0.6500 
  3 O       -0.6690     1.3780    -1.8550 O.2   1 <1>  -0.6500 
  4 N       -0.3930     0.0600     0.2910 N.am  1 <1>  -0.8490 
  5 C        1.8060     1.1870    -0.9210 C.3   1 <1>  -0.0550 
  6 C       -1.0130     1.2180     0.9450 C.3   1 <1>   0.1160 
  7 C       -1.3410    -1.0580     0.2640 C.3   1 <1>   0.1160 
  8 C        2.8710     0.2280    -0.3460 C.3   1 <1>  -0.0800 
  9 C        4.2650     0.8220    -0.2140 C.3   1 <1>   0.2200 
 10 C        2.5910    -0.2920     1.0690 C.3   1 <1>   0.1200 
 11 N        4.2040     2.1910     0.3480 N.am  1 <1>  -0.7300 
 12 C        4.8630    -0.1080     0.8310 C.3   1 <1>   0.1200 
 13 O        3.8250    -0.3550     1.7280 O.3   1 <1>  -0.5600 
 14 C        4.3580     3.3510    -0.3490 C.2   1 <1>   0.7160 
 15 O        4.4520     3.2730    -1.5600 O.2   1 <1>  -0.5700 
 16 C        4.3820     4.6170     0.3590 C.2   1 <1>  -0.0860 
 17 C        4.7620     5.8770    -0.0540 C.2   1 <1>  -0.3320 
 18 C        3.9840     4.7860     1.7040 C.2   1 <1>  -0.1500 
 19 N        4.6100     6.7650     0.9560 N.pl3 1 <1>   0.0330 
 20 C        5.2900     6.3260    -1.4080 C.3   1 <1>  -0.0600 
 21 C        4.1340     6.0920     2.0320 C.2   1 <1>  -0.3020 
 22 H        2.1840     1.5860    -1.8430 H     1 <1>   0.0800 
 23 H        1.6620     2.0150    -0.2550 H     1 <1>   0.0800 
 24 H       -1.3050     0.9640     1.9490 H     1 <1>   0.0800 
 25 H       -1.8850     1.5390     0.3970 H     1 <1>   0.0800 
 26 H       -0.3170     2.0380     0.9910 H     1 <1>   0.0800 
 27 H       -1.7050    -1.2640     1.2560 H     1 <1>   0.0800 
 28 H       -0.8560    -1.9450    -0.1060 H     1 <1>   0.0800 
 29 H       -2.1740    -0.8260    -0.3790 H     1 <1>   0.0800 
 30 H        2.9410    -0.6270    -0.9970 H     1 <1>   0.0800 
 31 H        4.8160     0.8100    -1.1400 H     1 <1>   0.0800 
 32 H        2.1480    -1.2730     1.0550 H     1 <1>   0.0800 
 33 H        1.9630     0.3820     1.6260 H     1 <1>   0.0800 
 34 H        4.1430     2.2300     1.3660 H     1 <1>   0.3700 
 35 H        5.7000     0.3260     1.3500 H     1 <1>   0.0800 
 36 H        5.1500    -1.0470     0.3890 H     1 <1>   0.0800 
 37 H        3.6200     4.0050     2.3480 H     1 <1>   0.1500 
 38 H        4.8190     7.7690     0.9170 H     1 <1>   0.2700 
 39 H        5.4710     5.4880    -2.0550 H     1 <1>   0.0800 
 40 H        6.2170     6.8580    -1.2860 H     1 <1>   0.0800 
 41 H        4.5760     6.9730    -1.8840 H     1 <1>   0.0800 
 42 H        3.9280     6.5790     2.9690 H     1 <1>   0.1500 
@<TRIPOS>BOND
  1   1   2  2   
  2   1   3  2   
  3   1   4  am  
  4   1   5  1   
  5   4   6  1   
  6   4   7  1   
  7   5   8  1   
  8   5  22  1   
  9   5  23  1   
 10   6  24  1   
 11   6  25  1   
 12   6  26  1   
 13   7  27  1   
 14   7  28  1   
 15   7  29  1   
 16   8   9  1   
 17   8  10  1   
 18   8  30  1   
 19   9  11  1   
 20   9  12  1   
 21   9  31  1   
 22  10  13  1   
 23  10  32  1   
 24  10  33  1   
 25  11  14  am  
 26  11  34  1   
 27  12  13  1   
 28  12  35  1   
 29  12  36  1   
 30  14  15  2   
 31  14  16  1   
 32  16  17  2   
 33  16  18  1   
 34  17  19  1   
 35  17  20  1   
 36  18  21  2   
 37  18  37  1   
 38  19  21  1   
 39  19  38  1   
 40  20  39  1   
 41  20  40  1   
 42  20  41  1   
 43  21  42  1   
@<TRIPOS>SUBSTRUCTURE
  1 ****  11 GROUP 4 **** **** 0

# MOE 2024.06 (io_trps.svl 2023.06)
