@<TRIPOS>MOLECULE
NONAME
49 52 1 0 0 
SMALL
USER_CHARGES


@<TRIPOS>ATOM
  1 O        0.2720     0.0530    -0.4490 O.3   1 <1>  -0.5600 
  2 C        1.5210    -0.5610    -0.6110 C.3   1 <1>   0.3440 
  3 C        0.1940     1.3750    -0.8940 C.3   1 <1>   0.2950 
  4 C        1.4610    -1.9910    -0.0950 C.ar  1 <1>  -0.1440 
  5 C        2.5960     0.2200     0.1810 C.3   1 <1>   0.3430 
  6 C       -1.2420     1.8510    -0.6720 C.3   1 <1>  -0.1950 
  7 C        1.1940     2.2560    -0.1110 C.3   1 <1>   0.3430 
  8 C        2.1990    -2.9820    -0.7270 C.ar  1 <1>  -0.1500 
  9 C        0.6940    -2.3250     1.0140 C.ar  1 <1>  -0.1500 
 10 N        2.5990     1.6990    -0.1190 N.4   1 <1>  -0.9590 
 11 C       -2.3190     1.5420    -1.6620 C.3   1 <1>  -0.2000 
 12 C       -1.8280     2.9530    -1.4990 C.3   1 <1>  -0.2000 
 13 C        2.1790    -4.2820    -0.2530 C.ar  1 <1>  -0.1500 
 14 C        0.6740    -3.6250     1.4890 C.ar  1 <1>  -0.1500 
 15 C        3.4880     2.4610     0.7940 C.3   1 <1>   0.5240 
 16 C        1.4180    -4.6040     0.8570 C.ar  1 <1>  -0.1500 
 17 C        3.5750     3.8640     0.2450 C.2   1 <1>  -0.1810 
 18 C        2.8960     4.9800     0.7310 C.2   1 <1>   0.1080 
 19 C        4.2880     4.3210    -0.8120 C.2   1 <1>  -0.3320 
 20 N        3.1390     6.0330     0.0260 N.2   1 <1>  -0.7070 
 21 C        1.9650     5.0550     1.9240 C.3   1 <1>  -0.0590 
 22 N        4.0090     5.6390    -0.9180 N.pl3 1 <1>   0.3000 
 23 C        5.2490     3.6150    -1.7560 C.3   1 <1>  -0.0600 
 24 H        1.7550    -0.5700    -1.6610 H     1 <1>   0.0800 
 25 H        0.4190     1.3950    -1.9470 H     1 <1>   0.0800 
 26 H        3.5630    -0.2050    -0.0330 H     1 <1>   0.0800 
 27 H        2.3990     0.0630     1.2290 H     1 <1>   0.0800 
 28 H       -1.5250     1.8190     0.3670 H     1 <1>   0.1000 
 29 H        0.8400     2.3320     0.9030 H     1 <1>   0.0800 
 30 H        1.1880     3.2490    -0.5320 H     1 <1>   0.0800 
 31 H        2.7950    -2.7610    -1.5960 H     1 <1>   0.1500 
 32 H        0.0990    -1.5800     1.5140 H     1 <1>   0.1500 
 33 H        2.9780     1.8660    -1.0590 H     1 <1>   0.4500 
 34 H       -2.0690     1.0020    -2.5590 H     1 <1>   0.1000 
 35 H       -3.2990     1.2870    -1.2940 H     1 <1>   0.1000 
 36 H       -2.4870     3.6670    -1.0330 H     1 <1>   0.1000 
 37 H       -1.2720     3.3840    -2.3150 H     1 <1>   0.1000 
 38 H        2.7520    -5.0480    -0.7470 H     1 <1>   0.1500 
 39 H        0.0750    -3.8770     2.3470 H     1 <1>   0.1500 
 40 H        3.0950     2.4670     1.7970 H     1 <1>   0.0800 
 41 H        4.4730     2.0240     0.8090 H     1 <1>   0.0800 
 42 H        1.4010    -5.6160     1.2250 H     1 <1>   0.1500 
 43 H        2.0960     4.2190     2.5840 H     1 <1>   0.0800 
 44 H        0.9460     5.0950     1.5880 H     1 <1>   0.0800 
 45 H        2.1720     5.9560     2.4740 H     1 <1>   0.0800 
 46 H        4.3940     6.2970    -1.6090 H     1 <1>   0.2700 
 47 H        5.3740     2.5830    -1.4850 H     1 <1>   0.0800 
 48 H        6.2150     4.0900    -1.7170 H     1 <1>   0.0800 
 49 H        4.8860     3.6670    -2.7680 H     1 <1>   0.0800 
@<TRIPOS>BOND
  1   1   2  1   
  2   1   3  1   
  3   2   4  1   
  4   2   5  1   
  5   2  24  1   
  6   3   6  1   
  7   3   7  1   
  8   3  25  1   
  9   4   8  ar  
 10   4   9  ar  
 11   5  10  1   
 12   5  26  1   
 13   5  27  1   
 14   6  11  1   
 15   6  12  1   
 16   6  28  1   
 17   7  10  1   
 18   7  29  1   
 19   7  30  1   
 20   8  13  ar  
 21   8  31  1   
 22   9  14  ar  
 23   9  32  1   
 24  10  15  1   
 25  10  33  1   
 26  11  12  1   
 27  11  34  1   
 28  11  35  1   
 29  12  36  1   
 30  12  37  1   
 31  13  16  ar  
 32  13  38  1   
 33  14  16  ar  
 34  14  39  1   
 35  15  17  1   
 36  15  40  1   
 37  15  41  1   
 38  16  42  1   
 39  17  18  1   
 40  17  19  2   
 41  18  20  2   
 42  18  21  1   
 43  19  22  1   
 44  19  23  1   
 45  20  22  1   
 46  21  43  1   
 47  21  44  1   
 48  21  45  1   
 49  22  46  1   
 50  23  47  1   
 51  23  48  1   
 52  23  49  1   
@<TRIPOS>SUBSTRUCTURE
  1 ****  10 GROUP 4 **** **** 0

# MOE 2024.06 (io_trps.svl 2023.06)
