@<TRIPOS>MOLECULE
NONAME
41 42 1 0 0 
SMALL
USER_CHARGES


@<TRIPOS>ATOM
  1 F        0.1830     2.0470     0.1250 F     1 <1>  -0.1900 
  2 C        1.4440     2.3490    -0.0310 C.ar  1 <1>   0.1900 
  3 C        2.3170     2.1240     1.0150 C.ar  1 <1>  -0.1500 
  4 C        1.8560     2.8840    -1.2360 C.ar  1 <1>  -0.1500 
  5 C        3.6530     2.4500     0.8440 C.ar  1 <1>  -0.1500 
  6 C        3.1940     3.2050    -1.3950 C.ar  1 <1>  -0.1500 
  7 C        4.0940     2.9900    -0.3580 C.ar  1 <1>  -0.1430 
  8 C        5.5600     3.3520    -0.5330 C.3   1 <1>  -0.0160 
  9 C        5.8250     4.7540     0.0280 C.3   1 <1>  -0.1600 
 10 C        7.2870     5.1850    -0.1760 C.3   1 <1>  -0.0990 
 11 C        7.5730     6.5420     0.4400 C.2   1 <1>   0.5690 
 12 O        8.2960     6.5930     1.4030 O.2   1 <1>  -0.5700 
 13 N        6.9820     7.6340    -0.1280 N.am  1 <1>  -0.4940 
 14 C        7.0050     8.9990     0.2440 C.2   1 <1>  -0.0880 
 15 N        8.0770     9.7460     0.6500 N.pl3 1 <1>   0.3140 
 16 C        5.9410     9.8380     0.2280 C.2   1 <1>  -0.1810 
 17 N        7.7130    11.0310     0.8800 N.2   1 <1>  -0.7070 
 18 C        9.5050     9.3700     0.7710 C.3   1 <1>   0.0960 
 19 C        6.4430    11.0690     0.6310 C.2   1 <1>   0.1390 
 20 C        4.4940     9.5570    -0.1330 C.3   1 <1>  -0.0590 
 21 C       10.1240     9.0170    -0.5890 C.3   1 <1>  -0.2400 
 22 H        1.9590     1.7060     1.9380 H     1 <1>   0.1500 
 23 H        1.1460     3.0420    -2.0260 H     1 <1>   0.1500 
 24 H        4.3460     2.2820     1.6500 H     1 <1>   0.1500 
 25 H        3.5300     3.6220    -2.3280 H     1 <1>   0.1500 
 26 H        5.8190     3.3170    -1.5770 H     1 <1>   0.0800 
 27 H        6.1720     2.6300    -0.0200 H     1 <1>   0.0800 
 28 H        5.5980     4.7600     1.0810 H     1 <1>   0.0800 
 29 H        5.1640     5.4540    -0.4530 H     1 <1>   0.0800 
 30 H        7.5210     5.2240    -1.2240 H     1 <1>   0.0800 
 31 H        7.9400     4.4630     0.2810 H     1 <1>   0.0800 
 32 H        6.3130     7.4190    -0.8650 H     1 <1>   0.3700 
 33 H        9.5990     8.5560     1.4610 H     1 <1>   0.0800 
 34 H       10.0300    10.2090     1.1890 H     1 <1>   0.0800 
 35 H        5.8530    11.9640     0.7280 H     1 <1>   0.1500 
 36 H        4.3260     8.5010    -0.2410 H     1 <1>   0.0800 
 37 H        4.2450    10.0490    -1.0550 H     1 <1>   0.0800 
 38 H        3.8490     9.9260     0.6440 H     1 <1>   0.0800 
 39 H        9.6450     8.1510    -1.0080 H     1 <1>   0.0800 
 40 H       11.1690     8.7990    -0.4630 H     1 <1>   0.0800 
 41 H       10.0240     9.8470    -1.2660 H     1 <1>   0.0800 
@<TRIPOS>BOND
  1   1   2  1   
  2   2   3  ar  
  3   2   4  ar  
  4   3   5  ar  
  5   3  22  1   
  6   4   6  ar  
  7   4  23  1   
  8   5   7  ar  
  9   5  24  1   
 10   6   7  ar  
 11   6  25  1   
 12   7   8  1   
 13   8   9  1   
 14   8  26  1   
 15   8  27  1   
 16   9  10  1   
 17   9  28  1   
 18   9  29  1   
 19  10  11  1   
 20  10  30  1   
 21  10  31  1   
 22  11  12  2   
 23  11  13  am  
 24  13  14  1   
 25  13  32  1   
 26  14  15  1   
 27  14  16  2   
 28  15  17  1   
 29  15  18  1   
 30  16  19  1   
 31  16  20  1   
 32  17  19  2   
 33  18  21  1   
 34  18  33  1   
 35  18  34  1   
 36  19  35  1   
 37  20  36  1   
 38  20  37  1   
 39  20  38  1   
 40  21  39  1   
 41  21  40  1   
 42  21  41  1   
@<TRIPOS>SUBSTRUCTURE
  1 ****   9 GROUP 4 **** **** 0

# MOE 2024.06 (io_trps.svl 2023.06)
