@<TRIPOS>MOLECULE
NONAME
48 50 1 0 0 
SMALL
USER_CHARGES


@<TRIPOS>ATOM
  1 O       -0.7070     0.1770    -1.5010 O.2   1 <1>  -0.5700 
  2 C       -1.4010     0.7570    -0.6840 C.2   1 <1>   0.7160 
  3 N       -2.5140     0.1110    -0.1890 N.am  1 <1>  -0.6600 
  4 C       -1.0490     2.0970    -0.2750 C.2   1 <1>  -0.0860 
  5 C       -3.0960    -1.0630    -0.9270 C.3   1 <1>   0.1400 
  6 C       -3.2590     0.5500     1.0330 C.3   1 <1>   0.1400 
  7 C        0.2280     2.5610     0.0650 C.2   1 <1>   0.1080 
  8 C       -1.8220     3.2110    -0.1310 C.2   1 <1>  -0.3020 
  9 C       -4.2390    -1.7170    -0.1360 C.3   1 <1>   0.2000 
 10 C       -4.7370     0.6550     0.6660 C.3   1 <1>  -0.1600 
 11 N        0.2400     3.8130     0.3950 N.2   1 <1>  -0.7070 
 12 C        1.4860     1.7200     0.0620 C.3   1 <1>  -0.0590 
 13 N       -1.0320     4.2150     0.2700 N.pl3 1 <1>   0.3140 
 14 O       -4.7830    -2.7750    -0.8470 O.3   1 <1>  -0.6800 
 15 C       -5.3570    -0.7300     0.2910 C.3   1 <1>  -0.1060 
 16 C       -1.4230     5.5990     0.5530 C.3   1 <1>   0.0160 
 17 C       -5.9900    -1.4440     1.4880 C.2   1 <1>   0.9060 
 18 C       -6.4170    -0.5150    -0.8320 C.3   1 <1>  -0.0170 
 19 O       -5.8220    -1.0180     2.6360 O.co2 1 <1>  -0.9000 
 20 O       -6.5890    -2.5090     1.2730 O.co2 1 <1>  -0.9000 
 21 C       -7.4010     0.6260    -0.5740 C.ar  1 <1>  -0.1430 
 22 C       -8.3490     0.5230     0.4320 C.ar  1 <1>  -0.1500 
 23 C       -7.3610     1.7770    -1.3490 C.ar  1 <1>  -0.1500 
 24 C       -9.2390     1.5570     0.6660 C.ar  1 <1>  -0.1500 
 25 C       -8.2520     2.8110    -1.1180 C.ar  1 <1>  -0.1500 
 26 C       -9.1920     2.7020    -0.1080 C.ar  1 <1>  -0.1500 
 27 H       -3.4690    -0.7230    -1.8760 H     1 <1>   0.0800 
 28 H       -2.3240    -1.7930    -1.0970 H     1 <1>   0.0800 
 29 H       -3.1310    -0.1740     1.8220 H     1 <1>   0.0800 
 30 H       -2.9030     1.4930     1.4010 H     1 <1>   0.0800 
 31 H       -2.8780     3.3160    -0.2980 H     1 <1>   0.1500 
 32 H       -3.7990    -2.1510     0.7470 H     1 <1>   0.0800 
 33 H       -5.2850     1.0960     1.4810 H     1 <1>   0.0800 
 34 H       -4.8090     1.3390    -0.1600 H     1 <1>   0.0800 
 35 H        1.3110     0.7930     0.5750 H     1 <1>   0.0800 
 36 H        2.2820     2.2480     0.5530 H     1 <1>   0.0800 
 37 H        1.7760     1.5120    -0.9510 H     1 <1>   0.0800 
 38 H       -5.5450    -3.0980    -0.2950 H     1 <1>   0.4000 
 39 H       -2.4820     5.7100     0.4220 H     1 <1>   0.0800 
 40 H       -0.9000     6.2510    -0.1220 H     1 <1>   0.0800 
 41 H       -1.1510     5.8370     1.5640 H     1 <1>   0.0800 
 42 H       -5.9040    -0.3270    -1.7570 H     1 <1>   0.0800 
 43 H       -6.9880    -1.4160    -0.9790 H     1 <1>   0.0800 
 44 H       -8.3940    -0.3660     1.0410 H     1 <1>   0.1500 
 45 H       -6.6330     1.8700    -2.1350 H     1 <1>   0.1500 
 46 H       -9.9640     1.4620     1.4550 H     1 <1>   0.1500 
 47 H       -8.2130     3.6990    -1.7230 H     1 <1>   0.1500 
 48 H       -9.8850     3.5040     0.0750 H     1 <1>   0.1500 
@<TRIPOS>BOND
  1   1   2  2   
  2   2   3  am  
  3   2   4  1   
  4   3   5  1   
  5   3   6  1   
  6   4   7  1   
  7   4   8  2   
  8   5   9  1   
  9   5  27  1   
 10   5  28  1   
 11   6  10  1   
 12   6  29  1   
 13   6  30  1   
 14   7  11  2   
 15   7  12  1   
 16   8  13  1   
 17   8  31  1   
 18   9  14  1   
 19   9  15  1   
 20   9  32  1   
 21  10  15  1   
 22  10  33  1   
 23  10  34  1   
 24  11  13  1   
 25  12  35  1   
 26  12  36  1   
 27  12  37  1   
 28  13  16  1   
 29  14  38  1   
 30  15  17  1   
 31  15  18  1   
 32  16  39  1   
 33  16  40  1   
 34  16  41  1   
 35  17  19  ar  
 36  17  20  ar  
 37  18  21  1   
 38  18  42  1   
 39  18  43  1   
 40  21  22  ar  
 41  21  23  ar  
 42  22  24  ar  
 43  22  44  1   
 44  23  25  ar  
 45  23  45  1   
 46  24  26  ar  
 47  24  46  1   
 48  25  26  ar  
 49  25  47  1   
 50  26  48  1   
@<TRIPOS>SUBSTRUCTURE
  1 ****  10 GROUP 4 **** **** 0

# MOE 2024.06 (io_trps.svl 2023.06)
