@<TRIPOS>MOLECULE
NONAME
49 51 1 0 0 
SMALL
USER_CHARGES


@<TRIPOS>ATOM
  1 O       -0.2420     0.2120     0.8370 O.2   1 <1>  -0.5700 
  2 C       -1.2170     0.8760     0.5390 C.2   1 <1>   0.5440 
  3 N       -2.4360     0.2430     0.4460 N.am  1 <1>  -0.6600 
  4 C       -1.0730     2.2940     0.2740 C.ar  1 <1>   0.0860 
  5 C       -3.6030     0.7680    -0.3110 C.3   1 <1>   0.1400 
  6 C       -2.5980    -1.2140     0.6880 C.3   1 <1>   0.1400 
  7 C       -1.8600     3.2460     0.9250 C.ar  1 <1>  -0.1500 
  8 C       -0.1330     2.7580    -0.6450 C.ar  1 <1>  -0.1500 
  9 C       -4.6740    -0.3100    -0.1570 C.3   1 <1>   0.2000 
 10 C       -3.8690    -1.6110    -0.0730 C.3   1 <1>  -0.0800 
 11 C       -1.7340     4.5960     0.6570 C.ar  1 <1>  -0.1500 
 12 C        0.0000     4.1060    -0.9180 C.ar  1 <1>  -0.1500 
 13 O       -5.3300    -0.0920     1.0450 O.3   1 <1>  -0.6800 
 14 C       -4.6230    -2.8030     0.5470 C.3   1 <1>   0.0200 
 15 C       -0.7990     5.0380    -0.2750 C.ar  1 <1>   0.0830 
 16 C       -3.8400    -4.1040     0.4840 C.2   1 <1>  -0.0400 
 17 O       -0.6040     6.3360    -0.6070 O.3   1 <1>  -0.3630 
 18 O       -4.3250    -5.1550     1.0890 O.3   1 <1>  -0.0190 
 19 C       -2.6810    -4.4640    -0.0910 C.2   1 <1>  -0.1500 
 20 C       -1.2710     7.4140     0.0110 C.3   1 <1>   0.2000 
 21 N       -3.5550    -6.1950     0.9540 N.2   1 <1>  -0.4100 
 22 C       -2.5550    -5.8080     0.2480 C.2   1 <1>   0.1080 
 23 C       -1.1590     8.6100    -0.9320 C.3   1 <1>  -0.2400 
 24 C       -0.5990     7.7080     1.3540 C.3   1 <1>  -0.2400 
 25 C       -1.4020    -6.7000    -0.1550 C.3   1 <1>  -0.0590 
 26 H       -3.9440     1.7160     0.0670 H     1 <1>   0.0800 
 27 H       -3.3310     0.8700    -1.3480 H     1 <1>   0.0800 
 28 H       -1.7390    -1.7590     0.3370 H     1 <1>   0.0800 
 29 H       -2.7120    -1.3800     1.7460 H     1 <1>   0.0800 
 30 H       -2.5770     2.9140     1.6550 H     1 <1>   0.1500 
 31 H        0.5000     2.0450    -1.1440 H     1 <1>   0.1500 
 32 H       -5.4010    -0.3030    -0.9510 H     1 <1>   0.0800 
 33 H       -3.5800    -1.8760    -1.0750 H     1 <1>   0.0800 
 34 H       -2.3640     5.2870     1.1830 H     1 <1>   0.1500 
 35 H        0.7280     4.4490    -1.6310 H     1 <1>   0.1500 
 36 H       -4.6620     0.0380     1.7480 H     1 <1>   0.4000 
 37 H       -5.5560    -2.9430     0.0290 H     1 <1>   0.0800 
 38 H       -4.8540    -2.5970     1.5780 H     1 <1>   0.0800 
 39 H       -1.9850    -3.8970    -0.6790 H     1 <1>   0.1500 
 40 H       -2.3090     7.1590     0.1340 H     1 <1>   0.0800 
 41 H       -0.1260     8.8610    -1.0970 H     1 <1>   0.0800 
 42 H       -1.6580     9.4620    -0.5090 H     1 <1>   0.0800 
 43 H       -1.6220     8.3770    -1.8730 H     1 <1>   0.0800 
 44 H        0.4390     7.9450     1.2060 H     1 <1>   0.0800 
 45 H       -0.6750     6.8610     2.0110 H     1 <1>   0.0800 
 46 H       -1.0780     8.5450     1.8280 H     1 <1>   0.0800 
 47 H       -1.3360    -6.7500    -1.2260 H     1 <1>   0.0800 
 48 H       -1.5540    -7.6920     0.2300 H     1 <1>   0.0800 
 49 H       -0.4830    -6.3100     0.2410 H     1 <1>   0.0800 
@<TRIPOS>BOND
  1   1   2  2   
  2   2   3  am  
  3   2   4  1   
  4   3   5  1   
  5   3   6  1   
  6   4   7  ar  
  7   4   8  ar  
  8   5   9  1   
  9   5  26  1   
 10   5  27  1   
 11   6  10  1   
 12   6  28  1   
 13   6  29  1   
 14   7  11  ar  
 15   7  30  1   
 16   8  12  ar  
 17   8  31  1   
 18   9  10  1   
 19   9  13  1   
 20   9  32  1   
 21  10  14  1   
 22  10  33  1   
 23  11  15  ar  
 24  11  34  1   
 25  12  15  ar  
 26  12  35  1   
 27  13  36  1   
 28  14  16  1   
 29  14  37  1   
 30  14  38  1   
 31  15  17  1   
 32  16  18  1   
 33  16  19  2   
 34  17  20  1   
 35  18  21  1   
 36  19  22  1   
 37  19  39  1   
 38  20  23  1   
 39  20  24  1   
 40  20  40  1   
 41  21  22  2   
 42  22  25  1   
 43  23  41  1   
 44  23  42  1   
 45  23  43  1   
 46  24  44  1   
 47  24  45  1   
 48  24  46  1   
 49  25  47  1   
 50  25  48  1   
 51  25  49  1   
@<TRIPOS>SUBSTRUCTURE
  1 ****   3 GROUP 4 **** **** 0

# MOE 2024.06 (io_trps.svl 2023.06)
