@<TRIPOS>MOLECULE
NONAME
43 45 1 0 0 
SMALL
USER_CHARGES


@<TRIPOS>ATOM
  1 O       -0.5760     0.3180     0.0740 O.2   1 <1>  -0.5700 
  2 C       -1.6510     0.8350    -0.1260 C.2   1 <1>   0.5690 
  3 N       -2.7730     0.0690    -0.3010 N.am  1 <1>  -0.6600 
  4 C       -1.7490     2.3650    -0.1730 C.3   1 <1>  -0.0190 
  5 C       -4.1550     0.5490    -0.5480 C.3   1 <1>   0.1400 
  6 C       -2.7410    -1.4110    -0.2110 C.3   1 <1>   0.1400 
  7 C       -0.4410     3.1060    -0.4710 C.3   1 <1>  -0.1600 
  8 C       -2.2030     2.9890     1.1500 C.3   1 <1>  -0.1600 
  9 C       -4.9720    -0.7180    -0.7990 C.3   1 <1>   0.2000 
 10 C       -4.2050    -1.8390    -0.1040 C.3   1 <1>  -0.0800 
 11 C       -0.6990     4.5420    -0.0170 C.3   1 <1>  -0.1600 
 12 C       -1.7550     4.4530     1.0910 C.3   1 <1>  -0.1600 
 13 O       -6.2500    -0.6120    -0.2760 O.3   1 <1>  -0.6800 
 14 C       -4.4860    -3.2260    -0.6990 C.3   1 <1>   0.0210 
 15 C       -3.6300    -4.2850    -0.0330 C.2   1 <1>   0.1080 
 16 N       -3.7290    -4.5770     1.2270 N.2   1 <1>  -0.7070 
 17 C       -2.6520    -5.0390    -0.6720 C.2   1 <1>  -0.1500 
 18 N       -2.8070    -5.5370     1.4260 N.pl3 1 <1>   0.3000 
 19 C       -2.1410    -5.8340     0.2910 C.2   1 <1>  -0.3320 
 20 C       -1.0390    -6.8720     0.1950 C.3   1 <1>  -0.0600 
 21 H       -2.4480     2.6440    -0.9400 H     1 <1>   0.0800 
 22 H       -4.5130     1.0650     0.3260 H     1 <1>   0.0800 
 23 H       -4.1870     1.1950    -1.4070 H     1 <1>   0.0800 
 24 H       -2.2840    -1.8050    -1.1030 H     1 <1>   0.0800 
 25 H       -2.1740    -1.7340     0.6480 H     1 <1>   0.0800 
 26 H        0.3560     2.6900     0.1220 H     1 <1>   0.0800 
 27 H       -0.1720     3.0460    -1.5110 H     1 <1>   0.0800 
 28 H       -3.2650     2.9000     1.2970 H     1 <1>   0.0800 
 29 H       -1.6950     2.4950     1.9620 H     1 <1>   0.0800 
 30 H       -5.0510    -0.8910    -1.8590 H     1 <1>   0.0800 
 31 H       -4.4510    -1.8500     0.9440 H     1 <1>   0.0800 
 32 H        0.2060     5.0090     0.3310 H     1 <1>   0.0800 
 33 H       -1.0910     5.1160    -0.8410 H     1 <1>   0.0800 
 34 H       -2.5880     5.0910     0.8530 H     1 <1>   0.0800 
 35 H       -1.3450     4.7570     2.0390 H     1 <1>   0.0800 
 36 H       -6.2200    -0.6540     0.7000 H     1 <1>   0.4000 
 37 H       -4.2910    -3.2230    -1.7560 H     1 <1>   0.0800 
 38 H       -5.5210    -3.4770    -0.5500 H     1 <1>   0.0800 
 39 H       -2.3810    -4.9800    -1.7110 H     1 <1>   0.1500 
 40 H       -2.6570    -5.9670     2.3470 H     1 <1>   0.2700 
 41 H       -0.6650    -6.9230    -0.8120 H     1 <1>   0.0800 
 42 H       -1.4150    -7.8410     0.4700 H     1 <1>   0.0800 
 43 H       -0.2250    -6.6120     0.8480 H     1 <1>   0.0800 
@<TRIPOS>BOND
  1   1   2  2   
  2   2   3  am  
  3   2   4  1   
  4   3   5  1   
  5   3   6  1   
  6   4   7  1   
  7   4   8  1   
  8   4  21  1   
  9   5   9  1   
 10   5  22  1   
 11   5  23  1   
 12   6  10  1   
 13   6  24  1   
 14   6  25  1   
 15   7  11  1   
 16   7  26  1   
 17   7  27  1   
 18   8  12  1   
 19   8  28  1   
 20   8  29  1   
 21   9  10  1   
 22   9  13  1   
 23   9  30  1   
 24  10  14  1   
 25  10  31  1   
 26  11  12  1   
 27  11  32  1   
 28  11  33  1   
 29  12  34  1   
 30  12  35  1   
 31  13  36  1   
 32  14  15  1   
 33  14  37  1   
 34  14  38  1   
 35  15  16  2   
 36  15  17  1   
 37  16  18  1   
 38  17  19  2   
 39  17  39  1   
 40  18  19  1   
 41  18  40  1   
 42  19  20  1   
 43  20  41  1   
 44  20  42  1   
 45  20  43  1   
@<TRIPOS>SUBSTRUCTURE
  1 ****   6 GROUP 4 **** **** 0

# MOE 2024.06 (io_trps.svl 2023.06)
