@<TRIPOS>MOLECULE
NONAME
47 48 1 0 0 
SMALL
USER_CHARGES


@<TRIPOS>ATOM
  1 O       -0.4380    -0.4520    -0.4620 O.2   1 <1>  -0.5700 
  2 C       -1.5180    -0.9760    -0.2950 C.2   1 <1>   0.6900 
  3 N       -2.5810    -0.3210     0.2920 N.am  1 <1>  -0.4200 
  4 N       -1.6860    -2.2670    -0.7080 N.am  1 <1>  -0.5390 
  5 C       -3.8010    -0.9620     0.4240 C.2   1 <1>   0.6160 
  6 C       -2.4230     1.0900     0.7480 C.3   1 <1>   0.0600 
  7 C       -2.8770    -2.9520    -0.5810 C.2   1 <1>  -0.0410 
  8 O       -4.7500    -0.3720     0.9110 O.2   1 <1>  -0.5700 
  9 C       -3.9400    -2.3230    -0.0220 C.2   1 <1>  -0.1240 
 10 C       -5.3200    -2.9530     0.1810 C.3   1 <1>  -0.0220 
 11 C       -5.4370    -4.4060    -0.2910 C.3   1 <1>   0.3430 
 12 N       -6.7820    -4.9810     0.0210 N.4   1 <1>  -0.9590 
 13 C       -6.7560    -6.4770    -0.1550 C.3   1 <1>   0.3430 
 14 C       -7.8720    -4.3690    -0.8030 C.3   1 <1>   0.3430 
 15 C       -8.0960    -7.1450     0.1980 C.3   1 <1>   0.2000 
 16 C       -9.2250    -4.9550    -0.3940 C.3   1 <1>  -0.1600 
 17 O       -7.9880    -8.4710    -0.2010 O.3   1 <1>  -0.5600 
 18 C       -9.2640    -6.4840    -0.5500 C.3   1 <1>  -0.1600 
 19 C       -8.8840    -9.3640     0.3850 C.3   1 <1>   0.1200 
 20 C       -8.5470   -10.7630    -0.1270 C.3   1 <1>  -0.1600 
 21 C       -9.4860   -11.8170     0.4700 C.3   1 <1>  -0.2400 
 22 H       -0.8450    -2.6740    -1.1260 H     1 <1>   0.3700 
 23 H       -1.3920     1.3010     0.9750 H     1 <1>   0.0800 
 24 H       -3.0070     1.2620     1.6350 H     1 <1>   0.0800 
 25 H       -2.7560     1.7570    -0.0270 H     1 <1>   0.0800 
 26 H       -2.8800    -3.9650    -0.9460 H     1 <1>   0.1500 
 27 H       -6.0330    -2.3450    -0.3470 H     1 <1>   0.0800 
 28 H       -5.5530    -2.9090     1.2310 H     1 <1>   0.0800 
 29 H       -4.6780    -4.9870     0.2070 H     1 <1>   0.0800 
 30 H       -5.2540    -4.4580    -1.3530 H     1 <1>   0.0800 
 31 H       -6.9960    -4.7910     1.0100 H     1 <1>   0.4500 
 32 H       -5.9870    -6.9070     0.4660 H     1 <1>   0.0800 
 33 H       -6.5320    -6.7100    -1.1830 H     1 <1>   0.0800 
 34 H       -7.6960    -4.5680    -1.8480 H     1 <1>   0.0800 
 35 H       -7.8940    -3.3000    -0.6610 H     1 <1>   0.0800 
 36 H       -8.2440    -7.1130     1.2650 H     1 <1>   0.0800 
 37 H       -9.9920    -4.5200    -1.0120 H     1 <1>   0.0800 
 38 H       -9.4430    -4.6810     0.6240 H     1 <1>   0.0800 
 39 H      -10.2020    -6.8510    -0.1720 H     1 <1>   0.0800 
 40 H       -9.1990    -6.7340    -1.5960 H     1 <1>   0.0800 
 41 H       -9.8890    -9.0980     0.1030 H     1 <1>   0.0800 
 42 H       -8.7770    -9.3210     1.4560 H     1 <1>   0.0800 
 43 H       -7.5320   -11.0040     0.1390 H     1 <1>   0.0800 
 44 H       -8.6340   -10.7790    -1.2000 H     1 <1>   0.0800 
 45 H       -9.4040   -11.8330     1.5430 H     1 <1>   0.0800 
 46 H       -9.2280   -12.7910     0.0940 H     1 <1>   0.0800 
 47 H      -10.5070   -11.6080     0.2020 H     1 <1>   0.0800 
@<TRIPOS>BOND
  1   1   2  2   
  2   2   3  am  
  3   2   4  am  
  4   3   5  am  
  5   3   6  1   
  6   4   7  1   
  7   4  22  1   
  8   5   8  2   
  9   5   9  1   
 10   6  23  1   
 11   6  24  1   
 12   6  25  1   
 13   7   9  2   
 14   7  26  1   
 15   9  10  1   
 16  10  11  1   
 17  10  27  1   
 18  10  28  1   
 19  11  12  1   
 20  11  29  1   
 21  11  30  1   
 22  12  13  1   
 23  12  14  1   
 24  12  31  1   
 25  13  15  1   
 26  13  32  1   
 27  13  33  1   
 28  14  16  1   
 29  14  34  1   
 30  14  35  1   
 31  15  17  1   
 32  15  18  1   
 33  15  36  1   
 34  16  18  1   
 35  16  37  1   
 36  16  38  1   
 37  17  19  1   
 38  18  39  1   
 39  18  40  1   
 40  19  20  1   
 41  19  41  1   
 42  19  42  1   
 43  20  21  1   
 44  20  43  1   
 45  20  44  1   
 46  21  45  1   
 47  21  46  1   
 48  21  47  1   
@<TRIPOS>SUBSTRUCTURE
  1 ****  11 GROUP 4 **** **** 0

# MOE 2024.06 (io_trps.svl 2023.06)
