@<TRIPOS>MOLECULE
NONAME
63 64 1 0 0 
SMALL
USER_CHARGES


@<TRIPOS>ATOM
  1 O       -0.1720     1.2130     1.1320 O.2   1 <1>  -0.5700 
  2 C       -0.1220     1.6760    -0.0070 C.2   1 <1>   0.5690 
  3 N       -1.1990     1.5540    -0.8390 N.am  1 <1>  -0.7300 
  4 C        1.1850     2.3310    -0.5370 C.3   1 <1>   0.2810 
  5 C       -2.5630     1.1150    -0.4490 C.3   1 <1>   0.1400 
  6 N        2.3180     1.4470    -0.2400 N.am  1 <1>  -0.7300 
  7 C        1.4170     3.7620     0.0300 C.3   1 <1>  -0.0800 
  8 C       -2.7070    -0.4060    -0.5970 C.3   1 <1>  -0.1600 
  9 C        3.3760     1.2400    -1.0320 C.2   1 <1>   0.5690 
 10 C        2.6930     4.4370    -0.5040 C.3   1 <1>  -0.2400 
 11 C        1.4360     3.8510     1.5690 C.3   1 <1>  -0.2400 
 12 C       -1.9490    -1.1280     0.5170 C.3   1 <1>   0.3430 
 13 O        3.4940     1.8330    -2.0980 O.2   1 <1>  -0.5700 
 14 C        4.4330     0.1920    -0.5780 C.3   1 <1>   0.2810 
 15 N       -1.6980    -2.5530     0.1640 N.4   1 <1>  -0.9590 
 16 N        3.8430    -0.8860     0.2270 N.am  1 <1>  -0.7300 
 17 C        5.5350     0.8390     0.2660 C.3   1 <1>  -0.2400 
 18 C       -0.3880    -3.0100     0.7220 C.3   1 <1>   0.3430 
 19 C       -2.8300    -3.4290     0.5760 C.3   1 <1>   0.4860 
 20 C        3.1600    -1.9020    -0.3550 C.2   1 <1>   0.5690 
 21 C        0.7450    -2.3880    -0.0970 C.3   1 <1>  -0.1600 
 22 C       -2.5890    -4.8320     0.0540 C.ar  1 <1>  -0.1440 
 23 O        3.2560    -2.1500    -1.5290 O.2   1 <1>  -0.5700 
 24 C        2.1500    -2.6880     0.4570 C.3   1 <1>  -0.0990 
 25 C       -2.2780    -5.8770     0.9040 C.ar  1 <1>  -0.1500 
 26 C       -2.6660    -5.1400    -1.2920 C.ar  1 <1>  -0.1500 
 27 C       -2.0520    -7.1390     0.3810 C.ar  1 <1>   0.1600 
 28 C       -2.4200    -6.4370    -1.7110 C.ar  1 <1>   0.1600 
 29 N       -2.1100    -7.4370    -0.9040 N.ar  1 <1>  -0.6200 
 30 H       -1.1220     1.9240    -1.7930 H     1 <1>   0.3700 
 31 H        1.0910     2.4190    -1.6210 H     1 <1>   0.0800 
 32 H       -2.7630     1.4160     0.5680 H     1 <1>   0.0800 
 33 H       -3.2780     1.6120    -1.0840 H     1 <1>   0.0800 
 34 H        2.2710     0.9430     0.6280 H     1 <1>   0.3700 
 35 H        0.5750     4.3680    -0.3110 H     1 <1>   0.0800 
 36 H       -2.3380    -0.6910    -1.5660 H     1 <1>   0.0800 
 37 H       -3.7500    -0.6600    -0.5350 H     1 <1>   0.0800 
 38 H        3.5820     3.9370    -0.1190 H     1 <1>   0.0800 
 39 H        2.7190     5.4840    -0.1990 H     1 <1>   0.0800 
 40 H        2.7090     4.3940    -1.5940 H     1 <1>   0.0800 
 41 H        2.2250     3.2170     1.9740 H     1 <1>   0.0800 
 42 H        0.4770     3.5430     1.9850 H     1 <1>   0.0800 
 43 H        1.6190     4.8810     1.8800 H     1 <1>   0.0800 
 44 H       -2.4790    -1.0470     1.4520 H     1 <1>   0.0800 
 45 H       -1.0040    -0.6440     0.6450 H     1 <1>   0.0800 
 46 H        4.8880    -0.2260    -1.4790 H     1 <1>   0.0800 
 47 H       -1.6130    -2.6280    -0.8570 H     1 <1>   0.4500 
 48 H        3.8820    -0.7990     1.2260 H     1 <1>   0.3700 
 49 H        5.1100     1.2840     1.1650 H     1 <1>   0.0800 
 50 H        6.0200     1.6200    -0.3210 H     1 <1>   0.0800 
 51 H        6.2780     0.0900     0.5390 H     1 <1>   0.0800 
 52 H       -0.3040    -2.7180     1.7570 H     1 <1>   0.0800 
 53 H       -0.3080    -4.0840     0.6610 H     1 <1>   0.0800 
 54 H       -2.9140    -3.4470     1.6510 H     1 <1>   0.0800 
 55 H       -3.7550    -3.0540     0.1690 H     1 <1>   0.0800 
 56 H        0.6920    -2.7620    -1.1060 H     1 <1>   0.0800 
 57 H        0.6430    -1.3190    -0.1370 H     1 <1>   0.0800 
 58 H        2.3750    -3.7360     0.3670 H     1 <1>   0.0800 
 59 H        2.2180    -2.4060     1.4920 H     1 <1>   0.0800 
 60 H       -2.2090    -5.7370     1.9680 H     1 <1>   0.1500 
 61 H       -2.9170    -4.3990    -2.0290 H     1 <1>   0.1500 
 62 H       -1.8110    -7.9480     1.0530 H     1 <1>   0.1500 
 63 H       -2.4810    -6.6670    -2.7620 H     1 <1>   0.1500 
@<TRIPOS>BOND
  1   1   2  2   
  2   2   3  am  
  3   2   4  1   
  4   3   5  1   
  5   3  30  1   
  6   4   6  1   
  7   4   7  1   
  8   4  31  1   
  9   5   8  1   
 10   5  32  1   
 11   5  33  1   
 12   6   9  am  
 13   6  34  1   
 14   7  10  1   
 15   7  11  1   
 16   7  35  1   
 17   8  12  1   
 18   8  36  1   
 19   8  37  1   
 20   9  13  2   
 21   9  14  1   
 22  10  38  1   
 23  10  39  1   
 24  10  40  1   
 25  11  41  1   
 26  11  42  1   
 27  11  43  1   
 28  12  15  1   
 29  12  44  1   
 30  12  45  1   
 31  14  16  1   
 32  14  17  1   
 33  14  46  1   
 34  15  18  1   
 35  15  19  1   
 36  15  47  1   
 37  16  20  am  
 38  16  48  1   
 39  17  49  1   
 40  17  50  1   
 41  17  51  1   
 42  18  21  1   
 43  18  52  1   
 44  18  53  1   
 45  19  22  1   
 46  19  54  1   
 47  19  55  1   
 48  20  23  2   
 49  20  24  1   
 50  21  24  1   
 51  21  56  1   
 52  21  57  1   
 53  22  25  ar  
 54  22  26  ar  
 55  24  58  1   
 56  24  59  1   
 57  25  27  ar  
 58  25  60  1   
 59  26  28  ar  
 60  26  61  1   
 61  27  29  ar  
 62  27  62  1   
 63  28  29  ar  
 64  28  63  1   
@<TRIPOS>SUBSTRUCTURE
  1 ****  21 GROUP 4 **** **** 0

# MOE 2024.06 (io_trps.svl 2023.06)
