@<TRIPOS>MOLECULE
NONAME
51 53 1 0 0 
SMALL
USER_CHARGES


@<TRIPOS>ATOM
  1 CL      -1.3000    -0.9230    -1.5330 Cl    1 <1>  -0.1770 
  2 C       -1.9980     0.2790    -0.4600 C.ar  1 <1>   0.1770 
  3 C       -1.8960     1.6240    -0.7900 C.ar  1 <1>   0.0820 
  4 C       -2.6440    -0.1520     0.6900 C.ar  1 <1>  -0.1440 
  5 O       -1.2540     1.9200    -1.9570 O.3   1 <1>  -0.3630 
  6 C       -2.4680     2.5760     0.0680 C.ar  1 <1>   0.0820 
  7 C       -3.1900     0.7960     1.5400 C.ar  1 <1>  -0.1500 
  8 C       -2.7550    -1.6310     1.0120 C.3   1 <1>   0.4860 
  9 C       -0.3780     3.0240    -2.0360 C.3   1 <1>   0.0400 
 10 O       -2.4110     3.8970    -0.2630 O.3   1 <1>  -0.3630 
 11 C       -3.1020     2.1430     1.2320 C.ar  1 <1>  -0.1500 
 12 N       -3.5790    -2.3100    -0.0290 N.4   1 <1>  -0.9590 
 13 C       -2.9730     4.9100     0.5440 C.3   1 <1>   0.0400 
 14 C       -3.6790    -3.7880     0.1990 C.3   1 <1>   0.5660 
 15 C       -4.9340    -1.6880    -0.2270 C.3   1 <1>   0.3430 
 16 C       -2.2760    -4.3740     0.2320 C.ar  1 <1>  -0.1430 
 17 C       -4.5780    -4.4710    -0.8620 C.3   1 <1>   0.2000 
 18 C       -5.7710    -2.4680    -1.2600 C.3   1 <1>   0.1200 
 19 C       -1.4420    -4.3290    -0.8800 C.ar  1 <1>  -0.1500 
 20 C       -1.8120    -4.9570     1.4040 C.ar  1 <1>  -0.1500 
 21 O       -5.8300    -3.8240    -0.9170 O.3   1 <1>  -0.5600 
 22 C       -4.8030    -5.9590    -0.5530 C.3   1 <1>   0.1200 
 23 C       -0.1620    -4.8500    -0.8130 C.ar  1 <1>  -0.1500 
 24 C       -0.5330    -5.4790     1.4670 C.ar  1 <1>  -0.1500 
 25 O       -5.6970    -6.4860    -1.4690 O.3   1 <1>  -0.6800 
 26 C        0.2930    -5.4240     0.3590 C.ar  1 <1>  -0.1500 
 27 H       -3.6880     0.5050     2.4510 H     1 <1>   0.1500 
 28 H       -3.2050    -1.7590     1.9830 H     1 <1>   0.0800 
 29 H       -1.7650    -2.0600     1.0380 H     1 <1>   0.0800 
 30 H        0.3150     2.8450    -2.8380 H     1 <1>   0.0800 
 31 H        0.1530     3.1250    -1.1060 H     1 <1>   0.0800 
 32 H       -0.9500     3.9100    -2.2450 H     1 <1>   0.0800 
 33 H       -3.5390     2.8460     1.9170 H     1 <1>   0.1500 
 34 H       -3.0480    -2.1930    -0.9020 H     1 <1>   0.4500 
 35 H       -2.7950     5.8550     0.0630 H     1 <1>   0.0800 
 36 H       -2.4950     4.8980     1.5080 H     1 <1>   0.0800 
 37 H       -4.0320     4.7430     0.6330 H     1 <1>   0.0800 
 38 H       -4.1360    -3.9620     1.1590 H     1 <1>   0.0800 
 39 H       -5.4710    -1.6740     0.7070 H     1 <1>   0.0800 
 40 H       -4.8260    -0.6670    -0.5590 H     1 <1>   0.0800 
 41 H       -4.1180    -4.3980    -1.8330 H     1 <1>   0.0800 
 42 H       -5.3550    -2.3750    -2.2490 H     1 <1>   0.0800 
 43 H       -6.7800    -2.0910    -1.2790 H     1 <1>   0.0800 
 44 H       -1.7620    -3.8940    -1.8120 H     1 <1>   0.1500 
 45 H       -2.4330    -5.0180     2.2820 H     1 <1>   0.1500 
 46 H       -5.2150    -6.0920     0.4320 H     1 <1>   0.0800 
 47 H       -3.8850    -6.5170    -0.6300 H     1 <1>   0.0800 
 48 H        0.4840    -4.8130    -1.6750 H     1 <1>   0.1500 
 49 H       -0.1740    -5.9320     2.3760 H     1 <1>   0.1500 
 50 H       -6.4940    -5.9150    -1.5150 H     1 <1>   0.4000 
 51 H        1.2900    -5.8300     0.4090 H     1 <1>   0.1500 
@<TRIPOS>BOND
  1   1   2  1   
  2   2   3  ar  
  3   2   4  ar  
  4   3   5  1   
  5   3   6  ar  
  6   4   7  ar  
  7   4   8  1   
  8   5   9  1   
  9   6  10  1   
 10   6  11  ar  
 11   7  11  ar  
 12   7  27  1   
 13   8  12  1   
 14   8  28  1   
 15   8  29  1   
 16   9  30  1   
 17   9  31  1   
 18   9  32  1   
 19  10  13  1   
 20  11  33  1   
 21  12  14  1   
 22  12  15  1   
 23  12  34  1   
 24  13  35  1   
 25  13  36  1   
 26  13  37  1   
 27  14  16  1   
 28  14  17  1   
 29  14  38  1   
 30  15  18  1   
 31  15  39  1   
 32  15  40  1   
 33  16  19  ar  
 34  16  20  ar  
 35  17  21  1   
 36  17  22  1   
 37  17  41  1   
 38  18  21  1   
 39  18  42  1   
 40  18  43  1   
 41  19  23  ar  
 42  19  44  1   
 43  20  24  ar  
 44  20  45  1   
 45  22  25  1   
 46  22  46  1   
 47  22  47  1   
 48  23  26  ar  
 49  23  48  1   
 50  24  26  ar  
 51  24  49  1   
 52  25  50  1   
 53  26  51  1   
@<TRIPOS>SUBSTRUCTURE
  1 ****  12 GROUP 4 **** **** 0

# MOE 2024.06 (io_trps.svl 2023.06)
