@<TRIPOS>MOLECULE
NONAME
50 51 1 0 0 
SMALL
USER_CHARGES


@<TRIPOS>ATOM
  1 O       -0.4980    -0.2600    -2.2440 O.2   1 <1>  -0.5700 
  2 C       -1.1520     0.2220    -1.3520 C.2   1 <1>   0.5690 
  3 N       -1.8100    -0.5420    -0.4460 N.am  1 <1>  -0.7300 
  4 C       -1.1840     1.7530    -1.2250 C.3   1 <1>   0.4040 
  5 C       -1.9890    -2.0040    -0.5350 C.3   1 <1>   0.2840 
  6 N        0.0610     2.3540    -0.5960 N.4   1 <1>  -0.9590 
  7 C       -3.4800    -2.2840    -0.4790 C.ar  1 <1>  -0.1440 
  8 C        0.0100     3.8290    -0.2910 C.3   1 <1>   0.4230 
  9 C        1.2930     1.9700    -1.3550 C.3   1 <1>   0.5610 
 10 C       -4.2240    -1.9760     0.6590 C.ar  1 <1>   0.0820 
 11 C       -4.1090    -2.8510    -1.5770 C.ar  1 <1>  -0.1500 
 12 C        1.1580     4.1900     0.6790 C.3   1 <1>  -0.0220 
 13 C       -1.3500     4.2720     0.2890 C.3   1 <1>  -0.0220 
 14 C        2.4880     2.4900    -0.5850 C.2   1 <1>  -0.2880 
 15 C        1.3080     2.5370    -2.7740 C.3   1 <1>  -0.2400 
 16 O       -3.5750    -1.4070     1.7120 O.3   1 <1>  -0.3630 
 17 C       -5.5900    -2.2480     0.6820 C.ar  1 <1>  -0.1500 
 18 C       -5.4670    -3.1180    -1.5470 C.ar  1 <1>  -0.1500 
 19 C        2.4440     3.4640     0.3280 C.2   1 <1>  -0.2880 
 20 C       -1.3610     5.7450     0.6650 C.2   1 <1>  -0.2880 
 21 C       -4.1530    -1.4070     3.0020 C.3   1 <1>   0.0400 
 22 C       -6.2060    -2.8170    -0.4180 C.ar  1 <1>  -0.1500 
 23 C       -1.5180     6.2120     1.9060 C.2   1 <1>  -0.3000 
 24 H       -2.4190    -0.1620     0.2870 H     1 <1>   0.3700 
 25 H       -2.0470     2.0060    -0.6360 H     1 <1>   0.0800 
 26 H       -1.3260     2.1630    -2.2090 H     1 <1>   0.0800 
 27 H       -1.5610    -2.3840    -1.4480 H     1 <1>   0.0800 
 28 H       -1.4990    -2.4790     0.2970 H     1 <1>   0.0800 
 29 H        0.2060     1.8950     0.3100 H     1 <1>   0.4500 
 30 H        0.1690     4.3750    -1.2050 H     1 <1>   0.0800 
 31 H        1.3600     0.8940    -1.4040 H     1 <1>   0.0800 
 32 H       -3.5480    -3.0910    -2.4640 H     1 <1>   0.1500 
 33 H        1.3310     5.2510     0.6350 H     1 <1>   0.0800 
 34 H        0.8830     3.9500     1.6920 H     1 <1>   0.0800 
 35 H       -2.1300     4.1290    -0.4370 H     1 <1>   0.0800 
 36 H       -1.5800     3.6870     1.1620 H     1 <1>   0.0800 
 37 H        3.4030     1.9870    -0.8560 H     1 <1>   0.1500 
 38 H        1.2850     3.6100    -2.7750 H     1 <1>   0.0800 
 39 H        0.4950     2.1500    -3.3600 H     1 <1>   0.0800 
 40 H        2.2190     2.2320    -3.2570 H     1 <1>   0.0800 
 41 H       -6.1920    -2.0220     1.5410 H     1 <1>   0.1500 
 42 H       -5.9470    -3.5590    -2.4030 H     1 <1>   0.1500 
 43 H        3.3080     3.8110     0.8750 H     1 <1>   0.1500 
 44 H       -1.2320     6.4070    -0.1790 H     1 <1>   0.1500 
 45 H       -3.4150    -1.0570     3.7010 H     1 <1>   0.0800 
 46 H       -4.4450    -2.4120     3.2540 H     1 <1>   0.0800 
 47 H       -5.0030    -0.7490     3.0070 H     1 <1>   0.0800 
 48 H       -7.2610    -3.0260    -0.3970 H     1 <1>   0.1500 
 49 H       -1.5270     7.2610     2.1530 H     1 <1>   0.1500 
 50 H       -1.6560     5.6030     2.7840 H     1 <1>   0.1500 
@<TRIPOS>BOND
  1   1   2  2   
  2   2   3  am  
  3   2   4  1   
  4   3   5  1   
  5   3  24  1   
  6   4   6  1   
  7   4  25  1   
  8   4  26  1   
  9   5   7  1   
 10   5  27  1   
 11   5  28  1   
 12   6   8  1   
 13   6   9  1   
 14   6  29  1   
 15   7  10  ar  
 16   7  11  ar  
 17   8  12  1   
 18   8  13  1   
 19   8  30  1   
 20   9  14  1   
 21   9  15  1   
 22   9  31  1   
 23  10  16  1   
 24  10  17  ar  
 25  11  18  ar  
 26  11  32  1   
 27  12  19  1   
 28  12  33  1   
 29  12  34  1   
 30  13  20  1   
 31  13  35  1   
 32  13  36  1   
 33  14  19  2   
 34  14  37  1   
 35  15  38  1   
 36  15  39  1   
 37  15  40  1   
 38  16  21  1   
 39  17  22  ar  
 40  17  41  1   
 41  18  22  ar  
 42  18  42  1   
 43  19  43  1   
 44  20  23  2   
 45  20  44  1   
 46  21  45  1   
 47  21  46  1   
 48  21  47  1   
 49  22  48  1   
 50  23  49  1   
 51  23  50  1   
@<TRIPOS>SUBSTRUCTURE
  1 ****   3 GROUP 4 **** **** 0

# MOE 2024.06 (io_trps.svl 2023.06)
