@<TRIPOS>MOLECULE
NONAME
43 45 1 0 0 
SMALL
USER_CHARGES


@<TRIPOS>ATOM
  1 F        0.0240    -0.6710    -0.4900 F     1 <1>  -0.1900 
  2 C       -0.6140    -1.7830    -0.2230 C.ar  1 <1>   0.1900 
  3 C       -0.0230    -3.0380    -0.4030 C.ar  1 <1>   0.0820 
  4 C       -1.9040    -1.6520     0.2530 C.ar  1 <1>  -0.1500 
  5 O        1.2360    -3.2950    -0.8650 O.3   1 <1>  -0.3630 
  6 C       -0.7780    -4.1550    -0.0840 C.ar  1 <1>  -0.1500 
  7 C       -2.6270    -2.7890     0.5630 C.ar  1 <1>  -0.1500 
  8 C        2.1010    -2.2860    -1.3360 C.3   1 <1>   0.0400 
  9 C       -2.0860    -4.0640     0.4000 C.ar  1 <1>   0.0530 
 10 C       -2.8240    -5.2580     0.7370 C.2   1 <1>   0.0870 
 11 O       -2.1820    -6.2550     1.3020 O.3   1 <1>  -0.0190 
 12 C       -4.1220    -5.6470     0.6080 C.2   1 <1>  -0.2330 
 13 N       -2.9550    -7.2720     1.5730 N.2   1 <1>  -0.4100 
 14 C       -4.1250    -6.9210     1.1750 C.2   1 <1>   0.3720 
 15 C       -5.2710    -5.0210     0.0170 C.2   1 <1>   1.0330 
 16 N       -5.2490    -7.7210     1.2910 N.pl3 1 <1>  -0.8520 
 17 O       -5.2020    -3.8880    -0.4830 O.co2 1 <1>  -0.9000 
 18 O       -6.3700    -5.6090    -0.0200 O.co2 1 <1>  -0.9000 
 19 C       -5.1450    -9.0310     0.6000 C.3   1 <1>   0.2090 
 20 C       -6.5260    -9.6710     0.3950 C.3   1 <1>   0.2000 
 21 O       -6.3380   -10.9460    -0.1590 O.3   1 <1>  -0.5600 
 22 C       -7.4360    -8.8490    -0.5370 C.3   1 <1>  -0.1600 
 23 C       -7.5000   -11.7060    -0.2890 C.3   1 <1>   0.1200 
 24 C       -8.7490    -9.5850    -0.8310 C.3   1 <1>  -0.1600 
 25 C       -8.4490   -11.0200    -1.2770 C.3   1 <1>  -0.1600 
 26 H       -2.3410    -0.6780     0.3780 H     1 <1>   0.1500 
 27 H       -0.3400    -5.1270    -0.2170 H     1 <1>   0.1500 
 28 H       -3.6340    -2.6920     0.9340 H     1 <1>   0.1500 
 29 H        2.9980    -2.7560    -1.6950 H     1 <1>   0.0800 
 30 H        2.3380    -1.6210    -0.5250 H     1 <1>   0.0800 
 31 H        1.6180    -1.7580    -2.1400 H     1 <1>   0.0800 
 32 H       -6.0190    -7.1620     0.8600 H     1 <1>   0.4000 
 33 H       -4.5360    -9.6850     1.1980 H     1 <1>   0.0800 
 34 H       -4.6700    -8.8930    -0.3570 H     1 <1>   0.0800 
 35 H       -6.9910    -9.7960     1.3580 H     1 <1>   0.0800 
 36 H       -6.9120    -8.6500    -1.4560 H     1 <1>   0.0800 
 37 H       -7.6590    -7.8980    -0.0850 H     1 <1>   0.0800 
 38 H       -7.9530   -11.8100     0.6820 H     1 <1>   0.0800 
 39 H       -7.2160   -12.6780    -0.6510 H     1 <1>   0.0800 
 40 H       -9.3000    -9.0620    -1.5930 H     1 <1>   0.0800 
 41 H       -9.3480    -9.6050     0.0640 H     1 <1>   0.0800 
 42 H       -9.3640   -11.5790    -1.3480 H     1 <1>   0.0800 
 43 H       -7.9880   -11.0100    -2.2490 H     1 <1>   0.0800 
@<TRIPOS>BOND
  1   1   2  1   
  2   2   3  ar  
  3   2   4  ar  
  4   3   5  1   
  5   3   6  ar  
  6   4   7  ar  
  7   4  26  1   
  8   5   8  1   
  9   6   9  ar  
 10   6  27  1   
 11   7   9  ar  
 12   7  28  1   
 13   8  29  1   
 14   8  30  1   
 15   8  31  1   
 16   9  10  1   
 17  10  11  1   
 18  10  12  2   
 19  11  13  1   
 20  12  14  1   
 21  12  15  1   
 22  13  14  2   
 23  14  16  1   
 24  15  17  ar  
 25  15  18  ar  
 26  16  19  1   
 27  16  32  1   
 28  19  20  1   
 29  19  33  1   
 30  19  34  1   
 31  20  21  1   
 32  20  22  1   
 33  20  35  1   
 34  21  23  1   
 35  22  24  1   
 36  22  36  1   
 37  22  37  1   
 38  23  25  1   
 39  23  38  1   
 40  23  39  1   
 41  24  25  1   
 42  24  40  1   
 43  24  41  1   
 44  25  42  1   
 45  25  43  1   
@<TRIPOS>SUBSTRUCTURE
  1 ****  12 GROUP 4 **** **** 0

# MOE 2024.06 (io_trps.svl 2023.06)
