@<TRIPOS>MOLECULE
NONAME
54 57 1 0 0 
SMALL
USER_CHARGES


@<TRIPOS>ATOM
  1 CL      -1.1110     0.5130    -0.8840 Cl    1 <1>  -0.1400 
  2 C       -0.9060    -1.2120    -0.7300 C.2   1 <1>   0.1400 
  3 C       -1.9730    -2.0560    -0.8570 C.2   1 <1>   0.1910 
  4 C        0.3730    -1.7130    -0.4730 C.2   1 <1>  -0.1500 
  5 N       -1.8170    -3.4240    -0.7360 N.pl3 1 <1>  -0.5760 
  6 C        0.5170    -3.0720    -0.3550 C.2   1 <1>  -0.1800 
  7 C       -2.9100    -4.2910    -0.8680 C.2   1 <1>   0.9370 
  8 C       -0.5840    -3.9380    -0.4870 C.cat 1 <1>   0.7390 
  9 O       -4.0080    -3.8280    -1.0800 O.2   1 <1>  -0.5700 
 10 C       -2.7050    -5.6840    -0.7450 C.2   1 <1>  -0.1360 
 11 N       -0.4350    -5.2790    -0.3680 N.pl3 1 <1>  -0.6450 
 12 C       -1.4770    -6.1790    -0.4910 C.2   1 <1>   0.2030 
 13 C       -1.1640    -7.6740    -0.3430 C.3   1 <1>   0.2480 
 14 N       -2.3840    -8.4790    -0.1680 N.3   1 <1>  -0.8100 
 15 C       -2.1840    -9.8670    -0.6640 C.3   1 <1>   0.1100 
 16 C       -2.9090    -8.4500     1.2030 C.3   1 <1>   0.1100 
 17 C       -3.3180   -10.8690    -0.2870 C.3   1 <1>   0.0000 
 18 C       -4.3290    -9.0340     1.2220 C.3   1 <1>  -0.1600 
 19 C       -4.5710   -10.0320     0.0780 C.3   1 <1>   0.2000 
 20 C       -3.6710   -11.7200    -1.5330 C.3   1 <1>   0.1200 
 21 C       -2.9170   -11.7920     0.9100 C.3   1 <1>  -0.0170 
 22 O       -5.6470   -10.8380     0.4180 O.3   1 <1>  -0.6800 
 23 O       -2.5330   -12.2560    -2.1240 O.3   1 <1>  -0.6800 
 24 C       -1.7230   -12.7160     0.6880 C.ar  1 <1>  -0.1430 
 25 C       -0.4370   -12.3000     1.0000 C.ar  1 <1>  -0.1500 
 26 C       -1.9150   -13.9980     0.1930 C.ar  1 <1>  -0.1500 
 27 C        0.6430   -13.1410     0.7910 C.ar  1 <1>  -0.1500 
 28 C       -0.8370   -14.8390    -0.0180 C.ar  1 <1>  -0.1500 
 29 C        0.4430   -14.4090     0.2780 C.ar  1 <1>  -0.1500 
 30 H       -2.9560    -1.6510    -1.0560 H     1 <1>   0.1500 
 31 H        1.2020    -1.0290    -0.3770 H     1 <1>   0.1500 
 32 H        1.4880    -3.4890    -0.1580 H     1 <1>   0.1500 
 33 H       -3.5730    -6.3050    -0.8670 H     1 <1>   0.1500 
 34 H        0.5100    -5.6330    -0.1880 H     1 <1>   0.4500 
 35 H       -0.5070    -7.8400     0.4940 H     1 <1>   0.0800 
 36 H       -0.6520    -7.9930    -1.2360 H     1 <1>   0.0800 
 37 H       -2.1200    -9.8060    -1.7390 H     1 <1>   0.0800 
 38 H       -1.2380   -10.2440    -0.3260 H     1 <1>   0.0800 
 39 H       -2.2600    -9.0210     1.8470 H     1 <1>   0.0800 
 40 H       -2.9410    -7.4410     1.5780 H     1 <1>   0.0800 
 41 H       -5.0360    -8.2300     1.1220 H     1 <1>   0.0800 
 42 H       -4.4910    -9.4960     2.1790 H     1 <1>   0.0800 
 43 H       -4.8670    -9.4750    -0.7960 H     1 <1>   0.0800 
 44 H       -4.1570   -11.1120    -2.2780 H     1 <1>   0.0800 
 45 H       -4.3330   -12.5280    -1.2730 H     1 <1>   0.0800 
 46 H       -2.7120   -11.2000     1.7810 H     1 <1>   0.0800 
 47 H       -3.7550   -12.4160     1.1650 H     1 <1>   0.0800 
 48 H       -5.5360   -11.2040     1.3150 H     1 <1>   0.4000 
 49 H       -2.0300   -12.7900    -1.4670 H     1 <1>   0.4000 
 50 H       -0.2650   -11.3220     1.4120 H     1 <1>   0.1500 
 51 H       -2.9070   -14.3520    -0.0350 H     1 <1>   0.1500 
 52 H        1.6390   -12.8110     1.0310 H     1 <1>   0.1500 
 53 H       -0.9950   -15.8290    -0.4100 H     1 <1>   0.1500 
 54 H        1.2830   -15.0630     0.1130 H     1 <1>   0.1500 
@<TRIPOS>BOND
  1   1   2  1   
  2   2   3  2   
  3   2   4  1   
  4   3   5  1   
  5   3  30  1   
  6   4   6  2   
  7   4  31  1   
  8   5   7  1   
  9   5   8  ar  
 10   6   8  1   
 11   6  32  1   
 12   7   9  2   
 13   7  10  1   
 14   8  11  ar  
 15  10  12  2   
 16  10  33  1   
 17  11  12  1   
 18  11  34  1   
 19  12  13  1   
 20  13  14  1   
 21  13  35  1   
 22  13  36  1   
 23  14  15  1   
 24  14  16  1   
 25  15  17  1   
 26  15  37  1   
 27  15  38  1   
 28  16  18  1   
 29  16  39  1   
 30  16  40  1   
 31  17  19  1   
 32  17  20  1   
 33  17  21  1   
 34  18  19  1   
 35  18  41  1   
 36  18  42  1   
 37  19  22  1   
 38  19  43  1   
 39  20  23  1   
 40  20  44  1   
 41  20  45  1   
 42  21  24  1   
 43  21  46  1   
 44  21  47  1   
 45  22  48  1   
 46  23  49  1   
 47  24  25  ar  
 48  24  26  ar  
 49  25  27  ar  
 50  25  50  1   
 51  26  28  ar  
 52  26  51  1   
 53  27  29  ar  
 54  27  52  1   
 55  28  29  ar  
 56  28  53  1   
 57  29  54  1   
@<TRIPOS>SUBSTRUCTURE
  1 ****  14 GROUP 4 **** **** 0

# MOE 2024.06 (io_trps.svl 2023.06)
