@<TRIPOS>MOLECULE
NONAME
45 47 1 0 0 
SMALL
USER_CHARGES


@<TRIPOS>ATOM
  1 S        0.7780    -0.1380    -1.2870 S.o2  1 <1>   1.5010 
  2 O        1.9270    -0.9970    -1.1060 O.2   1 <1>  -0.6500 
  3 O        0.2770     0.1290    -2.6140 O.2   1 <1>  -0.6500 
  4 N        1.2810     1.3550    -0.6580 N.am  1 <1>  -0.8490 
  5 C       -0.5710    -0.6110    -0.2050 C.2   1 <1>  -0.0630 
  6 C        1.7710     1.2990     0.7480 C.3   1 <1>   0.2760 
  7 C        2.0340     2.1450    -1.6550 C.3   1 <1>   0.1960 
  8 C       -1.6840     0.0520     0.1460 C.2   1 <1>  -0.0400 
  9 C       -0.7020    -1.7870     0.5060 C.2   1 <1>   0.1080 
 10 C        1.6490     2.6690     1.4330 C.3   1 <1>   0.1200 
 11 C        3.1920     0.7050     0.9680 C.3   1 <1>   0.3430 
 12 C        3.2180     2.9690    -1.1320 C.3   1 <1>  -0.0800 
 13 O       -2.4080    -0.6270     1.0070 O.3   1 <1>  -0.0190 
 14 C       -2.1970     1.4110    -0.2930 C.3   1 <1>  -0.0600 
 15 N       -1.7700    -1.7570     1.2100 N.2   1 <1>  -0.4100 
 16 C        0.2380    -2.9770     0.4900 C.3   1 <1>  -0.0590 
 17 O        2.7680     3.4620     1.1880 O.3   1 <1>  -0.5600 
 18 N        4.0930     0.7420    -0.2210 N.4   1 <1>  -0.9590 
 19 C        2.8360     4.0210    -0.0820 C.3   1 <1>   0.1200 
 20 C        4.4290     2.1190    -0.7170 C.3   1 <1>   0.3430 
 21 C        5.3880    -0.0200     0.0470 C.3   1 <1>   0.2370 
 22 C        6.4030    -0.0600    -1.1030 C.2   1 <1>   0.9060 
 23 O        7.0110     0.9810    -1.3740 O.co2 1 <1>  -0.9000 
 24 O        6.5100    -1.0990    -1.7550 O.co2 1 <1>  -0.9000 
 25 H        1.0950     0.6700     1.3010 H     1 <1>   0.0800 
 26 H        2.4160     1.4910    -2.4240 H     1 <1>   0.0800 
 27 H        1.3360     2.8070    -2.1410 H     1 <1>   0.0800 
 28 H        1.6040     2.5300     2.4990 H     1 <1>   0.0800 
 29 H        0.7570     3.1880     1.1240 H     1 <1>   0.0800 
 30 H        3.0730    -0.3220     1.2680 H     1 <1>   0.0800 
 31 H        3.6600     1.2240     1.7880 H     1 <1>   0.0800 
 32 H        3.5580     3.5410    -1.9770 H     1 <1>   0.0800 
 33 H       -1.5340     1.8610    -1.0090 H     1 <1>   0.0800 
 34 H       -2.2880     2.0610     0.5580 H     1 <1>   0.0800 
 35 H       -3.1660     1.3000    -0.7460 H     1 <1>   0.0800 
 36 H        0.4080    -3.3030    -0.5200 H     1 <1>   0.0800 
 37 H       -0.1930    -3.7930     1.0430 H     1 <1>   0.0800 
 38 H        1.1780    -2.7160     0.9400 H     1 <1>   0.0800 
 39 H        3.6220     0.2190    -0.9830 H     1 <1>   0.4500 
 40 H        1.8980     4.4990    -0.3150 H     1 <1>   0.0800 
 41 H        3.5980     4.7820    -0.0420 H     1 <1>   0.0800 
 42 H        4.9990     2.6460     0.0310 H     1 <1>   0.0800 
 43 H        5.0640     2.0220    -1.5840 H     1 <1>   0.0800 
 44 H        5.8950     0.4200     0.8860 H     1 <1>   0.0800 
 45 H        5.1610    -1.0420     0.2880 H     1 <1>   0.0800 
@<TRIPOS>BOND
  1   1   2  2   
  2   1   3  2   
  3   1   4  am  
  4   1   5  1   
  5   4   6  1   
  6   4   7  1   
  7   5   8  2   
  8   5   9  1   
  9   6  10  1   
 10   6  11  1   
 11   6  25  1   
 12   7  12  1   
 13   7  26  1   
 14   7  27  1   
 15   8  13  1   
 16   8  14  1   
 17   9  15  2   
 18   9  16  1   
 19  10  17  1   
 20  10  28  1   
 21  10  29  1   
 22  11  18  1   
 23  11  30  1   
 24  11  31  1   
 25  12  19  1   
 26  12  20  1   
 27  12  32  1   
 28  13  15  1   
 29  14  33  1   
 30  14  34  1   
 31  14  35  1   
 32  16  36  1   
 33  16  37  1   
 34  16  38  1   
 35  17  19  1   
 36  18  20  1   
 37  18  21  1   
 38  18  39  1   
 39  19  40  1   
 40  19  41  1   
 41  20  42  1   
 42  20  43  1   
 43  21  22  1   
 44  21  44  1   
 45  21  45  1   
 46  22  23  ar  
 47  22  24  ar  
@<TRIPOS>SUBSTRUCTURE
  1 ****   4 GROUP 4 **** **** 0

# MOE 2024.06 (io_trps.svl 2023.06)
