@<TRIPOS>MOLECULE
NONAME
58 60 1 0 0 
SMALL
USER_CHARGES


@<TRIPOS>ATOM
  1 O       -2.2890     0.2130    -2.5880 O.2   1 <1>  -0.5700 
  2 C       -1.8550     0.7970    -1.6140 C.2   1 <1>   0.5440 
  3 N       -1.9560     0.1470    -0.4040 N.am  1 <1>  -0.6600 
  4 C       -1.3380     2.1520    -1.7210 C.ar  1 <1>   0.0860 
  5 C       -2.6560     0.7930     0.7450 C.3   1 <1>   0.1400 
  6 C       -2.0240    -1.3410    -0.3770 C.3   1 <1>   0.1400 
  7 C       -0.4210     2.6590    -0.8000 C.ar  1 <1>  -0.1500 
  8 C       -1.7500     3.0020    -2.7470 C.ar  1 <1>  -0.1500 
  9 C       -4.1310     0.3250     0.8340 C.3   1 <1>   0.4230 
 10 C       -3.4950    -1.7920    -0.3540 C.3   1 <1>   0.3430 
 11 C        0.0470     3.9610    -0.8640 C.ar  1 <1>   0.0730 
 12 C       -1.2870     4.3020    -2.8330 C.ar  1 <1>  -0.1500 
 13 N       -4.2580    -1.1920     0.8100 N.4   1 <1>  -0.9590 
 14 C       -4.9800     0.9680    -0.2870 C.3   1 <1>   0.1200 
 15 C        0.9640     4.4440     0.1230 C.1   1 <1>  -0.0730 
 16 C       -0.3960     4.7800    -1.8910 C.ar  1 <1>  -0.1500 
 17 C       -5.7160    -1.5680     0.8230 C.3   1 <1>   0.4230 
 18 O       -6.3110     0.5530    -0.1800 O.3   1 <1>  -0.5600 
 19 C        1.7100     4.8230     0.9700 C.1   1 <1>  -0.2000 
 20 C       -6.5030    -0.8290    -0.2880 C.3   1 <1>   0.1200 
 21 C       -5.8850    -3.0950     0.7600 C.3   1 <1>  -0.1600 
 22 C        2.6330     5.2810     2.0450 C.3   1 <1>   0.4800 
 23 C       -7.3000    -3.5450     1.1550 C.3   1 <1>  -0.1600 
 24 O        2.1950     4.7360     3.2230 O.3   1 <1>  -0.6800 
 25 C        2.5870     6.7960     2.2010 C.3   1 <1>  -0.2400 
 26 C        4.0500     4.7720     1.8080 C.3   1 <1>  -0.2400 
 27 C       -7.4040    -5.0720     1.1610 C.3   1 <1>  -0.2400 
 28 H       -2.1410     0.5440     1.6570 H     1 <1>   0.0800 
 29 H       -2.6290     1.8650     0.6460 H     1 <1>   0.0800 
 30 H       -1.5400    -1.7450    -1.2510 H     1 <1>   0.0800 
 31 H       -1.5030    -1.7150     0.4860 H     1 <1>   0.0800 
 32 H       -0.0560     2.0260    -0.0110 H     1 <1>   0.1500 
 33 H       -2.4420     2.6370    -3.4870 H     1 <1>   0.1500 
 34 H       -4.5280     0.6920     1.7660 H     1 <1>   0.0800 
 35 H       -3.5260    -2.8680    -0.3030 H     1 <1>   0.0800 
 36 H       -3.9490    -1.4930    -1.2850 H     1 <1>   0.0800 
 37 H       -1.6200     4.9420    -3.6330 H     1 <1>   0.1500 
 38 H       -3.8370    -1.5490     1.6740 H     1 <1>   0.4500 
 39 H       -4.6150     0.7070    -1.2660 H     1 <1>   0.0800 
 40 H       -4.9680     2.0410    -0.1960 H     1 <1>   0.0800 
 41 H       -0.0380     5.7930    -1.9530 H     1 <1>   0.1500 
 42 H       -6.1350    -1.2430     1.7620 H     1 <1>   0.0800 
 43 H       -7.5580    -1.0110    -0.1840 H     1 <1>   0.0800 
 44 H       -6.1980    -1.1470    -1.2690 H     1 <1>   0.0800 
 45 H       -5.6780    -3.4530    -0.2330 H     1 <1>   0.0800 
 46 H       -5.1910    -3.5540     1.4430 H     1 <1>   0.0800 
 47 H       -7.5460    -3.1770     2.1380 H     1 <1>   0.0800 
 48 H       -8.0290    -3.1580     0.4630 H     1 <1>   0.0800 
 49 H        2.7790     5.0310     3.9420 H     1 <1>   0.4000 
 50 H        2.9050     7.2640     1.2870 H     1 <1>   0.0800 
 51 H        3.2380     7.1200     2.9930 H     1 <1>   0.0800 
 52 H        1.5810     7.1150     2.4100 H     1 <1>   0.0800 
 53 H        4.4230     5.1620     0.8780 H     1 <1>   0.0800 
 54 H        4.0500     3.6980     1.7450 H     1 <1>   0.0800 
 55 H        4.7080     5.0860     2.5970 H     1 <1>   0.0800 
 56 H       -6.7170    -5.5010     1.8700 H     1 <1>   0.0800 
 57 H       -7.1930    -5.4740     0.1850 H     1 <1>   0.0800 
 58 H       -8.4010    -5.3710     1.4380 H     1 <1>   0.0800 
@<TRIPOS>BOND
  1   1   2  2   
  2   2   3  am  
  3   2   4  1   
  4   3   5  1   
  5   3   6  1   
  6   4   7  ar  
  7   4   8  ar  
  8   5   9  1   
  9   5  28  1   
 10   5  29  1   
 11   6  10  1   
 12   6  30  1   
 13   6  31  1   
 14   7  11  ar  
 15   7  32  1   
 16   8  12  ar  
 17   8  33  1   
 18   9  13  1   
 19   9  14  1   
 20   9  34  1   
 21  10  13  1   
 22  10  35  1   
 23  10  36  1   
 24  11  15  1   
 25  11  16  ar  
 26  12  16  ar  
 27  12  37  1   
 28  13  17  1   
 29  13  38  1   
 30  14  18  1   
 31  14  39  1   
 32  14  40  1   
 33  15  19  3   
 34  16  41  1   
 35  17  20  1   
 36  17  21  1   
 37  17  42  1   
 38  18  20  1   
 39  19  22  1   
 40  20  43  1   
 41  20  44  1   
 42  21  23  1   
 43  21  45  1   
 44  21  46  1   
 45  22  24  1   
 46  22  25  1   
 47  22  26  1   
 48  23  27  1   
 49  23  47  1   
 50  23  48  1   
 51  24  49  1   
 52  25  50  1   
 53  25  51  1   
 54  25  52  1   
 55  26  53  1   
 56  26  54  1   
 57  26  55  1   
 58  27  56  1   
 59  27  57  1   
 60  27  58  1   
@<TRIPOS>SUBSTRUCTURE
  1 ****   5 GROUP 4 **** **** 0

# MOE 2024.06 (io_trps.svl 2023.06)
