@<TRIPOS>MOLECULE
NONAME
49 51 1 0 0 
SMALL
USER_CHARGES


@<TRIPOS>ATOM
  1 O        0.1000     0.0330    -1.0700 O.2   1 <1>  -0.5700 
  2 C       -0.8550     0.7630    -0.9690 C.2   1 <1>   0.5690 
  3 N       -2.1150     0.2840    -0.7440 N.am  1 <1>  -0.6600 
  4 C       -0.6120     2.2500    -1.0580 C.3   1 <1>  -0.0990 
  5 C       -3.3590     1.0850    -0.5830 C.3   1 <1>   0.1400 
  6 C       -2.3900    -1.1560    -0.5260 C.3   1 <1>   0.1400 
  7 C       -0.3730     2.8010     0.3480 C.3   1 <1>   0.0960 
  8 C       -4.4680     0.0520    -0.3790 C.3   1 <1>   0.2000 
  9 C       -3.7650    -1.1990     0.1410 C.3   1 <1>  -0.0800 
 10 N       -0.5100     4.2650     0.3480 N.pl3 1 <1>   0.3140 
 11 O       -5.4140     0.4870     0.5350 O.3   1 <1>  -0.6800 
 12 C       -4.5430    -2.4940    -0.1320 C.3   1 <1>   0.0210 
 13 N       -1.7260     4.8350     0.4300 N.2   1 <1>  -0.7070 
 14 C        0.4660     5.1970     0.2460 C.2   1 <1>  -0.3320 
 15 C       -3.7390    -3.7110     0.2850 C.2   1 <1>   0.1080 
 16 C       -1.5000     6.1090     0.3840 C.2   1 <1>   0.1080 
 17 C       -0.1470     6.3990     0.2690 C.2   1 <1>  -0.1500 
 18 C        1.9510     4.8990     0.1260 C.3   1 <1>  -0.0600 
 19 N       -3.3060    -3.8880     1.4940 N.2   1 <1>  -0.7070 
 20 C       -3.3670    -4.7480    -0.5640 C.2   1 <1>  -0.1500 
 21 C       -2.6110     7.1300     0.4510 C.3   1 <1>  -0.0590 
 22 N       -2.6400    -5.0580     1.4490 N.pl3 1 <1>   0.3000 
 23 C       -2.6620    -5.5970     0.2120 C.2   1 <1>  -0.3320 
 24 C       -1.9950    -6.9090    -0.1580 C.3   1 <1>  -0.0600 
 25 H        0.2520     2.4300    -1.6710 H     1 <1>   0.0800 
 26 H       -1.4550     2.7320    -1.5150 H     1 <1>   0.0800 
 27 H       -3.2670     1.7260     0.2760 H     1 <1>   0.0800 
 28 H       -3.5490     1.6710    -1.4660 H     1 <1>   0.0800 
 29 H       -2.4050    -1.6570    -1.4780 H     1 <1>   0.0800 
 30 H       -1.6360    -1.6060     0.1000 H     1 <1>   0.0800 
 31 H        0.6040     2.5260     0.7010 H     1 <1>   0.0800 
 32 H       -1.1040     2.4070     1.0300 H     1 <1>   0.0800 
 33 H       -4.9640    -0.1360    -1.3150 H     1 <1>   0.0800 
 34 H       -3.6000    -1.1060     1.2010 H     1 <1>   0.0800 
 35 H       -5.0130     0.5730     1.4230 H     1 <1>   0.4000 
 36 H       -4.7840    -2.5680    -1.1770 H     1 <1>   0.0800 
 37 H       -5.4630    -2.4830     0.4240 H     1 <1>   0.0800 
 38 H        0.2890     7.3800     0.2100 H     1 <1>   0.1500 
 39 H        2.5050     5.8170     0.0380 H     1 <1>   0.0800 
 40 H        2.1420     4.3000    -0.7460 H     1 <1>   0.0800 
 41 H        2.2970     4.3740     0.9980 H     1 <1>   0.0800 
 42 H       -3.6030    -4.8300    -1.6100 H     1 <1>   0.1500 
 43 H       -2.2100     8.1250     0.3980 H     1 <1>   0.0800 
 44 H       -3.1480     7.0140     1.3740 H     1 <1>   0.0800 
 45 H       -3.2870     6.9770    -0.3690 H     1 <1>   0.0800 
 46 H       -2.1830    -5.4590     2.2770 H     1 <1>   0.2700 
 47 H       -2.1540    -7.1230    -1.2000 H     1 <1>   0.0800 
 48 H       -2.4090    -7.7130     0.4240 H     1 <1>   0.0800 
 49 H       -0.9360    -6.8520     0.0220 H     1 <1>   0.0800 
@<TRIPOS>BOND
  1   1   2  2   
  2   2   3  am  
  3   2   4  1   
  4   3   5  1   
  5   3   6  1   
  6   4   7  1   
  7   4  25  1   
  8   4  26  1   
  9   5   8  1   
 10   5  27  1   
 11   5  28  1   
 12   6   9  1   
 13   6  29  1   
 14   6  30  1   
 15   7  10  1   
 16   7  31  1   
 17   7  32  1   
 18   8   9  1   
 19   8  11  1   
 20   8  33  1   
 21   9  12  1   
 22   9  34  1   
 23  10  13  1   
 24  10  14  1   
 25  11  35  1   
 26  12  15  1   
 27  12  36  1   
 28  12  37  1   
 29  13  16  2   
 30  14  17  2   
 31  14  18  1   
 32  15  19  2   
 33  15  20  1   
 34  16  17  1   
 35  16  21  1   
 36  17  38  1   
 37  18  39  1   
 38  18  40  1   
 39  18  41  1   
 40  19  22  1   
 41  20  23  2   
 42  20  42  1   
 43  21  43  1   
 44  21  44  1   
 45  21  45  1   
 46  22  23  1   
 47  22  46  1   
 48  23  24  1   
 49  24  47  1   
 50  24  48  1   
 51  24  49  1   
@<TRIPOS>SUBSTRUCTURE
  1 ****   3 GROUP 4 **** **** 0

# MOE 2024.06 (io_trps.svl 2023.06)
