@<TRIPOS>MOLECULE
NONAME
61 64 1 0 0 
SMALL
USER_CHARGES


@<TRIPOS>ATOM
  1 O       -0.1430    -0.4930     0.0760 O.2   1 <1>  -0.5700 
  2 C        0.6440    -1.3920     0.2130 C.2   1 <1>   0.5690 
  3 N        0.2450    -2.6480     0.4990 N.am  1 <1>  -0.7300 
  4 C        2.1310    -1.1490     0.0770 C.3   1 <1>  -0.0990 
  5 C        1.1740    -3.7790     0.6770 C.3   1 <1>   0.1400 
  6 C        2.7950    -2.2810    -0.7340 C.3   1 <1>  -0.0800 
  7 C        2.2850    -3.7050    -0.3930 C.3   1 <1>  -0.0800 
  8 C        4.3190    -2.3180    -0.5740 C.3   1 <1>  -0.1600 
  9 C        3.5330    -4.5270    -0.0320 C.3   1 <1>  -0.1600 
 10 C        4.6770    -3.7920    -0.7290 C.3   1 <1>   0.4230 
 11 N        6.0460    -4.1510    -0.2440 N.4   1 <1>  -0.9590 
 12 C        6.3360    -3.9190     1.2000 C.3   1 <1>   0.5240 
 13 C        6.4040    -5.5490    -0.6380 C.3   1 <1>   0.2630 
 14 C        6.9110    -2.5280     1.3450 C.2   1 <1>  -0.1810 
 15 C        6.5930    -1.6490     2.3740 C.2   1 <1>   0.1390 
 16 C        7.7830    -1.8400     0.5730 C.2   1 <1>  -0.3020 
 17 N        7.1940    -0.5140     2.2440 N.2   1 <1>  -0.7070 
 18 N        7.9570    -0.6110     1.1270 N.pl3 1 <1>   0.5930 
 19 C        8.7470     0.4530     0.6070 C.ar  1 <1>  -0.0230 
 20 C        8.2980     1.7680     0.6830 C.ar  1 <1>  -0.1500 
 21 C        9.9790     0.2080     0.0060 C.ar  1 <1>  -0.1500 
 22 C        9.0490     2.8050     0.1600 C.ar  1 <1>  -0.1500 
 23 C       10.7290     1.2470    -0.5170 C.ar  1 <1>  -0.1500 
 24 C       10.2680     2.5510    -0.4460 C.ar  1 <1>  -0.1440 
 25 C       11.0940     3.6920    -1.0180 C.3   1 <1>  -0.0170 
 26 C       12.0460     4.2520     0.0440 C.3   1 <1>  -0.1600 
 27 C       12.8910     5.4080    -0.5070 C.3   1 <1>  -0.1600 
 28 C       13.8360     5.9570     0.5640 C.3   1 <1>  -0.2400 
 29 H       -0.7580    -2.8010     0.6310 H     1 <1>   0.3700 
 30 H        2.2950    -0.2010    -0.4030 H     1 <1>   0.0800 
 31 H        2.5370    -1.0960     1.0700 H     1 <1>   0.0800 
 32 H        1.5930    -3.7180     1.6670 H     1 <1>   0.0800 
 33 H        0.6350    -4.7090     0.5900 H     1 <1>   0.0800 
 34 H        2.5640    -2.1050    -1.7730 H     1 <1>   0.0800 
 35 H        1.8700    -4.1170    -1.2990 H     1 <1>   0.0800 
 36 H        4.5670    -1.9590     0.4050 H     1 <1>   0.0800 
 37 H        4.8030    -1.7060    -1.3160 H     1 <1>   0.0800 
 38 H        3.4360    -5.5400    -0.3790 H     1 <1>   0.0800 
 39 H        3.6620    -4.5200     1.0340 H     1 <1>   0.0800 
 40 H        4.6130    -4.0210    -1.7810 H     1 <1>   0.0800 
 41 H        6.6890    -3.5090    -0.7260 H     1 <1>   0.4500 
 42 H        5.4430    -4.0180     1.7940 H     1 <1>   0.0800 
 43 H        7.0630    -4.6300     1.5560 H     1 <1>   0.0800 
 44 H        5.7690    -6.2570    -0.1300 H     1 <1>   0.0800 
 45 H        7.4300    -5.7600    -0.3840 H     1 <1>   0.0800 
 46 H        6.2820    -5.6810    -1.7010 H     1 <1>   0.0800 
 47 H        5.9210    -1.8590     3.1930 H     1 <1>   0.1500 
 48 H        8.2990    -2.1130    -0.3280 H     1 <1>   0.1500 
 49 H        7.3550     1.9820     1.1570 H     1 <1>   0.1500 
 50 H       10.3660    -0.7930    -0.0530 H     1 <1>   0.1500 
 51 H        8.6820     3.8140     0.2320 H     1 <1>   0.1500 
 52 H       11.6800     1.0400    -0.9770 H     1 <1>   0.1500 
 53 H       11.6590     3.3400    -1.8640 H     1 <1>   0.0800 
 54 H       10.4380     4.4710    -1.3660 H     1 <1>   0.0800 
 55 H       11.4700     4.5960     0.8870 H     1 <1>   0.0800 
 56 H       12.6940     3.4630     0.3870 H     1 <1>   0.0800 
 57 H       13.4700     5.0650    -1.3480 H     1 <1>   0.0800 
 58 H       12.2450     6.1990    -0.8470 H     1 <1>   0.0800 
 59 H       14.5080     5.1880     0.9040 H     1 <1>   0.0800 
 60 H       13.2780     6.3250     1.4070 H     1 <1>   0.0800 
 61 H       14.4190     6.7660     0.1610 H     1 <1>   0.0800 
@<TRIPOS>BOND
  1   1   2  2   
  2   2   3  am  
  3   2   4  1   
  4   3   5  1   
  5   3  29  1   
  6   4   6  1   
  7   4  30  1   
  8   4  31  1   
  9   5   7  1   
 10   5  32  1   
 11   5  33  1   
 12   6   7  1   
 13   6   8  1   
 14   6  34  1   
 15   7   9  1   
 16   7  35  1   
 17   8  10  1   
 18   8  36  1   
 19   8  37  1   
 20   9  10  1   
 21   9  38  1   
 22   9  39  1   
 23  10  11  1   
 24  10  40  1   
 25  11  12  1   
 26  11  13  1   
 27  11  41  1   
 28  12  14  1   
 29  12  42  1   
 30  12  43  1   
 31  13  44  1   
 32  13  45  1   
 33  13  46  1   
 34  14  15  1   
 35  14  16  2   
 36  15  17  2   
 37  15  47  1   
 38  16  18  1   
 39  16  48  1   
 40  17  18  1   
 41  18  19  1   
 42  19  20  ar  
 43  19  21  ar  
 44  20  22  ar  
 45  20  49  1   
 46  21  23  ar  
 47  21  50  1   
 48  22  24  ar  
 49  22  51  1   
 50  23  24  ar  
 51  23  52  1   
 52  24  25  1   
 53  25  26  1   
 54  25  53  1   
 55  25  54  1   
 56  26  27  1   
 57  26  55  1   
 58  26  56  1   
 59  27  28  1   
 60  27  57  1   
 61  27  58  1   
 62  28  59  1   
 63  28  60  1   
 64  28  61  1   
@<TRIPOS>SUBSTRUCTURE
  1 ****  18 GROUP 4 **** **** 0

# MOE 2024.06 (io_trps.svl 2023.06)
