@<TRIPOS>MOLECULE
NONAME
44 46 1 0 0 
SMALL
USER_CHARGES


@<TRIPOS>ATOM
  1 N        0.2710    -1.3130     0.4720 N.2   1 <1>  -0.7070 
  2 N       -0.1940    -1.4580    -0.7810 N.pl3 1 <1>   0.3140 
  3 C        1.3230    -0.5650     0.3520 C.2   1 <1>   0.1080 
  4 C        0.5750    -0.8010    -1.6690 C.2   1 <1>  -0.3020 
  5 C       -1.3980    -2.2490    -1.0660 C.3   1 <1>   0.0960 
  6 C        1.5660    -0.2120    -0.9690 C.2   1 <1>  -0.1500 
  7 C        2.1640    -0.1430     1.5350 C.3   1 <1>  -0.0590 
  8 C       -1.5640    -3.2960     0.0420 C.3   1 <1>   0.3430 
  9 N       -2.7730    -4.1690    -0.1360 N.4   1 <1>  -0.9590 
 10 C       -2.6980    -5.3330     0.8100 C.3   1 <1>   0.3430 
 11 C       -4.0560    -3.4290     0.0460 C.3   1 <1>   0.3430 
 12 C       -4.0230    -6.1170     0.8950 C.3   1 <1>  -0.0800 
 13 C       -5.2300    -4.3080    -0.4010 C.3   1 <1>  -0.1600 
 14 C       -4.9520    -5.8220    -0.2990 C.3   1 <1>  -0.0800 
 15 C       -3.7510    -7.6260     1.0190 C.3   1 <1>  -0.1600 
 16 C       -6.2610    -6.6230    -0.2030 C.3   1 <1>  -0.1600 
 17 C       -5.0590    -8.4230     1.1120 C.3   1 <1>  -0.1600 
 18 C       -5.9800    -8.1250    -0.0780 C.3   1 <1>  -0.1600 
 19 H        0.3860    -0.7820    -2.7270 H     1 <1>   0.1500 
 20 H       -2.2320    -1.5750    -1.0900 H     1 <1>   0.0800 
 21 H       -1.2750    -2.7230    -2.0210 H     1 <1>   0.0800 
 22 H        2.3750     0.4000    -1.3270 H     1 <1>   0.1500 
 23 H        2.9770     0.4810     1.2150 H     1 <1>   0.0800 
 24 H        2.5600    -1.0140     2.0250 H     1 <1>   0.0800 
 25 H        1.5550     0.4030     2.2320 H     1 <1>   0.0800 
 26 H       -1.6260    -2.7880     0.9920 H     1 <1>   0.0800 
 27 H       -0.6780    -3.9090     0.0570 H     1 <1>   0.0800 
 28 H       -2.7800    -4.5640    -1.0850 H     1 <1>   0.4500 
 29 H       -1.9170    -6.0000     0.4820 H     1 <1>   0.0800 
 30 H       -2.4380    -4.9890     1.7990 H     1 <1>   0.0800 
 31 H       -4.1750    -3.1780     1.0880 H     1 <1>   0.0800 
 32 H       -4.0580    -2.5140    -0.5230 H     1 <1>   0.0800 
 33 H       -4.5260    -5.8050     1.7960 H     1 <1>   0.0800 
 34 H       -6.0780    -4.0470     0.2080 H     1 <1>   0.0800 
 35 H       -5.4930    -4.0660    -1.4170 H     1 <1>   0.0800 
 36 H       -4.4480    -6.1350    -1.1990 H     1 <1>   0.0800 
 37 H       -3.1960    -7.9710     0.1630 H     1 <1>   0.0800 
 38 H       -3.1600    -7.8250     1.8980 H     1 <1>   0.0800 
 39 H       -6.8260    -6.3020     0.6560 H     1 <1>   0.0800 
 40 H       -6.8640    -6.4480    -1.0780 H     1 <1>   0.0800 
 41 H       -4.8390    -9.4770     1.1390 H     1 <1>   0.0800 
 42 H       -5.5690    -8.1740     2.0270 H     1 <1>   0.0800 
 43 H       -6.9100    -8.6550     0.0480 H     1 <1>   0.0800 
 44 H       -5.5220    -8.4840    -0.9840 H     1 <1>   0.0800 
@<TRIPOS>BOND
  1   1   2  1   
  2   1   3  2   
  3   2   4  1   
  4   2   5  1   
  5   3   6  1   
  6   3   7  1   
  7   4   6  2   
  8   4  19  1   
  9   5   8  1   
 10   5  20  1   
 11   5  21  1   
 12   6  22  1   
 13   7  23  1   
 14   7  24  1   
 15   7  25  1   
 16   8   9  1   
 17   8  26  1   
 18   8  27  1   
 19   9  10  1   
 20   9  11  1   
 21   9  28  1   
 22  10  12  1   
 23  10  29  1   
 24  10  30  1   
 25  11  13  1   
 26  11  31  1   
 27  11  32  1   
 28  12  14  1   
 29  12  15  1   
 30  12  33  1   
 31  13  14  1   
 32  13  34  1   
 33  13  35  1   
 34  14  16  1   
 35  14  36  1   
 36  15  17  1   
 37  15  37  1   
 38  15  38  1   
 39  16  18  1   
 40  16  39  1   
 41  16  40  1   
 42  17  18  1   
 43  17  41  1   
 44  17  42  1   
 45  18  43  1   
 46  18  44  1   
@<TRIPOS>SUBSTRUCTURE
  1 ****   9 GROUP 4 **** **** 0

# MOE 2024.06 (io_trps.svl 2023.06)
