@<TRIPOS>MOLECULE
NONAME
61 64 1 0 0 
SMALL
USER_CHARGES


@<TRIPOS>ATOM
  1 O       -0.6780     0.5550     1.4370 O.2   1 <1>  -0.5700 
  2 C       -1.3850     0.9970     0.5620 C.2   1 <1>   0.5690 
  3 N       -2.2820     0.2000    -0.0890 N.am  1 <1>  -0.6600 
  4 C       -1.2730     2.4730     0.1960 C.3   1 <1>  -0.0990 
  5 C       -3.3360     0.6300    -1.0450 C.3   1 <1>   0.1400 
  6 C       -2.4670    -1.2310     0.2620 C.3   1 <1>   0.1400 
  7 C        0.0190     3.1580     0.6950 C.3   1 <1>  -0.0800 
  8 C       -4.4430    -0.4060    -0.8680 C.3   1 <1>   0.2000 
  9 C       -3.6810    -1.6980    -0.5530 C.3   1 <1>  -0.0800 
 10 C       -0.0310     4.6760     0.4630 C.3   1 <1>  -0.1600 
 11 C        1.2770     2.5820     0.0190 C.3   1 <1>  -0.1600 
 12 O       -5.2020    -0.0340     0.2310 O.3   1 <1>  -0.6800 
 13 C       -4.5170    -2.7910     0.1400 C.3   1 <1>   0.0200 
 14 C        1.2530     5.3560     0.9410 C.3   1 <1>   0.3430 
 15 C        2.5410     3.2810     0.5150 C.3   1 <1>   0.3430 
 16 C       -3.7720    -4.1060     0.2980 C.2   1 <1>  -0.0400 
 17 N        2.4350     4.7450     0.2620 N.4   1 <1>  -0.9590 
 18 O       -4.3310    -5.0620     0.9910 O.3   1 <1>  -0.0190 
 19 C       -2.5860    -4.5610    -0.1410 C.2   1 <1>  -0.1500 
 20 C        3.6950     5.4480     0.6220 C.3   1 <1>   0.4860 
 21 N       -3.5850    -6.1270     1.0440 N.2   1 <1>  -0.4100 
 22 C       -2.5260    -5.8540     0.3710 C.2   1 <1>   0.1080 
 23 C        3.6150     6.8720     0.1100 C.ar  1 <1>  -0.1440 
 24 C       -1.3760    -6.8150     0.1680 C.3   1 <1>  -0.0590 
 25 C        3.4140     7.9220     0.9950 C.ar  1 <1>  -0.1500 
 26 C        3.7340     7.1360    -1.2470 C.ar  1 <1>  -0.1500 
 27 C        3.3200     9.2200     0.5250 C.ar  1 <1>  -0.1500 
 28 C        3.6390     8.4350    -1.7150 C.ar  1 <1>  -0.1500 
 29 C        3.4300     9.4760    -0.8290 C.ar  1 <1>  -0.1500 
 30 H       -1.3370     2.5730    -0.8710 H     1 <1>   0.0800 
 31 H       -2.1230     2.9700     0.6280 H     1 <1>   0.0800 
 32 H       -3.6940     1.6250    -0.8460 H     1 <1>   0.0800 
 33 H       -2.9440     0.5770    -2.0460 H     1 <1>   0.0800 
 34 H       -1.5830    -1.7950     0.0200 H     1 <1>   0.0800 
 35 H       -2.6570    -1.3130     1.3200 H     1 <1>   0.0800 
 36 H        0.0940     2.9880     1.7580 H     1 <1>   0.0800 
 37 H       -5.0930    -0.4850    -1.7230 H     1 <1>   0.0800 
 38 H       -3.3170    -2.0910    -1.4860 H     1 <1>   0.0800 
 39 H       -0.8620     5.0950     1.0050 H     1 <1>   0.0800 
 40 H       -0.1840     4.8940    -0.5800 H     1 <1>   0.0800 
 41 H        1.2080     2.6760    -1.0510 H     1 <1>   0.0800 
 42 H        1.3680     1.5340     0.2430 H     1 <1>   0.0800 
 43 H       -4.6050     0.1380     0.9870 H     1 <1>   0.4000 
 44 H       -5.4100    -2.9740    -0.4320 H     1 <1>   0.0800 
 45 H       -4.8230    -2.4570     1.1170 H     1 <1>   0.0800 
 46 H        1.3440     5.2380     2.0090 H     1 <1>   0.0800 
 47 H        1.2010     6.4110     0.7190 H     1 <1>   0.0800 
 48 H        3.3980     2.8740     0.0020 H     1 <1>   0.0800 
 49 H        2.6560     3.0970     1.5710 H     1 <1>   0.0800 
 50 H        2.3000     4.8910    -0.7450 H     1 <1>   0.4500 
 51 H       -1.8340    -4.0870    -0.7420 H     1 <1>   0.1500 
 52 H        3.8330     5.4450     1.6910 H     1 <1>   0.0800 
 53 H        4.5390     4.9560     0.1670 H     1 <1>   0.0800 
 54 H       -0.4640    -6.3730     0.5250 H     1 <1>   0.0800 
 55 H       -1.2750    -7.0480    -0.8750 H     1 <1>   0.0800 
 56 H       -1.5580    -7.7240     0.7130 H     1 <1>   0.0800 
 57 H        3.3310     7.7490     2.0550 H     1 <1>   0.1500 
 58 H        3.9050     6.3440    -1.9560 H     1 <1>   0.1500 
 59 H        3.1650    10.0360     1.2120 H     1 <1>   0.1500 
 60 H        3.7320     8.6410    -2.7680 H     1 <1>   0.1500 
 61 H        3.3580    10.4870    -1.1940 H     1 <1>   0.1500 
@<TRIPOS>BOND
  1   1   2  2   
  2   2   3  am  
  3   2   4  1   
  4   3   5  1   
  5   3   6  1   
  6   4   7  1   
  7   4  30  1   
  8   4  31  1   
  9   5   8  1   
 10   5  32  1   
 11   5  33  1   
 12   6   9  1   
 13   6  34  1   
 14   6  35  1   
 15   7  10  1   
 16   7  11  1   
 17   7  36  1   
 18   8   9  1   
 19   8  12  1   
 20   8  37  1   
 21   9  13  1   
 22   9  38  1   
 23  10  14  1   
 24  10  39  1   
 25  10  40  1   
 26  11  15  1   
 27  11  41  1   
 28  11  42  1   
 29  12  43  1   
 30  13  16  1   
 31  13  44  1   
 32  13  45  1   
 33  14  17  1   
 34  14  46  1   
 35  14  47  1   
 36  15  17  1   
 37  15  48  1   
 38  15  49  1   
 39  16  18  1   
 40  16  19  2   
 41  17  20  1   
 42  17  50  1   
 43  18  21  1   
 44  19  22  1   
 45  19  51  1   
 46  20  23  1   
 47  20  52  1   
 48  20  53  1   
 49  21  22  2   
 50  22  24  1   
 51  23  25  ar  
 52  23  26  ar  
 53  24  54  1   
 54  24  55  1   
 55  24  56  1   
 56  25  27  ar  
 57  25  57  1   
 58  26  28  ar  
 59  26  58  1   
 60  27  29  ar  
 61  27  59  1   
 62  28  29  ar  
 63  28  60  1   
 64  29  61  1   
@<TRIPOS>SUBSTRUCTURE
  1 ****   2 GROUP 4 **** **** 0

# MOE 2024.06 (io_trps.svl 2023.06)
