@<TRIPOS>MOLECULE
NONAME
34 35 1 0 0 
SMALL
USER_CHARGES


@<TRIPOS>ATOM
  1 O        1.2600    -0.6500     2.4370 O.2   1 <1>  -0.5700 
  2 C        1.5050    -1.0270     1.3140 C.2   1 <1>   0.5690 
  3 N        2.0890    -0.2220     0.3790 N.am  1 <1>  -0.4930 
  4 C        1.1690    -2.4680     0.9220 C.3   1 <1>   0.2370 
  5 C        2.5030     1.1280     0.4740 C.2   1 <1>   0.0630 
  6 N        0.5970    -2.4620    -0.4460 N.pl3 1 <1>   0.3140 
  7 C        0.2530    -3.2110     1.9210 C.3   1 <1>  -0.2400 
  8 C        2.9600     1.8920    -0.5430 C.2   1 <1>  -0.3320 
  9 C        2.5400     1.9620     1.5910 C.2   1 <1>   0.1390 
 10 N        1.3660    -2.3620    -1.5300 N.2   1 <1>  -0.7070 
 11 C       -0.6800    -2.5040    -0.8420 C.2   1 <1>   0.0360 
 12 N        3.2470     3.1100    -0.0120 N.pl3 1 <1>   0.3140 
 13 C        3.1390     1.5290    -2.0110 C.3   1 <1>  -0.0600 
 14 N        2.9840     3.1490     1.3070 N.2   1 <1>  -0.7070 
 15 C        0.5000    -2.3720    -2.4900 C.2   1 <1>   0.3660 
 16 N       -0.7820    -2.4530    -2.1200 N.2   1 <1>  -0.5650 
 17 C        3.7760     4.2990    -0.7140 C.3   1 <1>   0.0960 
 18 C        5.3090     4.2740    -0.7690 C.3   1 <1>  -0.2400 
 19 H        2.1900    -0.6320    -0.5580 H     1 <1>   0.3700 
 20 H        2.0990    -3.0030     0.8690 H     1 <1>   0.0800 
 21 H       -0.6670    -2.6740     2.0680 H     1 <1>   0.0800 
 22 H        0.7470    -3.2820     2.8750 H     1 <1>   0.0800 
 23 H        0.0440    -4.2080     1.5750 H     1 <1>   0.0800 
 24 H        2.2360     1.6610     2.5790 H     1 <1>   0.1500 
 25 H       -1.5110    -2.5690    -0.1610 H     1 <1>   0.1500 
 26 H        2.8410     0.5120    -2.1920 H     1 <1>   0.0800 
 27 H        4.1700     1.6340    -2.2970 H     1 <1>   0.0800 
 28 H        2.5370     2.1710    -2.6270 H     1 <1>   0.0800 
 29 H        0.7670    -2.3160    -3.5340 H     1 <1>   0.1500 
 30 H        3.4450     5.1720    -0.1810 H     1 <1>   0.0800 
 31 H        3.3640     4.3290    -1.7050 H     1 <1>   0.0800 
 32 H        5.7100     4.2610     0.2300 H     1 <1>   0.0800 
 33 H        5.6710     5.1530    -1.2700 H     1 <1>   0.0800 
 34 H        5.6550     3.4070    -1.3010 H     1 <1>   0.0800 
@<TRIPOS>BOND
  1   1   2  2   
  2   2   3  am  
  3   2   4  1   
  4   3   5  1   
  5   3  19  1   
  6   4   6  1   
  7   4   7  1   
  8   4  20  1   
  9   5   8  2   
 10   5   9  1   
 11   6  10  1   
 12   6  11  1   
 13   7  21  1   
 14   7  22  1   
 15   7  23  1   
 16   8  12  1   
 17   8  13  1   
 18   9  14  2   
 19   9  24  1   
 20  10  15  2   
 21  11  16  2   
 22  11  25  1   
 23  12  14  1   
 24  12  17  1   
 25  13  26  1   
 26  13  27  1   
 27  13  28  1   
 28  15  16  1   
 29  15  29  1   
 30  17  18  1   
 31  17  30  1   
 32  17  31  1   
 33  18  32  1   
 34  18  33  1   
 35  18  34  1   
@<TRIPOS>SUBSTRUCTURE
  1 ****   3 GROUP 4 **** **** 0

# MOE 2024.06 (io_trps.svl 2023.06)
