@<TRIPOS>MOLECULE
NONAME
54 55 1 0 0 
SMALL
USER_CHARGES


@<TRIPOS>ATOM
  1 S        0.1810     0.1390     0.8310 S.o2  1 <1>   1.3330 
  2 O       -0.7660    -0.8260     1.3350 O.2   1 <1>  -0.6500 
  3 O        1.3420     0.5140     1.6070 O.2   1 <1>  -0.6500 
  4 N        0.7260    -0.3770    -0.6910 N.am  1 <1>  -0.8490 
  5 C       -0.6780     1.6680     0.4440 C.3   1 <1>  -0.0550 
  6 C        1.8910    -1.2650    -0.5760 C.3   1 <1>   0.1160 
  7 C       -0.3140    -1.0670    -1.4680 C.3   1 <1>   0.1160 
  8 C        0.1900     2.6900    -0.3300 C.3   1 <1>  -0.0800 
  9 C       -0.4860     4.0270    -0.6330 C.3   1 <1>   0.2000 
 10 C        1.4870     3.0770     0.4000 C.3   1 <1>   0.3430 
 11 O       -1.1580     4.4780     0.5000 O.3   1 <1>  -0.6800 
 12 C        0.7100     4.9480    -0.8880 C.3   1 <1>   0.3430 
 13 N        1.7690     4.5070     0.0750 N.4   1 <1>  -0.9590 
 14 C        1.7440     5.3370     1.3120 C.3   1 <1>   0.4860 
 15 C        2.1060     6.7630     0.9470 C.ar  1 <1>  -0.1430 
 16 C        3.3950     7.0800     0.5510 C.ar  1 <1>  -0.1500 
 17 C        1.1500     7.7630     0.9940 C.ar  1 <1>  -0.1500 
 18 C        3.7430     8.3700     0.1860 C.ar  1 <1>   0.0820 
 19 C        1.4780     9.0590     0.6350 C.ar  1 <1>  -0.1500 
 20 O        5.0500     8.5000    -0.1830 O.3   1 <1>  -0.3630 
 21 C        2.7690     9.3840     0.2220 C.ar  1 <1>   0.0820 
 22 C        5.6980     9.7480    -0.3010 C.3   1 <1>   0.0400 
 23 O        3.0860    10.6560    -0.1550 O.3   1 <1>  -0.3630 
 24 C        2.1860    11.7340    -0.0430 C.3   1 <1>   0.1200 
 25 C        2.9130    12.9990    -0.4870 C.3   1 <1>  -0.2400 
 26 H       -1.5500     1.4390    -0.1370 H     1 <1>   0.0800 
 27 H       -1.0120     2.1010     1.3680 H     1 <1>   0.0800 
 28 H        2.2250    -1.5740    -1.5530 H     1 <1>   0.0800 
 29 H        1.6410    -2.1400     0.0030 H     1 <1>   0.0800 
 30 H        2.7050    -0.7540    -0.0900 H     1 <1>   0.0800 
 31 H        0.0590    -1.3170    -2.4470 H     1 <1>   0.0800 
 32 H       -1.1770    -0.4350    -1.5860 H     1 <1>   0.0800 
 33 H       -0.6190    -1.9740    -0.9710 H     1 <1>   0.0800 
 34 H        0.4780     2.2460    -1.2680 H     1 <1>   0.0800 
 35 H       -1.1700     3.9980    -1.4650 H     1 <1>   0.0800 
 36 H        2.2990     2.4370     0.0890 H     1 <1>   0.0800 
 37 H        1.3520     2.9610     1.4640 H     1 <1>   0.0800 
 38 H       -2.0920     4.1750     0.5070 H     1 <1>   0.4000 
 39 H        0.4410     5.9840    -0.7640 H     1 <1>   0.0800 
 40 H        1.0600     4.7980    -1.8960 H     1 <1>   0.0800 
 41 H        2.6960     4.6250    -0.3530 H     1 <1>   0.4500 
 42 H        0.7630     5.3090     1.7590 H     1 <1>   0.0800 
 43 H        2.4570     4.9600     2.0270 H     1 <1>   0.0800 
 44 H        4.1650     6.3300     0.5210 H     1 <1>   0.1500 
 45 H        0.1420     7.5460     1.3080 H     1 <1>   0.1500 
 46 H        0.7050     9.8020     0.6830 H     1 <1>   0.1500 
 47 H        6.7510     9.5700    -0.4250 H     1 <1>   0.0800 
 48 H        5.5250    10.3180     0.5950 H     1 <1>   0.0800 
 49 H        5.3120    10.2610    -1.1630 H     1 <1>   0.0800 
 50 H        1.3390    11.5400    -0.6790 H     1 <1>   0.0800 
 51 H        1.8750    11.8160     0.9840 H     1 <1>   0.0800 
 52 H        3.2350    12.9010    -1.5080 H     1 <1>   0.0800 
 53 H        3.7650    13.1770     0.1440 H     1 <1>   0.0800 
 54 H        2.2510    13.8430    -0.4160 H     1 <1>   0.0800 
@<TRIPOS>BOND
  1   1   2  2   
  2   1   3  2   
  3   1   4  am  
  4   1   5  1   
  5   4   6  1   
  6   4   7  1   
  7   5   8  1   
  8   5  26  1   
  9   5  27  1   
 10   6  28  1   
 11   6  29  1   
 12   6  30  1   
 13   7  31  1   
 14   7  32  1   
 15   7  33  1   
 16   8   9  1   
 17   8  10  1   
 18   8  34  1   
 19   9  11  1   
 20   9  12  1   
 21   9  35  1   
 22  10  13  1   
 23  10  36  1   
 24  10  37  1   
 25  11  38  1   
 26  12  13  1   
 27  12  39  1   
 28  12  40  1   
 29  13  14  1   
 30  13  41  1   
 31  14  15  1   
 32  14  42  1   
 33  14  43  1   
 34  15  16  ar  
 35  15  17  ar  
 36  16  18  ar  
 37  16  44  1   
 38  17  19  ar  
 39  17  45  1   
 40  18  20  1   
 41  18  21  ar  
 42  19  21  ar  
 43  19  46  1   
 44  20  22  1   
 45  21  23  1   
 46  22  47  1   
 47  22  48  1   
 48  22  49  1   
 49  23  24  1   
 50  24  25  1   
 51  24  50  1   
 52  24  51  1   
 53  25  52  1   
 54  25  53  1   
 55  25  54  1   
@<TRIPOS>SUBSTRUCTURE
  1 ****  13 GROUP 4 **** **** 0

# MOE 2024.06 (io_trps.svl 2023.06)
