@<TRIPOS>MOLECULE
NONAME
55 59 1 0 0 
SMALL
USER_CHARGES


@<TRIPOS>ATOM
  1 O       -1.0130     1.5220     2.3890 O.2   1 <1>  -0.5700 
  2 C       -1.8930     1.7480     1.5790 C.2   1 <1>   0.5440 
  3 N       -3.0810     1.0500     1.6600 N.am  1 <1>  -0.6600 
  4 C       -1.6670     2.7380     0.5500 C.ar  1 <1>   0.0860 
  5 C       -3.2810    -0.0790     2.6090 C.3   1 <1>   0.1400 
  6 C       -4.2370     1.2730     0.7510 C.3   1 <1>   0.1400 
  7 C       -1.3800     2.3980    -0.7810 C.ar  1 <1>   0.0820 
  8 C       -1.7710     4.0890     0.8730 C.ar  1 <1>  -0.1500 
  9 C       -3.4940    -1.3630     1.8040 C.3   1 <1>  -0.1600 
 10 C       -4.4610     0.0110    -0.0820 C.3   1 <1>  -0.1600 
 11 O       -1.2190     1.1110    -1.1730 O.3   1 <1>  -0.3620 
 12 C       -1.2590     3.3860    -1.7560 C.ar  1 <1>  -0.1440 
 13 C       -1.6330     5.0710    -0.0880 C.ar  1 <1>  -0.1500 
 14 C       -4.6520    -1.2240     0.8100 C.3   1 <1>   0.4600 
 15 C       -0.2320     0.3240    -0.5390 C.3   1 <1>   0.0400 
 16 C       -1.3850     4.7180    -1.4020 C.ar  1 <1>  -0.1500 
 17 C       -0.9810     3.0160    -3.2060 C.3   1 <1>  -0.0970 
 18 O       -5.8190    -1.0570     1.5870 O.3   1 <1>  -0.5600 
 19 C       -4.7790    -2.4890    -0.0300 C.2   1 <1>  -0.3320 
 20 C       -7.0590    -1.3710     0.9990 C.3   1 <1>   0.1200 
 21 N       -3.8060    -3.0400    -0.8170 N.pl3 1 <1>   0.0330 
 22 C       -5.8930    -3.2420    -0.1070 C.2   1 <1>  -0.1810 
 23 C       -7.1450    -2.8660     0.6460 C.3   1 <1>   0.0210 
 24 C       -4.3220    -4.1750    -1.3960 C.ar  1 <1>  -0.1520 
 25 C       -5.6370    -4.3320    -0.9650 C.ar  1 <1>   0.0000 
 26 C       -3.7420    -5.0930    -2.2750 C.ar  1 <1>  -0.1500 
 27 C       -6.3870    -5.4230    -1.4140 C.ar  1 <1>  -0.1500 
 28 C       -4.4920    -6.1620    -2.7100 C.ar  1 <1>  -0.1500 
 29 C       -5.8140    -6.3270    -2.2790 C.ar  1 <1>  -0.1500 
 30 H       -4.1440     0.1220     3.2200 H     1 <1>   0.0800 
 31 H       -2.4310    -0.1920     3.2590 H     1 <1>   0.0800 
 32 H       -4.0680     2.1130     0.1000 H     1 <1>   0.0800 
 33 H       -5.1130     1.4820     1.3420 H     1 <1>   0.0800 
 34 H       -1.9670     4.3630     1.8960 H     1 <1>   0.1500 
 35 H       -3.6970    -2.1820     2.4690 H     1 <1>   0.0800 
 36 H       -2.5860    -1.5860     1.2780 H     1 <1>   0.0800 
 37 H       -3.6050    -0.1350    -0.7130 H     1 <1>   0.0800 
 38 H       -5.3100     0.1370    -0.7250 H     1 <1>   0.0800 
 39 H       -1.7190     6.1090     0.1830 H     1 <1>   0.1500 
 40 H        0.1250    -0.4020    -1.2460 H     1 <1>   0.0800 
 41 H       -0.6690    -0.1770     0.3060 H     1 <1>   0.0800 
 42 H        0.5790     0.9560    -0.2200 H     1 <1>   0.0800 
 43 H       -1.2870     5.4920    -2.1450 H     1 <1>   0.1500 
 44 H       -1.7500     2.3580    -3.5680 H     1 <1>   0.0800 
 45 H       -0.0340     2.5110    -3.2770 H     1 <1>   0.0800 
 46 H       -0.9530     3.8880    -3.8330 H     1 <1>   0.0800 
 47 H       -7.1810    -0.7710     0.1150 H     1 <1>   0.0800 
 48 H       -7.8300    -1.1110     1.7020 H     1 <1>   0.0800 
 49 H       -2.8580    -2.6810    -0.9610 H     1 <1>   0.2700 
 50 H       -8.0120    -3.0460     0.0380 H     1 <1>   0.0800 
 51 H       -7.2210    -3.4530     1.5420 H     1 <1>   0.0800 
 52 H       -2.7260    -4.9600    -2.6010 H     1 <1>   0.1500 
 53 H       -7.3990    -5.5370    -1.0740 H     1 <1>   0.1500 
 54 H       -4.0680    -6.8830    -3.3860 H     1 <1>   0.1500 
 55 H       -6.3780    -7.1720    -2.6330 H     1 <1>   0.1500 
@<TRIPOS>BOND
  1   1   2  2   
  2   2   3  am  
  3   2   4  1   
  4   3   5  1   
  5   3   6  1   
  6   4   7  ar  
  7   4   8  ar  
  8   5   9  1   
  9   5  30  1   
 10   5  31  1   
 11   6  10  1   
 12   6  32  1   
 13   6  33  1   
 14   7  11  1   
 15   7  12  ar  
 16   8  13  ar  
 17   8  34  1   
 18   9  14  1   
 19   9  35  1   
 20   9  36  1   
 21  10  14  1   
 22  10  37  1   
 23  10  38  1   
 24  11  15  1   
 25  12  16  ar  
 26  12  17  1   
 27  13  16  ar  
 28  13  39  1   
 29  14  18  1   
 30  14  19  1   
 31  15  40  1   
 32  15  41  1   
 33  15  42  1   
 34  16  43  1   
 35  17  44  1   
 36  17  45  1   
 37  17  46  1   
 38  18  20  1   
 39  19  21  1   
 40  19  22  2   
 41  20  23  1   
 42  20  47  1   
 43  20  48  1   
 44  21  24  1   
 45  21  49  1   
 46  22  23  1   
 47  22  25  1   
 48  23  50  1   
 49  23  51  1   
 50  24  25  ar  
 51  24  26  ar  
 52  25  27  ar  
 53  26  28  ar  
 54  26  52  1   
 55  27  29  ar  
 56  27  53  1   
 57  28  29  ar  
 58  28  54  1   
 59  29  55  1   
@<TRIPOS>SUBSTRUCTURE
  1 ****  10 GROUP 4 **** **** 0

# MOE 2024.06 (io_trps.svl 2023.06)
