@<TRIPOS>MOLECULE
NONAME
54 56 1 0 0 
SMALL
USER_CHARGES


@<TRIPOS>ATOM
  1 O        1.1940    -0.5610    -1.6810 O.2   1 <1>  -0.5700 
  2 C        1.2280    -1.4640    -0.8830 C.2   1 <1>   0.5690 
  3 N        2.0530    -1.4010     0.2140 N.am  1 <1>  -0.6600 
  4 C        0.3280    -2.6450    -1.1930 C.3   1 <1>  -0.0990 
  5 C        2.4020    -2.5390     1.1230 C.3   1 <1>   0.1400 
  6 C        2.6540    -0.0860     0.5880 C.3   1 <1>   0.2780 
  7 C        0.1540    -3.6730    -0.0790 C.3   1 <1>   0.1200 
  8 C        2.5200    -3.9410     0.4530 C.3   1 <1>   0.2800 
  9 C        2.4750     0.1590     2.0760 C.2   1 <1>  -0.2880 
 10 O        1.2930    -4.4730     0.0520 O.3   1 <1>  -0.5600 
 11 C        3.4320    -3.9560    -0.7860 C.3   1 <1>  -0.1600 
 12 C        3.0600    -4.9620     1.4650 C.3   1 <1>  -0.1600 
 13 C        3.4590     0.3240     2.9660 C.2   1 <1>  -0.3000 
 14 C        4.8870    -3.6960    -0.4190 C.3   1 <1>   0.3430 
 15 C        4.5340    -4.7360     1.8000 C.3   1 <1>   0.3430 
 16 N        5.3480    -4.7350     0.5520 N.4   1 <1>  -0.9590 
 17 C        6.7990    -4.6130     0.8710 C.3   1 <1>   0.3430 
 18 C        7.6430    -5.0170    -0.3390 C.3   1 <1>  -0.1600 
 19 C        9.1470    -5.0880    -0.0050 C.3   1 <1>  -0.0800 
 20 C        9.9400    -5.4700    -1.2500 C.3   1 <1>   0.1200 
 21 C        9.4900    -6.2510     0.9270 C.3   1 <1>  -0.1600 
 22 O        9.8350    -6.8490    -1.3000 O.3   1 <1>  -0.5600 
 23 C        9.9420    -7.3700    -0.0150 C.3   1 <1>   0.1200 
 24 H        0.6740    -3.1330    -2.0840 H     1 <1>   0.0800 
 25 H       -0.6420    -2.2400    -1.4150 H     1 <1>   0.0800 
 26 H        1.6900    -2.5780     1.9300 H     1 <1>   0.0800 
 27 H        3.3500    -2.3080     1.5720 H     1 <1>   0.0800 
 28 H        2.1840     0.7190     0.0480 H     1 <1>   0.0800 
 29 H        3.6990    -0.0870     0.3330 H     1 <1>   0.0800 
 30 H       -0.6550    -4.3340    -0.3380 H     1 <1>   0.0800 
 31 H       -0.0900    -3.2140     0.8630 H     1 <1>   0.0800 
 32 H        1.4340     0.1950     2.3510 H     1 <1>   0.1500 
 33 H        3.1280    -3.2110    -1.4950 H     1 <1>   0.0800 
 34 H        3.3600    -4.9110    -1.2770 H     1 <1>   0.0800 
 35 H        2.9480    -5.9570     1.0700 H     1 <1>   0.0800 
 36 H        2.4830    -4.9090     2.3710 H     1 <1>   0.0800 
 37 H        3.2900     0.5030     4.0150 H     1 <1>   0.1500 
 38 H        4.5090     0.3080     2.7300 H     1 <1>   0.1500 
 39 H        4.9830    -2.7130     0.0140 H     1 <1>   0.0800 
 40 H        5.4850    -3.7320    -1.3150 H     1 <1>   0.0800 
 41 H        4.8710    -5.5220     2.4580 H     1 <1>   0.0800 
 42 H        4.6510    -3.7960     2.3150 H     1 <1>   0.0800 
 43 H        5.2110    -5.6510     0.0990 H     1 <1>   0.4500 
 44 H        7.0370    -5.2670     1.6940 H     1 <1>   0.0800 
 45 H        7.0350    -3.6030     1.1660 H     1 <1>   0.0800 
 46 H        7.5120    -4.2980    -1.1270 H     1 <1>   0.0800 
 47 H        7.3240    -5.9800    -0.7020 H     1 <1>   0.0800 
 48 H        9.4940    -4.1460     0.3840 H     1 <1>   0.0800 
 49 H       10.9830    -5.2180    -1.1470 H     1 <1>   0.0800 
 50 H        9.5480    -5.0500    -2.1600 H     1 <1>   0.0800 
 51 H        8.6740    -6.5790     1.5430 H     1 <1>   0.0800 
 52 H       10.3150    -5.9890     1.5670 H     1 <1>   0.0800 
 53 H        9.3150    -8.2420     0.0510 H     1 <1>   0.0800 
 54 H       10.9700    -7.6410     0.1560 H     1 <1>   0.0800 
@<TRIPOS>BOND
  1   1   2  2   
  2   2   3  am  
  3   2   4  1   
  4   3   5  1   
  5   3   6  1   
  6   4   7  1   
  7   4  24  1   
  8   4  25  1   
  9   5   8  1   
 10   5  26  1   
 11   5  27  1   
 12   6   9  1   
 13   6  28  1   
 14   6  29  1   
 15   7  10  1   
 16   7  30  1   
 17   7  31  1   
 18   8  10  1   
 19   8  11  1   
 20   8  12  1   
 21   9  13  2   
 22   9  32  1   
 23  11  14  1   
 24  11  33  1   
 25  11  34  1   
 26  12  15  1   
 27  12  35  1   
 28  12  36  1   
 29  13  37  1   
 30  13  38  1   
 31  14  16  1   
 32  14  39  1   
 33  14  40  1   
 34  15  16  1   
 35  15  41  1   
 36  15  42  1   
 37  16  17  1   
 38  16  43  1   
 39  17  18  1   
 40  17  44  1   
 41  17  45  1   
 42  18  19  1   
 43  18  46  1   
 44  18  47  1   
 45  19  20  1   
 46  19  21  1   
 47  19  48  1   
 48  20  22  1   
 49  20  49  1   
 50  20  50  1   
 51  21  23  1   
 52  21  51  1   
 53  21  52  1   
 54  22  23  1   
 55  23  53  1   
 56  23  54  1   
@<TRIPOS>SUBSTRUCTURE
  1 ****  14 GROUP 4 **** **** 0

# MOE 2024.06 (io_trps.svl 2023.06)
