@<TRIPOS>MOLECULE
NONAME
37 38 1 0 0 
SMALL
USER_CHARGES


@<TRIPOS>ATOM
  1 F       -1.4130    -0.3230    -0.8700 F     1 <1>  -0.1900 
  2 C       -2.0210     0.5640    -0.1260 C.ar  1 <1>   0.1900 
  3 C       -3.3920     0.6870    -0.2520 C.ar  1 <1>  -0.1440 
  4 C       -1.2710     1.3330     0.7560 C.ar  1 <1>  -0.1440 
  5 C       -4.0080     1.6260     0.5540 C.ar  1 <1>   0.1900 
  6 C       -4.1810    -0.1590    -1.2270 C.3   1 <1>   0.4860 
  7 C       -1.9320     2.2660     1.5450 C.ar  1 <1>  -0.1500 
  8 C        0.2390     1.1680     0.8620 C.3   1 <1>  -0.0960 
  9 F       -5.3040     1.7670     0.4770 F     1 <1>  -0.1900 
 10 C       -3.3070     2.4170     1.4470 C.ar  1 <1>  -0.1500 
 11 N       -4.9570    -1.1760    -0.4790 N.4   1 <1>  -0.9590 
 12 C       -4.0400    -2.1690     0.2120 C.3   1 <1>   0.3430 
 13 C       -5.9540    -1.8540    -1.3550 C.3   1 <1>   0.3430 
 14 C       -4.6530    -3.5720     0.3910 C.3   1 <1>   0.2000 
 15 C       -6.8920    -2.7070    -0.4950 C.3   1 <1>  -0.1600 
 16 O       -4.4500    -4.2890    -0.7770 O.3   1 <1>  -0.6800 
 17 C       -6.1620    -3.4750     0.6390 C.3   1 <1>  -0.1860 
 18 C       -6.7300    -4.8590     0.8560 C.2   1 <1>   0.9060 
 19 O       -7.3630    -5.0740     1.8860 O.co2 1 <1>  -0.9000 
 20 O       -6.5070    -5.7140    -0.0100 O.co2 1 <1>  -0.9000 
 21 H       -3.5170    -0.6430    -1.9250 H     1 <1>   0.0800 
 22 H       -4.8510     0.4780    -1.7810 H     1 <1>   0.0800 
 23 H       -1.3800     2.8800     2.2390 H     1 <1>   0.1500 
 24 H        0.6520     1.8380     1.5940 H     1 <1>   0.0800 
 25 H        0.6990     1.3780    -0.0880 H     1 <1>   0.0800 
 26 H        0.4830     0.1600     1.1470 H     1 <1>   0.0800 
 27 H       -3.8250     3.1390     2.0540 H     1 <1>   0.1500 
 28 H       -5.4950    -0.6920     0.2510 H     1 <1>   0.4500 
 29 H       -3.1250    -2.2830    -0.3450 H     1 <1>   0.0800 
 30 H       -3.7850    -1.7820     1.1840 H     1 <1>   0.0800 
 31 H       -6.5310    -1.1340    -1.9130 H     1 <1>   0.0800 
 32 H       -5.4380    -2.4960    -2.0530 H     1 <1>   0.0800 
 33 H       -4.1650    -4.1080     1.1880 H     1 <1>   0.0800 
 34 H       -7.6710    -2.0980    -0.0730 H     1 <1>   0.0800 
 35 H       -7.3720    -3.4160    -1.1500 H     1 <1>   0.0800 
 36 H       -5.0900    -5.0670    -0.7310 H     1 <1>   0.4000 
 37 H       -6.3070    -2.9390     1.5590 H     1 <1>   0.0800 
@<TRIPOS>BOND
  1   1   2  1   
  2   2   3  ar  
  3   2   4  ar  
  4   3   5  ar  
  5   3   6  1   
  6   4   7  ar  
  7   4   8  1   
  8   5   9  1   
  9   5  10  ar  
 10   6  11  1   
 11   6  21  1   
 12   6  22  1   
 13   7  10  ar  
 14   7  23  1   
 15   8  24  1   
 16   8  25  1   
 17   8  26  1   
 18  10  27  1   
 19  11  12  1   
 20  11  13  1   
 21  11  28  1   
 22  12  14  1   
 23  12  29  1   
 24  12  30  1   
 25  13  15  1   
 26  13  31  1   
 27  13  32  1   
 28  14  16  1   
 29  14  17  1   
 30  14  33  1   
 31  15  17  1   
 32  15  34  1   
 33  15  35  1   
 34  16  36  1   
 35  17  18  1   
 36  17  37  1   
 37  18  19  ar  
 38  18  20  ar  
@<TRIPOS>SUBSTRUCTURE
  1 ****  11 GROUP 4 **** **** 0

# MOE 2024.06 (io_trps.svl 2023.06)
