@<TRIPOS>MOLECULE
NONAME
53 54 1 0 0 
SMALL
USER_CHARGES


@<TRIPOS>ATOM
  1 S        0.1040    -0.3490    -0.2600 S.3   1 <1>  -0.0800 
  2 C       -0.5090     1.2190     0.1100 C.2   1 <1>   0.4340 
  3 C       -1.4430    -0.9560     0.2460 C.2   1 <1>   0.4420 
  4 S        0.5930     2.5980    -0.1570 S.3   1 <1>  -0.2860 
  5 N       -1.7030     1.2340     0.5420 N.2   1 <1>  -0.3380 
  6 N       -2.2440    -0.0220     0.6200 N.2   1 <1>  -0.3380 
  7 N       -1.6190    -2.3240     0.1750 N.am  1 <1>  -0.4940 
  8 C       -0.4240     4.0550     0.3560 C.3   1 <1>   0.0700 
  9 C       -2.6820    -3.0710     0.5950 C.2   1 <1>   0.5690 
 10 C        0.4210     5.3110     0.1740 C.3   1 <1>   0.1200 
 11 O       -3.6230    -2.6120     1.1870 O.2   1 <1>  -0.5700 
 12 C       -2.6560    -4.5660     0.3020 C.3   1 <1>  -0.0990 
 13 O       -0.3410     6.4090     0.5590 O.3   1 <1>  -0.5600 
 14 C       -4.0480    -5.2380     0.3350 C.3   1 <1>  -0.0800 
 15 C        0.3220     7.6260     0.4390 C.3   1 <1>   0.0400 
 16 C       -3.9380    -6.7610     0.1690 C.3   1 <1>  -0.1600 
 17 C       -4.9740    -4.7050    -0.7730 C.3   1 <1>  -0.1600 
 18 C       -5.3000    -7.4790     0.1950 C.3   1 <1>   0.5030 
 19 C       -6.3690    -5.3500    -0.7650 C.3   1 <1>   0.5030 
 20 N       -6.2760    -6.8180    -0.6870 N.4   1 <1>  -0.9060 
 21 C       -5.1400    -8.8930    -0.3600 C.3   1 <1>  -0.2400 
 22 C       -5.8670    -7.5890     1.6130 C.3   1 <1>  -0.2400 
 23 C       -7.0740    -5.0560    -2.0880 C.3   1 <1>  -0.2400 
 24 C       -7.2470    -4.8150     0.3690 C.3   1 <1>  -0.2400 
 25 H       -0.8380    -2.8310    -0.2300 H     1 <1>   0.3700 
 26 H       -0.6970     3.9100     1.3860 H     1 <1>   0.0800 
 27 H       -1.2980     4.0740    -0.2700 H     1 <1>   0.0800 
 28 H        0.7000     5.4280    -0.8590 H     1 <1>   0.0800 
 29 H        1.3000     5.2650     0.7940 H     1 <1>   0.0800 
 30 H       -2.0290    -5.0240     1.0460 H     1 <1>   0.0800 
 31 H       -2.2010    -4.7280    -0.6590 H     1 <1>   0.0800 
 32 H       -4.4810    -5.0240     1.2980 H     1 <1>   0.0800 
 33 H       -0.3480     8.4040     0.7590 H     1 <1>   0.0800 
 34 H        0.5940     7.7830    -0.5900 H     1 <1>   0.0800 
 35 H        1.1960     7.6190     1.0670 H     1 <1>   0.0800 
 36 H       -3.3170    -7.1630     0.9520 H     1 <1>   0.0800 
 37 H       -3.4400    -6.9750    -0.7610 H     1 <1>   0.0800 
 38 H       -4.5080    -4.8700    -1.7290 H     1 <1>   0.0800 
 39 H       -5.0950    -3.6400    -0.6710 H     1 <1>   0.0800 
 40 H       -7.2030    -7.1780    -0.4580 H     1 <1>   0.4500 
 41 H       -6.0660    -7.1360    -1.6330 H     1 <1>   0.4500 
 42 H       -4.7690    -8.8790    -1.3700 H     1 <1>   0.0800 
 43 H       -6.0730    -9.4290    -0.3350 H     1 <1>   0.0800 
 44 H       -4.4330    -9.4430     0.2360 H     1 <1>   0.0800 
 45 H       -5.8840    -6.6470     2.1220 H     1 <1>   0.0800 
 46 H       -5.2440    -8.2400     2.2020 H     1 <1>   0.0800 
 47 H       -6.8580    -8.0070     1.6070 H     1 <1>   0.0800 
 48 H       -6.5130    -5.4320    -2.9250 H     1 <1>   0.0800 
 49 H       -7.1750    -3.9920    -2.2180 H     1 <1>   0.0800 
 50 H       -8.0630    -5.4800    -2.1060 H     1 <1>   0.0800 
 51 H       -6.7580    -4.8570     1.3210 H     1 <1>   0.0800 
 52 H       -8.1830    -5.3410     0.4240 H     1 <1>   0.0800 
 53 H       -7.4670    -3.7760     0.1920 H     1 <1>   0.0800 
@<TRIPOS>BOND
  1   1   2  1   
  2   1   3  1   
  3   2   4  1   
  4   2   5  2   
  5   3   6  2   
  6   3   7  1   
  7   4   8  1   
  8   5   6  1   
  9   7   9  am  
 10   7  25  1   
 11   8  10  1   
 12   8  26  1   
 13   8  27  1   
 14   9  11  2   
 15   9  12  1   
 16  10  13  1   
 17  10  28  1   
 18  10  29  1   
 19  12  14  1   
 20  12  30  1   
 21  12  31  1   
 22  13  15  1   
 23  14  16  1   
 24  14  17  1   
 25  14  32  1   
 26  15  33  1   
 27  15  34  1   
 28  15  35  1   
 29  16  18  1   
 30  16  36  1   
 31  16  37  1   
 32  17  19  1   
 33  17  38  1   
 34  17  39  1   
 35  18  20  1   
 36  18  21  1   
 37  18  22  1   
 38  19  20  1   
 39  19  23  1   
 40  19  24  1   
 41  20  40  1   
 42  20  41  1   
 43  21  42  1   
 44  21  43  1   
 45  21  44  1   
 46  22  45  1   
 47  22  46  1   
 48  22  47  1   
 49  23  48  1   
 50  23  49  1   
 51  23  50  1   
 52  24  51  1   
 53  24  52  1   
 54  24  53  1   
@<TRIPOS>SUBSTRUCTURE
  1 ****   9 GROUP 4 **** **** 0

# MOE 2024.06 (io_trps.svl 2023.06)
