@<TRIPOS>MOLECULE
NONAME
48 49 1 0 0 
SMALL
USER_CHARGES


@<TRIPOS>ATOM
  1 O        0.6680    -1.6020     1.5000 O.3   1 <1>  -0.3630 
  2 C        0.1060    -2.6540     0.8480 C.ar  1 <1>   0.0830 
  3 C        1.3860    -1.7660     2.7020 C.3   1 <1>   0.0400 
  4 C       -0.4480    -2.4130    -0.4040 C.ar  1 <1>  -0.1440 
  5 C        0.0710    -3.9400     1.3780 C.ar  1 <1>  -0.1500 
  6 C       -1.0390    -3.4520    -1.0990 C.ar  1 <1>  -0.1500 
  7 C       -0.4020    -1.0170    -1.0120 C.3   1 <1>  -0.0960 
  8 C       -0.5200    -4.9820     0.6820 C.ar  1 <1>  -0.1430 
  9 C       -1.0930    -4.7300    -0.5600 C.ar  1 <1>  -0.1430 
 10 C       -0.5200    -6.3750     1.3060 C.3   1 <1>  -0.0970 
 11 C       -1.8020    -5.8230    -1.3380 C.3   1 <1>   0.4860 
 12 N       -3.1550    -6.0290    -0.7480 N.4   1 <1>  -0.9590 
 13 C       -3.8490    -7.2310    -1.2810 C.3   1 <1>   0.5240 
 14 C       -4.0140    -4.8120    -0.7080 C.3   1 <1>   0.3430 
 15 C       -3.1610    -8.4980    -0.7880 C.2   1 <1>   0.0460 
 16 C       -4.0410    -4.2510     0.7280 C.3   1 <1>   0.1200 
 17 N       -1.9520    -8.8700    -1.2560 N.2   1 <1>  -0.5650 
 18 C       -3.6100    -9.3860     0.1270 C.2   1 <1>  -0.3020 
 19 O       -4.0820    -5.3090     1.6410 O.3   1 <1>  -0.6800 
 20 C       -1.6930    -9.9690    -0.6270 C.2   1 <1>   0.0060 
 21 N       -2.6660   -10.3390     0.2320 N.pl3 1 <1>   0.0330 
 22 C       -0.4280   -10.7770    -0.8260 C.3   1 <1>  -0.0600 
 23 H        1.7800    -0.8080     2.9890 H     1 <1>   0.0800 
 24 H        2.1930    -2.4580     2.5350 H     1 <1>   0.0800 
 25 H        0.7170    -2.1280     3.4630 H     1 <1>   0.0800 
 26 H        0.5040    -4.1400     2.3390 H     1 <1>   0.1500 
 27 H       -1.4580    -3.2570    -2.0710 H     1 <1>   0.1500 
 28 H       -0.9100    -0.3210    -0.3690 H     1 <1>   0.0800 
 29 H       -0.8660    -0.9930    -1.9810 H     1 <1>   0.0800 
 30 H        0.6210    -0.7020    -1.1150 H     1 <1>   0.0800 
 31 H        0.1620    -6.4190     2.1370 H     1 <1>   0.0800 
 32 H       -0.2050    -7.1140     0.5910 H     1 <1>   0.0800 
 33 H       -1.5000    -6.6280     1.6650 H     1 <1>   0.0800 
 34 H       -1.2160    -6.7240    -1.2780 H     1 <1>   0.0800 
 35 H       -1.8840    -5.5460    -2.3750 H     1 <1>   0.0800 
 36 H       -3.0000    -6.2340     0.2550 H     1 <1>   0.4500 
 37 H       -3.8540    -7.2190    -2.3580 H     1 <1>   0.0800 
 38 H       -4.8680    -7.2430    -0.9310 H     1 <1>   0.0800 
 39 H       -5.0220    -5.0630    -0.9920 H     1 <1>   0.0800 
 40 H       -3.6520    -4.0610    -1.3900 H     1 <1>   0.0800 
 41 H       -4.9060    -3.6280     0.8750 H     1 <1>   0.0800 
 42 H       -3.1550    -3.6700     0.9230 H     1 <1>   0.0800 
 43 H       -4.5230    -9.4030     0.6970 H     1 <1>   0.1500 
 44 H       -4.1180    -4.9660     2.5620 H     1 <1>   0.4000 
 45 H       -2.6770   -11.1750     0.8280 H     1 <1>   0.2700 
 46 H        0.2020   -10.2990    -1.5550 H     1 <1>   0.0800 
 47 H       -0.6710   -11.7630    -1.1790 H     1 <1>   0.0800 
 48 H        0.1130   -10.8540     0.0990 H     1 <1>   0.0800 
@<TRIPOS>BOND
  1   1   2  1   
  2   1   3  1   
  3   2   4  ar  
  4   2   5  ar  
  5   3  23  1   
  6   3  24  1   
  7   3  25  1   
  8   4   6  ar  
  9   4   7  1   
 10   5   8  ar  
 11   5  26  1   
 12   6   9  ar  
 13   6  27  1   
 14   7  28  1   
 15   7  29  1   
 16   7  30  1   
 17   8   9  ar  
 18   8  10  1   
 19   9  11  1   
 20  10  31  1   
 21  10  32  1   
 22  10  33  1   
 23  11  12  1   
 24  11  34  1   
 25  11  35  1   
 26  12  13  1   
 27  12  14  1   
 28  12  36  1   
 29  13  15  1   
 30  13  37  1   
 31  13  38  1   
 32  14  16  1   
 33  14  39  1   
 34  14  40  1   
 35  15  17  1   
 36  15  18  2   
 37  16  19  1   
 38  16  41  1   
 39  16  42  1   
 40  17  20  2   
 41  18  21  1   
 42  18  43  1   
 43  19  44  1   
 44  20  21  1   
 45  20  22  1   
 46  21  45  1   
 47  22  46  1   
 48  22  47  1   
 49  22  48  1   
@<TRIPOS>SUBSTRUCTURE
  1 ****   9 GROUP 4 **** **** 0

# MOE 2024.06 (io_trps.svl 2023.06)
