@<TRIPOS>MOLECULE
NONAME
54 56 1 0 0 
SMALL
USER_CHARGES


@<TRIPOS>ATOM
  1 CL      -2.4970    -0.4580     0.8040 Cl    1 <1>  -0.1230 
  2 C       -1.9100     1.1970     0.7760 C.2   1 <1>   0.1230 
  3 C       -2.4110     2.2490     0.0050 C.2   1 <1>   0.2030 
  4 C       -0.9010     1.6820     1.5170 C.2   1 <1>  -0.3020 
  5 N       -1.7210     3.3490     0.2860 N.2   1 <1>  -0.7070 
  6 C       -3.5070     2.1060    -0.9430 C.2   1 <1>   0.7160 
  7 N       -0.8050     2.9850     1.1960 N.pl3 1 <1>   0.3140 
  8 O       -3.5370     1.1330    -1.6810 O.2   1 <1>  -0.5700 
  9 N       -4.5420     3.0260    -1.0480 N.am  1 <1>  -0.6600 
 10 C        0.1630     3.9420     1.7470 C.3   1 <1>   0.0160 
 11 C       -4.7760     4.1370    -0.0860 C.3   1 <1>   0.1400 
 12 C       -5.5310     2.9910    -2.1570 C.3   1 <1>   0.1400 
 13 C       -6.1800     4.0030     0.5120 C.3   1 <1>  -0.1600 
 14 C       -6.9340     2.8160    -1.5710 C.3   1 <1>  -0.1600 
 15 C       -7.2870     3.9300    -0.5580 C.3   1 <1>   0.2800 
 16 O       -7.2170     5.1470    -1.2670 O.3   1 <1>  -0.5600 
 17 C       -8.6790     3.7240     0.1270 C.3   1 <1>   0.2000 
 18 C       -8.3640     5.9200    -1.4530 C.3   1 <1>   0.1200 
 19 O       -8.7640     2.4420     0.6930 O.3   1 <1>  -0.6800 
 20 C       -9.9210     4.0590    -0.7740 C.3   1 <1>   0.3000 
 21 C       -9.5070     5.0160    -1.9060 C.3   1 <1>  -0.1600 
 22 N      -10.9600     4.7940    -0.0070 N.am  1 <1>  -0.7300 
 23 C      -10.6120     2.8400    -1.4090 C.3   1 <1>  -0.2400 
 24 C      -11.5560     4.6440     1.2010 C.2   1 <1>   0.5690 
 25 O      -12.3350     5.4960     1.5440 O.2   1 <1>  -0.5700 
 26 C      -11.2840     3.4640     2.1290 C.3   1 <1>  -0.0990 
 27 C      -12.3350     3.2670     3.2360 C.3   1 <1>  -0.2400 
 28 H       -0.2690     1.1870     2.2300 H     1 <1>   0.1500 
 29 H        1.1560     3.5540     1.6190 H     1 <1>   0.0800 
 30 H       -0.0430     4.0910     2.7900 H     1 <1>   0.0800 
 31 H        0.0710     4.8760     1.2240 H     1 <1>   0.0800 
 32 H       -4.0570     4.1240     0.7120 H     1 <1>   0.0800 
 33 H       -4.6830     5.0760    -0.6050 H     1 <1>   0.0800 
 34 H       -5.4720     3.9150    -2.7080 H     1 <1>   0.0800 
 35 H       -5.3180     2.1860    -2.8390 H     1 <1>   0.0800 
 36 H       -6.3670     4.8360     1.1640 H     1 <1>   0.0800 
 37 H       -6.2030     3.1130     1.1160 H     1 <1>   0.0800 
 38 H       -6.9630     1.8550    -1.0920 H     1 <1>   0.0800 
 39 H       -7.6430     2.8000    -2.3750 H     1 <1>   0.0800 
 40 H       -8.7010     4.4070     0.9570 H     1 <1>   0.0800 
 41 H       -8.5970     6.4240    -0.5290 H     1 <1>   0.0800 
 42 H       -8.1390     6.6570    -2.2050 H     1 <1>   0.0800 
 43 H       -8.7010     1.7580    -0.0010 H     1 <1>   0.4000 
 44 H      -10.3420     5.6120    -2.2290 H     1 <1>   0.0800 
 45 H       -9.1690     4.4710    -2.7690 H     1 <1>   0.0800 
 46 H      -11.3230     5.6070    -0.5040 H     1 <1>   0.3700 
 47 H       -9.9200     2.2810    -2.0110 H     1 <1>   0.0800 
 48 H      -11.4230     3.1580    -2.0390 H     1 <1>   0.0800 
 49 H      -11.0080     2.1820    -0.6590 H     1 <1>   0.0800 
 50 H      -11.2440     2.5650     1.5490 H     1 <1>   0.0800 
 51 H      -10.3240     3.6110     2.5890 H     1 <1>   0.0800 
 52 H      -13.3080     3.1190     2.8000 H     1 <1>   0.0800 
 53 H      -12.3740     4.1350     3.8710 H     1 <1>   0.0800 
 54 H      -12.0880     2.4100     3.8360 H     1 <1>   0.0800 
@<TRIPOS>BOND
  1   1   2  1   
  2   2   3  1   
  3   2   4  2   
  4   3   5  2   
  5   3   6  1   
  6   4   7  1   
  7   4  28  1   
  8   5   7  1   
  9   6   8  2   
 10   6   9  am  
 11   7  10  1   
 12   9  11  1   
 13   9  12  1   
 14  10  29  1   
 15  10  30  1   
 16  10  31  1   
 17  11  13  1   
 18  11  32  1   
 19  11  33  1   
 20  12  14  1   
 21  12  34  1   
 22  12  35  1   
 23  13  15  1   
 24  13  36  1   
 25  13  37  1   
 26  14  15  1   
 27  14  38  1   
 28  14  39  1   
 29  15  16  1   
 30  15  17  1   
 31  16  18  1   
 32  17  19  1   
 33  17  20  1   
 34  17  40  1   
 35  18  21  1   
 36  18  41  1   
 37  18  42  1   
 38  19  43  1   
 39  20  21  1   
 40  20  22  1   
 41  20  23  1   
 42  21  44  1   
 43  21  45  1   
 44  22  24  am  
 45  22  46  1   
 46  23  47  1   
 47  23  48  1   
 48  23  49  1   
 49  24  25  2   
 50  24  26  1   
 51  26  27  1   
 52  26  50  1   
 53  26  51  1   
 54  27  52  1   
 55  27  53  1   
 56  27  54  1   
@<TRIPOS>SUBSTRUCTURE
  1 ****  13 GROUP 4 **** **** 0

# MOE 2024.06 (io_trps.svl 2023.06)
