@<TRIPOS>MOLECULE
NONAME
50 52 1 0 0 
SMALL
USER_CHARGES


@<TRIPOS>ATOM
  1 O       -1.1100    -0.4750    -0.1030 O.3   1 <1>  -0.3630 
  2 C       -1.9380     0.5340     0.3070 C.ar  1 <1>   0.0830 
  3 C        0.2740    -0.2400    -0.2780 C.3   1 <1>   0.0400 
  4 C       -1.8350     1.8670    -0.1240 C.ar  1 <1>   0.0830 
  5 C       -2.9470     0.1720     1.1940 C.ar  1 <1>  -0.1440 
  6 O       -0.8850     2.2060    -1.0440 O.3   1 <1>  -0.3620 
  7 C       -2.7250     2.8110     0.3800 C.ar  1 <1>  -0.1500 
  8 C       -3.8280     1.1260     1.6780 C.ar  1 <1>  -0.1500 
  9 C       -3.0990    -1.2710     1.6350 C.3   1 <1>   0.4860 
 10 C       -0.7580     3.5180    -1.5490 C.3   1 <1>   0.0400 
 11 C       -3.7120     2.4430     1.2760 C.ar  1 <1>  -0.1500 
 12 N       -3.3690    -2.1090     0.4390 N.4   1 <1>  -0.9590 
 13 C       -4.6770    -1.7570    -0.1840 C.3   1 <1>   0.3430 
 14 C       -3.4210    -3.5580     0.7910 C.3   1 <1>   0.3430 
 15 C       -5.6760    -2.7680     0.3830 C.3   1 <1>   0.2000 
 16 C       -4.8510    -4.0470     0.5030 C.3   1 <1>  -0.0800 
 17 O       -6.0440    -2.3630     1.6630 O.3   1 <1>  -0.6800 
 18 C       -4.9080    -4.8850    -0.7890 C.3   1 <1>   0.0210 
 19 C       -4.1990    -6.2150    -0.6150 C.2   1 <1>   0.1080 
 20 N       -2.9400    -6.3130    -0.3200 N.2   1 <1>  -0.7070 
 21 C       -4.8070    -7.4580    -0.7490 C.2   1 <1>  -0.1500 
 22 N       -2.7060    -7.6420    -0.2660 N.pl3 1 <1>   0.3000 
 23 C       -3.8240    -8.3530    -0.5190 C.2   1 <1>  -0.3320 
 24 C       -3.8840    -9.8700    -0.5290 C.3   1 <1>  -0.0600 
 25 H        0.7940    -1.1750    -0.1710 H     1 <1>   0.0800 
 26 H        0.6140     0.4580     0.4680 H     1 <1>   0.0800 
 27 H        0.4400     0.1530    -1.2650 H     1 <1>   0.0800 
 28 H       -2.6750     3.8430     0.0890 H     1 <1>   0.1500 
 29 H       -4.6090     0.8570     2.3710 H     1 <1>   0.1500 
 30 H       -3.9080    -1.3620     2.3420 H     1 <1>   0.0800 
 31 H       -2.1860    -1.5920     2.1090 H     1 <1>   0.0800 
 32 H        0.0460     3.5250    -2.2620 H     1 <1>   0.0800 
 33 H       -0.5290     4.1860    -0.7370 H     1 <1>   0.0800 
 34 H       -1.6760     3.7980    -2.0330 H     1 <1>   0.0800 
 35 H       -4.3930     3.1850     1.6580 H     1 <1>   0.1500 
 36 H       -2.5900    -1.8930    -0.2080 H     1 <1>   0.4500 
 37 H       -4.9770    -0.7440     0.0290 H     1 <1>   0.0800 
 38 H       -4.6080    -1.8870    -1.2510 H     1 <1>   0.0800 
 39 H       -2.7000    -4.1070     0.2070 H     1 <1>   0.0800 
 40 H       -3.1940    -3.6990     1.8340 H     1 <1>   0.0800 
 41 H       -6.5630    -2.8610    -0.2210 H     1 <1>   0.0800 
 42 H       -5.2030    -4.6640     1.3130 H     1 <1>   0.0800 
 43 H       -6.7730    -2.9180     2.0120 H     1 <1>   0.4000 
 44 H       -4.4490    -4.3600    -1.6080 H     1 <1>   0.0800 
 45 H       -5.9320    -5.0800    -1.0510 H     1 <1>   0.0800 
 46 H       -5.8390    -7.6460    -0.9880 H     1 <1>   0.1500 
 47 H       -1.7780    -8.0340    -0.0610 H     1 <1>   0.2700 
 48 H       -4.8820   -10.1990    -0.7570 H     1 <1>   0.0800 
 49 H       -3.6070   -10.2610     0.4340 H     1 <1>   0.0800 
 50 H       -3.2160   -10.2650    -1.2740 H     1 <1>   0.0800 
@<TRIPOS>BOND
  1   1   2  1   
  2   1   3  1   
  3   2   4  ar  
  4   2   5  ar  
  5   3  25  1   
  6   3  26  1   
  7   3  27  1   
  8   4   6  1   
  9   4   7  ar  
 10   5   8  ar  
 11   5   9  1   
 12   6  10  1   
 13   7  11  ar  
 14   7  28  1   
 15   8  11  ar  
 16   8  29  1   
 17   9  12  1   
 18   9  30  1   
 19   9  31  1   
 20  10  32  1   
 21  10  33  1   
 22  10  34  1   
 23  11  35  1   
 24  12  13  1   
 25  12  14  1   
 26  12  36  1   
 27  13  15  1   
 28  13  37  1   
 29  13  38  1   
 30  14  16  1   
 31  14  39  1   
 32  14  40  1   
 33  15  16  1   
 34  15  17  1   
 35  15  41  1   
 36  16  18  1   
 37  16  42  1   
 38  17  43  1   
 39  18  19  1   
 40  18  44  1   
 41  18  45  1   
 42  19  20  2   
 43  19  21  1   
 44  20  22  1   
 45  21  23  2   
 46  21  46  1   
 47  22  23  1   
 48  22  47  1   
 49  23  24  1   
 50  24  48  1   
 51  24  49  1   
 52  24  50  1   
@<TRIPOS>SUBSTRUCTURE
  1 ****  12 GROUP 4 **** **** 0

# MOE 2024.06 (io_trps.svl 2023.06)
