@<TRIPOS>MOLECULE
NONAME
46 47 1 0 0 
SMALL
USER_CHARGES


@<TRIPOS>ATOM
  1 O       -0.1490     0.6440     0.0070 O.co2 1 <1>  -0.9000 
  2 C       -1.0510     1.1810     0.6520 C.2   1 <1>   0.9060 
  3 O       -1.8700     0.5750     1.3410 O.co2 1 <1>  -0.9000 
  4 C       -1.1700     2.6690     0.5920 C.3   1 <1>  -0.1860 
  5 C       -2.5700     3.0490     0.1060 C.3   1 <1>   0.2000 
  6 C       -0.1110     3.2130    -0.3460 C.3   1 <1>   0.3430 
  7 O       -3.3410     3.1900     1.2330 O.3   1 <1>  -0.6800 
  8 C       -2.6010     4.3720    -0.6650 C.3   1 <1>  -0.1600 
  9 N       -0.1540     4.7160    -0.3610 N.4   1 <1>  -0.9590 
 10 C       -1.5210     5.3030    -0.1320 C.3   1 <1>   0.3430 
 11 C        0.8160     5.2590     0.6220 C.3   1 <1>   0.4860 
 12 C        0.9580     6.7500     0.3880 C.ar  1 <1>  -0.1430 
 13 C        1.7000     7.2220    -0.6850 C.ar  1 <1>  -0.1500 
 14 C        0.3440     7.6550     1.2410 C.ar  1 <1>  -0.1500 
 15 C        1.8140     8.5830    -0.9080 C.ar  1 <1>  -0.1500 
 16 C        0.4610     9.0150     1.0150 C.ar  1 <1>  -0.1500 
 17 C        1.1930     9.4860    -0.0620 C.ar  1 <1>  -0.1430 
 18 C        1.3230    10.9820    -0.3070 C.3   1 <1>  -0.0170 
 19 C        2.5430    11.5450     0.4300 C.3   1 <1>  -0.1600 
 20 C        2.6950    13.0540     0.1990 C.3   1 <1>  -0.1600 
 21 C        3.9160    13.6030     0.9400 C.3   1 <1>  -0.2400 
 22 H       -0.9810     3.0390     1.5810 H     1 <1>   0.0800 
 23 H       -3.0050     2.2620    -0.4920 H     1 <1>   0.0800 
 24 H       -0.3070     2.8240    -1.3330 H     1 <1>   0.0800 
 25 H        0.8600     2.8530    -0.0450 H     1 <1>   0.0800 
 26 H       -3.3230     2.3160     1.6980 H     1 <1>   0.4000 
 27 H       -2.4280     4.1900    -1.7100 H     1 <1>   0.0800 
 28 H       -3.5720     4.8270    -0.5710 H     1 <1>   0.0800 
 29 H        0.1650     5.0280    -1.2850 H     1 <1>   0.4500 
 30 H       -1.6880     5.4300     0.9260 H     1 <1>   0.0800 
 31 H       -1.5910     6.2710    -0.6020 H     1 <1>   0.0800 
 32 H        0.4710     5.0690     1.6260 H     1 <1>   0.0800 
 33 H        1.7760     4.7850     0.4970 H     1 <1>   0.0800 
 34 H        2.2000     6.5440    -1.3550 H     1 <1>   0.1500 
 35 H       -0.2280     7.3170     2.0880 H     1 <1>   0.1500 
 36 H        2.3940     8.9410    -1.7420 H     1 <1>   0.1500 
 37 H       -0.0170     9.7120     1.6830 H     1 <1>   0.1500 
 38 H        1.4190    11.1680    -1.3630 H     1 <1>   0.0800 
 39 H        0.4320    11.4820     0.0310 H     1 <1>   0.0800 
 40 H        2.4390    11.3520     1.4840 H     1 <1>   0.0800 
 41 H        3.4280    11.0380     0.0870 H     1 <1>   0.0800 
 42 H        2.8030    13.2510    -0.8550 H     1 <1>   0.0800 
 43 H        1.8120    13.5650     0.5450 H     1 <1>   0.0800 
 44 H        4.8140    13.1220     0.5940 H     1 <1>   0.0800 
 45 H        3.8200    13.4380     1.9990 H     1 <1>   0.0800 
 46 H        4.0070    14.6610     0.7670 H     1 <1>   0.0800 
@<TRIPOS>BOND
  1   1   2  ar  
  2   2   3  ar  
  3   2   4  1   
  4   4   5  1   
  5   4   6  1   
  6   4  22  1   
  7   5   7  1   
  8   5   8  1   
  9   5  23  1   
 10   6   9  1   
 11   6  24  1   
 12   6  25  1   
 13   7  26  1   
 14   8  10  1   
 15   8  27  1   
 16   8  28  1   
 17   9  10  1   
 18   9  11  1   
 19   9  29  1   
 20  10  30  1   
 21  10  31  1   
 22  11  12  1   
 23  11  32  1   
 24  11  33  1   
 25  12  13  ar  
 26  12  14  ar  
 27  13  15  ar  
 28  13  34  1   
 29  14  16  ar  
 30  14  35  1   
 31  15  17  ar  
 32  15  36  1   
 33  16  17  ar  
 34  16  37  1   
 35  17  18  1   
 36  18  19  1   
 37  18  38  1   
 38  18  39  1   
 39  19  20  1   
 40  19  40  1   
 41  19  41  1   
 42  20  21  1   
 43  20  42  1   
 44  20  43  1   
 45  21  44  1   
 46  21  45  1   
 47  21  46  1   
@<TRIPOS>SUBSTRUCTURE
  1 ****  12 GROUP 4 **** **** 0

# MOE 2024.06 (io_trps.svl 2023.06)
