@<TRIPOS>MOLECULE
NONAME
51 53 1 0 0 
SMALL
USER_CHARGES


@<TRIPOS>ATOM
  1 O        0.1480    -0.0260    -0.2230 O.2   1 <1>  -0.5700 
  2 C       -0.8070     0.6650    -0.4810 C.2   1 <1>   0.5690 
  3 N       -2.0730     0.1510    -0.5010 N.am  1 <1>  -0.6600 
  4 C       -0.5640     2.1330    -0.7640 C.3   1 <1>  -0.0990 
  5 C       -3.3480     0.8960    -0.6520 C.3   1 <1>   0.1400 
  6 C       -2.3500    -1.2810    -0.2220 C.3   1 <1>   0.1400 
  7 C       -0.5270     2.9400     0.5360 C.3   1 <1>   0.0210 
  8 C       -4.3740     0.0220     0.0650 C.3   1 <1>   0.2000 
  9 C       -3.8790    -1.4040    -0.2020 C.3   1 <1>  -0.0800 
 10 C       -0.3580     4.4150     0.2250 C.2   1 <1>  -0.1810 
 11 O       -4.2930     0.2970     1.4220 O.3   1 <1>  -0.6800 
 12 C       -4.4060    -2.4780     0.7670 C.3   1 <1>  -0.0170 
 13 C       -1.3700     5.3630     0.0890 C.2   1 <1>   0.1080 
 14 C        0.7850     5.1020     0.0080 C.2   1 <1>  -0.3320 
 15 C       -3.9290    -3.8620     0.3550 C.ar  1 <1>  -0.1440 
 16 N       -0.9050     6.5380    -0.1890 N.2   1 <1>  -0.7070 
 17 C       -2.8520     5.1090     0.2370 C.3   1 <1>  -0.0590 
 18 N        0.4270     6.3820    -0.2370 N.pl3 1 <1>   0.3140 
 19 C        2.2240     4.6080     0.0150 C.3   1 <1>  -0.0600 
 20 C       -2.8200    -4.4570     0.9230 C.ar  1 <1>  -0.1500 
 21 C       -4.5830    -4.5960    -0.6140 C.ar  1 <1>  -0.1500 
 22 C        1.3110     7.5150    -0.5300 C.3   1 <1>   0.0160 
 23 C       -2.4280    -5.7170     0.5030 C.ar  1 <1>   0.1600 
 24 C       -4.1090    -5.8500    -0.9610 C.ar  1 <1>   0.1600 
 25 N       -3.0460    -6.4280    -0.4270 N.ar  1 <1>  -0.6200 
 26 H        0.3810     2.2330    -1.2660 H     1 <1>   0.0800 
 27 H       -1.3180     2.5190    -1.4220 H     1 <1>   0.0800 
 28 H       -3.3030     1.8820    -0.2230 H     1 <1>   0.0800 
 29 H       -3.5910     0.9650    -1.6980 H     1 <1>   0.0800 
 30 H       -1.9140    -1.9070    -0.9820 H     1 <1>   0.0800 
 31 H       -1.9260    -1.5390     0.7340 H     1 <1>   0.0800 
 32 H        0.2920     2.6030     1.1460 H     1 <1>   0.0800 
 33 H       -1.4320     2.7870     1.0960 H     1 <1>   0.0800 
 34 H       -5.3850     0.1960    -0.2610 H     1 <1>   0.0800 
 35 H       -4.1870    -1.6710    -1.1970 H     1 <1>   0.0800 
 36 H       -3.3550     0.2360     1.6970 H     1 <1>   0.4000 
 37 H       -5.4820    -2.4600     0.7720 H     1 <1>   0.0800 
 38 H       -4.0790    -2.2730     1.7720 H     1 <1>   0.0800 
 39 H       -3.1830     4.4320    -0.5280 H     1 <1>   0.0800 
 40 H       -3.3900     6.0340     0.1380 H     1 <1>   0.0800 
 41 H       -3.0580     4.6910     1.2050 H     1 <1>   0.0800 
 42 H        2.2650     3.5510     0.2060 H     1 <1>   0.0800 
 43 H        2.7840     5.1130     0.7820 H     1 <1>   0.0800 
 44 H        2.6840     4.7960    -0.9380 H     1 <1>   0.0800 
 45 H       -2.2560    -3.9550     1.6870 H     1 <1>   0.1500 
 46 H       -5.4570    -4.2060    -1.1030 H     1 <1>   0.1500 
 47 H        1.9890     7.6530     0.2910 H     1 <1>   0.0800 
 48 H        0.7160     8.4000    -0.6600 H     1 <1>   0.0800 
 49 H        1.8570     7.3110    -1.4310 H     1 <1>   0.0800 
 50 H       -1.5600    -6.1640     0.9560 H     1 <1>   0.1500 
 51 H       -4.6320    -6.4080    -1.7190 H     1 <1>   0.1500 
@<TRIPOS>BOND
  1   1   2  2   
  2   2   3  am  
  3   2   4  1   
  4   3   5  1   
  5   3   6  1   
  6   4   7  1   
  7   4  26  1   
  8   4  27  1   
  9   5   8  1   
 10   5  28  1   
 11   5  29  1   
 12   6   9  1   
 13   6  30  1   
 14   6  31  1   
 15   7  10  1   
 16   7  32  1   
 17   7  33  1   
 18   8   9  1   
 19   8  11  1   
 20   8  34  1   
 21   9  12  1   
 22   9  35  1   
 23  10  13  1   
 24  10  14  2   
 25  11  36  1   
 26  12  15  1   
 27  12  37  1   
 28  12  38  1   
 29  13  16  2   
 30  13  17  1   
 31  14  18  1   
 32  14  19  1   
 33  15  20  ar  
 34  15  21  ar  
 35  16  18  1   
 36  17  39  1   
 37  17  40  1   
 38  17  41  1   
 39  18  22  1   
 40  19  42  1   
 41  19  43  1   
 42  19  44  1   
 43  20  23  ar  
 44  20  45  1   
 45  21  24  ar  
 46  21  46  1   
 47  22  47  1   
 48  22  48  1   
 49  22  49  1   
 50  23  25  ar  
 51  23  50  1   
 52  24  25  ar  
 53  24  51  1   
@<TRIPOS>SUBSTRUCTURE
  1 ****   3 GROUP 4 **** **** 0

# MOE 2024.06 (io_trps.svl 2023.06)
