@<TRIPOS>MOLECULE
NONAME
45 47 1 0 0 
SMALL
USER_CHARGES


@<TRIPOS>ATOM
  1 S        0.1390    -0.5780     1.2210 S.3   1 <1>  -0.0800 
  2 C       -0.9340     0.2450     0.0980 C.2   1 <1>  -0.1400 
  3 C        1.5350     0.2630     0.5730 C.2   1 <1>  -0.1100 
  4 C       -0.2360     1.0870    -0.6880 C.2   1 <1>  -0.1500 
  5 C       -2.4170    -0.0860     0.1790 C.3   1 <1>   0.0810 
  6 C        1.1700     1.0970    -0.4180 C.2   1 <1>  -0.1500 
  7 C       -2.8000    -1.4690    -0.3460 C.2   1 <1>   0.5690 
  8 O       -2.0610    -2.0100    -1.1370 O.2   1 <1>  -0.5700 
  9 N       -3.9770    -2.0600     0.0480 N.am  1 <1>  -0.6600 
 10 C       -4.3050    -3.4750    -0.3240 C.3   1 <1>   0.1400 
 11 C       -5.0670    -1.4000     0.8260 C.3   1 <1>   0.1400 
 12 C       -5.6100    -3.5140    -1.1330 C.3   1 <1>   0.2000 
 13 C       -6.3770    -1.4410     0.0250 C.3   1 <1>  -0.1600 
 14 O       -5.8980    -4.8260    -1.4750 O.3   1 <1>  -0.6800 
 15 C       -6.7990    -2.8890    -0.3600 C.3   1 <1>  -0.1060 
 16 C       -7.0970    -3.7460     0.8880 C.2   1 <1>   0.9060 
 17 C       -8.0490    -2.8690    -1.2820 C.3   1 <1>  -0.0170 
 18 O       -7.1800    -4.9770     0.7560 O.co2 1 <1>  -0.9000 
 19 O       -7.2350    -3.2190     1.9980 O.co2 1 <1>  -0.9000 
 20 C       -9.1520    -1.8970    -0.8660 C.ar  1 <1>  -0.1430 
 21 C       -9.4310    -0.7810    -1.6420 C.ar  1 <1>  -0.1500 
 22 C       -9.8890    -2.1180     0.2870 C.ar  1 <1>  -0.1500 
 23 C      -10.4310     0.1020    -1.2690 C.ar  1 <1>  -0.1500 
 24 C      -10.8870    -1.2360     0.6630 C.ar  1 <1>  -0.1500 
 25 C      -11.1600    -0.1250    -0.1150 C.ar  1 <1>  -0.1500 
 26 H        2.4930     0.0390     1.0070 H     1 <1>   0.1500 
 27 H       -0.6500     1.7100    -1.4610 H     1 <1>   0.1500 
 28 H       -2.7060    -0.0070     1.2090 H     1 <1>   0.0800 
 29 H       -2.9690     0.6410    -0.3850 H     1 <1>   0.0800 
 30 H        1.8350     1.7270    -0.9820 H     1 <1>   0.1500 
 31 H       -3.5140    -3.9060    -0.9120 H     1 <1>   0.0800 
 32 H       -4.4170    -4.0570     0.5760 H     1 <1>   0.0800 
 33 H       -5.1880    -1.9130     1.7650 H     1 <1>   0.0800 
 34 H       -4.8350    -0.3750     1.0430 H     1 <1>   0.0800 
 35 H       -5.4430    -2.9840    -2.0540 H     1 <1>   0.0800 
 36 H       -7.1460    -0.9920     0.6290 H     1 <1>   0.0800 
 37 H       -6.2670    -0.8410    -0.8600 H     1 <1>   0.0800 
 38 H       -6.3880    -5.2080    -0.6830 H     1 <1>   0.4000 
 39 H       -7.7400    -2.6200    -2.2810 H     1 <1>   0.0800 
 40 H       -8.4670    -3.8600    -1.3320 H     1 <1>   0.0800 
 41 H       -8.8700    -0.5950    -2.5390 H     1 <1>   0.1500 
 42 H       -9.6810    -2.9770     0.9050 H     1 <1>   0.1500 
 43 H      -10.6410     0.9640    -1.8770 H     1 <1>   0.1500 
 44 H      -11.4440    -1.4210     1.5640 H     1 <1>   0.1500 
 45 H      -11.9350     0.5590     0.1780 H     1 <1>   0.1500 
@<TRIPOS>BOND
  1   1   2  1   
  2   1   3  1   
  3   2   4  2   
  4   2   5  1   
  5   3   6  2   
  6   3  26  1   
  7   4   6  1   
  8   4  27  1   
  9   5   7  1   
 10   5  28  1   
 11   5  29  1   
 12   6  30  1   
 13   7   8  2   
 14   7   9  am  
 15   9  10  1   
 16   9  11  1   
 17  10  12  1   
 18  10  31  1   
 19  10  32  1   
 20  11  13  1   
 21  11  33  1   
 22  11  34  1   
 23  12  14  1   
 24  12  15  1   
 25  12  35  1   
 26  13  15  1   
 27  13  36  1   
 28  13  37  1   
 29  14  38  1   
 30  15  16  1   
 31  15  17  1   
 32  16  18  ar  
 33  16  19  ar  
 34  17  20  1   
 35  17  39  1   
 36  17  40  1   
 37  20  21  ar  
 38  20  22  ar  
 39  21  23  ar  
 40  21  41  1   
 41  22  24  ar  
 42  22  42  1   
 43  23  25  ar  
 44  23  43  1   
 45  24  25  ar  
 46  24  44  1   
 47  25  45  1   
@<TRIPOS>SUBSTRUCTURE
  1 ****  11 GROUP 4 **** **** 0

# MOE 2024.06 (io_trps.svl 2023.06)
