@<TRIPOS>MOLECULE
NONAME
51 54 1 0 0 
SMALL
USER_CHARGES


@<TRIPOS>ATOM
  1 CL       0.9630     0.9760    -1.0140 Cl    1 <1>  -0.1770 
  2 C       -0.6030     1.5980    -0.5410 C.ar  1 <1>   0.1770 
  3 C       -1.1230     2.7490    -1.1270 C.ar  1 <1>  -0.1440 
  4 C       -1.2940     0.9020     0.4350 C.ar  1 <1>  -0.1500 
  5 C       -2.3720     3.1940    -0.7100 C.ar  1 <1>  -0.1500 
  6 C       -0.3800     3.5370    -2.2100 C.3   1 <1>   0.0450 
  7 C       -2.5340     1.3550     0.8400 C.ar  1 <1>   0.0830 
  8 C       -3.0720     2.5110     0.2700 C.ar  1 <1>   0.0830 
  9 C       -0.2900     5.0270    -1.9060 C.2   1 <1>   0.5690 
 10 O       -3.2100     0.6570     1.7870 O.3   1 <1>  -0.3630 
 11 O       -4.2790     2.9890     0.6650 O.3   1 <1>  -0.3630 
 12 O       -0.9400     5.7650    -2.6110 O.2   1 <1>  -0.5700 
 13 N        0.4960     5.5140    -0.8860 N.am  1 <1>  -0.6600 
 14 C       -4.5850     0.9560     1.9440 C.3   1 <1>   0.1200 
 15 C       -4.8120     2.4720     1.8700 C.3   1 <1>   0.1200 
 16 C        1.3160     4.6840     0.0380 C.3   1 <1>   0.1400 
 17 C        0.5440     6.9700    -0.5810 C.3   1 <1>   0.1400 
 18 C        2.7750     5.1450    -0.0220 C.3   1 <1>  -0.1600 
 19 C        1.9930     7.4600    -0.6430 C.3   1 <1>  -0.1600 
 20 C        2.9140     6.6470     0.2880 C.3   1 <1>  -0.0800 
 21 C        4.3870     7.0800     0.1690 C.3   1 <1>   0.0960 
 22 N        4.5760     8.4910     0.5720 N.pl3 1 <1>   0.0480 
 23 C        4.8350     9.5790    -0.1970 C.2   1 <1>   0.0070 
 24 C        4.5240     8.9680     1.8290 C.2   1 <1>  -0.3020 
 25 N        4.9420    10.6780     0.4760 N.2   1 <1>  -0.5650 
 26 C        4.9900     9.5330    -1.7040 C.3   1 <1>  -0.0600 
 27 C        4.7470    10.2970     1.7510 C.2   1 <1>   0.0770 
 28 H       -0.8750     0.0150     0.8720 H     1 <1>   0.1500 
 29 H       -2.8140     4.0780    -1.1390 H     1 <1>   0.1500 
 30 H       -0.9090     3.4120    -3.1370 H     1 <1>   0.0800 
 31 H        0.6140     3.1710    -2.3700 H     1 <1>   0.0800 
 32 H       -4.9020     0.5680     2.8950 H     1 <1>   0.0800 
 33 H       -5.1270     0.4580     1.1600 H     1 <1>   0.0800 
 34 H       -5.8610     2.7040     1.8950 H     1 <1>   0.0800 
 35 H       -4.3210     2.9650     2.6910 H     1 <1>   0.0800 
 36 H        1.2660     3.6440    -0.2170 H     1 <1>   0.0800 
 37 H        0.9350     4.7980     1.0390 H     1 <1>   0.0800 
 38 H        0.1400     7.1360     0.4030 H     1 <1>   0.0800 
 39 H       -0.0540     7.5300    -1.2810 H     1 <1>   0.0800 
 40 H        3.1600     4.9330    -1.0050 H     1 <1>   0.0800 
 41 H        3.3480     4.5720     0.6860 H     1 <1>   0.0800 
 42 H        2.0110     8.5000    -0.3660 H     1 <1>   0.0800 
 43 H        2.3330     7.3860    -1.6610 H     1 <1>   0.0800 
 44 H        2.5970     6.8040     1.3060 H     1 <1>   0.0800 
 45 H        4.7280     6.9520    -0.8410 H     1 <1>   0.0800 
 46 H        4.9990     6.4690     0.8080 H     1 <1>   0.0800 
 47 H        4.3360     8.3560     2.6910 H     1 <1>   0.1500 
 48 H        4.0900     9.1660    -2.1600 H     1 <1>   0.0800 
 49 H        5.8140     8.8980    -1.9720 H     1 <1>   0.0800 
 50 H        5.1850    10.5220    -2.0780 H     1 <1>   0.0800 
 51 H        4.7800    11.0110     2.5560 H     1 <1>   0.1500 
@<TRIPOS>BOND
  1   1   2  1   
  2   2   3  ar  
  3   2   4  ar  
  4   3   5  ar  
  5   3   6  1   
  6   4   7  ar  
  7   4  28  1   
  8   5   8  ar  
  9   5  29  1   
 10   6   9  1   
 11   6  30  1   
 12   6  31  1   
 13   7   8  ar  
 14   7  10  1   
 15   8  11  1   
 16   9  12  2   
 17   9  13  am  
 18  10  14  1   
 19  11  15  1   
 20  13  16  1   
 21  13  17  1   
 22  14  15  1   
 23  14  32  1   
 24  14  33  1   
 25  15  34  1   
 26  15  35  1   
 27  16  18  1   
 28  16  36  1   
 29  16  37  1   
 30  17  19  1   
 31  17  38  1   
 32  17  39  1   
 33  18  20  1   
 34  18  40  1   
 35  18  41  1   
 36  19  20  1   
 37  19  42  1   
 38  19  43  1   
 39  20  21  1   
 40  20  44  1   
 41  21  22  1   
 42  21  45  1   
 43  21  46  1   
 44  22  23  1   
 45  22  24  1   
 46  23  25  2   
 47  23  26  1   
 48  24  27  2   
 49  24  47  1   
 50  25  27  1   
 51  26  48  1   
 52  26  49  1   
 53  26  50  1   
 54  27  51  1   
@<TRIPOS>SUBSTRUCTURE
  1 ****  16 GROUP 4 **** **** 0

# MOE 2024.06 (io_trps.svl 2023.06)
