@<TRIPOS>MOLECULE
NONAME
47 48 1 0 0 
SMALL
USER_CHARGES


@<TRIPOS>ATOM
  1 F       -1.0550    -1.3230     2.4770 F     1 <1>  -0.1900 
  2 C       -1.5190    -1.5270     1.2690 C.ar  1 <1>   0.1900 
  3 C       -1.8150    -2.8170     0.8280 C.ar  1 <1>   0.0830 
  4 C       -1.6790    -0.4220     0.4550 C.ar  1 <1>  -0.1500 
  5 O       -1.6670    -3.9320     1.5880 O.3   1 <1>  -0.3630 
  6 C       -2.2770    -2.9840    -0.4720 C.ar  1 <1>  -0.1440 
  7 C       -2.1380    -0.6030    -0.8390 C.ar  1 <1>  -0.1500 
  8 C       -2.2330    -3.9490     2.8860 C.3   1 <1>   0.0400 
  9 C       -2.4300    -1.8780    -1.3000 C.ar  1 <1>  -0.1500 
 10 C       -2.6020    -4.3840    -0.9540 C.3   1 <1>   0.4870 
 11 N       -3.9660    -4.7620    -0.5300 N.4   1 <1>  -0.9590 
 12 C       -4.2240    -6.2430    -0.6720 C.3   1 <1>   0.3430 
 13 C       -5.0620    -3.9190    -1.0770 C.3   1 <1>   0.3430 
 14 C       -5.7300    -6.6070    -0.6190 C.3   1 <1>   0.2000 
 15 C       -6.3930    -4.1960    -0.3480 C.3   1 <1>  -0.1600 
 16 O       -6.2360    -6.5420    -1.9190 O.3   1 <1>  -0.6800 
 17 C       -6.4810    -5.6170     0.3020 C.3   1 <1>  -0.1060 
 18 C       -5.6740    -5.6680     1.6150 C.2   1 <1>   0.9060 
 19 C       -7.9530    -6.0100     0.6290 C.3   1 <1>  -0.1600 
 20 O       -5.0420    -4.6680     1.9780 O.co2 1 <1>  -0.9000 
 21 O       -5.4830    -6.7630     2.1430 O.co2 1 <1>  -0.9000 
 22 C       -8.9230    -6.2420    -0.5460 C.3   1 <1>  -0.1600 
 23 C      -10.3520    -6.4370    -0.0330 C.3   1 <1>  -0.2400 
 24 H       -1.4440     0.5580     0.8290 H     1 <1>   0.1500 
 25 H       -2.2630     0.2490    -1.4860 H     1 <1>   0.1500 
 26 H       -2.5010    -4.9630     3.1260 H     1 <1>   0.0800 
 27 H       -3.1190    -3.3370     2.9010 H     1 <1>   0.0800 
 28 H       -1.5090    -3.5800     3.5890 H     1 <1>   0.0800 
 29 H       -2.7790    -1.9980    -2.3120 H     1 <1>   0.1500 
 30 H       -1.8910    -5.0710    -0.5250 H     1 <1>   0.0800 
 31 H       -2.5220    -4.4350    -2.0270 H     1 <1>   0.0800 
 32 H       -4.0220    -4.5820     0.5090 H     1 <1>   0.4500 
 33 H       -3.8150    -6.6150    -1.5950 H     1 <1>   0.0800 
 34 H       -3.7330    -6.7480     0.1450 H     1 <1>   0.0800 
 35 H       -4.8180    -2.8750    -0.9750 H     1 <1>   0.0800 
 36 H       -5.1850    -4.1440    -2.1240 H     1 <1>   0.0800 
 37 H       -5.8460    -7.6200    -0.2700 H     1 <1>   0.0800 
 38 H       -6.5430    -3.4440     0.4080 H     1 <1>   0.0800 
 39 H       -7.1770    -4.0560    -1.0660 H     1 <1>   0.0800 
 40 H       -7.2000    -6.7050    -1.8840 H     1 <1>   0.4000 
 41 H       -7.9370    -6.9110     1.2210 H     1 <1>   0.0800 
 42 H       -8.3580    -5.2390     1.2640 H     1 <1>   0.0800 
 43 H       -8.9160    -5.4070    -1.2230 H     1 <1>   0.0800 
 44 H       -8.6420    -7.1300    -1.0830 H     1 <1>   0.0800 
 45 H      -10.6870    -5.5590     0.4920 H     1 <1>   0.0800 
 46 H      -10.3990    -7.2780     0.6370 H     1 <1>   0.0800 
 47 H      -11.0200    -6.6170    -0.8560 H     1 <1>   0.0800 
@<TRIPOS>BOND
  1   1   2  1   
  2   2   3  ar  
  3   2   4  ar  
  4   3   5  1   
  5   3   6  ar  
  6   4   7  ar  
  7   4  24  1   
  8   5   8  1   
  9   6   9  ar  
 10   6  10  1   
 11   7   9  ar  
 12   7  25  1   
 13   8  26  1   
 14   8  27  1   
 15   8  28  1   
 16   9  29  1   
 17  10  11  1   
 18  10  30  1   
 19  10  31  1   
 20  11  12  1   
 21  11  13  1   
 22  11  32  1   
 23  12  14  1   
 24  12  33  1   
 25  12  34  1   
 26  13  15  1   
 27  13  35  1   
 28  13  36  1   
 29  14  16  1   
 30  14  17  1   
 31  14  37  1   
 32  15  17  1   
 33  15  38  1   
 34  15  39  1   
 35  16  40  1   
 36  17  18  1   
 37  17  19  1   
 38  18  20  ar  
 39  18  21  ar  
 40  19  22  1   
 41  19  41  1   
 42  19  42  1   
 43  22  23  1   
 44  22  43  1   
 45  22  44  1   
 46  23  45  1   
 47  23  46  1   
 48  23  47  1   
@<TRIPOS>SUBSTRUCTURE
  1 ****  11 GROUP 4 **** **** 0

# MOE 2024.06 (io_trps.svl 2023.06)
