@<TRIPOS>MOLECULE
NONAME
47 49 1 0 0 
SMALL
USER_CHARGES


@<TRIPOS>ATOM
  1 CL      -1.2870    -1.1420     2.4990 Cl    1 <1>  -0.1770 
  2 C       -1.2000    -2.7120     1.7360 C.ar  1 <1>   0.1770 
  3 C       -2.2190    -3.1080     0.8370 C.ar  1 <1>   0.0000 
  4 C       -0.1340    -3.5110     2.0360 C.ar  1 <1>  -0.1500 
  5 C       -2.1380    -4.4020     0.2650 C.ar  1 <1>   0.0000 
  6 C       -3.2950    -2.2710     0.4770 C.ar  1 <1>  -0.1500 
  7 C       -0.0300    -4.7680     1.4380 C.ar  1 <1>  -0.1500 
  8 C       -3.1800    -4.8460    -0.6020 C.ar  1 <1>   0.0860 
  9 C       -1.0030    -5.1910     0.5730 C.ar  1 <1>  -0.1500 
 10 C       -4.2570    -2.6880    -0.3970 C.ar  1 <1>  -0.1500 
 11 C       -3.2210    -6.1920    -1.1290 C.2   1 <1>   0.5440 
 12 C       -4.1940    -3.9720    -0.9330 C.ar  1 <1>  -0.1500 
 13 O       -3.3330    -6.3950    -2.3210 O.2   1 <1>  -0.5700 
 14 N       -3.1990    -7.2700    -0.2920 N.am  1 <1>  -0.7300 
 15 C       -3.2150    -8.6910    -0.7140 C.3   1 <1>   0.2200 
 16 C       -4.6000    -9.2950    -0.5310 C.3   1 <1>  -0.0800 
 17 C       -2.4200    -9.5090     0.2920 C.3   1 <1>   0.1200 
 18 C       -4.6040    -9.6910     0.9520 C.3   1 <1>   0.1200 
 19 C       -5.7650    -8.3830    -0.9720 C.3   1 <1>  -0.0550 
 20 O       -3.2740    -9.6590     1.3840 O.3   1 <1>  -0.5600 
 21 S       -7.3700    -9.1860    -0.9830 S.o2  1 <1>   1.3330 
 22 O       -7.2280   -10.4590    -1.6520 O.2   1 <1>  -0.6500 
 23 O       -8.3680    -8.2440    -1.4370 O.2   1 <1>  -0.6500 
 24 N       -7.6840    -9.4950     0.6590 N.am  1 <1>  -0.8490 
 25 C       -8.2110    -8.3300     1.3790 C.3   1 <1>   0.1160 
 26 C       -8.5840   -10.6380     0.8420 C.3   1 <1>   0.1160 
 27 H        0.6240    -3.1790     2.7220 H     1 <1>   0.1500 
 28 H       -3.3540    -1.2810     0.8940 H     1 <1>   0.1500 
 29 H        0.8210    -5.3880     1.6630 H     1 <1>   0.1500 
 30 H       -0.8880    -6.1550     0.1100 H     1 <1>   0.1500 
 31 H       -5.0690    -2.0380    -0.6780 H     1 <1>   0.1500 
 32 H       -4.9650    -4.2860    -1.6160 H     1 <1>   0.1500 
 33 H       -3.1770    -7.1370     0.7230 H     1 <1>   0.3700 
 34 H       -2.8410    -8.7970    -1.7190 H     1 <1>   0.0800 
 35 H       -4.6400   -10.2020    -1.1100 H     1 <1>   0.0800 
 36 H       -1.5110    -9.0260     0.6030 H     1 <1>   0.0800 
 37 H       -2.2030   -10.4900    -0.0960 H     1 <1>   0.0800 
 38 H       -4.9980   -10.6820     1.0980 H     1 <1>   0.0800 
 39 H       -5.1560    -8.9900     1.5540 H     1 <1>   0.0800 
 40 H       -5.5570    -8.0420    -1.9680 H     1 <1>   0.0800 
 41 H       -5.8070    -7.5160    -0.3430 H     1 <1>   0.0800 
 42 H       -8.3060    -8.5560     2.4270 H     1 <1>   0.0800 
 43 H       -9.1790    -8.0540     0.9910 H     1 <1>   0.0800 
 44 H       -7.5450    -7.4920     1.2710 H     1 <1>   0.0800 
 45 H       -8.7550   -10.8160     1.8900 H     1 <1>   0.0800 
 46 H       -8.1440   -11.5260     0.4190 H     1 <1>   0.0800 
 47 H       -9.5270   -10.4530     0.3540 H     1 <1>   0.0800 
@<TRIPOS>BOND
  1   1   2  1   
  2   2   3  ar  
  3   2   4  ar  
  4   3   5  ar  
  5   3   6  ar  
  6   4   7  ar  
  7   4  27  1   
  8   5   8  ar  
  9   5   9  ar  
 10   6  10  ar  
 11   6  28  1   
 12   7   9  ar  
 13   7  29  1   
 14   8  11  1   
 15   8  12  ar  
 16   9  30  1   
 17  10  12  ar  
 18  10  31  1   
 19  11  13  2   
 20  11  14  am  
 21  12  32  1   
 22  14  15  1   
 23  14  33  1   
 24  15  16  1   
 25  15  17  1   
 26  15  34  1   
 27  16  18  1   
 28  16  19  1   
 29  16  35  1   
 30  17  20  1   
 31  17  36  1   
 32  17  37  1   
 33  18  20  1   
 34  18  38  1   
 35  18  39  1   
 36  19  21  1   
 37  19  40  1   
 38  19  41  1   
 39  21  22  2   
 40  21  23  2   
 41  21  24  am  
 42  24  25  1   
 43  24  26  1   
 44  25  42  1   
 45  25  43  1   
 46  25  44  1   
 47  26  45  1   
 48  26  46  1   
 49  26  47  1   
@<TRIPOS>SUBSTRUCTURE
  1 ****  14 GROUP 4 **** **** 0

# MOE 2024.06 (io_trps.svl 2023.06)
