@<TRIPOS>MOLECULE
NONAME
51 53 1 0 0 
SMALL
USER_CHARGES


@<TRIPOS>ATOM
  1 O        3.4520     0.0320    -0.3850 O.2   1 <1>  -0.5700 
  2 C        2.4070    -0.1800     0.2010 C.2   1 <1>   0.5440 
  3 N        1.7450     0.8830     0.7530 N.am  1 <1>  -0.7300 
  4 C        1.8720    -1.5260     0.3110 C.ar  1 <1>   0.0860 
  5 C        2.1860     2.2920     0.6350 C.3   1 <1>   0.1400 
  6 C        2.1100    -2.4710    -0.6840 C.ar  1 <1>  -0.1500 
  7 C        1.1040    -1.9290     1.4060 C.ar  1 <1>  -0.1500 
  8 C        3.1860     2.6090     1.7450 C.3   1 <1>  -0.0990 
  9 C        1.6020    -3.7560    -0.6110 C.ar  1 <1>   0.0830 
 10 C        0.5890    -3.2100     1.4940 C.ar  1 <1>  -0.1500 
 11 C        3.8890     3.9210     1.4600 C.2   1 <1>   0.5690 
 12 O        1.8940    -4.5880    -1.6400 O.3   1 <1>  -0.3630 
 13 C        0.8330    -4.1270     0.4880 C.ar  1 <1>  -0.1500 
 14 O        3.7760     4.7870     2.2920 O.2   1 <1>  -0.5700 
 15 N        4.6190     4.0950     0.3100 N.am  1 <1>  -0.6600 
 16 C        1.4520    -5.9270    -1.6540 C.3   1 <1>   0.0400 
 17 C        4.9620     5.4810    -0.1930 C.3   1 <1>   0.4000 
 18 C        5.4510     2.9740    -0.2340 C.3   1 <1>   0.1400 
 19 C        3.9250     6.5680     0.1210 C.2   1 <1>   0.2980 
 20 C        5.1550     5.4780    -1.7240 C.3   1 <1>  -0.1600 
 21 C        5.5380     3.0180    -1.7580 C.3   1 <1>  -0.1600 
 22 O        2.6620     6.3330    -0.1520 O.3   1 <1>  -0.0190 
 23 N        4.1720     7.7260     0.5980 N.2   1 <1>  -0.5650 
 24 C        6.0760     4.3660    -2.2310 C.3   1 <1>  -0.1600 
 25 N        2.0550     7.4270     0.1930 N.2   1 <1>  -0.4100 
 26 C        2.9450     8.2200     0.6370 C.2   1 <1>   0.3350 
 27 C        2.6850     9.6080     1.1700 C.3   1 <1>  -0.0590 
 28 H        0.8280     0.7370     1.1760 H     1 <1>   0.3700 
 29 H        1.3370     2.9520     0.6990 H     1 <1>   0.0800 
 30 H        2.6430     2.4320    -0.3310 H     1 <1>   0.0800 
 31 H        2.7060    -2.1990    -1.5370 H     1 <1>   0.1500 
 32 H        0.9130    -1.2360     2.2050 H     1 <1>   0.1500 
 33 H        3.9150     1.8280     1.8410 H     1 <1>   0.0800 
 34 H        2.6620     2.6890     2.6790 H     1 <1>   0.0800 
 35 H       -0.0010    -3.4980     2.3470 H     1 <1>   0.1500 
 36 H        0.4230    -5.1150     0.5760 H     1 <1>   0.1500 
 37 H        1.8130    -6.3880    -2.5550 H     1 <1>   0.0800 
 38 H        0.3770    -5.9400    -1.6420 H     1 <1>   0.0800 
 39 H        1.8550    -6.4360    -0.7960 H     1 <1>   0.0800 
 40 H        5.8900     5.7730     0.2670 H     1 <1>   0.0800 
 41 H        5.0540     2.0170     0.0500 H     1 <1>   0.0800 
 42 H        6.4410     3.0500     0.1810 H     1 <1>   0.0800 
 43 H        5.5510     6.4320    -2.0240 H     1 <1>   0.0800 
 44 H        4.1920     5.3720    -2.1940 H     1 <1>   0.0800 
 45 H        4.5610     2.8330    -2.1730 H     1 <1>   0.0800 
 46 H        6.1870     2.2290    -2.0950 H     1 <1>   0.0800 
 47 H        7.0740     4.5160    -1.8560 H     1 <1>   0.0800 
 48 H        6.1140     4.3860    -3.3070 H     1 <1>   0.0800 
 49 H        3.2300    10.3250     0.5870 H     1 <1>   0.0800 
 50 H        3.0090     9.6630     2.1930 H     1 <1>   0.0800 
 51 H        1.6360     9.8310     1.1190 H     1 <1>   0.0800 
@<TRIPOS>BOND
  1   1   2  2   
  2   2   3  am  
  3   2   4  1   
  4   3   5  1   
  5   3  28  1   
  6   4   6  ar  
  7   4   7  ar  
  8   5   8  1   
  9   5  29  1   
 10   5  30  1   
 11   6   9  ar  
 12   6  31  1   
 13   7  10  ar  
 14   7  32  1   
 15   8  11  1   
 16   8  33  1   
 17   8  34  1   
 18   9  12  1   
 19   9  13  ar  
 20  10  13  ar  
 21  10  35  1   
 22  11  14  2   
 23  11  15  am  
 24  12  16  1   
 25  13  36  1   
 26  15  17  1   
 27  15  18  1   
 28  16  37  1   
 29  16  38  1   
 30  16  39  1   
 31  17  19  1   
 32  17  20  1   
 33  17  40  1   
 34  18  21  1   
 35  18  41  1   
 36  18  42  1   
 37  19  22  1   
 38  19  23  2   
 39  20  24  1   
 40  20  43  1   
 41  20  44  1   
 42  21  24  1   
 43  21  45  1   
 44  21  46  1   
 45  22  25  1   
 46  23  26  1   
 47  24  47  1   
 48  24  48  1   
 49  25  26  2   
 50  26  27  1   
 51  27  49  1   
 52  27  50  1   
 53  27  51  1   
@<TRIPOS>SUBSTRUCTURE
  1 ****   5 GROUP 4 **** **** 0

# MOE 2024.06 (io_trps.svl 2023.06)
