@<TRIPOS>MOLECULE
NONAME
46 49 1 0 0 
SMALL
USER_CHARGES


@<TRIPOS>ATOM
  1 F       -1.6780     0.3540     1.7720 F     1 <1>  -0.1900 
  2 C       -2.1340     0.7540     0.6160 C.ar  1 <1>   0.1900 
  3 C       -2.8420    -0.1310    -0.2100 C.ar  1 <1>   0.3960 
  4 C       -1.9010     2.0680     0.2750 C.ar  1 <1>  -0.1500 
  5 N       -3.3510     0.2880    -1.3930 N.ar  1 <1>  -0.6200 
  6 C       -3.0330    -1.5130     0.2160 C.2   1 <1>   0.5440 
  7 C       -2.4250     2.4460    -0.9380 C.ar  1 <1>   0.1900 
  8 C       -3.1310     1.5510    -1.7280 C.ar  1 <1>   0.1600 
  9 O       -2.0650    -2.2260     0.4250 O.2   1 <1>  -0.5700 
 10 N       -4.2870    -2.0600     0.4050 N.am  1 <1>  -0.6600 
 11 F       -2.2580     3.6720    -1.3480 F     1 <1>  -0.1900 
 12 C       -5.5680    -1.3640     0.1490 C.3   1 <1>   0.1400 
 13 C       -4.4960    -3.4680     0.8030 C.3   1 <1>   0.1400 
 14 C       -6.6630    -2.3650     0.5400 C.3   1 <1>  -0.0800 
 15 C       -5.9860    -3.7500     0.5980 C.3   1 <1>  -0.0800 
 16 C       -7.9620    -2.2930    -0.3090 C.3   1 <1>   0.4240 
 17 C       -6.2640    -4.5880    -0.6600 C.3   1 <1>  -0.1600 
 18 O       -7.6400    -2.0660    -1.6360 O.3   1 <1>  -0.6800 
 19 C       -8.8780    -1.1580     0.1940 C.ar  1 <1>  -0.1430 
 20 C       -8.6570    -3.6660    -0.3090 C.3   1 <1>  -0.1600 
 21 C       -7.7760    -4.8030    -0.8810 C.3   1 <1>  -0.1600 
 22 C       -9.5370    -1.2840     1.4150 C.ar  1 <1>  -0.1500 
 23 C       -9.0670     0.0180    -0.5270 C.ar  1 <1>  -0.1500 
 24 C      -10.3580    -0.2780     1.8930 C.ar  1 <1>  -0.1500 
 25 C       -9.8870     1.0270    -0.0520 C.ar  1 <1>  -0.1500 
 26 C      -10.5350     0.8800     1.1600 C.ar  1 <1>  -0.1500 
 27 H       -1.3550     2.7440     0.9070 H     1 <1>   0.1500 
 28 H       -3.5250     1.8970    -2.6680 H     1 <1>   0.1500 
 29 H       -5.6420    -0.4670     0.7400 H     1 <1>   0.0800 
 30 H       -5.6070    -1.0990    -0.8930 H     1 <1>   0.0800 
 31 H       -3.8750    -4.1210     0.2120 H     1 <1>   0.0800 
 32 H       -4.2310    -3.5760     1.8400 H     1 <1>   0.0800 
 33 H       -6.9300    -2.1300     1.5550 H     1 <1>   0.0800 
 34 H       -6.3520    -4.3010     1.4470 H     1 <1>   0.0800 
 35 H       -5.8360    -4.0890    -1.5130 H     1 <1>   0.0800 
 36 H       -5.7770    -5.5450    -0.5780 H     1 <1>   0.0800 
 37 H       -7.1430    -2.8410    -1.9530 H     1 <1>   0.4000 
 38 H       -8.9090    -3.9210     0.7040 H     1 <1>   0.0800 
 39 H       -9.5830    -3.6010    -0.8540 H     1 <1>   0.0800 
 40 H       -8.0760    -5.7280    -0.4180 H     1 <1>   0.0800 
 41 H       -7.9620    -4.9060    -1.9370 H     1 <1>   0.0800 
 42 H       -9.4170    -2.1680     2.0130 H     1 <1>   0.1500 
 43 H       -8.5760     0.1650    -1.4740 H     1 <1>   0.1500 
 44 H      -10.8610    -0.3950     2.8380 H     1 <1>   0.1500 
 45 H      -10.0200     1.9250    -0.6280 H     1 <1>   0.1500 
 46 H      -11.1740     1.6630     1.5290 H     1 <1>   0.1500 
@<TRIPOS>BOND
  1   1   2  1   
  2   2   3  ar  
  3   2   4  ar  
  4   3   5  ar  
  5   3   6  1   
  6   4   7  ar  
  7   4  27  1   
  8   5   8  ar  
  9   6   9  2   
 10   6  10  am  
 11   7   8  ar  
 12   7  11  1   
 13   8  28  1   
 14  10  12  1   
 15  10  13  1   
 16  12  14  1   
 17  12  29  1   
 18  12  30  1   
 19  13  15  1   
 20  13  31  1   
 21  13  32  1   
 22  14  15  1   
 23  14  16  1   
 24  14  33  1   
 25  15  17  1   
 26  15  34  1   
 27  16  18  1   
 28  16  19  1   
 29  16  20  1   
 30  17  21  1   
 31  17  35  1   
 32  17  36  1   
 33  18  37  1   
 34  19  22  ar  
 35  19  23  ar  
 36  20  21  1   
 37  20  38  1   
 38  20  39  1   
 39  21  40  1   
 40  21  41  1   
 41  22  24  ar  
 42  22  42  1   
 43  23  25  ar  
 44  23  43  1   
 45  24  26  ar  
 46  24  44  1   
 47  25  26  ar  
 48  25  45  1   
 49  26  46  1   
@<TRIPOS>SUBSTRUCTURE
  1 ****  12 GROUP 4 **** **** 0

# MOE 2024.06 (io_trps.svl 2023.06)
