@<TRIPOS>MOLECULE
NONAME
44 46 1 0 0 
SMALL
USER_CHARGES


@<TRIPOS>ATOM
  1 O        0.4050     0.0970     1.4940 O.2   1 <1>  -0.5700 
  2 C        1.3730     0.6400     0.9870 C.2   1 <1>   0.5440 
  3 N        1.2270     1.9270     0.5170 N.am  1 <1>  -0.6600 
  4 C        2.6320    -0.0590     0.8830 C.ar  1 <1>   0.0860 
  5 C        2.1140     2.5540    -0.4890 C.3   1 <1>   0.1400 
  6 C       -0.0510     2.6640     0.6250 C.3   1 <1>   0.1400 
  7 C        2.7010    -1.3420     0.3090 C.ar  1 <1>   0.4100 
  8 C        3.8140     0.5090     1.3420 C.ar  1 <1>  -0.1500 
  9 C        1.2250     3.5530    -1.2200 C.3   1 <1>  -0.1600 
 10 C        0.1520     3.9290    -0.2020 C.3   1 <1>  -0.1600 
 11 N        3.8330    -2.0280     0.1560 N.ar  1 <1>  -0.6200 
 12 N        1.5580    -1.9610    -0.1370 N.pl3 1 <1>  -0.8690 
 13 C        4.9810    -0.2040     1.1920 C.ar  1 <1>  -0.1500 
 14 C        4.9340    -1.4520     0.5960 C.ar  1 <1>   0.1600 
 15 C        1.4530    -3.4200    -0.3390 C.3   1 <1>   0.2090 
 16 C       -0.0250    -3.8310    -0.4140 C.3   1 <1>  -0.0800 
 17 C       -0.7830    -3.5350     0.8940 C.3   1 <1>  -0.1600 
 18 C       -0.1560    -5.3270    -0.7400 C.3   1 <1>  -0.1600 
 19 C       -2.2080    -4.0960     0.8430 C.3   1 <1>   0.1200 
 20 C       -1.6230    -5.7680    -0.7000 C.3   1 <1>   0.1200 
 21 O       -2.1650    -5.4590     0.5460 O.3   1 <1>  -0.5600 
 22 H        2.5200     1.8210    -1.1670 H     1 <1>   0.0800 
 23 H        2.9130     3.0680     0.0170 H     1 <1>   0.0800 
 24 H       -0.2750     2.8890     1.6540 H     1 <1>   0.0800 
 25 H       -0.8420     2.0620     0.2090 H     1 <1>   0.0800 
 26 H        3.8070     1.4800     1.8050 H     1 <1>   0.1500 
 27 H        0.7710     3.0640    -2.0640 H     1 <1>   0.0800 
 28 H        1.7810     4.4060    -1.5660 H     1 <1>   0.0800 
 29 H        0.5140     4.7120     0.4410 H     1 <1>   0.0800 
 30 H       -0.7620     4.2520    -0.6680 H     1 <1>   0.0800 
 31 H        0.6970    -1.5420     0.2430 H     1 <1>   0.4000 
 32 H        5.9190     0.1960     1.5310 H     1 <1>   0.1500 
 33 H        5.8510    -2.0030     0.4780 H     1 <1>   0.1500 
 34 H        1.9380    -3.9320     0.4760 H     1 <1>   0.0800 
 35 H        1.9590    -3.6810    -1.2520 H     1 <1>   0.0800 
 36 H       -0.4840    -3.2760    -1.2150 H     1 <1>   0.0800 
 37 H       -0.8350    -2.4750     1.0680 H     1 <1>   0.0800 
 38 H       -0.2690    -3.9780     1.7280 H     1 <1>   0.0800 
 39 H        0.3950    -5.9130    -0.0250 H     1 <1>   0.0800 
 40 H        0.2480    -5.5280    -1.7160 H     1 <1>   0.0800 
 41 H       -2.7970    -3.5980     0.0910 H     1 <1>   0.0800 
 42 H       -2.6910    -3.9820     1.7980 H     1 <1>   0.0800 
 43 H       -1.7020    -6.8330    -0.8350 H     1 <1>   0.0800 
 44 H       -2.2030    -5.2730    -1.4600 H     1 <1>   0.0800 
@<TRIPOS>BOND
  1   1   2  2   
  2   2   3  am  
  3   2   4  1   
  4   3   5  1   
  5   3   6  1   
  6   4   7  ar  
  7   4   8  ar  
  8   5   9  1   
  9   5  22  1   
 10   5  23  1   
 11   6  10  1   
 12   6  24  1   
 13   6  25  1   
 14   7  11  ar  
 15   7  12  1   
 16   8  13  ar  
 17   8  26  1   
 18   9  10  1   
 19   9  27  1   
 20   9  28  1   
 21  10  29  1   
 22  10  30  1   
 23  11  14  ar  
 24  12  15  1   
 25  12  31  1   
 26  13  14  ar  
 27  13  32  1   
 28  14  33  1   
 29  15  16  1   
 30  15  34  1   
 31  15  35  1   
 32  16  17  1   
 33  16  18  1   
 34  16  36  1   
 35  17  19  1   
 36  17  37  1   
 37  17  38  1   
 38  18  20  1   
 39  18  39  1   
 40  18  40  1   
 41  19  21  1   
 42  19  41  1   
 43  19  42  1   
 44  20  21  1   
 45  20  43  1   
 46  20  44  1   
@<TRIPOS>SUBSTRUCTURE
  1 ****  12 GROUP 4 **** **** 0

# MOE 2024.06 (io_trps.svl 2023.06)
