@<TRIPOS>MOLECULE
NONAME
51 52 1 0 0 
SMALL
USER_CHARGES


@<TRIPOS>ATOM
  1 O        0.1090     0.1300     1.1910 O.2   1 <1>  -0.5700 
  2 C       -0.8580     0.4670     0.5540 C.2   1 <1>   0.5690 
  3 N       -1.7270    -0.4420     0.0510 N.am  1 <1>  -0.7300 
  4 C       -1.1110     1.9540     0.3180 C.3   1 <1>  -0.0190 
  5 C       -1.6170    -1.8940     0.2440 C.3   1 <1>   0.2840 
  6 C       -2.4780     2.4030     0.8740 C.3   1 <1>  -0.1600 
  7 C       -0.9560     2.3370    -1.1750 C.3   1 <1>  -0.1600 
  8 C       -2.9690    -2.5030    -0.0750 C.ar  1 <1>  -0.1440 
  9 C       -2.6670     3.9320     0.7820 C.3   1 <1>   0.2000 
 10 C       -1.6980     3.6320    -1.5630 C.3   1 <1>  -0.1600 
 11 C       -3.9480    -2.5820     0.9050 C.ar  1 <1>  -0.1500 
 12 C       -3.2430    -2.9740    -1.3500 C.ar  1 <1>  -0.1500 
 13 O       -4.0340     4.1870     0.5740 O.3   1 <1>  -0.5600 
 14 C       -1.8460     4.5760    -0.3670 C.3   1 <1>   0.2000 
 15 C       -5.1880    -3.1270     0.6180 C.ar  1 <1>  -0.1500 
 16 C       -4.4820    -3.5190    -1.6390 C.ar  1 <1>  -0.1500 
 17 C       -4.8230     4.1620     1.7230 C.3   1 <1>   0.0400 
 18 O       -2.4900     5.7160    -0.8010 O.3   1 <1>  -0.6800 
 19 C       -5.4610    -3.5990    -0.6630 C.ar  1 <1>   0.0830 
 20 O       -6.6470    -4.1440    -1.0310 O.3   1 <1>  -0.3620 
 21 C       -7.7180    -4.2450    -0.1160 C.3   1 <1>   0.1200 
 22 C       -8.9100    -4.8670    -0.8340 C.3   1 <1>   0.1200 
 23 O       -9.9670    -4.9550     0.0690 O.3   1 <1>  -0.5600 
 24 C      -11.1230    -5.5090    -0.4710 C.3   1 <1>   0.0400 
 25 H       -2.5550    -0.1460    -0.4670 H     1 <1>   0.3700 
 26 H       -0.3550     2.4840     0.8710 H     1 <1>   0.0800 
 27 H       -0.8590    -2.2870    -0.4110 H     1 <1>   0.0800 
 28 H       -1.3340    -2.1070     1.2620 H     1 <1>   0.0800 
 29 H       -2.5610     2.0980     1.9020 H     1 <1>   0.0800 
 30 H       -3.2550     1.9160     0.3110 H     1 <1>   0.0800 
 31 H        0.0940     2.4520    -1.3830 H     1 <1>   0.0800 
 32 H       -1.3180     1.5430    -1.8050 H     1 <1>   0.0800 
 33 H       -2.3610     4.4000     1.7030 H     1 <1>   0.0800 
 34 H       -2.6820     3.3780    -1.9190 H     1 <1>   0.0800 
 35 H       -1.1690     4.1270    -2.3580 H     1 <1>   0.0800 
 36 H       -3.7460    -2.2150     1.8970 H     1 <1>   0.1500 
 37 H       -2.4960    -2.9180    -2.1220 H     1 <1>   0.1500 
 38 H       -0.8690     4.8610    -0.0150 H     1 <1>   0.0800 
 39 H       -5.9220    -3.1740     1.3990 H     1 <1>   0.1500 
 40 H       -4.6970    -3.8850    -2.6260 H     1 <1>   0.1500 
 41 H       -5.8380     4.3740     1.4360 H     1 <1>   0.0800 
 42 H       -4.4770     4.9160     2.4090 H     1 <1>   0.0800 
 43 H       -4.7730     3.1860     2.1750 H     1 <1>   0.0800 
 44 H       -3.4490     5.5540    -0.6480 H     1 <1>   0.4000 
 45 H       -7.4090    -4.8710     0.7020 H     1 <1>   0.0800 
 46 H       -7.9670    -3.2570     0.2280 H     1 <1>   0.0800 
 47 H       -8.6640    -5.8580    -1.1750 H     1 <1>   0.0800 
 48 H       -9.2120    -4.2450    -1.6590 H     1 <1>   0.0800 
 49 H      -11.8740    -5.5330     0.2990 H     1 <1>   0.0800 
 50 H      -10.9140    -6.5110    -0.8060 H     1 <1>   0.0800 
 51 H      -11.4620    -4.8970    -1.2890 H     1 <1>   0.0800 
@<TRIPOS>BOND
  1   1   2  2   
  2   2   3  am  
  3   2   4  1   
  4   3   5  1   
  5   3  25  1   
  6   4   6  1   
  7   4   7  1   
  8   4  26  1   
  9   5   8  1   
 10   5  27  1   
 11   5  28  1   
 12   6   9  1   
 13   6  29  1   
 14   6  30  1   
 15   7  10  1   
 16   7  31  1   
 17   7  32  1   
 18   8  11  ar  
 19   8  12  ar  
 20   9  13  1   
 21   9  14  1   
 22   9  33  1   
 23  10  14  1   
 24  10  34  1   
 25  10  35  1   
 26  11  15  ar  
 27  11  36  1   
 28  12  16  ar  
 29  12  37  1   
 30  13  17  1   
 31  14  18  1   
 32  14  38  1   
 33  15  19  ar  
 34  15  39  1   
 35  16  19  ar  
 36  16  40  1   
 37  17  41  1   
 38  17  42  1   
 39  17  43  1   
 40  18  44  1   
 41  19  20  1   
 42  20  21  1   
 43  21  22  1   
 44  21  45  1   
 45  21  46  1   
 46  22  23  1   
 47  22  47  1   
 48  22  48  1   
 49  23  24  1   
 50  24  49  1   
 51  24  50  1   
 52  24  51  1   
@<TRIPOS>SUBSTRUCTURE
  1 ****   3 GROUP 4 **** **** 0

# MOE 2024.06 (io_trps.svl 2023.06)
