@<TRIPOS>MOLECULE
NONAME
48 49 1 0 0 
SMALL
USER_CHARGES


@<TRIPOS>ATOM
  1 O       -0.3520    -0.7740    -0.6350 O.2   1 <1>  -0.5700 
  2 C       -0.0760    -1.7030     0.0930 C.2   1 <1>   0.5440 
  3 N       -1.0430    -2.0750     0.9660 N.am  1 <1>  -0.8000 
  4 C        1.2180    -2.3400     0.0510 C.ar  1 <1>   0.0860 
  5 C        1.3730    -3.7360     0.1310 C.ar  1 <1>   0.4100 
  6 C        2.3670    -1.5730    -0.0710 C.ar  1 <1>  -0.1500 
  7 N        2.5560    -4.3440     0.1460 N.ar  1 <1>  -0.6200 
  8 N        0.2780    -4.5760     0.1770 N.pl3 1 <1>  -0.8690 
  9 C        3.5940    -2.2000    -0.0730 C.ar  1 <1>  -0.1430 
 10 C        3.6290    -3.5860     0.0490 C.ar  1 <1>   0.1670 
 11 C        0.3820    -6.0280    -0.0600 C.3   1 <1>   0.2090 
 12 C        4.8560    -1.3570    -0.2080 C.3   1 <1>  -0.0970 
 13 C        4.9490    -4.3360     0.0690 C.3   1 <1>  -0.0970 
 14 C       -1.0060    -6.6510     0.0950 C.3   1 <1>  -0.1600 
 15 C       -1.0390    -8.1560    -0.2430 C.3   1 <1>  -0.0800 
 16 C       -2.5030    -8.6490    -0.2520 C.3   1 <1>   0.3430 
 17 C       -0.1570    -8.9870     0.7110 C.3   1 <1>  -0.1600 
 18 N       -2.6500   -10.0530     0.2530 N.4   1 <1>  -0.9590 
 19 C       -0.2280   -10.4880     0.3680 C.3   1 <1>  -0.1600 
 20 C       -1.5600   -10.9310    -0.2510 C.3   1 <1>   0.3430 
 21 C       -3.9990   -10.6090    -0.0670 C.3   1 <1>   0.2630 
 22 H       -1.8890    -1.5080     1.0340 H     1 <1>   0.3700 
 23 H       -0.8610    -2.7370     1.7230 H     1 <1>   0.3700 
 24 H        2.2810    -0.5040    -0.1600 H     1 <1>   0.1500 
 25 H       -0.6060    -4.1510    -0.1200 H     1 <1>   0.4000 
 26 H        1.0720    -6.4470     0.6530 H     1 <1>   0.0800 
 27 H        0.7690    -6.1960    -1.0520 H     1 <1>   0.0800 
 28 H        4.6120    -0.3330    -0.4260 H     1 <1>   0.0800 
 29 H        5.4690    -1.7320    -1.0080 H     1 <1>   0.0800 
 30 H        5.4170    -1.3840     0.7090 H     1 <1>   0.0800 
 31 H        4.8010    -5.3420     0.4170 H     1 <1>   0.0800 
 32 H        5.6480    -3.8550     0.7270 H     1 <1>   0.0800 
 33 H        5.3570    -4.3740    -0.9240 H     1 <1>   0.0800 
 34 H       -1.6780    -6.1320    -0.5680 H     1 <1>   0.0800 
 35 H       -1.3400    -6.4970     1.1070 H     1 <1>   0.0800 
 36 H       -0.6550    -8.2740    -1.2420 H     1 <1>   0.0800 
 37 H       -2.8820    -8.5790    -1.2590 H     1 <1>   0.0800 
 38 H       -3.0980    -7.9960     0.3660 H     1 <1>   0.0800 
 39 H       -0.4910    -8.8360     1.7240 H     1 <1>   0.0800 
 40 H        0.8710    -8.6720     0.6620 H     1 <1>   0.0800 
 41 H       -2.5390   -10.0200     1.2770 H     1 <1>   0.4500 
 42 H       -0.0380   -11.0640     1.2570 H     1 <1>   0.0800 
 43 H        0.5540   -10.7320    -0.3300 H     1 <1>   0.0800 
 44 H       -1.5040   -10.8500    -1.3250 H     1 <1>   0.0800 
 45 H       -1.7510   -11.9610     0.0020 H     1 <1>   0.0800 
 46 H       -4.1380   -10.6650    -1.1350 H     1 <1>   0.0800 
 47 H       -4.7710    -9.9810     0.3490 H     1 <1>   0.0800 
 48 H       -4.1030   -11.5990     0.3470 H     1 <1>   0.0800 
@<TRIPOS>BOND
  1   1   2  2   
  2   2   3  am  
  3   2   4  1   
  4   3  22  1   
  5   3  23  1   
  6   4   5  ar  
  7   4   6  ar  
  8   5   7  ar  
  9   5   8  1   
 10   6   9  ar  
 11   6  24  1   
 12   7  10  ar  
 13   8  11  1   
 14   8  25  1   
 15   9  10  ar  
 16   9  12  1   
 17  10  13  1   
 18  11  14  1   
 19  11  26  1   
 20  11  27  1   
 21  12  28  1   
 22  12  29  1   
 23  12  30  1   
 24  13  31  1   
 25  13  32  1   
 26  13  33  1   
 27  14  15  1   
 28  14  34  1   
 29  14  35  1   
 30  15  16  1   
 31  15  17  1   
 32  15  36  1   
 33  16  18  1   
 34  16  37  1   
 35  16  38  1   
 36  17  19  1   
 37  17  39  1   
 38  17  40  1   
 39  18  20  1   
 40  18  21  1   
 41  18  41  1   
 42  19  20  1   
 43  19  42  1   
 44  19  43  1   
 45  20  44  1   
 46  20  45  1   
 47  21  46  1   
 48  21  47  1   
 49  21  48  1   
@<TRIPOS>SUBSTRUCTURE
  1 ****  11 GROUP 4 **** **** 0

# MOE 2024.06 (io_trps.svl 2023.06)
