@<TRIPOS>MOLECULE
NONAME
51 53 1 0 0 
SMALL
USER_CHARGES


@<TRIPOS>ATOM
  1 S       -0.7690    -0.2260     0.9360 S.o2  1 <1>   1.3330 
  2 O       -1.6000    -1.3920     0.7340 O.2   1 <1>  -0.6500 
  3 O       -0.7130     0.3770     2.2510 O.2   1 <1>  -0.6500 
  4 N       -1.2220     0.9620    -0.1920 N.am  1 <1>  -0.8490 
  5 C        0.9000    -0.6720     0.4440 C.3   1 <1>  -0.0550 
  6 C       -1.6770     2.2380     0.3610 C.3   1 <1>   0.1960 
  7 C       -2.0560     0.5230    -1.3140 C.3   1 <1>   0.1960 
  8 C        1.9770     0.4060     0.6710 C.3   1 <1>  -0.0800 
  9 C       -3.1300     2.1460     0.8360 C.3   1 <1>  -0.1600 
 10 C       -3.5380     0.4280    -0.9240 C.3   1 <1>  -0.1600 
 11 C        1.9040     1.5970    -0.2900 C.3   1 <1>  -0.1600 
 12 C        3.3870    -0.1420     0.4660 C.3   1 <1>  -0.1600 
 13 C       -4.0750     1.7290    -0.3100 C.3   1 <1>   0.2800 
 14 C        3.3420     2.1000    -0.4660 C.3   1 <1>  -0.1600 
 15 C        4.2450     1.1010     0.2590 C.3   1 <1>  -0.1600 
 16 O       -4.0260     2.6820    -1.3380 O.3   1 <1>  -0.5600 
 17 C       -5.5400     1.5100     0.1310 C.3   1 <1>  -0.1600 
 18 C       -4.6260     3.9270    -1.1320 C.3   1 <1>   0.1200 
 19 C       -6.3630     2.7890     0.3090 C.3   1 <1>   0.2800 
 20 C       -6.1190     3.7430    -0.8590 C.3   1 <1>  -0.1600 
 21 O       -5.9670     3.4150     1.4650 O.3   1 <1>  -0.6800 
 22 C       -7.8490     2.4860     0.4840 C.3   1 <1>  -0.2400 
 23 H        0.8990    -0.9610    -0.5890 H     1 <1>   0.0800 
 24 H        1.1830    -1.5360     1.0130 H     1 <1>   0.0800 
 25 H       -1.6030     2.9920    -0.4040 H     1 <1>   0.0800 
 26 H       -1.0390     2.5410     1.1740 H     1 <1>   0.0800 
 27 H       -1.7110    -0.4300    -1.6800 H     1 <1>   0.0800 
 28 H       -1.9560     1.2350    -2.1160 H     1 <1>   0.0800 
 29 H        1.9070     0.7750     1.6820 H     1 <1>   0.0800 
 30 H       -3.4090     3.0880     1.2580 H     1 <1>   0.0800 
 31 H       -3.1910     1.4220     1.6290 H     1 <1>   0.0800 
 32 H       -3.6720    -0.3780    -0.2270 H     1 <1>   0.0800 
 33 H       -4.1100     0.1830    -1.8000 H     1 <1>   0.0800 
 34 H        1.2670     2.3710     0.0990 H     1 <1>   0.0800 
 35 H        1.5210     1.2820    -1.2460 H     1 <1>   0.0800 
 36 H        3.4220    -0.7480    -0.4240 H     1 <1>   0.0800 
 37 H        3.7220    -0.7250     1.3070 H     1 <1>   0.0800 
 38 H        3.4610     3.0850    -0.0490 H     1 <1>   0.0800 
 39 H        3.5890     2.1350    -1.5130 H     1 <1>   0.0800 
 40 H        5.1390     0.8840    -0.3010 H     1 <1>   0.0800 
 41 H        4.5220     1.5040     1.2190 H     1 <1>   0.0800 
 42 H       -5.5750     0.9220     1.0310 H     1 <1>   0.0800 
 43 H       -6.0230     0.9260    -0.6320 H     1 <1>   0.0800 
 44 H       -4.4840     4.5060    -2.0280 H     1 <1>   0.0800 
 45 H       -4.1330     4.4330    -0.3210 H     1 <1>   0.0800 
 46 H       -6.5730     3.3420    -1.7480 H     1 <1>   0.0800 
 47 H       -6.5800     4.6940    -0.6610 H     1 <1>   0.0800 
 48 H       -5.0030     3.5370     1.4480 H     1 <1>   0.4000 
 49 H       -8.2370     2.0010    -0.3940 H     1 <1>   0.0800 
 50 H       -8.4000     3.3960     0.6410 H     1 <1>   0.0800 
 51 H       -7.9990     1.8350     1.3260 H     1 <1>   0.0800 
@<TRIPOS>BOND
  1   1   2  2   
  2   1   3  2   
  3   1   4  am  
  4   1   5  1   
  5   4   6  1   
  6   4   7  1   
  7   5   8  1   
  8   5  23  1   
  9   5  24  1   
 10   6   9  1   
 11   6  25  1   
 12   6  26  1   
 13   7  10  1   
 14   7  27  1   
 15   7  28  1   
 16   8  11  1   
 17   8  12  1   
 18   8  29  1   
 19   9  13  1   
 20   9  30  1   
 21   9  31  1   
 22  10  13  1   
 23  10  32  1   
 24  10  33  1   
 25  11  14  1   
 26  11  34  1   
 27  11  35  1   
 28  12  15  1   
 29  12  36  1   
 30  12  37  1   
 31  13  16  1   
 32  13  17  1   
 33  14  15  1   
 34  14  38  1   
 35  14  39  1   
 36  15  40  1   
 37  15  41  1   
 38  16  18  1   
 39  17  19  1   
 40  17  42  1   
 41  17  43  1   
 42  18  20  1   
 43  18  44  1   
 44  18  45  1   
 45  19  20  1   
 46  19  21  1   
 47  19  22  1   
 48  20  46  1   
 49  20  47  1   
 50  21  48  1   
 51  22  49  1   
 52  22  50  1   
 53  22  51  1   
@<TRIPOS>SUBSTRUCTURE
  1 ****   6 GROUP 4 **** **** 0

# MOE 2024.06 (io_trps.svl 2023.06)
