@<TRIPOS>MOLECULE
NONAME
61 63 1 0 0 
SMALL
USER_CHARGES


@<TRIPOS>ATOM
  1 O        5.5460    -0.2010    -0.0650 O.2   1 <1>  -0.5700 
  2 C        4.6960    -0.8550     0.4960 C.2   1 <1>   0.5690 
  3 N        3.3720    -0.8680     0.2140 N.am  1 <1>  -0.6600 
  4 C        5.0080    -1.7370     1.6730 C.3   1 <1>  -0.0990 
  5 C        2.6100    -1.7350     1.1330 C.3   1 <1>   0.1400 
  6 C        2.6850    -0.3240    -0.9870 C.3   1 <1>   0.1400 
  7 C        3.6820    -2.4600     1.9560 C.3   1 <1>  -0.1600 
  8 C        2.4210     1.1790    -0.8390 C.3   1 <1>  -0.1600 
  9 C        3.5000     2.0160    -1.5500 C.3   1 <1>  -0.0990 
 10 C        3.5660     3.4560    -1.0660 C.2   1 <1>   0.5690 
 11 O        3.0320     4.2900    -1.7540 O.2   1 <1>  -0.5700 
 12 N        4.2520     3.7960     0.0780 N.am  1 <1>  -0.6600 
 13 C        4.9940     2.8170     0.9250 C.3   1 <1>   0.1400 
 14 C        4.3380     5.2140     0.5230 C.3   1 <1>   0.1400 
 15 C        6.3970     2.5420     0.3520 C.3   1 <1>   0.3430 
 16 C        5.7960     5.6730     0.6510 C.3   1 <1>  -0.1600 
 17 N        7.3200     3.7310     0.3200 N.4   1 <1>  -0.9590 
 18 C        6.7530     4.9660    -0.3120 C.3   1 <1>   0.3430 
 19 C        8.5990     3.3460    -0.3290 C.3   1 <1>   0.4860 
 20 C        9.6460     4.3750     0.0500 C.ar  1 <1>  -0.1440 
 21 C       10.2320     4.3940     1.3140 C.ar  1 <1>  -0.1440 
 22 C       10.0140     5.3250    -0.8940 C.ar  1 <1>  -0.1500 
 23 C       11.1560     5.3820     1.6130 C.ar  1 <1>  -0.1500 
 24 C        9.9110     3.3630     2.3900 C.3   1 <1>  -0.0970 
 25 C       10.9410     6.3060    -0.5890 C.ar  1 <1>  -0.1440 
 26 C       11.5060     6.3330     0.6720 C.ar  1 <1>  -0.1500 
 27 C       11.3390     7.3460    -1.6220 C.3   1 <1>  -0.0970 
 28 H        5.3010    -1.1270     2.5070 H     1 <1>   0.0800 
 29 H        5.7920    -2.4300     1.4270 H     1 <1>   0.0800 
 30 H        2.0060    -2.4390     0.5840 H     1 <1>   0.0800 
 31 H        1.9820    -1.1280     1.7630 H     1 <1>   0.0800 
 32 H        1.7460    -0.8360    -1.1130 H     1 <1>   0.0800 
 33 H        3.2810    -0.5220    -1.8630 H     1 <1>   0.0800 
 34 H        3.4370    -2.4560     3.0040 H     1 <1>   0.0800 
 35 H        3.7460    -3.4820     1.6240 H     1 <1>   0.0800 
 36 H        2.3460     1.4370     0.2020 H     1 <1>   0.0800 
 37 H        1.4740     1.4140    -1.2930 H     1 <1>   0.0800 
 38 H        3.2870     2.0240    -2.6040 H     1 <1>   0.0800 
 39 H        4.4630     1.5630    -1.4450 H     1 <1>   0.0800 
 40 H        4.4460     1.8940     0.9700 H     1 <1>   0.0800 
 41 H        5.0720     3.1830     1.9340 H     1 <1>   0.0800 
 42 H        3.8280     5.3270     1.4650 H     1 <1>   0.0800 
 43 H        3.8360     5.8510    -0.1860 H     1 <1>   0.0800 
 44 H        6.2790     2.1540    -0.6460 H     1 <1>   0.0800 
 45 H        6.8490     1.7580     0.9370 H     1 <1>   0.0800 
 46 H        6.1330     5.5680     1.6660 H     1 <1>   0.0800 
 47 H        5.8140     6.7260     0.4310 H     1 <1>   0.0800 
 48 H        7.5780     3.9910     1.2780 H     1 <1>   0.4500 
 49 H        7.5550     5.6500    -0.5370 H     1 <1>   0.0800 
 50 H        6.2460     4.7280    -1.2350 H     1 <1>   0.0800 
 51 H        8.4810     3.3070    -1.4000 H     1 <1>   0.0800 
 52 H        8.9170     2.3760     0.0140 H     1 <1>   0.0800 
 53 H        9.5820     5.3110    -1.8800 H     1 <1>   0.1500 
 54 H       11.6200     5.4220     2.5840 H     1 <1>   0.1500 
 55 H        9.8800     2.3710     1.9780 H     1 <1>   0.0800 
 56 H        8.9710     3.5880     2.8600 H     1 <1>   0.0800 
 57 H       10.6710     3.3680     3.1520 H     1 <1>   0.0800 
 58 H       12.2260     7.0910     0.9270 H     1 <1>   0.1500 
 59 H       11.2010     6.9670    -2.6190 H     1 <1>   0.0800 
 60 H       12.3750     7.6110    -1.5040 H     1 <1>   0.0800 
 61 H       10.7410     8.2310    -1.5000 H     1 <1>   0.0800 
@<TRIPOS>BOND
  1   1   2  2   
  2   2   3  am  
  3   2   4  1   
  4   3   5  1   
  5   3   6  1   
  6   4   7  1   
  7   4  28  1   
  8   4  29  1   
  9   5   7  1   
 10   5  30  1   
 11   5  31  1   
 12   6   8  1   
 13   6  32  1   
 14   6  33  1   
 15   7  34  1   
 16   7  35  1   
 17   8   9  1   
 18   8  36  1   
 19   8  37  1   
 20   9  10  1   
 21   9  38  1   
 22   9  39  1   
 23  10  11  2   
 24  10  12  am  
 25  12  13  1   
 26  12  14  1   
 27  13  15  1   
 28  13  40  1   
 29  13  41  1   
 30  14  16  1   
 31  14  42  1   
 32  14  43  1   
 33  15  17  1   
 34  15  44  1   
 35  15  45  1   
 36  16  18  1   
 37  16  46  1   
 38  16  47  1   
 39  17  18  1   
 40  17  19  1   
 41  17  48  1   
 42  18  49  1   
 43  18  50  1   
 44  19  20  1   
 45  19  51  1   
 46  19  52  1   
 47  20  21  ar  
 48  20  22  ar  
 49  21  23  ar  
 50  21  24  1   
 51  22  25  ar  
 52  22  53  1   
 53  23  26  ar  
 54  23  54  1   
 55  24  55  1   
 56  24  56  1   
 57  24  57  1   
 58  25  26  ar  
 59  25  27  1   
 60  26  58  1   
 61  27  59  1   
 62  27  60  1   
 63  27  61  1   
@<TRIPOS>SUBSTRUCTURE
  1 ****  15 GROUP 4 **** **** 0

# MOE 2024.06 (io_trps.svl 2023.06)
