@<TRIPOS>MOLECULE
NONAME
54 57 1 0 0 
SMALL
USER_CHARGES


@<TRIPOS>ATOM
  1 O       -1.1770    -0.4680     0.1470 O.2   1 <1>  -0.5700 
  2 C       -1.2890     0.7320     0.0940 C.2   1 <1>   0.5690 
  3 N       -2.4400     1.4600     0.2250 N.am  1 <1>  -0.4770 
  4 C       -0.0970     1.6220    -0.1320 C.3   1 <1>  -0.0990 
  5 C       -3.7550     0.9900     0.3940 C.ar  1 <1>   0.1170 
  6 C       -2.1500     2.9070     0.1270 C.3   1 <1>   0.1400 
  7 C       -0.7200     2.9920    -0.4170 C.3   1 <1>  -0.1600 
  8 C       -4.6870     1.7090     1.1390 C.ar  1 <1>  -0.1500 
  9 C       -4.1780    -0.2050    -0.1810 C.ar  1 <1>  -0.1500 
 10 C       -5.9850     1.2590     1.2880 C.ar  1 <1>  -0.1500 
 11 C       -5.4750    -0.6550    -0.0290 C.ar  1 <1>  -0.1500 
 12 C       -6.4170     0.0700     0.6990 C.ar  1 <1>   0.0860 
 13 C       -7.7800    -0.4010     0.8410 C.2   1 <1>   0.5440 
 14 O       -7.9760    -1.5350     1.2400 O.2   1 <1>  -0.5700 
 15 N       -8.8640     0.3970     0.5280 N.am  1 <1>  -0.6600 
 16 C      -10.2600     0.0190     0.9160 C.3   1 <1>   0.1400 
 17 C       -8.7880     1.5970    -0.3490 C.3   1 <1>   0.1400 
 18 C      -11.1380    -0.2440    -0.3340 C.3   1 <1>   0.0000 
 19 C       -9.6320     1.3750    -1.6090 C.3   1 <1>  -0.1600 
 20 C      -12.5850    -0.5840     0.0620 C.3   1 <1>   0.2000 
 21 C      -11.0810     0.9840    -1.2690 C.3   1 <1>  -0.1600 
 22 C      -10.6980    -1.5390    -1.0380 C.3   1 <1>  -0.1600 
 23 O      -13.0350     0.2210     1.1120 O.3   1 <1>  -0.5600 
 24 C      -12.5700    -2.0650     0.4560 C.3   1 <1>  -0.1600 
 25 C      -11.3520    -2.6770    -0.2480 C.3   1 <1>  -0.1600 
 26 C      -14.4090     0.1880     1.3310 C.3   1 <1>   0.0400 
 27 H        0.4960     1.6410     0.7640 H     1 <1>   0.0800 
 28 H        0.4940     1.2680    -0.9570 H     1 <1>   0.0800 
 29 H       -2.8510     3.3900    -0.5320 H     1 <1>   0.0800 
 30 H       -2.2050     3.3450     1.1080 H     1 <1>   0.0800 
 31 H       -0.7610     3.1570    -1.4800 H     1 <1>   0.0800 
 32 H       -0.1670     3.7950     0.0380 H     1 <1>   0.0800 
 33 H       -4.3960     2.6250     1.6170 H     1 <1>   0.1500 
 34 H       -3.4820    -0.7930    -0.7540 H     1 <1>   0.1500 
 35 H       -6.6860     1.8260     1.8750 H     1 <1>   0.1500 
 36 H       -5.7760    -1.5880    -0.4750 H     1 <1>   0.1500 
 37 H      -10.2530    -0.8460     1.5550 H     1 <1>   0.0800 
 38 H      -10.6780     0.8300     1.4850 H     1 <1>   0.0800 
 39 H       -9.1600     2.4480     0.1950 H     1 <1>   0.0800 
 40 H       -7.7720     1.7980    -0.6400 H     1 <1>   0.0800 
 41 H       -9.6340     2.2770    -2.1950 H     1 <1>   0.0800 
 42 H       -9.1740     0.6030    -2.2020 H     1 <1>   0.0800 
 43 H      -13.2270    -0.4390    -0.7910 H     1 <1>   0.0800 
 44 H      -11.6240     0.7870    -2.1760 H     1 <1>   0.0800 
 45 H      -11.5580     1.8140    -0.7760 H     1 <1>   0.0800 
 46 H      -11.0790    -1.5530    -2.0440 H     1 <1>   0.0800 
 47 H       -9.6290    -1.6520    -1.0760 H     1 <1>   0.0800 
 48 H      -12.4540    -2.1650     1.5220 H     1 <1>   0.0800 
 49 H      -13.4770    -2.5480     0.1420 H     1 <1>   0.0800 
 50 H      -10.6570    -3.0470     0.4890 H     1 <1>   0.0800 
 51 H      -11.6310    -3.4880    -0.8980 H     1 <1>   0.0800 
 52 H      -14.6340     0.8590     2.1420 H     1 <1>   0.0800 
 53 H      -14.7070    -0.8110     1.5970 H     1 <1>   0.0800 
 54 H      -14.9190     0.5130     0.4410 H     1 <1>   0.0800 
@<TRIPOS>BOND
  1   1   2  2   
  2   2   3  am  
  3   2   4  1   
  4   3   5  1   
  5   3   6  1   
  6   4   7  1   
  7   4  27  1   
  8   4  28  1   
  9   5   8  ar  
 10   5   9  ar  
 11   6   7  1   
 12   6  29  1   
 13   6  30  1   
 14   7  31  1   
 15   7  32  1   
 16   8  10  ar  
 17   8  33  1   
 18   9  11  ar  
 19   9  34  1   
 20  10  12  ar  
 21  10  35  1   
 22  11  12  ar  
 23  11  36  1   
 24  12  13  1   
 25  13  14  2   
 26  13  15  am  
 27  15  16  1   
 28  15  17  1   
 29  16  18  1   
 30  16  37  1   
 31  16  38  1   
 32  17  19  1   
 33  17  39  1   
 34  17  40  1   
 35  18  20  1   
 36  18  21  1   
 37  18  22  1   
 38  19  21  1   
 39  19  41  1   
 40  19  42  1   
 41  20  23  1   
 42  20  24  1   
 43  20  43  1   
 44  21  44  1   
 45  21  45  1   
 46  22  25  1   
 47  22  46  1   
 48  22  47  1   
 49  23  26  1   
 50  24  25  1   
 51  24  48  1   
 52  24  49  1   
 53  25  50  1   
 54  25  51  1   
 55  26  52  1   
 56  26  53  1   
 57  26  54  1   
@<TRIPOS>SUBSTRUCTURE
  1 ****  12 GROUP 4 **** **** 0

# MOE 2024.06 (io_trps.svl 2023.06)
