@<TRIPOS>MOLECULE
NONAME
38 39 1 0 0 
SMALL
USER_CHARGES


@<TRIPOS>ATOM
  1 O        1.2330    -0.7500     1.6800 O.2   1 <1>  -0.5700 
  2 C        1.7530    -0.9970     0.6170 C.2   1 <1>   0.5690 
  3 N        2.4120    -0.0650    -0.1270 N.am  1 <1>  -0.4930 
  4 C        1.6760    -2.4200     0.0790 C.3   1 <1>  -0.0190 
  5 C        2.6280     1.3070     0.1580 C.2   1 <1>   0.0630 
  6 C        0.2710    -2.9920     0.3410 C.3   1 <1>   0.0960 
  7 C        2.7840    -3.2990     0.6940 C.3   1 <1>  -0.2400 
  8 C        2.2380     2.0570     1.2680 C.2   1 <1>   0.1390 
  9 C        3.2830     2.1850    -0.6290 C.2   1 <1>  -0.3020 
 10 N        0.0860    -4.2960    -0.3210 N.pl3 1 <1>   0.3140 
 11 N        2.6150     3.2980     1.1830 N.2   1 <1>  -0.7070 
 12 N        3.2660     3.3810     0.0040 N.pl3 1 <1>   0.3140 
 13 N        0.1050    -4.4220    -1.6610 N.2   1 <1>  -0.7070 
 14 C       -0.1130    -5.4870     0.2780 C.2   1 <1>  -0.3020 
 15 C        3.8750     4.6450    -0.5050 C.3   1 <1>   0.1760 
 16 C       -0.0840    -5.6880    -1.8800 C.2   1 <1>   0.1390 
 17 C       -0.2270    -6.4090    -0.7010 C.2   1 <1>  -0.1500 
 18 C        4.9670     5.1450     0.4520 C.3   1 <1>  -0.2400 
 19 C        2.7990     5.7190    -0.7150 C.3   1 <1>  -0.2400 
 20 H        2.8150    -0.3830    -1.0060 H     1 <1>   0.3700 
 21 H        1.8200    -2.3790    -0.9860 H     1 <1>   0.0800 
 22 H       -0.4730    -2.3190    -0.0450 H     1 <1>   0.0800 
 23 H        0.1060    -3.1090     1.3970 H     1 <1>   0.0800 
 24 H        2.6480    -3.3840     1.7580 H     1 <1>   0.0800 
 25 H        3.7500    -2.8620     0.5100 H     1 <1>   0.0800 
 26 H        2.7730    -4.2850     0.2620 H     1 <1>   0.0800 
 27 H        1.6860     1.6600     2.1030 H     1 <1>   0.1500 
 28 H        3.7500     2.0350    -1.5820 H     1 <1>   0.1500 
 29 H       -0.1610    -5.6100     1.3450 H     1 <1>   0.1500 
 30 H        4.3290     4.4260    -1.4550 H     1 <1>   0.0800 
 31 H       -0.1240    -6.1200    -2.8660 H     1 <1>   0.1500 
 32 H       -0.3920    -7.4680    -0.6200 H     1 <1>   0.1500 
 33 H        4.5420     5.3790     1.4120 H     1 <1>   0.0800 
 34 H        5.4310     6.0300     0.0570 H     1 <1>   0.0800 
 35 H        5.7220     4.3900     0.5790 H     1 <1>   0.0800 
 36 H        2.3300     5.9640     0.2220 H     1 <1>   0.0800 
 37 H        2.0490     5.3640    -1.3980 H     1 <1>   0.0800 
 38 H        3.2380     6.6120    -1.1220 H     1 <1>   0.0800 
@<TRIPOS>BOND
  1   1   2  2   
  2   2   3  am  
  3   2   4  1   
  4   3   5  1   
  5   3  20  1   
  6   4   6  1   
  7   4   7  1   
  8   4  21  1   
  9   5   8  1   
 10   5   9  2   
 11   6  10  1   
 12   6  22  1   
 13   6  23  1   
 14   7  24  1   
 15   7  25  1   
 16   7  26  1   
 17   8  11  2   
 18   8  27  1   
 19   9  12  1   
 20   9  28  1   
 21  10  13  1   
 22  10  14  1   
 23  11  12  1   
 24  12  15  1   
 25  13  16  2   
 26  14  17  2   
 27  14  29  1   
 28  15  18  1   
 29  15  19  1   
 30  15  30  1   
 31  16  17  1   
 32  16  31  1   
 33  17  32  1   
 34  18  33  1   
 35  18  34  1   
 36  18  35  1   
 37  19  36  1   
 38  19  37  1   
 39  19  38  1   
@<TRIPOS>SUBSTRUCTURE
  1 ****   3 GROUP 4 **** **** 0

# MOE 2024.06 (io_trps.svl 2023.06)
