@<TRIPOS>MOLECULE
NONAME
44 45 1 0 0 
SMALL
USER_CHARGES


@<TRIPOS>ATOM
  1 O        2.1850    -0.2340    -1.8940 O.2   1 <1>  -0.5700 
  2 C        1.8100    -0.9120    -0.9660 C.2   1 <1>   0.5690 
  3 N        1.6510    -0.4400     0.2980 N.am  1 <1>  -0.4930 
  4 C        1.4910    -2.3900    -1.1940 C.3   1 <1>   0.1710 
  5 C        1.8370     0.8340     0.8280 C.2   1 <1>   0.3520 
  6 N        0.4330    -2.9360    -0.2750 N.3   1 <1>  -0.8100 
  7 N        1.5320     1.1140     2.0460 N.2   1 <1>  -0.4100 
  8 C        2.3530     1.9560     0.1790 C.2   1 <1>  -0.1500 
  9 C        0.2850    -4.4220    -0.2550 C.3   1 <1>   0.1900 
 10 C       -0.8620    -2.3000    -0.6100 C.3   1 <1>   0.0300 
 11 O        1.8300     2.3780     2.2120 O.3   1 <1>  -0.0190 
 12 C        2.3190     2.9070     1.1210 C.2   1 <1>  -0.0400 
 13 C       -0.3330    -4.8510     1.0940 C.3   1 <1>  -0.0170 
 14 C        1.6130    -5.1650    -0.4740 C.3   1 <1>  -0.2400 
 15 C        2.7280     4.3640     1.1040 C.3   1 <1>  -0.0600 
 16 C       -0.9240    -6.2580     1.0500 C.ar  1 <1>   0.1670 
 17 N       -0.1280    -7.2110     1.5180 N.ar  1 <1>  -0.6200 
 18 C       -2.2100    -6.4920     0.5590 C.ar  1 <1>  -0.1440 
 19 C       -0.6120    -8.4400     1.4950 C.ar  1 <1>   0.1600 
 20 C       -2.6910    -7.7870     0.5450 C.ar  1 <1>  -0.1500 
 21 C       -3.1170    -5.3810     0.0400 C.3   1 <1>  -0.0970 
 22 C       -1.8660    -8.7780     1.0250 C.ar  1 <1>  -0.1500 
 23 H        1.2530    -1.1210     0.9490 H     1 <1>   0.3700 
 24 H        2.4230    -2.8980    -1.0380 H     1 <1>   0.0800 
 25 H        1.1990    -2.5350    -2.2200 H     1 <1>   0.0800 
 26 H        2.6860     2.0020    -0.8410 H     1 <1>   0.1500 
 27 H       -0.3790    -4.7150    -1.0510 H     1 <1>   0.0800 
 28 H       -0.7860    -1.2270    -0.5640 H     1 <1>   0.0800 
 29 H       -1.6290    -2.5960     0.0820 H     1 <1>   0.0800 
 30 H       -1.1690    -2.5780    -1.6050 H     1 <1>   0.0800 
 31 H       -1.1000    -4.1730     1.4030 H     1 <1>   0.0800 
 32 H        0.4270    -4.8120     1.8540 H     1 <1>   0.0800 
 33 H        2.3440    -4.8590     0.2530 H     1 <1>   0.0800 
 34 H        1.9860    -5.0090    -1.4680 H     1 <1>   0.0800 
 35 H        1.4640    -6.2240    -0.3680 H     1 <1>   0.0800 
 36 H        3.1070     4.6320     0.1350 H     1 <1>   0.0800 
 37 H        3.4930     4.5360     1.8390 H     1 <1>   0.0800 
 38 H        1.8790     4.9830     1.3320 H     1 <1>   0.0800 
 39 H        0.0260    -9.2200     1.8730 H     1 <1>   0.1500 
 40 H       -3.6740    -8.0250     0.1760 H     1 <1>   0.1500 
 41 H       -2.6530    -4.8710    -0.7830 H     1 <1>   0.0800 
 42 H       -3.3240    -4.6750     0.8250 H     1 <1>   0.0800 
 43 H       -4.0550    -5.7800    -0.3030 H     1 <1>   0.0800 
 44 H       -2.1900    -9.8020     1.0380 H     1 <1>   0.1500 
@<TRIPOS>BOND
  1   1   2  2   
  2   2   3  am  
  3   2   4  1   
  4   3   5  1   
  5   3  23  1   
  6   4   6  1   
  7   4  24  1   
  8   4  25  1   
  9   5   7  2   
 10   5   8  1   
 11   6   9  1   
 12   6  10  1   
 13   7  11  1   
 14   8  12  2   
 15   8  26  1   
 16   9  13  1   
 17   9  14  1   
 18   9  27  1   
 19  10  28  1   
 20  10  29  1   
 21  10  30  1   
 22  11  12  1   
 23  12  15  1   
 24  13  16  1   
 25  13  31  1   
 26  13  32  1   
 27  14  33  1   
 28  14  34  1   
 29  14  35  1   
 30  15  36  1   
 31  15  37  1   
 32  15  38  1   
 33  16  17  ar  
 34  16  18  ar  
 35  17  19  ar  
 36  18  20  ar  
 37  18  21  1   
 38  19  22  ar  
 39  19  39  1   
 40  20  22  ar  
 41  20  40  1   
 42  21  41  1   
 43  21  42  1   
 44  21  43  1   
 45  22  44  1   
@<TRIPOS>SUBSTRUCTURE
  1 ****   6 GROUP 4 **** **** 0

# MOE 2024.06 (io_trps.svl 2023.06)
