@<TRIPOS>MOLECULE
NONAME
49 51 1 0 0 
SMALL
USER_CHARGES


@<TRIPOS>ATOM
  1 N        0.9520     0.4110    -0.1540 N.2   1 <1>  -0.3380 
  2 N       -0.1840    -0.2750    -0.0560 N.2   1 <1>  -0.3380 
  3 C        1.9210    -0.4340    -0.0500 C.2   1 <1>   0.0070 
  4 C        0.1390    -1.5100     0.1040 C.2   1 <1>   0.0360 
  5 N        1.4620    -1.6820     0.1180 N.pl3 1 <1>   0.0480 
  6 C        3.3870    -0.0220    -0.1140 C.3   1 <1>   0.1000 
  7 C        2.1850    -2.9580     0.2820 C.3   1 <1>   0.0160 
  8 C        3.7170     0.9060     1.0660 C.3   1 <1>  -0.1600 
  9 C        3.6710     0.6840    -1.4510 C.3   1 <1>  -0.1600 
 10 C        5.1170     1.5040     0.9590 C.3   1 <1>   0.3430 
 11 C        5.0710     1.2870    -1.5050 C.3   1 <1>   0.3430 
 12 N        5.2550     2.2060    -0.3510 N.4   1 <1>  -0.9590 
 13 C        6.5330     2.9510    -0.4420 C.3   1 <1>   0.5230 
 14 C        6.5340     4.0600     0.5850 C.2   1 <1>  -0.3320 
 15 N        7.6630     4.6050     1.0960 N.pl3 1 <1>   0.0480 
 16 C        5.5010     4.7160     1.1680 C.2   1 <1>   0.0770 
 17 C        7.2260     5.5430     1.9650 C.2   1 <1>   0.0360 
 18 C        9.0870     4.2950     0.8140 C.3   1 <1>   0.0960 
 19 N        5.9400     5.6340     2.0370 N.2   1 <1>  -0.5650 
 20 C        9.5330     4.8110    -0.5680 C.3   1 <1>  -0.0800 
 21 C       10.9890     4.4050    -0.8280 C.3   1 <1>  -0.2400 
 22 C        9.4010     6.3370    -0.6830 C.3   1 <1>  -0.2400 
 23 H       -0.5650    -2.3150     0.2140 H     1 <1>   0.1500 
 24 H        4.0110    -0.8960    -0.0490 H     1 <1>   0.0800 
 25 H        2.8200    -2.9020     1.1470 H     1 <1>   0.0800 
 26 H        2.7770    -3.1490    -0.5950 H     1 <1>   0.0800 
 27 H        1.4790    -3.7580     0.4130 H     1 <1>   0.0800 
 28 H        3.6360     0.3550     1.9870 H     1 <1>   0.0800 
 29 H        3.0000     1.7090     1.1150 H     1 <1>   0.0800 
 30 H        2.9500     1.4680    -1.6140 H     1 <1>   0.0800 
 31 H        3.5550    -0.0210    -2.2560 H     1 <1>   0.0800 
 32 H        5.8550     0.7210     1.0370 H     1 <1>   0.0800 
 33 H        5.2720     2.1960     1.7730 H     1 <1>   0.0800 
 34 H        5.1900     1.8250    -2.4320 H     1 <1>   0.0800 
 35 H        5.8070     0.4990    -1.4700 H     1 <1>   0.0800 
 36 H        4.5100     2.9140    -0.3920 H     1 <1>   0.4500 
 37 H        6.6480     3.3790    -1.4250 H     1 <1>   0.0800 
 38 H        7.3570     2.2810    -0.2600 H     1 <1>   0.0800 
 39 H        4.4410     4.5900     1.0200 H     1 <1>   0.1500 
 40 H        7.9030     6.1540     2.5370 H     1 <1>   0.1500 
 41 H        9.2260     3.2310     0.8750 H     1 <1>   0.0800 
 42 H        9.6930     4.7500     1.5780 H     1 <1>   0.0800 
 43 H        8.9260     4.3560    -1.3300 H     1 <1>   0.0800 
 44 H       11.6460     4.8500    -0.1000 H     1 <1>   0.0800 
 45 H       11.2990     4.7330    -1.8060 H     1 <1>   0.0800 
 46 H       11.1020     3.3360    -0.7840 H     1 <1>   0.0800 
 47 H        9.9850     6.8300     0.0740 H     1 <1>   0.0800 
 48 H        8.3750     6.6470    -0.5790 H     1 <1>   0.0800 
 49 H        9.7480     6.6710    -1.6460 H     1 <1>   0.0800 
@<TRIPOS>BOND
  1   1   2  1   
  2   1   3  2   
  3   2   4  2   
  4   3   5  1   
  5   3   6  1   
  6   4   5  1   
  7   4  23  1   
  8   5   7  1   
  9   6   8  1   
 10   6   9  1   
 11   6  24  1   
 12   7  25  1   
 13   7  26  1   
 14   7  27  1   
 15   8  10  1   
 16   8  28  1   
 17   8  29  1   
 18   9  11  1   
 19   9  30  1   
 20   9  31  1   
 21  10  12  1   
 22  10  32  1   
 23  10  33  1   
 24  11  12  1   
 25  11  34  1   
 26  11  35  1   
 27  12  13  1   
 28  12  36  1   
 29  13  14  1   
 30  13  37  1   
 31  13  38  1   
 32  14  15  1   
 33  14  16  2   
 34  15  17  1   
 35  15  18  1   
 36  16  19  1   
 37  16  39  1   
 38  17  19  2   
 39  17  40  1   
 40  18  20  1   
 41  18  41  1   
 42  18  42  1   
 43  20  21  1   
 44  20  22  1   
 45  20  43  1   
 46  21  44  1   
 47  21  45  1   
 48  21  46  1   
 49  22  47  1   
 50  22  48  1   
 51  22  49  1   
@<TRIPOS>SUBSTRUCTURE
  1 ****  12 GROUP 4 **** **** 0

# MOE 2024.06 (io_trps.svl 2023.06)
