@<TRIPOS>MOLECULE
NONAME
54 57 1 0 0 
SMALL
USER_CHARGES


@<TRIPOS>ATOM
  1 S       -0.7000     0.5530     1.7560 S.o2  1 <1>   1.4470 
  2 O       -0.2390    -0.1550     2.9320 O.2   1 <1>  -0.6500 
  3 O       -1.7970     1.4840     1.8890 O.2   1 <1>  -0.6500 
  4 N       -1.2080    -0.6410     0.6610 N.am  1 <1>  -0.8490 
  5 C        0.7410     1.3200     0.9370 C.ar  1 <1>  -0.0090 
  6 C       -2.0700    -1.6500     1.2990 C.3   1 <1>   0.1960 
  7 C       -1.8760    -0.0810    -0.5240 C.3   1 <1>   0.1960 
  8 C        1.1700     2.6220     1.2080 C.ar  1 <1>  -0.1440 
  9 C        1.4790     0.5780     0.0210 C.ar  1 <1>  -0.1500 
 10 C       -2.2930    -2.8400     0.3300 C.3   1 <1>   0.4230 
 11 C       -2.0990    -1.2030    -1.5480 C.3   1 <1>  -0.1600 
 12 C        2.2750     3.1410     0.5500 C.ar  1 <1>  -0.1500 
 13 C        0.4540     3.5050     2.2220 C.3   1 <1>  -0.0960 
 14 C        2.5870     1.0770    -0.6570 C.ar  1 <1>   0.0530 
 15 N       -3.0540    -4.0020     0.9090 N.4   1 <1>  -0.9590 
 16 C       -2.9740    -2.3450    -0.9620 C.3   1 <1>  -0.1060 
 17 C        2.9700     2.3820    -0.3700 C.ar  1 <1>  -0.1500 
 18 C        3.3030     0.2690    -1.6170 C.2   1 <1>   0.0870 
 19 C       -3.1020    -5.1550    -0.0280 C.3   1 <1>   0.3430 
 20 C       -2.6710    -4.4000     2.2900 C.3   1 <1>   0.2630 
 21 C       -4.3810    -1.8220    -0.6190 C.2   1 <1>   0.9060 
 22 C       -3.0530    -3.5070    -1.9780 C.3   1 <1>  -0.1600 
 23 O        2.8370    -0.8990    -2.0040 O.3   1 <1>  -0.0190 
 24 C        4.4610     0.4510    -2.2880 C.2   1 <1>  -0.1500 
 25 C       -3.7330    -4.7400    -1.3610 C.3   1 <1>  -0.1600 
 26 O       -4.9810    -2.3060     0.3540 O.co2 1 <1>  -0.9000 
 27 O       -4.8830    -0.9410    -1.3140 O.co2 1 <1>  -0.9000 
 28 N        3.6030    -1.4900    -2.8730 N.2   1 <1>  -0.4100 
 29 C        4.5940    -0.6940    -3.0610 C.2   1 <1>   0.1390 
 30 H       -1.5780    -2.0140     2.1810 H     1 <1>   0.0800 
 31 H       -3.0070    -1.2030     1.5880 H     1 <1>   0.0800 
 32 H       -2.8180     0.3720    -0.2500 H     1 <1>   0.0800 
 33 H       -1.2610     0.6830    -0.9700 H     1 <1>   0.0800 
 34 H        1.1840    -0.4370    -0.1770 H     1 <1>   0.1500 
 35 H       -1.3130    -3.1950     0.0640 H     1 <1>   0.0800 
 36 H       -2.5840    -0.7860    -2.4150 H     1 <1>   0.0800 
 37 H       -1.1410    -1.5780    -1.8640 H     1 <1>   0.0800 
 38 H        2.6020     4.1460     0.7530 H     1 <1>   0.1500 
 39 H        1.0250     4.3900     2.4380 H     1 <1>   0.0800 
 40 H        0.3050     2.9760     3.1470 H     1 <1>   0.0800 
 41 H       -0.5040     3.8090     1.8380 H     1 <1>   0.0800 
 42 H       -4.0310    -3.6000     0.9300 H     1 <1>   0.4500 
 43 H        3.8210     2.8110    -0.8680 H     1 <1>   0.1500 
 44 H       -2.1030    -5.5190    -0.2030 H     1 <1>   0.0800 
 45 H       -3.6860    -5.9510     0.4040 H     1 <1>   0.0800 
 46 H       -1.6410    -4.7140     2.3180 H     1 <1>   0.0800 
 47 H       -3.2960    -5.2110     2.6270 H     1 <1>   0.0800 
 48 H       -2.8040    -3.5710     2.9660 H     1 <1>   0.0800 
 49 H       -3.6090    -3.1860    -2.8440 H     1 <1>   0.0800 
 50 H       -2.0620    -3.7760    -2.3040 H     1 <1>   0.0800 
 51 H        5.1470     1.2760    -2.2530 H     1 <1>   0.1500 
 52 H       -3.6740    -5.5620    -2.0510 H     1 <1>   0.0800 
 53 H       -4.7790    -4.5340    -1.2020 H     1 <1>   0.0800 
 54 H        5.4110    -0.8980    -3.7320 H     1 <1>   0.1500 
@<TRIPOS>BOND
  1   1   2  2   
  2   1   3  2   
  3   1   4  am  
  4   1   5  1   
  5   4   6  1   
  6   4   7  1   
  7   5   8  ar  
  8   5   9  ar  
  9   6  10  1   
 10   6  30  1   
 11   6  31  1   
 12   7  11  1   
 13   7  32  1   
 14   7  33  1   
 15   8  12  ar  
 16   8  13  1   
 17   9  14  ar  
 18   9  34  1   
 19  10  15  1   
 20  10  16  1   
 21  10  35  1   
 22  11  16  1   
 23  11  36  1   
 24  11  37  1   
 25  12  17  ar  
 26  12  38  1   
 27  13  39  1   
 28  13  40  1   
 29  13  41  1   
 30  14  17  ar  
 31  14  18  1   
 32  15  19  1   
 33  15  20  1   
 34  15  42  1   
 35  16  21  1   
 36  16  22  1   
 37  17  43  1   
 38  18  23  1   
 39  18  24  2   
 40  19  25  1   
 41  19  44  1   
 42  19  45  1   
 43  20  46  1   
 44  20  47  1   
 45  20  48  1   
 46  21  26  ar  
 47  21  27  ar  
 48  22  25  1   
 49  22  49  1   
 50  22  50  1   
 51  23  28  1   
 52  24  29  1   
 53  24  51  1   
 54  25  52  1   
 55  25  53  1   
 56  28  29  2   
 57  29  54  1   
@<TRIPOS>SUBSTRUCTURE
  1 ****   4 GROUP 4 **** **** 0

# MOE 2024.06 (io_trps.svl 2023.06)
