@<TRIPOS>MOLECULE
NONAME
47 49 1 0 0 
SMALL
USER_CHARGES


@<TRIPOS>ATOM
  1 S        0.1150    -1.0460     0.3010 S.3   1 <1>  -0.0800 
  2 C       -1.2590    -0.2090     1.0100 C.2   1 <1>  -0.1400 
  3 C        0.8230     0.4700    -0.2280 C.2   1 <1>  -0.1100 
  4 C       -1.1420     1.1210     0.8310 C.2   1 <1>  -0.1500 
  5 C       -2.3190    -1.0530     1.6870 C.3   1 <1>   0.3200 
  6 C        0.0430     1.5070     0.1260 C.2   1 <1>  -0.1500 
  7 N       -2.9890    -1.8740     0.6680 N.am  1 <1>  -0.7300 
  8 C       -4.3180    -2.1340     0.6040 C.2   1 <1>   0.5690 
  9 O       -5.0750    -1.7450     1.4640 O.2   1 <1>  -0.5700 
 10 C       -4.8760    -2.9390    -0.5740 C.3   1 <1>   0.2610 
 11 O       -3.8470    -3.2140    -1.5220 O.3   1 <1>  -0.5600 
 12 C       -5.6240    -4.1940    -0.0270 C.3   1 <1>   0.3640 
 13 C       -4.1080    -4.2840    -2.3930 C.3   1 <1>   0.1810 
 14 N       -5.0100    -5.5060    -0.4330 N.am  1 <1>  -0.6600 
 15 C       -7.0980    -4.1130    -0.4440 C.ar  1 <1>  -0.1430 
 16 C       -4.3170    -5.5760    -1.6100 C.2   1 <1>   0.5690 
 17 C       -5.0610    -6.6610     0.5030 C.3   1 <1>   0.2200 
 18 C       -7.6180    -4.7950    -1.5390 C.ar  1 <1>  -0.1500 
 19 C       -7.9480    -3.3100     0.3040 C.ar  1 <1>  -0.1500 
 20 O       -3.8680    -6.6070    -2.0540 O.2   1 <1>  -0.5700 
 21 C       -6.4850    -6.9390     0.9840 C.3   1 <1>  -0.2400 
 22 C       -4.1140    -6.4090     1.6760 C.3   1 <1>  -0.2400 
 23 C       -8.9540    -4.6720    -1.8780 C.ar  1 <1>  -0.1500 
 24 C       -9.2840    -3.1860    -0.0330 C.ar  1 <1>  -0.1500 
 25 C       -9.7890    -3.8670    -1.1250 C.ar  1 <1>  -0.1500 
 26 H        1.7590     0.4220    -0.7550 H     1 <1>   0.1500 
 27 H       -1.8470     1.8620     1.1670 H     1 <1>   0.1500 
 28 H       -3.0370    -0.4180     2.1770 H     1 <1>   0.0800 
 29 H       -1.8630    -1.6930     2.4220 H     1 <1>   0.0800 
 30 H        0.2500     2.5430    -0.0790 H     1 <1>   0.1500 
 31 H       -2.3990    -2.1790    -0.1140 H     1 <1>   0.3700 
 32 H       -5.5860    -2.3040    -1.0710 H     1 <1>   0.0800 
 33 H       -5.6090    -4.1460     1.0470 H     1 <1>   0.0800 
 34 H       -4.9800    -4.0540    -2.9770 H     1 <1>   0.0800 
 35 H       -3.2610    -4.3920    -3.0460 H     1 <1>   0.0800 
 36 H       -4.7170    -7.5430    -0.0140 H     1 <1>   0.0800 
 37 H       -6.9960    -5.4350    -2.1390 H     1 <1>   0.1500 
 38 H       -7.5750    -2.7680     1.1590 H     1 <1>   0.1500 
 39 H       -6.8660    -6.1320     1.5810 H     1 <1>   0.0800 
 40 H       -6.4950    -7.8310     1.5840 H     1 <1>   0.0800 
 41 H       -7.1330    -7.0990     0.1420 H     1 <1>   0.0800 
 42 H       -4.4450    -5.5860     2.2820 H     1 <1>   0.0800 
 43 H       -3.1230    -6.2070     1.3080 H     1 <1>   0.0800 
 44 H       -4.0670    -7.2850     2.2960 H     1 <1>   0.0800 
 45 H       -9.3450    -5.2060    -2.7260 H     1 <1>   0.1500 
 46 H       -9.9310    -2.5590     0.5560 H     1 <1>   0.1500 
 47 H      -10.8280    -3.7710    -1.3880 H     1 <1>   0.1500 
@<TRIPOS>BOND
  1   1   2  1   
  2   1   3  1   
  3   2   4  2   
  4   2   5  1   
  5   3   6  2   
  6   3  26  1   
  7   4   6  1   
  8   4  27  1   
  9   5   7  1   
 10   5  28  1   
 11   5  29  1   
 12   6  30  1   
 13   7   8  am  
 14   7  31  1   
 15   8   9  2   
 16   8  10  1   
 17  10  11  1   
 18  10  12  1   
 19  10  32  1   
 20  11  13  1   
 21  12  14  1   
 22  12  15  1   
 23  12  33  1   
 24  13  16  1   
 25  13  34  1   
 26  13  35  1   
 27  14  16  am  
 28  14  17  1   
 29  15  18  ar  
 30  15  19  ar  
 31  16  20  2   
 32  17  21  1   
 33  17  22  1   
 34  17  36  1   
 35  18  23  ar  
 36  18  37  1   
 37  19  24  ar  
 38  19  38  1   
 39  21  39  1   
 40  21  40  1   
 41  21  41  1   
 42  22  42  1   
 43  22  43  1   
 44  22  44  1   
 45  23  25  ar  
 46  23  45  1   
 47  24  25  ar  
 48  24  46  1   
 49  25  47  1   
@<TRIPOS>SUBSTRUCTURE
  1 ****  10 GROUP 4 **** **** 0

# MOE 2024.06 (io_trps.svl 2023.06)
