@<TRIPOS>MOLECULE
NONAME
39 40 1 0 0 
SMALL
USER_CHARGES


@<TRIPOS>ATOM
  1 O       -0.5640    -0.1090    -1.3020 O.2   1 <1>  -0.5700 
  2 C       -1.1690    -0.6420    -0.3920 C.2   1 <1>   0.7800 
  3 O       -1.0310    -1.9550    -0.2140 O.3   1 <1>  -0.4300 
  4 N       -2.0170     0.0180     0.4640 N.am  1 <1>  -0.6600 
  5 C       -0.2120    -2.7100    -1.0750 C.3   1 <1>   0.2640 
  6 C       -2.3060     1.4770     0.4210 C.3   1 <1>   0.2200 
  7 C       -2.9880    -0.7470     1.2880 C.3   1 <1>   0.1400 
  8 C       -0.3320    -4.1750    -0.6880 C.ar  1 <1>  -0.1440 
  9 C       -3.2990     1.7930    -0.7040 C.3   1 <1>  -0.1600 
 10 C       -1.0340     2.3250     0.3320 C.3   1 <1>  -0.2400 
 11 C       -4.1540    -1.2770     0.4380 C.3   1 <1>  -0.1600 
 12 C       -1.4470    -4.9050    -1.0720 C.ar  1 <1>  -0.1500 
 13 C        0.6650    -4.7940     0.0500 C.ar  1 <1>  -0.1500 
 14 C       -4.6540     1.0690    -0.5710 C.3   1 <1>  -0.1600 
 15 C       -4.5590    -0.4500    -0.8000 C.3   1 <1>  -0.1600 
 16 C       -1.5610    -6.2410    -0.7280 C.ar  1 <1>  -0.1500 
 17 C        0.5530    -6.1300     0.3940 C.ar  1 <1>  -0.1500 
 18 C       -0.5600    -6.8550     0.0050 C.ar  1 <1>  -0.1500 
 19 H        0.8000    -2.3600    -0.9740 H     1 <1>   0.0800 
 20 H       -0.5460    -2.5570    -2.0870 H     1 <1>   0.0800 
 21 H       -2.7750     1.7520     1.3500 H     1 <1>   0.0800 
 22 H       -3.3770    -0.1150     2.0670 H     1 <1>   0.0800 
 23 H       -2.4880    -1.5700     1.7710 H     1 <1>   0.0800 
 24 H       -2.8480     1.5590    -1.6520 H     1 <1>   0.0800 
 25 H       -3.4850     2.8530    -0.6960 H     1 <1>   0.0800 
 26 H       -0.5930     2.2700    -0.6460 H     1 <1>   0.0800 
 27 H       -0.3190     1.9980     1.0660 H     1 <1>   0.0800 
 28 H       -1.2730     3.3550     0.5250 H     1 <1>   0.0800 
 29 H       -5.0080    -1.3820     1.0840 H     1 <1>   0.0800 
 30 H       -3.8990    -2.2690     0.1070 H     1 <1>   0.0800 
 31 H       -2.2300    -4.4320    -1.6380 H     1 <1>   0.1500 
 32 H        1.5320    -4.2380     0.3610 H     1 <1>   0.1500 
 33 H       -5.3100     1.4740    -1.3220 H     1 <1>   0.0800 
 34 H       -5.1000     1.2740     0.3870 H     1 <1>   0.0800 
 35 H       -5.5180    -0.8070    -1.1330 H     1 <1>   0.0800 
 36 H       -3.8630    -0.6420    -1.5990 H     1 <1>   0.0800 
 37 H       -2.4280    -6.8020    -1.0300 H     1 <1>   0.1500 
 38 H        1.3300    -6.6050     0.9660 H     1 <1>   0.1500 
 39 H       -0.6480    -7.8930     0.2730 H     1 <1>   0.1500 
@<TRIPOS>BOND
  1   1   2  2   
  2   2   3  1   
  3   2   4  am  
  4   3   5  1   
  5   4   6  1   
  6   4   7  1   
  7   5   8  1   
  8   5  19  1   
  9   5  20  1   
 10   6   9  1   
 11   6  10  1   
 12   6  21  1   
 13   7  11  1   
 14   7  22  1   
 15   7  23  1   
 16   8  12  ar  
 17   8  13  ar  
 18   9  14  1   
 19   9  24  1   
 20   9  25  1   
 21  10  26  1   
 22  10  27  1   
 23  10  28  1   
 24  11  15  1   
 25  11  29  1   
 26  11  30  1   
 27  12  16  ar  
 28  12  31  1   
 29  13  17  ar  
 30  13  32  1   
 31  14  15  1   
 32  14  33  1   
 33  14  34  1   
 34  15  35  1   
 35  15  36  1   
 36  16  18  ar  
 37  16  37  1   
 38  17  18  ar  
 39  17  38  1   
 40  18  39  1   
@<TRIPOS>SUBSTRUCTURE
  1 ****   3 GROUP 4 **** **** 0

# MOE 2024.06 (io_trps.svl 2023.06)
