@<TRIPOS>MOLECULE
NONAME
46 50 1 0 0 
SMALL
USER_CHARGES


@<TRIPOS>ATOM
  1 S       -0.5100     0.8370    -1.9930 S.3   1 <1>  -0.0800 
  2 C       -0.3230     2.0980    -0.7920 C.2   1 <1>  -0.1400 
  3 C        1.1350     1.1000    -2.5520 C.2   1 <1>  -0.1100 
  4 C        0.8980     2.6450    -0.8260 C.2   1 <1>  -0.1810 
  5 C       -1.4300     2.4940     0.1480 C.3   1 <1>   0.0200 
  6 C        1.7370     2.0760    -1.8440 C.2   1 <1>  -0.1500 
  7 C        1.2900     3.7580     0.1490 C.3   1 <1>   0.4610 
  8 C       -1.0670     3.8720     0.7240 C.3   1 <1>   0.1200 
  9 O        0.2810     3.9150     1.1310 O.3   1 <1>  -0.5600 
 10 C        1.4910     5.0910    -0.5860 C.3   1 <1>  -0.1600 
 11 C        2.5640     3.3780     0.9100 C.3   1 <1>  -0.1600 
 12 C        1.9580     6.2020     0.3570 C.3   1 <1>   0.1400 
 13 C        3.0110     4.4980     1.8490 C.3   1 <1>   0.1400 
 14 N        3.1860     5.7560     1.0700 N.am  1 <1>  -0.6600 
 15 C        4.4010     6.4250     1.0200 C.2   1 <1>   0.7160 
 16 O        5.4020     5.7700     1.2740 O.2   1 <1>  -0.5700 
 17 C        4.5420     7.8400     0.6650 C.2   1 <1>   0.2030 
 18 N        3.6130     8.7870     0.7460 N.2   1 <1>  -0.7070 
 19 C        5.7330     8.4090     0.1820 C.2   1 <1>  -0.1810 
 20 N        4.1980     9.9190     0.3250 N.pl3 1 <1>   0.3000 
 21 C        5.4740     9.7050    -0.0340 C.2   1 <1>  -0.3320 
 22 C        7.1000     7.7920    -0.0860 C.3   1 <1>   0.3010 
 23 C        6.5130    10.6640    -0.5750 C.3   1 <1>   0.0200 
 24 O        8.0530     8.8100    -0.2950 O.3   1 <1>  -0.5600 
 25 C        7.6700     9.8380    -1.1720 C.3   1 <1>   0.1200 
 26 H        1.4830     0.4870    -3.3640 H     1 <1>   0.1500 
 27 H       -1.5180     1.7700     0.9380 H     1 <1>   0.0800 
 28 H       -2.3660     2.5530    -0.3760 H     1 <1>   0.0800 
 29 H        2.7440     2.4220    -1.9960 H     1 <1>   0.1500 
 30 H       -1.6760     4.0870     1.5840 H     1 <1>   0.0800 
 31 H       -1.2270     4.6400    -0.0110 H     1 <1>   0.0800 
 32 H        0.5840     5.3830    -1.0800 H     1 <1>   0.0800 
 33 H        2.2360     4.9610    -1.3480 H     1 <1>   0.0800 
 34 H        3.3610     3.1780     0.2180 H     1 <1>   0.0800 
 35 H        2.3860     2.4790     1.4710 H     1 <1>   0.0800 
 36 H        1.1920     6.4270     1.0800 H     1 <1>   0.0800 
 37 H        2.1440     7.0850    -0.2250 H     1 <1>   0.0800 
 38 H        3.9280     4.2180     2.3390 H     1 <1>   0.0800 
 39 H        2.2660     4.6590     2.6090 H     1 <1>   0.0800 
 40 H        3.7050    10.8190     0.2960 H     1 <1>   0.2700 
 41 H        7.0700     7.1660    -0.9600 H     1 <1>   0.0800 
 42 H        7.4280     7.2110     0.7570 H     1 <1>   0.0800 
 43 H        6.8870    11.2860     0.2190 H     1 <1>   0.0800 
 44 H        6.0910    11.2940    -1.3380 H     1 <1>   0.0800 
 45 H        8.5290    10.4640    -1.3430 H     1 <1>   0.0800 
 46 H        7.3740     9.3900    -2.1050 H     1 <1>   0.0800 
@<TRIPOS>BOND
  1   1   2  1   
  2   1   3  1   
  3   2   4  2   
  4   2   5  1   
  5   3   6  2   
  6   3  26  1   
  7   4   6  1   
  8   4   7  1   
  9   5   8  1   
 10   5  27  1   
 11   5  28  1   
 12   6  29  1   
 13   7   9  1   
 14   7  10  1   
 15   7  11  1   
 16   8   9  1   
 17   8  30  1   
 18   8  31  1   
 19  10  12  1   
 20  10  32  1   
 21  10  33  1   
 22  11  13  1   
 23  11  34  1   
 24  11  35  1   
 25  12  14  1   
 26  12  36  1   
 27  12  37  1   
 28  13  14  1   
 29  13  38  1   
 30  13  39  1   
 31  14  15  am  
 32  15  16  2   
 33  15  17  1   
 34  17  18  2   
 35  17  19  1   
 36  18  20  1   
 37  19  21  2   
 38  19  22  1   
 39  20  21  1   
 40  20  40  1   
 41  21  23  1   
 42  22  24  1   
 43  22  41  1   
 44  22  42  1   
 45  23  25  1   
 46  23  43  1   
 47  23  44  1   
 48  24  25  1   
 49  25  45  1   
 50  25  46  1   
@<TRIPOS>SUBSTRUCTURE
  1 ****  14 GROUP 4 **** **** 0

# MOE 2024.06 (io_trps.svl 2023.06)
