@<TRIPOS>MOLECULE
NONAME
48 50 1 0 0 
SMALL
USER_CHARGES


@<TRIPOS>ATOM
  1 CL       1.8040     0.7890    -2.1090 Cl    1 <1>  -0.1770 
  2 C        0.6790     1.7560    -1.1810 C.ar  1 <1>   0.1770 
  3 C        1.0530     2.3670     0.0140 C.ar  1 <1>  -0.1440 
  4 C       -0.5990     1.8880    -1.6920 C.ar  1 <1>  -0.1500 
  5 C        0.1000     3.1290     0.6800 C.ar  1 <1>  -0.1500 
  6 C        2.4490     2.2380     0.6250 C.3   1 <1>   0.3640 
  7 C       -1.5350     2.6460    -1.0120 C.ar  1 <1>  -0.1500 
  8 C       -1.1810     3.2670     0.1730 C.ar  1 <1>  -0.1500 
  9 N        2.6980     0.8080     0.9290 N.am  1 <1>  -0.7300 
 10 C        3.5620     2.8880    -0.2470 C.3   1 <1>   0.2610 
 11 C        3.8070     0.1420     0.5400 C.2   1 <1>   0.5690 
 12 O        4.8340     2.2790    -0.0350 O.3   1 <1>  -0.5600 
 13 C        3.6360     4.3880     0.0590 C.2   1 <1>   0.5690 
 14 O        3.9580    -1.0200     0.8180 O.2   1 <1>  -0.5700 
 15 C        4.8640     0.8880    -0.2740 C.3   1 <1>   0.1810 
 16 O        2.6480     5.0680    -0.0740 O.2   1 <1>  -0.5700 
 17 N        4.8220     4.9050     0.4780 N.am  1 <1>  -0.7300 
 18 C        5.2200     6.3140     0.6840 C.3   1 <1>   0.3000 
 19 C        6.6380     6.2780     1.2960 C.3   1 <1>  -0.1600 
 20 C        5.2720     7.0190    -0.6870 C.3   1 <1>  -0.1600 
 21 C        4.2120     7.0090     1.6390 C.3   1 <1>   0.1200 
 22 C        7.6970     5.6700     0.3550 C.3   1 <1>  -0.1600 
 23 C        6.3200     6.4180    -1.6410 C.3   1 <1>  -0.1600 
 24 O        4.6250     8.2870     2.0220 O.3   1 <1>  -0.6800 
 25 C        7.7120     6.3970    -0.9960 C.3   1 <1>  -0.1600 
 26 H       -0.8560     1.4020    -2.6160 H     1 <1>   0.1500 
 27 H        0.3480     3.6300     1.6000 H     1 <1>   0.1500 
 28 H        2.4490     2.7570     1.5680 H     1 <1>   0.0800 
 29 H       -2.5320     2.7550    -1.4040 H     1 <1>   0.1500 
 30 H       -1.9060     3.8630     0.7010 H     1 <1>   0.1500 
 31 H        1.9690     0.2920     1.4220 H     1 <1>   0.3700 
 32 H        3.3260     2.7860    -1.2890 H     1 <1>   0.0800 
 33 H        4.7020     0.7150    -1.3230 H     1 <1>   0.0800 
 34 H        5.8400     0.5280    -0.0060 H     1 <1>   0.0800 
 35 H        5.6110     4.2530     0.4790 H     1 <1>   0.3700 
 36 H        6.9490     7.2820     1.5190 H     1 <1>   0.0800 
 37 H        6.6180     5.7340     2.2240 H     1 <1>   0.0800 
 38 H        4.2990     6.9870    -1.1460 H     1 <1>   0.0800 
 39 H        5.5100     8.0570    -0.5310 H     1 <1>   0.0800 
 40 H        4.0820     6.4250     2.5320 H     1 <1>   0.0800 
 41 H        3.2580     7.1210     1.1530 H     1 <1>   0.0800 
 42 H        8.6680     5.7490     0.8120 H     1 <1>   0.0800 
 43 H        7.5000     4.6240     0.1960 H     1 <1>   0.0800 
 44 H        6.0330     5.4160    -1.9090 H     1 <1>   0.0800 
 45 H        6.3530     6.9990    -2.5470 H     1 <1>   0.0800 
 46 H        5.4420     8.2440     2.5540 H     1 <1>   0.4000 
 47 H        8.4090     5.9140    -1.6590 H     1 <1>   0.0800 
 48 H        8.0480     7.4100    -0.8500 H     1 <1>   0.0800 
@<TRIPOS>BOND
  1   1   2  1   
  2   2   3  ar  
  3   2   4  ar  
  4   3   5  ar  
  5   3   6  1   
  6   4   7  ar  
  7   4  26  1   
  8   5   8  ar  
  9   5  27  1   
 10   6   9  1   
 11   6  10  1   
 12   6  28  1   
 13   7   8  ar  
 14   7  29  1   
 15   8  30  1   
 16   9  11  am  
 17   9  31  1   
 18  10  12  1   
 19  10  13  1   
 20  10  32  1   
 21  11  14  2   
 22  11  15  1   
 23  12  15  1   
 24  13  16  2   
 25  13  17  am  
 26  15  33  1   
 27  15  34  1   
 28  17  18  1   
 29  17  35  1   
 30  18  19  1   
 31  18  20  1   
 32  18  21  1   
 33  19  22  1   
 34  19  36  1   
 35  19  37  1   
 36  20  23  1   
 37  20  38  1   
 38  20  39  1   
 39  21  24  1   
 40  21  40  1   
 41  21  41  1   
 42  22  25  1   
 43  22  42  1   
 44  22  43  1   
 45  23  25  1   
 46  23  44  1   
 47  23  45  1   
 48  24  46  1   
 49  25  47  1   
 50  25  48  1   
@<TRIPOS>SUBSTRUCTURE
  1 ****  13 GROUP 4 **** **** 0

# MOE 2024.06 (io_trps.svl 2023.06)
