@<TRIPOS>MOLECULE
NONAME
50 53 1 0 0 
SMALL
USER_CHARGES


@<TRIPOS>ATOM
  1 O       -0.0190    -1.3600     2.3330 O.2   1 <1>  -0.5700 
  2 C        0.4550    -1.8760     1.3340 C.2   1 <1>   0.5440 
  3 N        0.6050    -1.0670     0.2210 N.am  1 <1>  -0.6600 
  4 C        0.8540    -3.2850     1.3840 C.ar  1 <1>   0.3960 
  5 C        0.1740     0.3490     0.1990 C.3   1 <1>   0.1400 
  6 C        1.2870    -1.4320    -1.0400 C.3   1 <1>   0.1400 
  7 N        0.8090    -4.0630     0.2880 N.ar  1 <1>  -0.6200 
  8 C        1.2750    -3.7940     2.6180 C.ar  1 <1>   0.1600 
  9 C        0.4170     0.8100    -1.2340 C.3   1 <1>  -0.1600 
 10 C        1.5220    -0.1050    -1.7530 C.3   1 <1>  -0.1600 
 11 C        1.1920    -5.3030     0.5030 C.ar  1 <1>   0.4100 
 12 N        1.6780    -5.0370     2.8480 N.ar  1 <1>  -0.6200 
 13 N        1.1190    -6.0890    -0.6170 N.pl3 1 <1>  -0.8690 
 14 C        1.6240    -5.7680     1.7550 C.ar  1 <1>   0.1600 
 15 C        0.4890    -7.4340    -0.5820 C.3   1 <1>   0.2090 
 16 C       -1.0240    -7.3200    -0.3810 C.3   1 <1>   0.0210 
 17 C       -1.7040    -8.6790    -0.3610 C.2   1 <1>  -0.1810 
 18 C       -3.0960    -8.8330    -0.1700 C.ar  1 <1>   0.0000 
 19 C       -1.1730    -9.9180    -0.5070 C.2   1 <1>  -0.3020 
 20 C       -3.3530   -10.1980    -0.2110 C.ar  1 <1>  -0.1520 
 21 C       -4.1540    -7.9410     0.0330 C.ar  1 <1>  -0.1500 
 22 N       -2.1660   -10.8530    -0.4180 N.pl3 1 <1>   0.0330 
 23 C       -4.6510   -10.6920    -0.0540 C.ar  1 <1>  -0.1500 
 24 C       -5.4350    -8.4170     0.1890 C.ar  1 <1>   0.0820 
 25 C       -5.6830    -9.8040     0.1440 C.ar  1 <1>  -0.1500 
 26 O       -6.4150    -7.4900     0.3830 O.3   1 <1>  -0.3620 
 27 C       -7.7590    -7.8800     0.5560 C.3   1 <1>   0.0400 
 28 H        0.7820     0.9100     0.8880 H     1 <1>   0.0800 
 29 H       -0.8620     0.4380     0.4780 H     1 <1>   0.0800 
 30 H        0.6340    -2.0600    -1.6220 H     1 <1>   0.0800 
 31 H        2.2130    -1.9480    -0.8480 H     1 <1>   0.0800 
 32 H        1.2800    -3.1260     3.4620 H     1 <1>   0.1500 
 33 H        0.6880     1.8500    -1.2780 H     1 <1>   0.0800 
 34 H       -0.4820     0.6580    -1.8050 H     1 <1>   0.0800 
 35 H        1.4980    -0.2160    -2.8220 H     1 <1>   0.0800 
 36 H        2.4830     0.2820    -1.4620 H     1 <1>   0.0800 
 37 H        0.8120    -5.5330    -1.4200 H     1 <1>   0.4000 
 38 H        1.9370    -6.7920     1.8280 H     1 <1>   0.1500 
 39 H        0.9170    -8.0210     0.2120 H     1 <1>   0.0800 
 40 H        0.6890    -7.9370    -1.5130 H     1 <1>   0.0800 
 41 H       -1.4460    -6.7350    -1.1780 H     1 <1>   0.0800 
 42 H       -1.2250    -6.8240     0.5520 H     1 <1>   0.0800 
 43 H       -0.1510   -10.2080    -0.6700 H     1 <1>   0.1500 
 44 H       -3.9610    -6.8860     0.0670 H     1 <1>   0.1500 
 45 H       -2.0580   -11.8690    -0.4890 H     1 <1>   0.2700 
 46 H       -4.8310   -11.7510    -0.0900 H     1 <1>   0.1500 
 47 H       -6.6780   -10.1860     0.2640 H     1 <1>   0.1500 
 48 H       -8.3480    -6.9910     0.6930 H     1 <1>   0.0800 
 49 H       -7.8310    -8.5040     1.4290 H     1 <1>   0.0800 
 50 H       -8.0870    -8.4040    -0.3240 H     1 <1>   0.0800 
@<TRIPOS>BOND
  1   1   2  2   
  2   2   3  am  
  3   2   4  1   
  4   3   5  1   
  5   3   6  1   
  6   4   7  ar  
  7   4   8  ar  
  8   5   9  1   
  9   5  28  1   
 10   5  29  1   
 11   6  10  1   
 12   6  30  1   
 13   6  31  1   
 14   7  11  ar  
 15   8  12  ar  
 16   8  32  1   
 17   9  10  1   
 18   9  33  1   
 19   9  34  1   
 20  10  35  1   
 21  10  36  1   
 22  11  13  1   
 23  11  14  ar  
 24  12  14  ar  
 25  13  15  1   
 26  13  37  1   
 27  14  38  1   
 28  15  16  1   
 29  15  39  1   
 30  15  40  1   
 31  16  17  1   
 32  16  41  1   
 33  16  42  1   
 34  17  18  1   
 35  17  19  2   
 36  18  20  ar  
 37  18  21  ar  
 38  19  22  1   
 39  19  43  1   
 40  20  22  1   
 41  20  23  ar  
 42  21  24  ar  
 43  21  44  1   
 44  22  45  1   
 45  23  25  ar  
 46  23  46  1   
 47  24  25  ar  
 48  24  26  1   
 49  25  47  1   
 50  26  27  1   
 51  27  48  1   
 52  27  49  1   
 53  27  50  1   
@<TRIPOS>SUBSTRUCTURE
  1 ****  16 GROUP 4 **** **** 0

# MOE 2024.06 (io_trps.svl 2023.06)
