@<TRIPOS>MOLECULE
NONAME
56 60 1 0 0 
SMALL
USER_CHARGES


@<TRIPOS>ATOM
  1 O        0.2060    -0.2100    -0.1170 O.3   1 <1>  -0.5600 
  2 C        0.3400    -1.5370    -0.5480 C.3   1 <1>   0.1200 
  3 C        1.2890     0.5950    -0.4620 C.3   1 <1>   0.1200 
  4 C        1.6110    -2.1930     0.0370 C.3   1 <1>   0.2850 
  5 C        2.5710     0.0420     0.1860 C.3   1 <1>   0.1900 
  6 N        2.8130    -1.3610    -0.2410 N.3   1 <1>  -0.8100 
  7 C        1.7780    -3.5930    -0.5710 C.3   1 <1>  -0.1950 
  8 C        3.7740     0.9380    -0.1730 C.3   1 <1>   0.3430 
  9 C        4.0480    -1.8970     0.3700 C.3   1 <1>   0.1100 
 10 C        0.8850    -4.7180    -0.1420 C.3   1 <1>  -0.2000 
 11 C        2.3450    -4.7460     0.2030 C.3   1 <1>  -0.2000 
 12 N        5.0660     0.4130     0.4040 N.4   1 <1>  -0.9590 
 13 C        5.2720    -1.0260     0.0230 C.3   1 <1>   0.3430 
 14 C        6.2210     1.2600     0.0110 C.3   1 <1>   0.5240 
 15 C        6.0080     2.6420     0.5840 C.2   1 <1>  -0.1810 
 16 C        6.2190     3.0270     1.9020 C.2   1 <1>   0.1390 
 17 C        5.5750     3.7660    -0.0280 C.2   1 <1>  -0.3020 
 18 N        5.9240     4.2690     2.0960 N.2   1 <1>  -0.7070 
 19 N        5.5410     4.7670     0.8890 N.pl3 1 <1>   0.5930 
 20 C        5.0600     6.0950     0.7070 C.ar  1 <1>  -0.0230 
 21 C        5.4160     6.8570    -0.4100 C.ar  1 <1>   0.0820 
 22 C        4.2130     6.6560     1.6600 C.ar  1 <1>  -0.1500 
 23 O        6.2700     6.3100    -1.3180 O.3   1 <1>  -0.3620 
 24 C        4.9030     8.1430    -0.5620 C.ar  1 <1>  -0.1500 
 25 C        3.7130     7.9350     1.5050 C.ar  1 <1>  -0.1500 
 26 C        6.9320     7.1080    -2.2780 C.3   1 <1>   0.0400 
 27 C        4.0550     8.6780     0.3910 C.ar  1 <1>  -0.1500 
 28 H       -0.5340    -2.0750    -0.2270 H     1 <1>   0.0800 
 29 H        0.3710    -1.5480    -1.6240 H     1 <1>   0.0800 
 30 H        1.3720     0.6190    -1.5360 H     1 <1>   0.0800 
 31 H        1.0770     1.5880    -0.1050 H     1 <1>   0.0800 
 32 H        1.4730    -2.2870     1.1020 H     1 <1>   0.0800 
 33 H        2.4300     0.0750     1.2540 H     1 <1>   0.0800 
 34 H        1.9930    -3.5450    -1.6250 H     1 <1>   0.1000 
 35 H        3.5880     1.9350     0.1930 H     1 <1>   0.0800 
 36 H        3.8490     0.9880    -1.2460 H     1 <1>   0.0800 
 37 H        3.9330    -1.9650     1.4390 H     1 <1>   0.0800 
 38 H        4.2370    -2.8870    -0.0060 H     1 <1>   0.0800 
 39 H        0.1770    -4.5650     0.6550 H     1 <1>   0.1000 
 40 H        0.5190    -5.4030    -0.8880 H     1 <1>   0.1000 
 41 H        2.9740    -5.4560    -0.3060 H     1 <1>   0.1000 
 42 H        2.6170    -4.6200     1.2360 H     1 <1>   0.1000 
 43 H        4.9780     0.4680     1.4250 H     1 <1>   0.4500 
 44 H        5.4420    -1.0990    -1.0390 H     1 <1>   0.0800 
 45 H        6.1400    -1.4210     0.5260 H     1 <1>   0.0800 
 46 H        7.1400     0.8480     0.3960 H     1 <1>   0.0800 
 47 H        6.2920     1.3180    -1.0630 H     1 <1>   0.0800 
 48 H        6.5790     2.3880     2.6920 H     1 <1>   0.1500 
 49 H        5.2920     3.9430    -1.0500 H     1 <1>   0.1500 
 50 H        3.9460     6.0870     2.5350 H     1 <1>   0.1500 
 51 H        5.1490     8.7460    -1.4150 H     1 <1>   0.1500 
 52 H        3.0590     8.3530     2.2520 H     1 <1>   0.1500 
 53 H        7.6510     6.4940    -2.7880 H     1 <1>   0.0800 
 54 H        7.4350     7.9160    -1.7750 H     1 <1>   0.0800 
 55 H        6.2100     7.4830    -2.9820 H     1 <1>   0.0800 
 56 H        3.6630     9.6730     0.2680 H     1 <1>   0.1500 
@<TRIPOS>BOND
  1   1   2  1   
  2   1   3  1   
  3   2   4  1   
  4   2  28  1   
  5   2  29  1   
  6   3   5  1   
  7   3  30  1   
  8   3  31  1   
  9   4   6  1   
 10   4   7  1   
 11   4  32  1   
 12   5   6  1   
 13   5   8  1   
 14   5  33  1   
 15   6   9  1   
 16   7  10  1   
 17   7  11  1   
 18   7  34  1   
 19   8  12  1   
 20   8  35  1   
 21   8  36  1   
 22   9  13  1   
 23   9  37  1   
 24   9  38  1   
 25  10  11  1   
 26  10  39  1   
 27  10  40  1   
 28  11  41  1   
 29  11  42  1   
 30  12  13  1   
 31  12  14  1   
 32  12  43  1   
 33  13  44  1   
 34  13  45  1   
 35  14  15  1   
 36  14  46  1   
 37  14  47  1   
 38  15  16  1   
 39  15  17  2   
 40  16  18  2   
 41  16  48  1   
 42  17  19  1   
 43  17  49  1   
 44  18  19  1   
 45  19  20  1   
 46  20  21  ar  
 47  20  22  ar  
 48  21  23  1   
 49  21  24  ar  
 50  22  25  ar  
 51  22  50  1   
 52  23  26  1   
 53  24  27  ar  
 54  24  51  1   
 55  25  27  ar  
 56  25  52  1   
 57  26  53  1   
 58  26  54  1   
 59  26  55  1   
 60  27  56  1   
@<TRIPOS>SUBSTRUCTURE
  1 ****   8 GROUP 4 **** **** 0

# MOE 2024.06 (io_trps.svl 2023.06)
