@<TRIPOS>MOLECULE
NONAME
58 60 1 0 0 
SMALL
USER_CHARGES


@<TRIPOS>ATOM
  1 S        0.2810    -1.0120     0.7700 S.o2  1 <1>   1.4470 
  2 O        0.9710    -2.2790     0.8820 O.2   1 <1>  -0.6500 
  3 O       -0.5240    -0.6060     1.9000 O.2   1 <1>  -0.6500 
  4 N       -0.7960    -1.1880    -0.5380 N.am  1 <1>  -0.8490 
  5 C        1.4150     0.2990     0.2390 C.ar  1 <1>  -0.0090 
  6 C       -1.4820    -2.4810    -0.5500 C.3   1 <1>   0.1960 
  7 C       -1.7700    -0.0890    -0.7110 C.3   1 <1>   0.1960 
  8 C        1.1390     1.6320     0.4970 C.ar  1 <1>  -0.1500 
  9 C        2.5700     0.0090    -0.4730 C.ar  1 <1>  -0.1500 
 10 C       -2.6320    -2.4050     0.4750 C.3   1 <1>   0.4230 
 11 C       -3.0860    -0.2630     0.1060 C.3   1 <1>  -0.1600 
 12 C        1.9450     2.6870     0.0630 C.ar  1 <1>   0.0860 
 13 C        3.4080     1.0160    -0.9070 C.ar  1 <1>  -0.1500 
 14 N       -2.8630    -3.6180     1.3390 N.4   1 <1>  -0.9590 
 15 C       -3.8740    -1.6520    -0.1830 C.3   1 <1>   0.0000 
 16 C        3.1100     2.3530    -0.6500 C.ar  1 <1>   0.0820 
 17 C        1.5200     4.0480     0.3620 C.2   1 <1>   0.5440 
 18 C       -3.1840    -4.8350     0.5810 C.3   1 <1>   0.3430 
 19 C       -1.7190    -3.8280     2.2860 C.3   1 <1>   0.2630 
 20 C       -4.6410    -3.0280    -0.5470 C.3   1 <1>  -0.1600 
 21 C       -5.1200    -0.8290    -0.7660 C.3   1 <1>   0.1200 
 22 O        3.9250     3.3460    -1.0850 O.3   1 <1>  -0.3630 
 23 O        0.3490     4.2810     0.6000 O.2   1 <1>  -0.5700 
 24 N        2.4020     5.0900     0.4000 N.am  1 <1>  -0.7300 
 25 C       -3.9650    -4.4210    -0.6500 C.3   1 <1>  -0.1600 
 26 O       -5.8200    -0.2990     0.3150 O.3   1 <1>  -0.6800 
 27 C        5.0610     3.1190    -1.8940 C.3   1 <1>   0.0400 
 28 C        2.0810     6.5080     0.6990 C.3   1 <1>   0.0600 
 29 H       -1.8760    -2.6500    -1.5360 H     1 <1>   0.0800 
 30 H       -0.8000    -3.2810    -0.3250 H     1 <1>   0.0800 
 31 H       -1.3120     0.8540    -0.4620 H     1 <1>   0.0800 
 32 H       -2.0290    -0.0390    -1.7560 H     1 <1>   0.0800 
 33 H        0.2520     1.8710     1.0620 H     1 <1>   0.1500 
 34 H        2.8140    -1.0190    -0.6900 H     1 <1>   0.1500 
 35 H       -2.2300    -1.7590     1.2260 H     1 <1>   0.0800 
 36 H       -2.9040    -0.1190     1.1600 H     1 <1>   0.0800 
 37 H       -3.5940     0.6680    -0.0910 H     1 <1>   0.0800 
 38 H        4.2920     0.7340    -1.4480 H     1 <1>   0.1500 
 39 H       -3.6970    -3.3790     1.8970 H     1 <1>   0.4500 
 40 H       -2.2830    -5.3490     0.2840 H     1 <1>   0.0800 
 41 H       -3.7750    -5.4990     1.1920 H     1 <1>   0.0800 
 42 H       -0.8170    -4.0650     1.7440 H     1 <1>   0.0800 
 43 H       -1.9360    -4.6360     2.9660 H     1 <1>   0.0800 
 44 H       -1.5410    -2.9330     2.8610 H     1 <1>   0.0800 
 45 H       -5.4780    -3.1330     0.1270 H     1 <1>   0.0800 
 46 H       -5.0380    -2.9960    -1.5510 H     1 <1>   0.0800 
 47 H       -5.8850    -1.3290    -1.3350 H     1 <1>   0.0800 
 48 H       -4.8340    -0.0300    -1.4320 H     1 <1>   0.0800 
 49 H        3.3490     4.8940     0.0570 H     1 <1>   0.3700 
 50 H       -3.3030    -4.4410    -1.4990 H     1 <1>   0.0800 
 51 H       -4.7140    -5.1700    -0.8420 H     1 <1>   0.0800 
 52 H       -6.5760     0.2480     0.0170 H     1 <1>   0.4000 
 53 H        5.4990     4.0720    -2.1320 H     1 <1>   0.0800 
 54 H        4.7540     2.6240    -2.7990 H     1 <1>   0.0800 
 55 H        5.7680     2.5200    -1.3470 H     1 <1>   0.0800 
 56 H        1.0690     6.5970     1.0560 H     1 <1>   0.0800 
 57 H        2.1880     7.1000    -0.1930 H     1 <1>   0.0800 
 58 H        2.7490     6.8800     1.4560 H     1 <1>   0.0800 
@<TRIPOS>BOND
  1   1   2  2   
  2   1   3  2   
  3   1   4  am  
  4   1   5  1   
  5   4   6  1   
  6   4   7  1   
  7   5   8  ar  
  8   5   9  ar  
  9   6  10  1   
 10   6  29  1   
 11   6  30  1   
 12   7  11  1   
 13   7  31  1   
 14   7  32  1   
 15   8  12  ar  
 16   8  33  1   
 17   9  13  ar  
 18   9  34  1   
 19  10  14  1   
 20  10  15  1   
 21  10  35  1   
 22  11  15  1   
 23  11  36  1   
 24  11  37  1   
 25  12  16  ar  
 26  12  17  1   
 27  13  16  ar  
 28  13  38  1   
 29  14  18  1   
 30  14  19  1   
 31  14  39  1   
 32  15  20  1   
 33  15  21  1   
 34  16  22  1   
 35  17  23  2   
 36  17  24  am  
 37  18  25  1   
 38  18  40  1   
 39  18  41  1   
 40  19  42  1   
 41  19  43  1   
 42  19  44  1   
 43  20  25  1   
 44  20  45  1   
 45  20  46  1   
 46  21  26  1   
 47  21  47  1   
 48  21  48  1   
 49  22  27  1   
 50  24  28  1   
 51  24  49  1   
 52  25  50  1   
 53  25  51  1   
 54  26  52  1   
 55  27  53  1   
 56  27  54  1   
 57  27  55  1   
 58  28  56  1   
 59  28  57  1   
 60  28  58  1   
@<TRIPOS>SUBSTRUCTURE
  1 ****   1 GROUP 4 **** **** 0

# MOE 2024.06 (io_trps.svl 2023.06)
