@<TRIPOS>MOLECULE
NONAME
45 48 1 0 0 
SMALL
USER_CHARGES


@<TRIPOS>ATOM
  1 S        0.4010     0.4260     0.8460 S.3   1 <1>  -0.3320 
  2 C       -0.5340    -1.0910     0.5810 C.ar  1 <1>   0.1020 
  3 C        1.9300     0.2900    -0.1830 C.3   1 <1>   0.2500 
  4 C       -0.1110    -2.0820    -0.2920 C.ar  1 <1>  -0.1500 
  5 C       -1.7100    -1.2330     1.2930 C.ar  1 <1>  -0.1500 
  6 C        2.7600     1.5440     0.0110 C.2   1 <1>  -0.0400 
  7 C       -0.8790    -3.2250    -0.4430 C.ar  1 <1>  -0.1500 
  8 C       -2.4720    -2.3780     1.1370 C.ar  1 <1>  -0.1500 
  9 O        2.4200     2.6430    -0.6250 O.3   1 <1>  -0.2800 
 10 C        3.8620     1.7630     0.7590 C.2   1 <1>  -0.1500 
 11 C       -2.0590    -3.3790     0.2700 C.ar  1 <1>  -0.1430 
 12 C        3.2740     3.6130    -0.3130 C.2   1 <1>   0.0550 
 13 C        4.1960     3.1020     0.5520 C.2   1 <1>  -0.1500 
 14 C       -2.8970    -4.6330     0.0990 C.3   1 <1>  -0.0970 
 15 C        3.1300     4.9430    -0.8650 C.2   1 <1>   0.7150 
 16 O        2.3970     5.1860    -1.8050 O.2   1 <1>  -0.5700 
 17 N        3.8330     5.9810    -0.3270 N.am  1 <1>  -0.7300 
 18 C        3.7760     7.3810    -0.8240 C.3   1 <1>   0.3200 
 19 C        5.1100     8.0860    -0.6370 C.2   1 <1>   0.2980 
 20 O        6.1070     7.7540    -1.4180 O.3   1 <1>  -0.0190 
 21 N        5.3670     8.9820     0.2310 N.2   1 <1>  -0.5650 
 22 N        7.0840     8.5070    -1.0150 N.2   1 <1>  -0.4100 
 23 C        6.6400     9.2190    -0.0570 C.2   1 <1>   0.4300 
 24 C        7.4380    10.2520     0.7230 C.3   1 <1>  -0.0140 
 25 C        7.2870    11.7130     0.4190 C.3   1 <1>  -0.2000 
 26 C        8.5710    11.0110     0.0960 C.3   1 <1>  -0.2000 
 27 H        1.6280     0.1820    -1.2090 H     1 <1>   0.0800 
 28 H        2.4600    -0.5820     0.1530 H     1 <1>   0.0800 
 29 H        0.7940    -1.9870    -0.8550 H     1 <1>   0.1500 
 30 H       -2.0240    -0.4530     1.9630 H     1 <1>   0.1500 
 31 H       -0.5560    -3.9960    -1.1200 H     1 <1>   0.1500 
 32 H       -3.3880    -2.4850     1.6920 H     1 <1>   0.1500 
 33 H        4.3910     1.0730     1.3930 H     1 <1>   0.1500 
 34 H        5.0340     3.6020     1.0050 H     1 <1>   0.1500 
 35 H       -2.2730    -5.4730    -0.1470 H     1 <1>   0.0800 
 36 H       -3.6120    -4.4880    -0.6910 H     1 <1>   0.0800 
 37 H       -3.4260    -4.8590     1.0080 H     1 <1>   0.0800 
 38 H        4.3820     5.8320     0.5190 H     1 <1>   0.3700 
 39 H        3.0170     7.9140    -0.2780 H     1 <1>   0.0800 
 40 H        3.5130     7.3960    -1.8680 H     1 <1>   0.0800 
 41 H        7.5430     9.9730     1.7550 H     1 <1>   0.1000 
 42 H        7.2630    12.4080     1.2410 H     1 <1>   0.1000 
 43 H        6.6380    12.0040    -0.3890 H     1 <1>   0.1000 
 44 H        8.8110    10.8200    -0.9360 H     1 <1>   0.1000 
 45 H        9.4430    11.2170     0.6910 H     1 <1>   0.1000 
@<TRIPOS>BOND
  1   1   2  1   
  2   1   3  1   
  3   2   4  ar  
  4   2   5  ar  
  5   3   6  1   
  6   3  27  1   
  7   3  28  1   
  8   4   7  ar  
  9   4  29  1   
 10   5   8  ar  
 11   5  30  1   
 12   6   9  1   
 13   6  10  2   
 14   7  11  ar  
 15   7  31  1   
 16   8  11  ar  
 17   8  32  1   
 18   9  12  1   
 19  10  13  1   
 20  10  33  1   
 21  11  14  1   
 22  12  13  2   
 23  12  15  1   
 24  13  34  1   
 25  14  35  1   
 26  14  36  1   
 27  14  37  1   
 28  15  16  2   
 29  15  17  am  
 30  17  18  1   
 31  17  38  1   
 32  18  19  1   
 33  18  39  1   
 34  18  40  1   
 35  19  20  1   
 36  19  21  2   
 37  20  22  1   
 38  21  23  1   
 39  22  23  2   
 40  23  24  1   
 41  24  25  1   
 42  24  26  1   
 43  24  41  1   
 44  25  26  1   
 45  25  42  1   
 46  25  43  1   
 47  26  44  1   
 48  26  45  1   
@<TRIPOS>SUBSTRUCTURE
  1 ****  12 GROUP 4 **** **** 0

# MOE 2024.06 (io_trps.svl 2023.06)
