@<TRIPOS>MOLECULE
NONAME
51 54 1 0 0 
SMALL
USER_CHARGES


@<TRIPOS>ATOM
  1 O       -0.9550    -1.8650    -1.7900 O.2   1 <1>  -0.5700 
  2 C       -0.0970    -2.4170    -1.1510 C.2   1 <1>   0.5690 
  3 N       -0.3960    -3.1960    -0.0910 N.am  1 <1>  -0.7300 
  4 C        1.3660    -2.2480    -1.5020 C.3   1 <1>  -0.0990 
  5 C        0.6290    -3.8870     0.7170 C.3   1 <1>   0.1400 
  6 C        2.1090    -3.5980    -1.4190 C.3   1 <1>  -0.0800 
  7 C        1.7040    -4.4810    -0.2140 C.3   1 <1>  -0.0800 
  8 C        3.6320    -3.4440    -1.3410 C.3   1 <1>  -0.1600 
  9 C        3.0090    -4.8140     0.5200 C.3   1 <1>  -0.1600 
 10 C        4.1050    -4.6500    -0.5300 C.3   1 <1>   0.2200 
 11 N        5.4440    -4.4710     0.0940 N.am  1 <1>  -0.6600 
 12 C        6.4100    -3.7610    -0.5800 C.2   1 <1>   0.5440 
 13 C        5.9030    -5.6450     0.8850 C.3   1 <1>   0.0600 
 14 O        7.0850    -4.3640    -1.3940 O.2   1 <1>  -0.5700 
 15 C        6.6250    -2.3440    -0.3310 C.ar  1 <1>   0.0860 
 16 C        6.0680    -1.6900     0.7710 C.ar  1 <1>  -0.1500 
 17 C        7.4070    -1.5690    -1.1890 C.ar  1 <1>  -0.1500 
 18 C        6.2760    -0.3420     0.9960 C.ar  1 <1>  -0.1500 
 19 C        7.6160    -0.2220    -0.9650 C.ar  1 <1>  -0.1500 
 20 C        7.0540     0.4220     0.1320 C.ar  1 <1>   0.0000 
 21 C        7.2730     1.8300     0.3670 C.ar  1 <1>   0.0000 
 22 C        8.5630     2.3400     0.5030 C.ar  1 <1>  -0.1500 
 23 C        6.2030     2.7170     0.4620 C.ar  1 <1>  -0.1500 
 24 C        8.7780     3.6880     0.7260 C.ar  1 <1>  -0.1500 
 25 C        6.4080     4.0670     0.6860 C.ar  1 <1>  -0.1500 
 26 C        7.7000     4.5490     0.8170 C.ar  1 <1>   0.0820 
 27 O        7.9180     5.8520     1.0330 O.3   1 <1>  -0.5330 
 28 H       -1.3810    -3.2870     0.1680 H     1 <1>   0.3700 
 29 H        1.4540    -1.8370    -2.4910 H     1 <1>   0.0800 
 30 H        1.7840    -1.5440    -0.8070 H     1 <1>   0.0800 
 31 H        1.0710    -3.1700     1.3890 H     1 <1>   0.0800 
 32 H        0.1720    -4.6680     1.3010 H     1 <1>   0.0800 
 33 H        1.8720    -4.1540    -2.3120 H     1 <1>   0.0800 
 34 H        1.3070    -5.4010    -0.6120 H     1 <1>   0.0800 
 35 H        3.8720    -2.5390    -0.8140 H     1 <1>   0.0800 
 36 H        4.0790    -3.4240    -2.3200 H     1 <1>   0.0800 
 37 H        2.9880    -5.8120     0.9210 H     1 <1>   0.0800 
 38 H        3.1790    -4.1060     1.3130 H     1 <1>   0.0800 
 39 H        4.1240    -5.5160    -1.1710 H     1 <1>   0.0800 
 40 H        5.3630    -5.7000     1.8130 H     1 <1>   0.0800 
 41 H        6.9540    -5.5550     1.1020 H     1 <1>   0.0800 
 42 H        5.7490    -6.5500     0.3230 H     1 <1>   0.0800 
 43 H        5.4650    -2.2500     1.4620 H     1 <1>   0.1500 
 44 H        7.8560    -2.0390    -2.0470 H     1 <1>   0.1500 
 45 H        5.8360     0.1310     1.8570 H     1 <1>   0.1500 
 46 H        8.2230     0.3450    -1.6500 H     1 <1>   0.1500 
 47 H        9.4030     1.6710     0.4360 H     1 <1>   0.1500 
 48 H        5.2010     2.3410     0.3550 H     1 <1>   0.1500 
 49 H        9.7750     4.0780     0.8310 H     1 <1>   0.1500 
 50 H        5.5680     4.7330     0.7560 H     1 <1>   0.1500 
 51 H        7.1010     6.3790     1.0800 H     1 <1>   0.4500 
@<TRIPOS>BOND
  1   1   2  2   
  2   2   3  am  
  3   2   4  1   
  4   3   5  1   
  5   3  28  1   
  6   4   6  1   
  7   4  29  1   
  8   4  30  1   
  9   5   7  1   
 10   5  31  1   
 11   5  32  1   
 12   6   7  1   
 13   6   8  1   
 14   6  33  1   
 15   7   9  1   
 16   7  34  1   
 17   8  10  1   
 18   8  35  1   
 19   8  36  1   
 20   9  10  1   
 21   9  37  1   
 22   9  38  1   
 23  10  11  1   
 24  10  39  1   
 25  11  12  am  
 26  11  13  1   
 27  12  14  2   
 28  12  15  1   
 29  13  40  1   
 30  13  41  1   
 31  13  42  1   
 32  15  16  ar  
 33  15  17  ar  
 34  16  18  ar  
 35  16  43  1   
 36  17  19  ar  
 37  17  44  1   
 38  18  20  ar  
 39  18  45  1   
 40  19  20  ar  
 41  19  46  1   
 42  20  21  1   
 43  21  22  ar  
 44  21  23  ar  
 45  22  24  ar  
 46  22  47  1   
 47  23  25  ar  
 48  23  48  1   
 49  24  26  ar  
 50  24  49  1   
 51  25  26  ar  
 52  25  50  1   
 53  26  27  1   
 54  27  51  1   
@<TRIPOS>SUBSTRUCTURE
  1 ****  16 GROUP 4 **** **** 0

# MOE 2024.06 (io_trps.svl 2023.06)
