@<TRIPOS>MOLECULE
NONAME
51 53 1 0 0 
SMALL
USER_CHARGES


@<TRIPOS>ATOM
  1 O       -1.4220     0.1750     0.4490 O.2   1 <1>  -0.5700 
  2 C       -2.2460     1.0540     0.6400 C.2   1 <1>   0.5440 
  3 N       -3.5250     0.6670     0.9700 N.am  1 <1>  -0.6600 
  4 C       -1.8790     2.4430     0.4890 C.ar  1 <1>   0.0860 
  5 C       -3.7800    -0.7150     1.4680 C.3   1 <1>   0.1400 
  6 C       -4.7200     1.2830     0.3240 C.3   1 <1>   0.1400 
  7 C       -0.9020     2.8250    -0.4270 C.ar  1 <1>   0.1600 
  8 C       -2.4620     3.4610     1.2380 C.ar  1 <1>  -0.1500 
  9 C       -4.1400    -1.6120     0.2620 C.3   1 <1>   0.4230 
 10 C       -5.1520     0.3980    -0.8560 C.3   1 <1>  -0.1600 
 11 N       -0.5040     4.0600    -0.6720 N.ar  1 <1>  -0.6200 
 12 C       -2.0580     4.7510     1.0010 C.ar  1 <1>  -0.1500 
 13 N       -4.3000    -3.0680     0.5960 N.4   1 <1>  -0.9590 
 14 C       -5.4160    -1.0750    -0.4250 C.3   1 <1>  -0.1060 
 15 C       -1.0880     5.0220     0.0360 C.ar  1 <1>   0.4100 
 16 C       -4.5230    -3.8930    -0.6180 C.3   1 <1>   0.3430 
 17 C       -3.2430    -3.6320     1.4770 C.3   1 <1>   0.2630 
 18 C       -6.5810    -1.1490     0.5800 C.2   1 <1>   0.9060 
 19 C       -5.7210    -1.9150    -1.6880 C.3   1 <1>  -0.1600 
 20 N       -0.6990     6.3210    -0.2170 N.pl3 1 <1>  -0.8380 
 21 C       -5.7700    -3.4170    -1.3670 C.3   1 <1>  -0.1600 
 22 O       -6.6050    -2.0800     1.4030 O.co2 1 <1>  -0.9000 
 23 O       -7.4490    -0.2770     0.5700 O.co2 1 <1>  -0.9000 
 24 C       -1.7070     7.3890    -0.4460 C.3   1 <1>   0.1290 
 25 C        0.6530     6.6010    -0.7740 C.3   1 <1>   0.1290 
 26 H       -2.8940    -1.0740     1.9570 H     1 <1>   0.0800 
 27 H       -4.5790    -0.6920     2.1890 H     1 <1>   0.0800 
 28 H       -5.5190     1.3630     1.0440 H     1 <1>   0.0800 
 29 H       -4.4990     2.2720    -0.0360 H     1 <1>   0.0800 
 30 H       -0.4240     2.0460    -0.9970 H     1 <1>   0.1500 
 31 H       -3.2060     3.2360     1.9830 H     1 <1>   0.1500 
 32 H       -3.3240    -1.5230    -0.4350 H     1 <1>   0.0800 
 33 H       -6.0490     0.8130    -1.2840 H     1 <1>   0.0800 
 34 H       -4.3880     0.4380    -1.6120 H     1 <1>   0.0800 
 35 H       -2.4730     5.5670     1.5590 H     1 <1>   0.1500 
 36 H       -5.2200    -3.0500     1.1140 H     1 <1>   0.4500 
 37 H       -3.6640    -3.8200    -1.2650 H     1 <1>   0.0800 
 38 H       -4.6540    -4.9250    -0.3370 H     1 <1>   0.0800 
 39 H       -2.2780    -3.5420     1.0080 H     1 <1>   0.0800 
 40 H       -3.4430    -4.6720     1.6750 H     1 <1>   0.0800 
 41 H       -3.2260    -3.1080     2.4180 H     1 <1>   0.0800 
 42 H       -6.6670    -1.6060    -2.1020 H     1 <1>   0.0800 
 43 H       -4.9630    -1.7420    -2.4330 H     1 <1>   0.0800 
 44 H       -5.8670    -3.9750    -2.2810 H     1 <1>   0.0800 
 45 H       -6.6400    -3.6330    -0.7700 H     1 <1>   0.0800 
 46 H       -1.5650     8.1790     0.2710 H     1 <1>   0.0800 
 47 H       -2.7040     6.9990    -0.3480 H     1 <1>   0.0800 
 48 H       -1.5960     7.7890    -1.4390 H     1 <1>   0.0800 
 49 H        0.9770     7.5840    -0.4820 H     1 <1>   0.0800 
 50 H        0.6240     6.5350    -1.8470 H     1 <1>   0.0800 
 51 H        1.3610     5.8810    -0.4010 H     1 <1>   0.0800 
@<TRIPOS>BOND
  1   1   2  2   
  2   2   3  am  
  3   2   4  1   
  4   3   5  1   
  5   3   6  1   
  6   4   7  ar  
  7   4   8  ar  
  8   5   9  1   
  9   5  26  1   
 10   5  27  1   
 11   6  10  1   
 12   6  28  1   
 13   6  29  1   
 14   7  11  ar  
 15   7  30  1   
 16   8  12  ar  
 17   8  31  1   
 18   9  13  1   
 19   9  14  1   
 20   9  32  1   
 21  10  14  1   
 22  10  33  1   
 23  10  34  1   
 24  11  15  ar  
 25  12  15  ar  
 26  12  35  1   
 27  13  16  1   
 28  13  17  1   
 29  13  36  1   
 30  14  18  1   
 31  14  19  1   
 32  15  20  1   
 33  16  21  1   
 34  16  37  1   
 35  16  38  1   
 36  17  39  1   
 37  17  40  1   
 38  17  41  1   
 39  18  22  ar  
 40  18  23  ar  
 41  19  21  1   
 42  19  42  1   
 43  19  43  1   
 44  20  24  1   
 45  20  25  1   
 46  21  44  1   
 47  21  45  1   
 48  24  46  1   
 49  24  47  1   
 50  24  48  1   
 51  25  49  1   
 52  25  50  1   
 53  25  51  1   
@<TRIPOS>SUBSTRUCTURE
  1 ****   3 GROUP 4 **** **** 0

# MOE 2024.06 (io_trps.svl 2023.06)
