@<TRIPOS>MOLECULE
NONAME
60 64 1 0 0 
SMALL
USER_CHARGES


@<TRIPOS>ATOM
  1 O       -0.1640    -0.5710     1.0880 O.2   1 <1>  -0.5700 
  2 C       -0.8010    -0.0490     0.2070 C.2   1 <1>   0.5690 
  3 N       -1.8530    -0.6750    -0.3850 N.am  1 <1>  -0.7300 
  4 C       -0.3520     1.3350    -0.2630 C.3   1 <1>   0.0610 
  5 C       -2.3340    -2.0400    -0.0350 C.3   1 <1>   0.1400 
  6 C        0.2120     2.1560     0.9270 C.3   1 <1>   0.4230 
  7 C       -1.4950     2.2800    -0.7340 C.3   1 <1>  -0.1600 
  8 C        0.7160     1.0940    -1.3710 C.3   1 <1>  -0.0170 
  9 C       -3.7830    -1.9830     0.4420 C.3   1 <1>  -0.0170 
 10 N        0.0980     3.5310     0.4180 N.4   1 <1>  -0.9060 
 11 C       -0.7730     2.2620     2.1080 C.3   1 <1>  -0.1600 
 12 C       -1.3370     3.5210     0.1590 C.3   1 <1>   0.4230 
 13 C        1.5090     2.3310    -1.7780 C.ar  1 <1>  -0.1440 
 14 C       -4.3030    -3.3870     0.6570 C.ar  1 <1>   0.4770 
 15 C       -1.8630     3.1960     1.5580 C.3   1 <1>  -0.1600 
 16 C        2.6840     2.6450    -1.1120 C.ar  1 <1>  -0.1500 
 17 C        1.0630     3.1630    -2.7950 C.ar  1 <1>  -0.1500 
 18 N       -4.2960    -3.8290     1.9070 N.ar  1 <1>  -0.6200 
 19 N       -4.6990    -4.0250    -0.4350 N.ar  1 <1>  -0.6200 
 20 C        3.3810     3.7980    -1.4260 C.ar  1 <1>  -0.1500 
 21 C        1.7590     4.3170    -3.1090 C.ar  1 <1>  -0.1500 
 22 C       -4.7420    -5.0540     2.0920 C.ar  1 <1>   0.1670 
 23 C       -5.1340    -5.2410    -0.2100 C.ar  1 <1>   0.1670 
 24 C        2.9140     4.6390    -2.4200 C.ar  1 <1>  -0.1500 
 25 C       -5.1800    -5.8090     1.0270 C.ar  1 <1>  -0.1440 
 26 C       -4.7440    -5.5670     3.5170 C.3   1 <1>  -0.0970 
 27 C       -5.6430    -6.1730    -1.2770 C.3   1 <1>  -0.0170 
 28 C       -5.7330    -7.2150     0.9660 C.3   1 <1>  -0.0170 
 29 C       -5.7920    -7.5200    -0.5430 C.3   1 <1>  -0.1600 
 30 H       -2.3200    -0.2650    -1.1960 H     1 <1>   0.3700 
 31 H       -2.2620    -2.6740    -0.9030 H     1 <1>   0.0800 
 32 H       -1.7210    -2.4690     0.7410 H     1 <1>   0.0800 
 33 H        1.2090     1.8670     1.2180 H     1 <1>   0.0800 
 34 H       -2.4750     1.8560    -0.6020 H     1 <1>   0.0800 
 35 H       -1.4000     2.5550    -1.7670 H     1 <1>   0.0800 
 36 H        1.4160     0.3490    -1.0270 H     1 <1>   0.0800 
 37 H        0.2400     0.6750    -2.2420 H     1 <1>   0.0800 
 38 H       -4.3990    -1.5010    -0.2940 H     1 <1>   0.0800 
 39 H       -3.8440    -1.4350     1.3630 H     1 <1>   0.0800 
 40 H        0.3690     4.2260     1.1200 H     1 <1>   0.4500 
 41 H        0.6620     3.6490    -0.4420 H     1 <1>   0.4500 
 42 H       -1.1730     1.3150     2.4240 H     1 <1>   0.0800 
 43 H       -0.2790     2.7070     2.9550 H     1 <1>   0.0800 
 44 H       -1.7270     4.4350    -0.2630 H     1 <1>   0.0800 
 45 H       -1.9390     4.0920     2.1510 H     1 <1>   0.0800 
 46 H       -2.8290     2.7220     1.5270 H     1 <1>   0.0800 
 47 H        3.0750     1.9960    -0.3450 H     1 <1>   0.1500 
 48 H        0.1800     2.9230    -3.3620 H     1 <1>   0.1500 
 49 H        4.2940     4.0390    -0.9070 H     1 <1>   0.1500 
 50 H        1.4110     4.9620    -3.8990 H     1 <1>   0.1500 
 51 H        3.4580     5.5350    -2.6690 H     1 <1>   0.1500 
 52 H       -5.1790    -6.5460     3.5830 H     1 <1>   0.0800 
 53 H       -5.3080    -4.8950     4.1370 H     1 <1>   0.0800 
 54 H       -3.7340    -5.6080     3.8820 H     1 <1>   0.0800 
 55 H       -6.5920    -5.8170    -1.6350 H     1 <1>   0.0800 
 56 H       -4.9450    -6.2400    -2.0930 H     1 <1>   0.0800 
 57 H       -5.0950    -7.9130     1.4790 H     1 <1>   0.0800 
 58 H       -6.7190    -7.2340     1.3970 H     1 <1>   0.0800 
 59 H       -6.7080    -8.0170    -0.8120 H     1 <1>   0.0800 
 60 H       -4.9620    -8.1530    -0.8050 H     1 <1>   0.0800 
@<TRIPOS>BOND
  1   1   2  2   
  2   2   3  am  
  3   2   4  1   
  4   3   5  1   
  5   3  30  1   
  6   4   6  1   
  7   4   7  1   
  8   4   8  1   
  9   5   9  1   
 10   5  31  1   
 11   5  32  1   
 12   6  10  1   
 13   6  11  1   
 14   6  33  1   
 15   7  12  1   
 16   7  34  1   
 17   7  35  1   
 18   8  13  1   
 19   8  36  1   
 20   8  37  1   
 21   9  14  1   
 22   9  38  1   
 23   9  39  1   
 24  10  12  1   
 25  10  40  1   
 26  10  41  1   
 27  11  15  1   
 28  11  42  1   
 29  11  43  1   
 30  12  15  1   
 31  12  44  1   
 32  13  16  ar  
 33  13  17  ar  
 34  14  18  ar  
 35  14  19  ar  
 36  15  45  1   
 37  15  46  1   
 38  16  20  ar  
 39  16  47  1   
 40  17  21  ar  
 41  17  48  1   
 42  18  22  ar  
 43  19  23  ar  
 44  20  24  ar  
 45  20  49  1   
 46  21  24  ar  
 47  21  50  1   
 48  22  25  ar  
 49  22  26  1   
 50  23  25  ar  
 51  23  27  1   
 52  24  51  1   
 53  25  28  1   
 54  26  52  1   
 55  26  53  1   
 56  26  54  1   
 57  27  29  1   
 58  27  55  1   
 59  27  56  1   
 60  28  29  1   
 61  28  57  1   
 62  28  58  1   
 63  29  59  1   
 64  29  60  1   
@<TRIPOS>SUBSTRUCTURE
  1 ****   3 GROUP 4 **** **** 0

# MOE 2024.06 (io_trps.svl 2023.06)
