@<TRIPOS>MOLECULE
NONAME
48 49 1 0 0 
SMALL
USER_CHARGES


@<TRIPOS>ATOM
  1 S        1.1410     0.8710    -1.0460 S.o2  1 <1>   1.3330 
  2 O        1.1290     0.3360    -2.3880 O.2   1 <1>  -0.6500 
  3 O        0.4240     0.1860     0.0060 O.2   1 <1>  -0.6500 
  4 N        0.5690     2.4660    -1.1130 N.am  1 <1>  -0.8490 
  5 C        2.8450     1.0780    -0.5530 C.3   1 <1>  -0.0550 
  6 C        0.4750     3.1170     0.2010 C.3   1 <1>   0.1160 
  7 C       -0.7180     2.5490    -1.8070 C.3   1 <1>   0.1160 
  8 C        3.6920    -0.2060    -0.6310 C.3   1 <1>  -0.0800 
  9 C        5.1800    -0.0390    -0.3320 C.3   1 <1>   0.2890 
 10 C        3.2570    -1.2930     0.3570 C.3   1 <1>   0.1200 
 11 N        5.4280     0.8780     0.8120 N.pl3 1 <1>  -0.8690 
 12 C        5.5350    -1.4600     0.0920 C.3   1 <1>   0.1200 
 13 O        4.4190    -1.9440     0.7770 O.3   1 <1>  -0.5600 
 14 C        5.4010     2.2360     0.7110 C.ar  1 <1>   0.4100 
 15 N        4.6080     2.8300     1.5560 N.ar  1 <1>  -0.6200 
 16 C        6.1260     2.9310    -0.2320 C.ar  1 <1>  -0.1500 
 17 C        4.4900     4.1420     1.4220 C.ar  1 <1>   0.7200 
 18 C        5.9700     4.2950    -0.2940 C.ar  1 <1>   0.1670 
 19 N        5.1310     4.9010     0.5390 N.ar  1 <1>  -0.6200 
 20 N        3.6000     4.7750     2.2720 N.pl3 1 <1>  -0.8380 
 21 C        6.7620     5.1340    -1.3320 C.3   1 <1>   1.1630 
 22 C        3.4220     6.2560     2.2350 C.3   1 <1>   0.1290 
 23 C        3.1930     4.1260     3.5510 C.3   1 <1>   0.1290 
 24 F        7.5950     6.0030    -0.7670 F     1 <1>  -0.3400 
 25 F        5.9740     5.8400    -2.1370 F     1 <1>  -0.3400 
 26 F        7.5150     4.3840    -2.1350 F     1 <1>  -0.3400 
 27 H        3.2930     1.8280    -1.1760 H     1 <1>   0.0800 
 28 H        2.8490     1.4360     0.4550 H     1 <1>   0.0800 
 29 H        0.1220     4.1280     0.0880 H     1 <1>   0.0800 
 30 H        1.4420     3.1570     0.6730 H     1 <1>   0.0800 
 31 H       -0.2050     2.5780     0.8420 H     1 <1>   0.0800 
 32 H       -1.0380     3.5740    -1.8780 H     1 <1>   0.0800 
 33 H       -1.4650     1.9770    -1.2810 H     1 <1>   0.0800 
 34 H       -0.6220     2.1560    -2.8060 H     1 <1>   0.0800 
 35 H        3.5980    -0.6140    -1.6230 H     1 <1>   0.0800 
 36 H        5.7440     0.2710    -1.1950 H     1 <1>   0.0800 
 37 H        2.5960    -2.0110    -0.0980 H     1 <1>   0.0800 
 38 H        2.7870    -0.8730     1.2300 H     1 <1>   0.0800 
 39 H        4.9630     0.5410     1.6610 H     1 <1>   0.4000 
 40 H        6.3980    -1.4960     0.7340 H     1 <1>   0.0800 
 41 H        5.6880    -2.0870    -0.7680 H     1 <1>   0.0800 
 42 H        6.7880     2.3930    -0.8810 H     1 <1>   0.1500 
 43 H        2.5100     6.5370     2.7320 H     1 <1>   0.0800 
 44 H        3.3690     6.6020     1.2160 H     1 <1>   0.0800 
 45 H        4.2540     6.7330     2.7230 H     1 <1>   0.0800 
 46 H        2.4300     4.7020     4.0440 H     1 <1>   0.0800 
 47 H        4.0470     4.0410     4.2010 H     1 <1>   0.0800 
 48 H        2.8030     3.1410     3.3590 H     1 <1>   0.0800 
@<TRIPOS>BOND
  1   1   2  2   
  2   1   3  2   
  3   1   4  am  
  4   1   5  1   
  5   4   6  1   
  6   4   7  1   
  7   5   8  1   
  8   5  27  1   
  9   5  28  1   
 10   6  29  1   
 11   6  30  1   
 12   6  31  1   
 13   7  32  1   
 14   7  33  1   
 15   7  34  1   
 16   8   9  1   
 17   8  10  1   
 18   8  35  1   
 19   9  11  1   
 20   9  12  1   
 21   9  36  1   
 22  10  13  1   
 23  10  37  1   
 24  10  38  1   
 25  11  14  1   
 26  11  39  1   
 27  12  13  1   
 28  12  40  1   
 29  12  41  1   
 30  14  15  ar  
 31  14  16  ar  
 32  15  17  ar  
 33  16  18  ar  
 34  16  42  1   
 35  17  19  ar  
 36  17  20  1   
 37  18  19  ar  
 38  18  21  1   
 39  20  22  1   
 40  20  23  1   
 41  21  24  1   
 42  21  25  1   
 43  21  26  1   
 44  22  43  1   
 45  22  44  1   
 46  22  45  1   
 47  23  46  1   
 48  23  47  1   
 49  23  48  1   
@<TRIPOS>SUBSTRUCTURE
  1 ****  14 GROUP 4 **** **** 0

# MOE 2024.06 (io_trps.svl 2023.06)
