@<TRIPOS>MOLECULE
NONAME
38 39 1 0 0 
SMALL
USER_CHARGES


@<TRIPOS>ATOM
  1 CL      -2.5050    -0.4370    -0.4130 Cl    1 <1>  -0.1770 
  2 C       -2.0400    -2.1040    -0.1670 C.ar  1 <1>   0.1770 
  3 C       -2.8800    -3.1280    -0.5670 C.ar  1 <1>   0.1600 
  4 C       -0.8330    -2.3950     0.4290 C.ar  1 <1>  -0.1500 
  5 N       -2.6090    -4.4180    -0.4200 N.ar  1 <1>  -0.6200 
  6 C       -0.5420    -3.7330     0.5860 C.ar  1 <1>  -0.1500 
  7 C       -1.4450    -4.7060     0.1510 C.ar  1 <1>   0.4270 
  8 N       -1.2270    -6.0590     0.2740 N.am  1 <1>  -0.5470 
  9 C       -0.1550    -6.8150     0.6420 C.2   1 <1>   0.5690 
 10 O        0.9090    -6.3570     0.9790 O.2   1 <1>  -0.5700 
 11 C       -0.3380    -8.3340     0.6190 C.3   1 <1>   0.1710 
 12 N       -1.4490    -8.8080    -0.2660 N.3   1 <1>  -0.8100 
 13 C       -1.8250   -10.1940     0.0730 C.3   1 <1>   0.1100 
 14 C       -1.0640    -8.6810    -1.6860 C.3   1 <1>   0.0300 
 15 C       -3.2090   -10.5540    -0.4740 C.3   1 <1>   0.0200 
 16 C       -3.7430   -11.9130    -0.0320 C.2   1 <1>  -0.1400 
 17 S       -5.3750   -12.2150    -0.5710 S.3   1 <1>  -0.0800 
 18 C       -3.3290   -12.9910     0.6700 C.2   1 <1>   0.0460 
 19 C       -5.3340   -13.7700     0.2140 C.2   1 <1>   0.2280 
 20 N       -4.2380   -14.0280     0.8020 N.2   1 <1>  -0.5650 
 21 C       -2.0040   -13.2680     1.3560 C.3   1 <1>  -0.0590 
 22 H       -3.8170    -2.8680    -1.0280 H     1 <1>   0.1500 
 23 H       -0.1640    -1.6170     0.7490 H     1 <1>   0.1500 
 24 H        0.3830    -4.0200     1.0470 H     1 <1>   0.1500 
 25 H       -2.0160    -6.6220    -0.0520 H     1 <1>   0.3700 
 26 H       -0.5380    -8.6310     1.6330 H     1 <1>   0.0800 
 27 H        0.5890    -8.7910     0.3210 H     1 <1>   0.0800 
 28 H       -1.8680   -10.2920     1.1440 H     1 <1>   0.0800 
 29 H       -1.0870   -10.8780    -0.3090 H     1 <1>   0.0800 
 30 H       -0.7580    -7.6730    -1.9060 H     1 <1>   0.0800 
 31 H       -1.8990    -8.9140    -2.3240 H     1 <1>   0.0800 
 32 H       -0.2500    -9.3470    -1.9190 H     1 <1>   0.0800 
 33 H       -3.1860   -10.5450    -1.5480 H     1 <1>   0.0800 
 34 H       -3.9030    -9.8000    -0.1480 H     1 <1>   0.0800 
 35 H       -6.2160   -14.3810     0.1450 H     1 <1>   0.1500 
 36 H       -1.2880   -12.4890     1.2090 H     1 <1>   0.0800 
 37 H       -1.5920   -14.1830     0.9700 H     1 <1>   0.0800 
 38 H       -2.1700   -13.3900     2.4100 H     1 <1>   0.0800 
@<TRIPOS>BOND
  1   1   2  1   
  2   2   3  ar  
  3   2   4  ar  
  4   3   5  ar  
  5   3  22  1   
  6   4   6  ar  
  7   4  23  1   
  8   5   7  ar  
  9   6   7  ar  
 10   6  24  1   
 11   7   8  1   
 12   8   9  am  
 13   8  25  1   
 14   9  10  2   
 15   9  11  1   
 16  11  12  1   
 17  11  26  1   
 18  11  27  1   
 19  12  13  1   
 20  12  14  1   
 21  13  15  1   
 22  13  28  1   
 23  13  29  1   
 24  14  30  1   
 25  14  31  1   
 26  14  32  1   
 27  15  16  1   
 28  15  33  1   
 29  15  34  1   
 30  16  17  1   
 31  16  18  2   
 32  17  19  1   
 33  18  20  1   
 34  18  21  1   
 35  19  20  2   
 36  19  35  1   
 37  21  36  1   
 38  21  37  1   
 39  21  38  1   
@<TRIPOS>SUBSTRUCTURE
  1 ****  12 GROUP 4 **** **** 0

# MOE 2024.06 (io_trps.svl 2023.06)
