@<TRIPOS>MOLECULE
NONAME
50 53 1 0 0 
SMALL
USER_CHARGES


@<TRIPOS>ATOM
  1 CL       1.3650     0.3740    -1.0330 Cl    1 <1>  -0.1400 
  2 C        1.2250     2.1080    -0.9140 C.2   1 <1>   0.1400 
  3 C        1.3850     2.7390     0.2880 C.2   1 <1>   0.1910 
  4 C        0.9460     2.8380    -2.0720 C.2   1 <1>  -0.1500 
  5 N        1.2780     4.1140     0.3890 N.pl3 1 <1>  -0.5760 
  6 C        0.8420     4.2020    -1.9600 C.2   1 <1>  -0.1800 
  7 C        1.4220     4.7530     1.6250 C.2   1 <1>   0.9370 
  8 C        1.0120     4.8480    -0.7230 C.cat 1 <1>   0.7390 
  9 O        1.6630     4.1040     2.6130 O.2   1 <1>  -0.5700 
 10 C        1.3060     6.1640     1.6900 C.2   1 <1>  -0.1360 
 11 N        0.9200     6.2030    -0.6180 N.pl3 1 <1>  -0.6450 
 12 C        1.0650     6.8930     0.5810 C.2   1 <1>   0.2030 
 13 C        0.9410     8.4330     0.6290 C.3   1 <1>   0.4810 
 14 N        2.2650     9.1400     0.5600 N.4   1 <1>  -0.8520 
 15 C        2.2160    10.6030     0.8360 C.3   1 <1>   0.2960 
 16 C        3.0200     8.9310    -0.7030 C.3   1 <1>   0.5240 
 17 C        1.2170    11.1950     1.7730 C.3   1 <1>  -0.2000 
 18 C        1.1060    11.4400     0.2940 C.3   1 <1>  -0.2000 
 19 C        4.4760     9.0410    -0.3410 C.2   1 <1>  -0.1810 
 20 C        5.2480     8.0420     0.2460 C.2   1 <1>   0.1080 
 21 C        5.3150    10.0930    -0.4820 C.2   1 <1>  -0.3320 
 22 N        6.4480     8.4450     0.4810 N.2   1 <1>  -0.7070 
 23 C        4.8460     6.6270     0.6020 C.3   1 <1>  -0.0590 
 24 N        6.5080     9.7040     0.0250 N.pl3 1 <1>   0.3140 
 25 C        5.0820    11.4740    -1.0840 C.3   1 <1>  -0.0600 
 26 C        7.7580    10.4750     0.0950 C.3   1 <1>   0.0160 
 27 H        1.5980     2.1550     1.1730 H     1 <1>   0.1500 
 28 H        0.8200     2.3170    -3.0080 H     1 <1>   0.1500 
 29 H        0.6270     4.7850    -2.8370 H     1 <1>   0.1500 
 30 H        1.4230     6.5890     2.6710 H     1 <1>   0.1500 
 31 H        0.6260     6.6800    -1.4810 H     1 <1>   0.4500 
 32 H        0.4610     8.6920     1.5580 H     1 <1>   0.0800 
 33 H        0.3000     8.7740    -0.1670 H     1 <1>   0.0800 
 34 H        2.8990     8.7740     1.2860 H     1 <1>   0.4500 
 35 H        3.2050    11.0430     0.8560 H     1 <1>   0.1000 
 36 H        2.7580     9.6800    -1.4340 H     1 <1>   0.0800 
 37 H        2.8360     7.9550    -1.1150 H     1 <1>   0.0800 
 38 H        1.5220    12.0260     2.3880 H     1 <1>   0.1000 
 39 H        0.4430    10.6200     2.2470 H     1 <1>   0.1000 
 40 H        0.2660    11.0140    -0.2230 H     1 <1>   0.1000 
 41 H        1.3280    12.4350    -0.0550 H     1 <1>   0.1000 
 42 H        4.0760     6.2660    -0.0500 H     1 <1>   0.0800 
 43 H        4.5250     6.5850     1.6270 H     1 <1>   0.0800 
 44 H        5.7030     5.9850     0.4970 H     1 <1>   0.0800 
 45 H        4.0810    11.5750    -1.4600 H     1 <1>   0.0800 
 46 H        5.7630    11.6370    -1.9020 H     1 <1>   0.0800 
 47 H        5.2510    12.2380    -0.3440 H     1 <1>   0.0800 
 48 H        7.5940    11.3700     0.6630 H     1 <1>   0.0800 
 49 H        8.0790    10.7220    -0.8990 H     1 <1>   0.0800 
 50 H        8.5130     9.8790     0.5750 H     1 <1>   0.0800 
@<TRIPOS>BOND
  1   1   2  1   
  2   2   3  2   
  3   2   4  1   
  4   3   5  1   
  5   3  27  1   
  6   4   6  2   
  7   4  28  1   
  8   5   7  1   
  9   5   8  ar  
 10   6   8  1   
 11   6  29  1   
 12   7   9  2   
 13   7  10  1   
 14   8  11  ar  
 15  10  12  2   
 16  10  30  1   
 17  11  12  1   
 18  11  31  1   
 19  12  13  1   
 20  13  14  1   
 21  13  32  1   
 22  13  33  1   
 23  14  15  1   
 24  14  16  1   
 25  14  34  1   
 26  15  17  1   
 27  15  18  1   
 28  15  35  1   
 29  16  19  1   
 30  16  36  1   
 31  16  37  1   
 32  17  18  1   
 33  17  38  1   
 34  17  39  1   
 35  18  40  1   
 36  18  41  1   
 37  19  20  1   
 38  19  21  2   
 39  20  22  2   
 40  20  23  1   
 41  21  24  1   
 42  21  25  1   
 43  22  24  1   
 44  23  42  1   
 45  23  43  1   
 46  23  44  1   
 47  24  26  1   
 48  25  45  1   
 49  25  46  1   
 50  25  47  1   
 51  26  48  1   
 52  26  49  1   
 53  26  50  1   
@<TRIPOS>SUBSTRUCTURE
  1 ****  12 GROUP 4 **** **** 0

# MOE 2024.06 (io_trps.svl 2023.06)
