@<TRIPOS>MOLECULE
NONAME
44 45 1 0 0 
SMALL
USER_CHARGES


@<TRIPOS>ATOM
  1 S       -0.1690     0.0050     0.2780 S.o2  1 <1>   1.3330 
  2 O       -0.0510    -0.7830     1.4840 O.2   1 <1>  -0.6500 
  3 O       -0.7940     1.3070     0.3380 O.2   1 <1>  -0.6500 
  4 N       -1.0060    -0.9300    -0.8650 N.am  1 <1>  -0.8490 
  5 C        1.4390     0.2050    -0.4900 C.3   1 <1>  -0.0550 
  6 C       -0.7470    -2.3690    -0.7410 C.3   1 <1>   0.1160 
  7 C       -2.4500    -0.6800    -0.8380 C.3   1 <1>   0.1160 
  8 C        2.4020     1.1080     0.3050 C.3   1 <1>  -0.0800 
  9 C        3.6520     1.4120    -0.5030 C.3   1 <1>   0.2200 
 10 C        2.9960     0.3870     1.5160 C.3   1 <1>   0.1200 
 11 N        4.2590     2.6670    -0.0080 N.am  1 <1>  -0.7300 
 12 C        4.5580     0.2260    -0.1730 C.3   1 <1>   0.1200 
 13 O        4.1070    -0.3090     1.0390 O.3   1 <1>  -0.5600 
 14 C        4.3340     3.8530    -0.6860 C.2   1 <1>   0.5440 
 15 O        3.8670     3.8920    -1.8110 O.2   1 <1>  -0.5700 
 16 C        4.9570     5.0250    -0.0650 C.ar  1 <1>   0.3960 
 17 N        5.4820     4.9020     1.1710 N.ar  1 <1>  -0.6200 
 18 C        4.9990     6.2360    -0.7510 C.ar  1 <1>  -0.1500 
 19 C        6.0360     5.9790     1.6980 C.ar  1 <1>   0.1600 
 20 C        5.5790     7.3510    -0.1890 C.ar  1 <1>   0.0820 
 21 C        6.1140     7.2100     1.0780 C.ar  1 <1>  -0.1500 
 22 O        5.5880     8.4950    -0.9050 O.3   1 <1>  -0.3620 
 23 C        6.1650     9.6800    -0.4020 C.3   1 <1>   0.0400 
 24 H        1.8890    -0.7580    -0.6360 H     1 <1>   0.0800 
 25 H        1.2860     0.6440    -1.4580 H     1 <1>   0.0800 
 26 H       -1.2260    -2.9020    -1.5450 H     1 <1>   0.0800 
 27 H       -1.1230    -2.7400     0.1990 H     1 <1>   0.0800 
 28 H        0.3110    -2.5630    -0.7880 H     1 <1>   0.0800 
 29 H       -2.9470    -1.2770    -1.5820 H     1 <1>   0.0800 
 30 H       -2.6490     0.3570    -1.0520 H     1 <1>   0.0800 
 31 H       -2.8520    -0.9150     0.1340 H     1 <1>   0.0800 
 32 H        1.8890     2.0120     0.5890 H     1 <1>   0.0800 
 33 H        3.4630     1.4850    -1.5610 H     1 <1>   0.0800 
 34 H        2.3230    -0.3050     1.9890 H     1 <1>   0.0800 
 35 H        3.3460     1.0970     2.2460 H     1 <1>   0.0800 
 36 H        4.6640     2.6410     0.9330 H     1 <1>   0.3700 
 37 H        5.5900     0.5140    -0.0750 H     1 <1>   0.0800 
 38 H        4.4640    -0.5420    -0.9190 H     1 <1>   0.0800 
 39 H        4.5730     6.3090    -1.7350 H     1 <1>   0.1500 
 40 H        6.4550     5.8750     2.6850 H     1 <1>   0.1500 
 41 H        6.5850     8.0280     1.5880 H     1 <1>   0.1500 
 42 H        6.0510    10.4480    -1.1450 H     1 <1>   0.0800 
 43 H        7.2090     9.5070    -0.2120 H     1 <1>   0.0800 
 44 H        5.6500     9.9640     0.4990 H     1 <1>   0.0800 
@<TRIPOS>BOND
  1   1   2  2   
  2   1   3  2   
  3   1   4  am  
  4   1   5  1   
  5   4   6  1   
  6   4   7  1   
  7   5   8  1   
  8   5  24  1   
  9   5  25  1   
 10   6  26  1   
 11   6  27  1   
 12   6  28  1   
 13   7  29  1   
 14   7  30  1   
 15   7  31  1   
 16   8   9  1   
 17   8  10  1   
 18   8  32  1   
 19   9  11  1   
 20   9  12  1   
 21   9  33  1   
 22  10  13  1   
 23  10  34  1   
 24  10  35  1   
 25  11  14  am  
 26  11  36  1   
 27  12  13  1   
 28  12  37  1   
 29  12  38  1   
 30  14  15  2   
 31  14  16  1   
 32  16  17  ar  
 33  16  18  ar  
 34  17  19  ar  
 35  18  20  ar  
 36  18  39  1   
 37  19  21  ar  
 38  19  40  1   
 39  20  21  ar  
 40  20  22  1   
 41  21  41  1   
 42  22  23  1   
 43  23  42  1   
 44  23  43  1   
 45  23  44  1   
@<TRIPOS>SUBSTRUCTURE
  1 ****  11 GROUP 4 **** **** 0

# MOE 2024.06 (io_trps.svl 2023.06)
