@<TRIPOS>MOLECULE
NONAME
46 47 1 0 0 
SMALL
USER_CHARGES


@<TRIPOS>ATOM
  1 S        0.2670    -0.0050    -0.4680 S.o2  1 <1>   1.3330 
  2 O        1.6770    -0.0290    -0.7840 O.2   1 <1>  -0.6500 
  3 O       -0.7060    -0.0770    -1.5350 O.2   1 <1>  -0.6500 
  4 N       -0.0410    -1.2770     0.6140 N.am  1 <1>  -0.8490 
  5 C       -0.1010     1.4540     0.5030 C.3   1 <1>  -0.0550 
  6 C       -0.3900    -2.5200    -0.0800 C.3   1 <1>   0.1160 
  7 C        1.0620    -1.5230     1.5510 C.3   1 <1>   0.1160 
  8 C        0.0370     2.7660    -0.2960 C.3   1 <1>  -0.0800 
  9 C       -0.4250     4.0120     0.4630 C.3   1 <1>   0.2000 
 10 C        1.4760     3.0910    -0.7230 C.3   1 <1>   0.2090 
 11 O        0.0880     3.9680     1.7520 O.3   1 <1>  -0.6800 
 12 C        0.2600     5.1570    -0.2790 C.3   1 <1>   0.2090 
 13 N        1.5580     4.5750    -0.7030 N.pl3 1 <1>  -0.8380 
 14 C        2.7470     5.2640    -0.6760 C.ar  1 <1>   0.7200 
 15 N        2.6750     6.5830    -0.5330 N.ar  1 <1>  -0.6200 
 16 N        3.8580     4.5450    -0.7890 N.ar  1 <1>  -0.6200 
 17 C        3.8100     7.2400    -0.5080 C.ar  1 <1>   0.1670 
 18 C        4.9790     5.2200    -0.7620 C.ar  1 <1>   0.1600 
 19 C        5.0250     6.5890    -0.6200 C.ar  1 <1>  -0.1440 
 20 C        3.6970     8.7510    -0.3470 C.3   1 <1>  -0.0170 
 21 C        6.3700     7.3050    -0.5910 C.3   1 <1>  -0.0970 
 22 C        3.6000     9.1510     1.1300 C.3   1 <1>  -0.2400 
 23 H       -1.1080     1.3790     0.8640 H     1 <1>   0.0800 
 24 H        0.5470     1.4860     1.3560 H     1 <1>   0.0800 
 25 H       -0.5960    -3.3000     0.6320 H     1 <1>   0.0800 
 26 H        0.4180    -2.8290    -0.7230 H     1 <1>   0.0800 
 27 H       -1.2720    -2.3720    -0.6800 H     1 <1>   0.0800 
 28 H        0.7810    -2.2810     2.2610 H     1 <1>   0.0800 
 29 H        1.2980    -0.6230     2.0920 H     1 <1>   0.0800 
 30 H        1.9420    -1.8470     1.0200 H     1 <1>   0.0800 
 31 H       -0.5560     2.6880    -1.1920 H     1 <1>   0.0800 
 32 H       -1.4950     4.1160     0.5180 H     1 <1>   0.0800 
 33 H        1.6930     2.7140    -1.7080 H     1 <1>   0.0800 
 34 H        2.1860     2.6820    -0.0230 H     1 <1>   0.0800 
 35 H        1.0470     4.1730     1.6930 H     1 <1>   0.4000 
 36 H        0.3760     6.0220     0.3520 H     1 <1>   0.0800 
 37 H       -0.3030     5.4260    -1.1560 H     1 <1>   0.0800 
 38 H        5.8920     4.6580    -0.8550 H     1 <1>   0.1500 
 39 H        4.5340     9.2450    -0.8030 H     1 <1>   0.0800 
 40 H        2.8130     9.0870    -0.8620 H     1 <1>   0.0800 
 41 H        7.1810     6.5990    -0.5570 H     1 <1>   0.0800 
 42 H        6.4380     7.9360     0.2770 H     1 <1>   0.0800 
 43 H        6.4840     7.9090    -1.4740 H     1 <1>   0.0800 
 44 H        4.4770     8.8320     1.6640 H     1 <1>   0.0800 
 45 H        2.7380     8.6880     1.5780 H     1 <1>   0.0800 
 46 H        3.5050    10.2180     1.2210 H     1 <1>   0.0800 
@<TRIPOS>BOND
  1   1   2  2   
  2   1   3  2   
  3   1   4  am  
  4   1   5  1   
  5   4   6  1   
  6   4   7  1   
  7   5   8  1   
  8   5  23  1   
  9   5  24  1   
 10   6  25  1   
 11   6  26  1   
 12   6  27  1   
 13   7  28  1   
 14   7  29  1   
 15   7  30  1   
 16   8   9  1   
 17   8  10  1   
 18   8  31  1   
 19   9  11  1   
 20   9  12  1   
 21   9  32  1   
 22  10  13  1   
 23  10  33  1   
 24  10  34  1   
 25  11  35  1   
 26  12  13  1   
 27  12  36  1   
 28  12  37  1   
 29  13  14  1   
 30  14  15  ar  
 31  14  16  ar  
 32  15  17  ar  
 33  16  18  ar  
 34  17  19  ar  
 35  17  20  1   
 36  18  19  ar  
 37  18  38  1   
 38  19  21  1   
 39  20  22  1   
 40  20  39  1   
 41  20  40  1   
 42  21  41  1   
 43  21  42  1   
 44  21  43  1   
 45  22  44  1   
 46  22  45  1   
 47  22  46  1   
@<TRIPOS>SUBSTRUCTURE
  1 ****  10 GROUP 4 **** **** 0

# MOE 2024.06 (io_trps.svl 2023.06)
