@<TRIPOS>MOLECULE
NONAME
58 61 1 0 0 
SMALL
USER_CHARGES


@<TRIPOS>ATOM
  1 O       -2.1040     0.3450    -2.3880 O.2   1 <1>  -0.5700 
  2 C       -2.2500     1.0420    -1.3990 C.2   1 <1>   0.7150 
  3 N       -1.1880     1.8320    -0.9880 N.am  1 <1>  -0.6600 
  4 C       -3.5120     1.0130    -0.6840 C.2   1 <1>   0.0550 
  5 C        0.1830     1.6240    -1.5340 C.3   1 <1>   0.0600 
  6 C       -1.3400     3.0650    -0.1690 C.3   1 <1>   0.0600 
  7 O       -4.6460     0.7500    -1.3280 O.3   1 <1>  -0.2800 
  8 C       -3.8160     1.1960     0.6310 C.2   1 <1>  -0.1500 
  9 C       -5.6510     0.7530    -0.4850 C.2   1 <1>  -0.0400 
 10 C       -5.1960     1.0310     0.7600 C.2   1 <1>  -0.1500 
 11 C       -7.0170     0.4510    -1.0880 C.3   1 <1>   0.5230 
 12 N       -8.1300     0.4740    -0.0970 N.4   1 <1>  -0.9590 
 13 C       -8.3660     1.8270     0.4960 C.3   1 <1>   0.3430 
 14 C       -8.0470    -0.6040     0.9250 C.3   1 <1>   0.3430 
 15 C       -9.7150     1.8520     1.2390 C.3   1 <1>   0.1430 
 16 C       -9.3490    -0.6430     1.7340 C.3   1 <1>  -0.1600 
 17 C      -10.8420     1.7060     0.2280 C.ar  1 <1>   0.1670 
 18 C       -9.7500     0.7320     2.3050 C.3   1 <1>  -0.1600 
 19 C      -10.0180     3.2330     1.8740 C.3   1 <1>  -0.1600 
 20 N      -10.8790     0.8220    -0.7410 N.ar  1 <1>  -0.6200 
 21 C      -11.8140     2.6390     0.4230 C.ar  1 <1>  -0.1430 
 22 C      -11.5040     3.5330     1.5980 C.3   1 <1>  -0.0170 
 23 C      -11.9510     0.9010    -1.5320 C.ar  1 <1>   0.7200 
 24 C      -12.8790     2.6410    -0.4420 C.ar  1 <1>   0.1600 
 25 N      -12.9520     1.7770    -1.4280 N.ar  1 <1>  -0.6200 
 26 N      -12.0060    -0.0110    -2.5570 N.pl3 1 <1>  -0.8380 
 27 C      -12.7640     0.3080    -3.7990 C.3   1 <1>   0.1290 
 28 C      -11.8770    -1.4640    -2.2710 C.3   1 <1>   0.1290 
 29 H        0.2830     0.6310    -1.9400 H     1 <1>   0.0800 
 30 H        0.9130     1.7470    -0.7530 H     1 <1>   0.0800 
 31 H        0.3740     2.3370    -2.3160 H     1 <1>   0.0800 
 32 H       -2.3690     3.3770    -0.1330 H     1 <1>   0.0800 
 33 H       -0.7640     3.8640    -0.6020 H     1 <1>   0.0800 
 34 H       -0.9860     2.8820     0.8310 H     1 <1>   0.0800 
 35 H       -3.1340     1.4120     1.4350 H     1 <1>   0.1500 
 36 H       -5.7220     1.1140     1.6930 H     1 <1>   0.1500 
 37 H       -6.9740    -0.5180    -1.5580 H     1 <1>   0.0800 
 38 H       -7.2140     1.1750    -1.8620 H     1 <1>   0.0800 
 39 H       -9.0100     0.2930    -0.6280 H     1 <1>   0.4500 
 40 H       -8.3890     2.5680    -0.2870 H     1 <1>   0.0800 
 41 H       -7.5730     2.0770     1.1790 H     1 <1>   0.0800 
 42 H       -7.2160    -0.4220     1.5860 H     1 <1>   0.0800 
 43 H       -7.8940    -1.5580     0.4460 H     1 <1>   0.0800 
 44 H       -9.2360    -1.3440     2.5430 H     1 <1>   0.0800 
 45 H      -10.1380    -1.0190     1.1070 H     1 <1>   0.0800 
 46 H      -10.7370     0.6670     2.7310 H     1 <1>   0.0800 
 47 H       -9.0700     0.9830     3.1010 H     1 <1>   0.0800 
 48 H       -9.4320     3.9940     1.3870 H     1 <1>   0.0800 
 49 H       -9.8040     3.2660     2.9290 H     1 <1>   0.0800 
 50 H      -11.6660     4.5720     1.3640 H     1 <1>   0.0800 
 51 H      -12.1160     3.2500     2.4380 H     1 <1>   0.0800 
 52 H      -13.6760     3.3570    -0.3310 H     1 <1>   0.1500 
 53 H      -12.6850     1.3590    -4.0220 H     1 <1>   0.0800 
 54 H      -13.8030     0.0600    -3.6650 H     1 <1>   0.0800 
 55 H      -12.3670    -0.2500    -4.6280 H     1 <1>   0.0800 
 56 H      -11.5610    -1.6270    -1.2560 H     1 <1>   0.0800 
 57 H      -11.1560    -1.9020    -2.9380 H     1 <1>   0.0800 
 58 H      -12.8280    -1.9490    -2.4120 H     1 <1>   0.0800 
@<TRIPOS>BOND
  1   1   2  2   
  2   2   3  am  
  3   2   4  1   
  4   3   5  1   
  5   3   6  1   
  6   4   7  1   
  7   4   8  2   
  8   5  29  1   
  9   5  30  1   
 10   5  31  1   
 11   6  32  1   
 12   6  33  1   
 13   6  34  1   
 14   7   9  1   
 15   8  10  1   
 16   8  35  1   
 17   9  10  2   
 18   9  11  1   
 19  10  36  1   
 20  11  12  1   
 21  11  37  1   
 22  11  38  1   
 23  12  13  1   
 24  12  14  1   
 25  12  39  1   
 26  13  15  1   
 27  13  40  1   
 28  13  41  1   
 29  14  16  1   
 30  14  42  1   
 31  14  43  1   
 32  15  17  1   
 33  15  18  1   
 34  15  19  1   
 35  16  18  1   
 36  16  44  1   
 37  16  45  1   
 38  17  20  ar  
 39  17  21  ar  
 40  18  46  1   
 41  18  47  1   
 42  19  22  1   
 43  19  48  1   
 44  19  49  1   
 45  20  23  ar  
 46  21  22  1   
 47  21  24  ar  
 48  22  50  1   
 49  22  51  1   
 50  23  25  ar  
 51  23  26  1   
 52  24  25  ar  
 53  24  52  1   
 54  26  27  1   
 55  26  28  1   
 56  27  53  1   
 57  27  54  1   
 58  27  55  1   
 59  28  56  1   
 60  28  57  1   
 61  28  58  1   
@<TRIPOS>SUBSTRUCTURE
  1 ****  12 GROUP 4 **** **** 0

# MOE 2024.06 (io_trps.svl 2023.06)
