@<TRIPOS>MOLECULE
NONAME
52 54 1 0 0 
SMALL
USER_CHARGES


@<TRIPOS>ATOM
  1 O       -1.0140    -0.9930     0.3250 O.co2 1 <1>  -0.9000 
  2 C       -1.8190    -1.8890     0.5970 C.2   1 <1>   0.9060 
  3 O       -1.9180    -2.4080     1.7120 O.co2 1 <1>  -0.9000 
  4 C       -2.8500    -2.2670    -0.4700 C.3   1 <1>   0.2370 
  5 N       -4.0880    -1.3860    -0.4830 N.4   1 <1>  -0.9590 
  6 C       -4.8210    -1.5360     0.8110 C.3   1 <1>   0.3430 
  7 C       -3.7050     0.0370    -0.7170 C.3   1 <1>   0.3430 
  8 C       -6.2780    -1.0300     0.6630 C.3   1 <1>   0.1900 
  9 C       -4.9100     0.9890    -0.9050 C.3   1 <1>  -0.0800 
 10 N       -6.6470    -0.8780    -0.7910 N.3   1 <1>  -0.8100 
 11 C       -6.5040     0.2440     1.4990 C.3   1 <1>   0.1200 
 12 C       -5.1790     1.8430     0.3450 C.3   1 <1>   0.1200 
 13 C       -6.2130     0.3680    -1.4570 C.3   1 <1>   0.1100 
 14 C       -8.0390    -1.2410    -1.0980 C.3   1 <1>   0.2530 
 15 O       -5.3790     1.0710     1.4810 O.3   1 <1>  -0.5600 
 16 C       -8.2050    -2.7340    -0.8960 C.ar  1 <1>  -0.1430 
 17 C       -9.0870    -3.2610     0.0200 C.ar  1 <1>   0.1600 
 18 C       -7.4490    -3.6310    -1.6140 C.ar  1 <1>   0.1600 
 19 N       -9.1950    -4.5500     0.2230 N.ar  1 <1>  -0.6200 
 20 N       -7.5340    -4.9260    -1.4360 N.ar  1 <1>  -0.6200 
 21 C       -8.4010    -5.3190    -0.5150 C.ar  1 <1>   0.7200 
 22 N       -8.4570    -6.6570    -0.3400 N.pl3 1 <1>  -0.8690 
 23 C       -9.5740    -7.3590     0.3150 C.3   1 <1>   0.2090 
 24 C       -9.2070    -8.8340     0.4710 C.3   1 <1>  -0.1600 
 25 C      -10.3260    -9.6210     1.1630 C.3   1 <1>  -0.2400 
 26 H       -3.1320    -3.2890    -0.2900 H     1 <1>   0.0800 
 27 H       -2.3550    -2.2130    -1.4210 H     1 <1>   0.0800 
 28 H       -4.7810    -1.6530    -1.1960 H     1 <1>   0.4500 
 29 H       -4.8460    -2.5770     1.0870 H     1 <1>   0.0800 
 30 H       -4.3070    -1.0090     1.6000 H     1 <1>   0.0800 
 31 H       -3.0950     0.3850     0.1040 H     1 <1>   0.0800 
 32 H       -3.0930     0.0800    -1.6020 H     1 <1>   0.0800 
 33 H       -6.9010    -1.7900     1.1010 H     1 <1>   0.0800 
 34 H       -4.5950     1.7030    -1.6440 H     1 <1>   0.0800 
 35 H       -6.6490    -0.0380     2.5280 H     1 <1>   0.0800 
 36 H       -7.3690     0.7950     1.1740 H     1 <1>   0.0800 
 37 H       -6.0340     2.4830     0.2110 H     1 <1>   0.0800 
 38 H       -4.3240     2.4670     0.5460 H     1 <1>   0.0800 
 39 H       -6.0760     0.1540    -2.5040 H     1 <1>   0.0800 
 40 H       -6.9990     1.1020    -1.3850 H     1 <1>   0.0800 
 41 H       -8.7160    -0.6870    -0.4690 H     1 <1>   0.0800 
 42 H       -8.2620    -1.0070    -2.1260 H     1 <1>   0.0800 
 43 H       -9.7150    -2.6120     0.6060 H     1 <1>   0.1500 
 44 H       -6.7500    -3.2730    -2.3500 H     1 <1>   0.1500 
 45 H       -7.9670    -7.1690    -1.0710 H     1 <1>   0.4000 
 46 H       -9.7560    -6.9190     1.2820 H     1 <1>   0.0800 
 47 H      -10.4630    -7.2530    -0.2840 H     1 <1>   0.0800 
 48 H       -9.0250    -9.2610    -0.5000 H     1 <1>   0.0800 
 49 H       -8.3070    -8.9110     1.0560 H     1 <1>   0.0800 
 50 H      -11.2340    -9.5700     0.5880 H     1 <1>   0.0800 
 51 H      -10.5140    -9.2230     2.1450 H     1 <1>   0.0800 
 52 H      -10.0410   -10.6540     1.2620 H     1 <1>   0.0800 
@<TRIPOS>BOND
  1   1   2  ar  
  2   2   3  ar  
  3   2   4  1   
  4   4   5  1   
  5   4  26  1   
  6   4  27  1   
  7   5   6  1   
  8   5   7  1   
  9   5  28  1   
 10   6   8  1   
 11   6  29  1   
 12   6  30  1   
 13   7   9  1   
 14   7  31  1   
 15   7  32  1   
 16   8  10  1   
 17   8  11  1   
 18   8  33  1   
 19   9  12  1   
 20   9  13  1   
 21   9  34  1   
 22  10  13  1   
 23  10  14  1   
 24  11  15  1   
 25  11  35  1   
 26  11  36  1   
 27  12  15  1   
 28  12  37  1   
 29  12  38  1   
 30  13  39  1   
 31  13  40  1   
 32  14  16  1   
 33  14  41  1   
 34  14  42  1   
 35  16  17  ar  
 36  16  18  ar  
 37  17  19  ar  
 38  17  43  1   
 39  18  20  ar  
 40  18  44  1   
 41  19  21  ar  
 42  20  21  ar  
 43  21  22  1   
 44  22  23  1   
 45  22  45  1   
 46  23  24  1   
 47  23  46  1   
 48  23  47  1   
 49  24  25  1   
 50  24  48  1   
 51  24  49  1   
 52  25  50  1   
 53  25  51  1   
 54  25  52  1   
@<TRIPOS>SUBSTRUCTURE
  1 ****   8 GROUP 4 **** **** 0

# MOE 2024.06 (io_trps.svl 2023.06)
