@<TRIPOS>MOLECULE
NONAME
49 51 1 0 0 
SMALL
USER_CHARGES


@<TRIPOS>ATOM
  1 O        0.5190     0.5040    -1.1680 O.2   1 <1>  -0.5700 
  2 C        1.2290    -0.4510    -0.9660 C.2   1 <1>   0.5690 
  3 N        2.3640    -0.3140    -0.1960 N.am  1 <1>  -0.6600 
  4 C        0.8170    -1.7690    -1.6090 C.3   1 <1>   0.0810 
  5 C        3.5040    -1.2840    -0.1340 C.3   1 <1>   0.1400 
  6 C        2.4220     0.7880     0.8030 C.3   1 <1>   0.1400 
  7 C        0.4140    -2.8020    -0.5710 C.2   1 <1>  -0.0400 
  8 C        4.8250    -0.7100    -0.6980 C.3   1 <1>   0.3430 
  9 C        3.1180     2.0150     0.2120 C.3   1 <1>  -0.1600 
 10 O        1.3200    -3.3690     0.1790 O.3   1 <1>  -0.0190 
 11 C       -0.7780    -3.3080    -0.2240 C.2   1 <1>  -0.1500 
 12 N        5.1630     0.6740    -0.2150 N.4   1 <1>  -0.9590 
 13 C        4.2300     1.6950    -0.7830 C.3   1 <1>   0.3430 
 14 N        0.8030    -4.2190     1.0120 N.2   1 <1>  -0.4100 
 15 C       -0.4640    -4.2060     0.7920 C.2   1 <1>   0.1080 
 16 C        6.5840     1.0230    -0.4820 C.3   1 <1>   0.5240 
 17 C       -1.4680    -5.0530     1.5420 C.3   1 <1>  -0.0590 
 18 C        6.9010     2.2810     0.2880 C.2   1 <1>  -0.1810 
 19 C        7.0080     2.4760     1.6130 C.2   1 <1>  -0.0400 
 20 C        7.1470     3.5470    -0.2470 C.2   1 <1>   0.1080 
 21 O        7.2640     3.7390     1.8090 O.3   1 <1>  -0.0190 
 22 C        6.8940     1.5660     2.8210 C.3   1 <1>  -0.0600 
 23 N        7.3470     4.3970     0.6910 N.2   1 <1>  -0.4100 
 24 C        7.1960     3.9250    -1.7140 C.3   1 <1>  -0.0590 
 25 H        1.6100    -2.1490    -2.2230 H     1 <1>   0.0800 
 26 H       -0.0260    -1.5840    -2.2500 H     1 <1>   0.0800 
 27 H        3.2760    -2.1710    -0.6940 H     1 <1>   0.0800 
 28 H        3.6490    -1.5920     0.8870 H     1 <1>   0.0800 
 29 H        2.9420     0.4490     1.6830 H     1 <1>   0.0800 
 30 H        1.4230     1.0560     1.1120 H     1 <1>   0.0800 
 31 H        4.7580    -0.7040    -1.7730 H     1 <1>   0.0800 
 32 H        5.6180    -1.3890    -0.4310 H     1 <1>   0.0800 
 33 H        3.5000     2.6320     1.0060 H     1 <1>   0.0800 
 34 H        2.3760     2.6010    -0.3030 H     1 <1>   0.0800 
 35 H       -1.7590    -3.0950    -0.6090 H     1 <1>   0.1500 
 36 H        5.0450     0.7160     0.8030 H     1 <1>   0.4500 
 37 H        4.7560     2.6080    -1.0100 H     1 <1>   0.0800 
 38 H        3.7920     1.3250    -1.6970 H     1 <1>   0.0800 
 39 H        6.7470     1.1750    -1.5360 H     1 <1>   0.0800 
 40 H        7.2310     0.2310    -0.1420 H     1 <1>   0.0800 
 41 H       -2.1890    -4.4220     2.0270 H     1 <1>   0.0800 
 42 H       -0.9660    -5.6450     2.2870 H     1 <1>   0.0800 
 43 H       -1.9730    -5.7110     0.8590 H     1 <1>   0.0800 
 44 H        6.7230     0.5470     2.5290 H     1 <1>   0.0800 
 45 H        6.0870     1.8950     3.4520 H     1 <1>   0.0800 
 46 H        7.8070     1.6110     3.3890 H     1 <1>   0.0800 
 47 H        6.2170     3.8670    -2.1530 H     1 <1>   0.0800 
 48 H        7.8710     3.2800    -2.2450 H     1 <1>   0.0800 
 49 H        7.5500     4.9370    -1.8140 H     1 <1>   0.0800 
@<TRIPOS>BOND
  1   1   2  2   
  2   2   3  am  
  3   2   4  1   
  4   3   5  1   
  5   3   6  1   
  6   4   7  1   
  7   4  25  1   
  8   4  26  1   
  9   5   8  1   
 10   5  27  1   
 11   5  28  1   
 12   6   9  1   
 13   6  29  1   
 14   6  30  1   
 15   7  10  1   
 16   7  11  2   
 17   8  12  1   
 18   8  31  1   
 19   8  32  1   
 20   9  13  1   
 21   9  33  1   
 22   9  34  1   
 23  10  14  1   
 24  11  15  1   
 25  11  35  1   
 26  12  13  1   
 27  12  16  1   
 28  12  36  1   
 29  13  37  1   
 30  13  38  1   
 31  14  15  2   
 32  15  17  1   
 33  16  18  1   
 34  16  39  1   
 35  16  40  1   
 36  17  41  1   
 37  17  42  1   
 38  17  43  1   
 39  18  19  2   
 40  18  20  1   
 41  19  21  1   
 42  19  22  1   
 43  20  23  2   
 44  20  24  1   
 45  21  23  1   
 46  22  44  1   
 47  22  45  1   
 48  22  46  1   
 49  24  47  1   
 50  24  48  1   
 51  24  49  1   
@<TRIPOS>SUBSTRUCTURE
  1 ****   3 GROUP 4 **** **** 0

# MOE 2024.06 (io_trps.svl 2023.06)
