@<TRIPOS>MOLECULE
NONAME
47 48 1 0 0 
SMALL
USER_CHARGES


@<TRIPOS>ATOM
  1 O       -0.3220     0.6870     0.9260 O.3   1 <1>  -0.3630 
  2 C       -1.0700    -0.1440     0.1560 C.ar  1 <1>   0.0830 
  3 C       -0.1470     2.0440     0.5770 C.3   1 <1>   0.1200 
  4 C       -1.1740    -1.4590     0.5750 C.ar  1 <1>  -0.1500 
  5 C       -1.7200     0.2570    -1.0090 C.ar  1 <1>  -0.1500 
  6 C        0.7570     2.7060     1.6170 C.3   1 <1>   0.2090 
  7 C       -1.9160    -2.3790    -0.1470 C.ar  1 <1>   0.0830 
  8 C       -2.4640    -0.6570    -1.7350 C.ar  1 <1>  -0.1500 
  9 N        0.9380     4.1660     1.3120 N.pl3 1 <1>  -0.8380 
 10 O       -1.9640    -3.6460     0.3370 O.3   1 <1>  -0.3630 
 11 C       -2.5640    -1.9710    -1.3110 C.ar  1 <1>  -0.1500 
 12 C        1.9690     4.6200     0.5340 C.ar  1 <1>   0.4100 
 13 C       -0.0820     5.0490     1.9520 C.3   1 <1>   0.1290 
 14 C       -2.6950    -4.6560    -0.3210 C.3   1 <1>   0.0400 
 15 N        2.5600     3.7260    -0.2610 N.ar  1 <1>  -0.6200 
 16 C        2.3910     5.9440     0.5620 C.ar  1 <1>  -0.1500 
 17 C        3.5380     4.1420    -1.0120 C.ar  1 <1>   0.7710 
 18 C        3.4260     6.3540    -0.2410 C.ar  1 <1>   0.4610 
 19 N        3.9760     5.4130    -1.0220 N.ar  1 <1>  -0.1790 
 20 N        4.1120     3.2330    -1.8060 N.pl3 1 <1>  -0.9000 
 21 N        3.9170     7.6310    -0.3120 N.pl3 1 <1>  -0.8380 
 22 C        5.3620     7.9780    -0.4980 C.3   1 <1>   0.1290 
 23 C        3.0630     8.8230    -0.0140 C.3   1 <1>   0.1290 
 24 H       -1.1130     2.5160     0.5650 H     1 <1>   0.0800 
 25 H        0.3110     2.0880    -0.3940 H     1 <1>   0.0800 
 26 H       -0.6740    -1.7730     1.4720 H     1 <1>   0.1500 
 27 H       -1.6620     1.2680    -1.3640 H     1 <1>   0.1500 
 28 H        1.7140     2.2110     1.6190 H     1 <1>   0.0800 
 29 H        0.3220     2.5920     2.5950 H     1 <1>   0.0800 
 30 H       -2.9660    -0.3450    -2.6350 H     1 <1>   0.1500 
 31 H       -3.1470    -2.6570    -1.8940 H     1 <1>   0.1500 
 32 H       -1.0330     4.5450     1.9980 H     1 <1>   0.0800 
 33 H       -0.2140     5.9530     1.3840 H     1 <1>   0.0800 
 34 H        0.2280     5.2970     2.9530 H     1 <1>   0.0800 
 35 H       -2.5880    -5.5650     0.2430 H     1 <1>   0.0800 
 36 H       -2.2940    -4.7900    -1.3090 H     1 <1>   0.0800 
 37 H       -3.7310    -4.3690    -0.3580 H     1 <1>   0.0800 
 38 H        1.9230     6.6400     1.2270 H     1 <1>   0.1500 
 39 H        4.6900     5.6910    -1.6740 H     1 <1>   0.4570 
 40 H        4.8930     3.3510    -2.4520 H     1 <1>   0.4000 
 41 H        3.7450     2.2760    -1.7610 H     1 <1>   0.4000 
 42 H        5.9880     7.1060    -0.4240 H     1 <1>   0.0800 
 43 H        5.6710     8.6720     0.2680 H     1 <1>   0.0800 
 44 H        5.5090     8.4440    -1.4580 H     1 <1>   0.0800 
 45 H        2.0170     8.5780    -0.0950 H     1 <1>   0.0800 
 46 H        3.2760     9.6140    -0.7140 H     1 <1>   0.0800 
 47 H        3.2620     9.1790     0.9830 H     1 <1>   0.0800 
@<TRIPOS>BOND
  1   1   2  1   
  2   1   3  1   
  3   2   4  ar  
  4   2   5  ar  
  5   3   6  1   
  6   3  24  1   
  7   3  25  1   
  8   4   7  ar  
  9   4  26  1   
 10   5   8  ar  
 11   5  27  1   
 12   6   9  1   
 13   6  28  1   
 14   6  29  1   
 15   7  10  1   
 16   7  11  ar  
 17   8  11  ar  
 18   8  30  1   
 19   9  12  1   
 20   9  13  1   
 21  10  14  1   
 22  11  31  1   
 23  12  15  ar  
 24  12  16  ar  
 25  13  32  1   
 26  13  33  1   
 27  13  34  1   
 28  14  35  1   
 29  14  36  1   
 30  14  37  1   
 31  15  17  ar  
 32  16  18  ar  
 33  16  38  1   
 34  17  19  ar  
 35  17  20  1   
 36  18  19  ar  
 37  18  21  1   
 38  19  39  1   
 39  20  40  1   
 40  20  41  1   
 41  21  22  1   
 42  21  23  1   
 43  22  42  1   
 44  22  43  1   
 45  22  44  1   
 46  23  45  1   
 47  23  46  1   
 48  23  47  1   
@<TRIPOS>SUBSTRUCTURE
  1 ****   3 GROUP 4 **** **** 0

# MOE 2024.06 (io_trps.svl 2023.06)
