@<TRIPOS>MOLECULE
NONAME
52 54 1 0 0 
SMALL
USER_CHARGES


@<TRIPOS>ATOM
  1 O       -2.2000     0.8130    -1.9950 O.2   1 <1>  -0.5700 
  2 C       -1.9450     0.9730    -0.8240 C.2   1 <1>   0.5690 
  3 N       -2.6370     0.3110     0.1440 N.am  1 <1>  -0.6600 
  4 C       -0.9250     2.0160    -0.4330 C.3   1 <1>   0.1570 
  5 C       -2.5530    -1.1770     0.2970 C.3   1 <1>   0.3640 
  6 C       -3.9650     0.8440     0.5490 C.3   1 <1>   0.1400 
  7 N        0.3330     1.3680    -0.0570 N.pl3 1 <1>   0.3140 
  8 C       -1.1950    -1.7460    -0.1350 C.ar  1 <1>  -0.1440 
  9 C       -3.7680    -1.8720    -0.3760 C.3   1 <1>   0.2000 
 10 C       -5.0880     0.0670    -0.1560 C.3   1 <1>   0.1200 
 11 N        0.7140     1.2500     1.2290 N.2   1 <1>  -0.7070 
 12 C        1.2490     0.8390    -0.8920 C.2   1 <1>  -0.3020 
 13 C       -0.2750    -2.1110     0.8360 C.ar  1 <1>  -0.1500 
 14 C       -0.8590    -1.9340    -1.4680 C.ar  1 <1>  -0.1500 
 15 O       -4.9640    -1.3020     0.1000 O.3   1 <1>  -0.5600 
 16 C       -3.8490    -3.3800    -0.0790 C.3   1 <1>   0.1200 
 17 C        1.8470     0.6220     1.1800 C.2   1 <1>   0.1080 
 18 C        2.2400     0.3440    -0.1230 C.2   1 <1>  -0.1500 
 19 C        0.9510    -2.6650     0.5070 C.ar  1 <1>   0.0830 
 20 C        0.3670    -2.4690    -1.8190 C.ar  1 <1>  -0.1500 
 21 O       -2.8910    -4.0980    -0.7890 O.3   1 <1>  -0.6800 
 22 C        2.6160     0.2340     2.4190 C.3   1 <1>  -0.0590 
 23 O        1.7370    -2.9970     1.5710 O.3   1 <1>  -0.3630 
 24 C        1.2940    -2.8310    -0.8450 C.ar  1 <1>   0.0830 
 25 C        2.6050    -4.1060     1.5130 C.3   1 <1>   0.0400 
 26 O        2.5240    -3.3150    -1.1870 O.3   1 <1>  -0.3630 
 27 C        3.0470    -3.1400    -2.4850 C.3   1 <1>   0.0400 
 28 H       -1.2840     2.5800     0.4050 H     1 <1>   0.0800 
 29 H       -0.7420     2.6770    -1.2570 H     1 <1>   0.0800 
 30 H       -2.6440    -1.3800     1.3500 H     1 <1>   0.0800 
 31 H       -4.0780     0.7560     1.6160 H     1 <1>   0.0800 
 32 H       -4.0370     1.8870     0.2890 H     1 <1>   0.0800 
 33 H       -3.7410    -1.7270    -1.4420 H     1 <1>   0.0800 
 34 H       -5.0520     0.2270    -1.2200 H     1 <1>   0.0800 
 35 H       -6.0490     0.3840     0.2110 H     1 <1>   0.0800 
 36 H        1.1380     0.8310    -1.9600 H     1 <1>   0.1500 
 37 H       -0.4960    -1.9630     1.8780 H     1 <1>   0.1500 
 38 H       -1.5490    -1.6610    -2.2490 H     1 <1>   0.1500 
 39 H       -4.8110    -3.7570    -0.3790 H     1 <1>   0.0800 
 40 H       -3.7040    -3.5710     0.9700 H     1 <1>   0.0800 
 41 H        3.1370    -0.1690    -0.4190 H     1 <1>   0.1500 
 42 H        0.5780    -2.5930    -2.8630 H     1 <1>   0.1500 
 43 H       -1.9870    -3.7510    -0.6150 H     1 <1>   0.4000 
 44 H        3.5130    -0.2920     2.1530 H     1 <1>   0.0800 
 45 H        2.0050    -0.4050     3.0280 H     1 <1>   0.0800 
 46 H        2.8690     1.1160     2.9770 H     1 <1>   0.0800 
 47 H        2.8270    -4.4100     2.5190 H     1 <1>   0.0800 
 48 H        3.5100    -3.8120     1.0130 H     1 <1>   0.0800 
 49 H        2.1190    -4.9070     0.9830 H     1 <1>   0.0800 
 50 H        4.0760    -3.4520    -2.4740 H     1 <1>   0.0800 
 51 H        2.9830    -2.0990    -2.7490 H     1 <1>   0.0800 
 52 H        2.4890    -3.7490    -3.1730 H     1 <1>   0.0800 
@<TRIPOS>BOND
  1   1   2  2   
  2   2   3  am  
  3   2   4  1   
  4   3   5  1   
  5   3   6  1   
  6   4   7  1   
  7   4  28  1   
  8   4  29  1   
  9   5   8  1   
 10   5   9  1   
 11   5  30  1   
 12   6  10  1   
 13   6  31  1   
 14   6  32  1   
 15   7  11  1   
 16   7  12  1   
 17   8  13  ar  
 18   8  14  ar  
 19   9  15  1   
 20   9  16  1   
 21   9  33  1   
 22  10  15  1   
 23  10  34  1   
 24  10  35  1   
 25  11  17  2   
 26  12  18  2   
 27  12  36  1   
 28  13  19  ar  
 29  13  37  1   
 30  14  20  ar  
 31  14  38  1   
 32  16  21  1   
 33  16  39  1   
 34  16  40  1   
 35  17  18  1   
 36  17  22  1   
 37  18  41  1   
 38  19  23  1   
 39  19  24  ar  
 40  20  24  ar  
 41  20  42  1   
 42  21  43  1   
 43  22  44  1   
 44  22  45  1   
 45  22  46  1   
 46  23  25  1   
 47  24  26  1   
 48  25  47  1   
 49  25  48  1   
 50  25  49  1   
 51  26  27  1   
 52  27  50  1   
 53  27  51  1   
 54  27  52  1   
@<TRIPOS>SUBSTRUCTURE
  1 ****   8 GROUP 4 **** **** 0

# MOE 2024.06 (io_trps.svl 2023.06)
