@<TRIPOS>MOLECULE
NONAME
50 52 1 0 0 
SMALL
USER_CHARGES


@<TRIPOS>ATOM
  1 O       -1.5850    -0.5280    -2.6440 O.2   1 <1>  -0.5700 
  2 C       -2.0630    -0.8770    -1.5900 C.2   1 <1>   0.5690 
  3 N       -1.9780    -0.1100    -0.4650 N.am  1 <1>  -0.6600 
  4 C       -2.7690    -2.2130    -1.5490 C.3   1 <1>  -0.0190 
  5 C       -2.6350    -0.5120     0.8120 C.3   1 <1>   0.2200 
  6 C       -1.2690     1.2010    -0.4550 C.3   1 <1>   0.0600 
  7 C       -2.0470    -3.1790    -0.5900 C.3   1 <1>   0.1200 
  8 C       -4.2910    -2.0300    -1.3770 C.3   1 <1>   0.1400 
  9 C       -2.0100    -1.8090     1.3880 C.3   1 <1>   0.1200 
 10 C       -4.1750    -0.5120     0.6620 C.3   1 <1>   0.1400 
 11 O       -2.3850    -3.0040     0.7520 O.3   1 <1>  -0.5600 
 12 N       -4.7420    -1.7440     0.0230 N.am  1 <1>  -0.6600 
 13 C       -5.4880    -2.6140     0.7840 C.2   1 <1>   0.5690 
 14 O       -5.9420    -2.2850     1.8560 O.2   1 <1>  -0.5700 
 15 C       -5.7600    -4.0290     0.2940 C.3   1 <1>  -0.0990 
 16 C       -6.2810    -4.9770     1.3810 C.3   1 <1>  -0.0170 
 17 C       -6.4420    -6.3770     0.8110 C.ar  1 <1>  -0.1440 
 18 C       -7.6500    -6.7740     0.2600 C.ar  1 <1>  -0.1500 
 19 C       -5.3770    -7.2620     0.8280 C.ar  1 <1>  -0.1500 
 20 C       -7.7960    -8.0450    -0.2730 C.ar  1 <1>  -0.1440 
 21 C       -5.5110    -8.5350     0.2990 C.ar  1 <1>  -0.1440 
 22 C       -6.7220    -8.9190    -0.2520 C.ar  1 <1>  -0.1500 
 23 C       -9.1200    -8.4730    -0.8770 C.3   1 <1>  -0.0970 
 24 C       -4.3420    -9.5030     0.3190 C.3   1 <1>  -0.0970 
 25 H       -2.6360    -2.6300    -2.5310 H     1 <1>   0.0800 
 26 H       -2.4130     0.2610     1.5270 H     1 <1>   0.0800 
 27 H       -0.4930     1.1910     0.2900 H     1 <1>   0.0800 
 28 H       -1.9650     1.9910    -0.2350 H     1 <1>   0.0800 
 29 H       -0.8180     1.4010    -1.4120 H     1 <1>   0.0800 
 30 H       -0.9790    -3.0840    -0.6870 H     1 <1>   0.0800 
 31 H       -2.3180    -4.1890    -0.8400 H     1 <1>   0.0800 
 32 H       -4.7800    -2.9090    -1.7500 H     1 <1>   0.0800 
 33 H       -4.6110    -1.2160    -2.0060 H     1 <1>   0.0800 
 34 H       -2.3230    -1.9090     2.4120 H     1 <1>   0.0800 
 35 H       -0.9360    -1.7410     1.3740 H     1 <1>   0.0800 
 36 H       -4.4770     0.3500     0.0940 H     1 <1>   0.0800 
 37 H       -4.5920    -0.3940     1.6460 H     1 <1>   0.0800 
 38 H       -6.4750    -3.9840    -0.5050 H     1 <1>   0.0800 
 39 H       -4.8430    -4.4380    -0.0870 H     1 <1>   0.0800 
 40 H       -7.2240    -4.6220     1.7580 H     1 <1>   0.0800 
 41 H       -5.5880    -4.9980     2.2050 H     1 <1>   0.0800 
 42 H       -8.4790    -6.0900     0.2440 H     1 <1>   0.1500 
 43 H       -4.4380    -6.9550     1.2550 H     1 <1>   0.1500 
 44 H       -6.8290    -9.9050    -0.6670 H     1 <1>   0.1500 
 45 H       -9.2660    -9.5310    -0.7500 H     1 <1>   0.0800 
 46 H       -9.1300    -8.2440    -1.9270 H     1 <1>   0.0800 
 47 H       -9.9350    -7.9590    -0.4000 H     1 <1>   0.0800 
 48 H       -4.6910   -10.5040     0.4990 H     1 <1>   0.0800 
 49 H       -3.6470    -9.2420     1.0970 H     1 <1>   0.0800 
 50 H       -3.8320    -9.4760    -0.6260 H     1 <1>   0.0800 
@<TRIPOS>BOND
  1   1   2  2   
  2   2   3  am  
  3   2   4  1   
  4   3   5  1   
  5   3   6  1   
  6   4   7  1   
  7   4   8  1   
  8   4  25  1   
  9   5   9  1   
 10   5  10  1   
 11   5  26  1   
 12   6  27  1   
 13   6  28  1   
 14   6  29  1   
 15   7  11  1   
 16   7  30  1   
 17   7  31  1   
 18   8  12  1   
 19   8  32  1   
 20   8  33  1   
 21   9  11  1   
 22   9  34  1   
 23   9  35  1   
 24  10  12  1   
 25  10  36  1   
 26  10  37  1   
 27  12  13  am  
 28  13  14  2   
 29  13  15  1   
 30  15  16  1   
 31  15  38  1   
 32  15  39  1   
 33  16  17  1   
 34  16  40  1   
 35  16  41  1   
 36  17  18  ar  
 37  17  19  ar  
 38  18  20  ar  
 39  18  42  1   
 40  19  21  ar  
 41  19  43  1   
 42  20  22  ar  
 43  20  23  1   
 44  21  22  ar  
 45  21  24  1   
 46  22  44  1   
 47  23  45  1   
 48  23  46  1   
 49  23  47  1   
 50  24  48  1   
 51  24  49  1   
 52  24  50  1   
@<TRIPOS>SUBSTRUCTURE
  1 ****  15 GROUP 4 **** **** 0

# MOE 2024.06 (io_trps.svl 2023.06)
