@<TRIPOS>MOLECULE
NONAME
40 42 1 0 0 
SMALL
USER_CHARGES


@<TRIPOS>ATOM
  1 CL      -0.4190    -0.0160    -0.2260 Cl    1 <1>  -0.1770 
  2 C       -1.9250    -0.8910    -0.3720 C.ar  1 <1>   0.1770 
  3 C       -2.1570    -2.0100     0.4080 C.ar  1 <1>   0.1600 
  4 C       -2.8750    -0.4580    -1.2700 C.ar  1 <1>  -0.1500 
  5 N       -3.2670    -2.7380     0.3710 N.ar  1 <1>  -0.6200 
  6 C       -4.0220    -1.2120    -1.3100 C.ar  1 <1>   0.1900 
  7 C       -4.2130    -2.3420    -0.4860 C.ar  1 <1>   0.4100 
  8 F       -4.9450    -0.8380    -2.1670 F     1 <1>  -0.1900 
  9 N       -5.3770    -3.1140    -0.5150 N.pl3 1 <1>  -0.8380 
 10 C       -6.7180    -2.4780    -0.5600 C.3   1 <1>   0.2090 
 11 C       -5.4700    -4.4340     0.1620 C.3   1 <1>   0.2090 
 12 C       -7.5950    -3.2850     0.4070 C.3   1 <1>  -0.0800 
 13 C       -6.9600    -4.6850     0.4080 C.3   1 <1>  -0.0800 
 14 C       -9.1310    -3.2580     0.1340 C.3   1 <1>   0.2800 
 15 C       -7.6040    -5.5780    -0.6640 C.3   1 <1>  -0.1600 
 16 O       -9.3810    -2.9890    -1.1980 O.3   1 <1>  -0.6800 
 17 C       -9.7480    -4.6400     0.4200 C.3   1 <1>  -0.1600 
 18 C       -9.8610    -2.1730     0.9560 C.3   1 <1>  -0.1600 
 19 C       -9.1080    -5.7820    -0.4010 C.3   1 <1>  -0.1600 
 20 C       -9.4040    -0.7260     0.7000 C.3   1 <1>  -0.2400 
 21 H       -1.3910    -2.3200     1.0960 H     1 <1>   0.1500 
 22 H       -2.7260     0.4030    -1.8950 H     1 <1>   0.1500 
 23 H       -6.6710    -1.4440    -0.2690 H     1 <1>   0.0800 
 24 H       -7.0760    -2.5430    -1.5730 H     1 <1>   0.0800 
 25 H       -5.0300    -5.2000    -0.4520 H     1 <1>   0.0800 
 26 H       -4.9560    -4.4000     1.1070 H     1 <1>   0.0800 
 27 H       -7.4230    -2.8840     1.3890 H     1 <1>   0.0800 
 28 H       -7.0820    -5.1580     1.3670 H     1 <1>   0.0800 
 29 H       -7.4770    -5.1080    -1.6250 H     1 <1>   0.0800 
 30 H       -7.1110    -6.5340    -0.7030 H     1 <1>   0.0800 
 31 H      -10.3380    -3.0550    -1.3660 H     1 <1>   0.4000 
 32 H       -9.6030    -4.8560     1.4640 H     1 <1>   0.0800 
 33 H      -10.8100    -4.6230     0.2510 H     1 <1>   0.0800 
 34 H      -10.9170    -2.2380     0.7590 H     1 <1>   0.0800 
 35 H       -9.7290    -2.3870     2.0020 H     1 <1>   0.0800 
 36 H       -9.2600    -6.7090     0.1240 H     1 <1>   0.0800 
 37 H       -9.6090    -5.8640    -1.3500 H     1 <1>   0.0800 
 38 H       -9.4760    -0.4820    -0.3460 H     1 <1>   0.0800 
 39 H       -8.3880    -0.5820     1.0200 H     1 <1>   0.0800 
 40 H      -10.0270    -0.0440     1.2500 H     1 <1>   0.0800 
@<TRIPOS>BOND
  1   1   2  1   
  2   2   3  ar  
  3   2   4  ar  
  4   3   5  ar  
  5   3  21  1   
  6   4   6  ar  
  7   4  22  1   
  8   5   7  ar  
  9   6   7  ar  
 10   6   8  1   
 11   7   9  1   
 12   9  10  1   
 13   9  11  1   
 14  10  12  1   
 15  10  23  1   
 16  10  24  1   
 17  11  13  1   
 18  11  25  1   
 19  11  26  1   
 20  12  13  1   
 21  12  14  1   
 22  12  27  1   
 23  13  15  1   
 24  13  28  1   
 25  14  16  1   
 26  14  17  1   
 27  14  18  1   
 28  15  19  1   
 29  15  29  1   
 30  15  30  1   
 31  16  31  1   
 32  17  19  1   
 33  17  32  1   
 34  17  33  1   
 35  18  20  1   
 36  18  34  1   
 37  18  35  1   
 38  19  36  1   
 39  19  37  1   
 40  20  38  1   
 41  20  39  1   
 42  20  40  1   
@<TRIPOS>SUBSTRUCTURE
  1 ****  10 GROUP 4 **** **** 0

# MOE 2024.06 (io_trps.svl 2023.06)
