@<TRIPOS>MOLECULE
NONAME
44 45 1 0 0 
SMALL
USER_CHARGES


@<TRIPOS>ATOM
  1 S        0.6410     0.5090    -1.5150 S.o2  1 <1>   1.3330 
  2 O        1.6990    -0.1000    -2.2790 O.2   1 <1>  -0.6500 
  3 O       -0.2550     1.4730    -2.1080 O.2   1 <1>  -0.6500 
  4 N        1.4320     1.2460    -0.2390 N.am  1 <1>  -0.9140 
  5 C       -0.3150    -0.7520    -0.7020 C.3   1 <1>  -0.1350 
  6 C        1.7570     2.6460    -0.5130 C.3   1 <1>   0.1960 
  7 C        2.5140     3.2720     0.6620 C.3   1 <1>   0.2090 
  8 N        2.8380     4.6950     0.3670 N.pl3 1 <1>  -0.8690 
  9 C        3.8790     5.3590     0.9730 C.ar  1 <1>   0.4100 
 10 N        4.7170     4.6480     1.7150 N.ar  1 <1>  -0.6200 
 11 C        4.0010     6.7270     0.7850 C.ar  1 <1>  -0.1500 
 12 C        5.6930     5.3250     2.2920 C.ar  1 <1>   0.1600 
 13 C        5.0310     7.4360     1.3720 C.ar  1 <1>   0.0860 
 14 C        5.8910     6.6840     2.1590 C.ar  1 <1>  -0.1500 
 15 C        5.1880     8.8630     1.1780 C.2   1 <1>   0.5440 
 16 O        4.2610     9.5960     1.4640 O.2   1 <1>  -0.5700 
 17 N        6.3530     9.4060     0.6750 N.am  1 <1>  -0.6600 
 18 C        6.5790    10.8790     0.6460 C.3   1 <1>   0.1400 
 19 C        7.3940     8.6170    -0.0430 C.3   1 <1>   0.1400 
 20 C        6.6580    11.3630    -0.8050 C.3   1 <1>  -0.1600 
 21 C        7.4840     9.0840    -1.5000 C.3   1 <1>  -0.1600 
 22 C        7.7260    10.5970    -1.5990 C.3   1 <1>  -0.1600 
 23 H        2.3190     0.7420    -0.1980 H     1 <1>   0.4200 
 24 H       -0.8630    -1.3210    -1.4280 H     1 <1>   0.0800 
 25 H       -1.0100    -0.3030    -0.0200 H     1 <1>   0.0800 
 26 H        0.3290    -1.4140    -0.1580 H     1 <1>   0.0800 
 27 H        0.8470     3.2000    -0.6710 H     1 <1>   0.0800 
 28 H        2.3620     2.7110    -1.4020 H     1 <1>   0.0800 
 29 H        3.4220     2.7180     0.8250 H     1 <1>   0.0800 
 30 H        1.9120     3.2250     1.5520 H     1 <1>   0.0800 
 31 H        2.0220     5.2750     0.1580 H     1 <1>   0.4000 
 32 H        3.2880     7.2450     0.1730 H     1 <1>   0.1500 
 33 H        6.3740     4.7600     2.9070 H     1 <1>   0.1500 
 34 H        6.7070     7.1670     2.6640 H     1 <1>   0.1500 
 35 H        7.5010    11.1000     1.1560 H     1 <1>   0.0800 
 36 H        5.7870    11.3990     1.1580 H     1 <1>   0.0800 
 37 H        7.1660     7.5660    -0.0280 H     1 <1>   0.0800 
 38 H        8.3420     8.7630     0.4460 H     1 <1>   0.0800 
 39 H        6.8810    12.4150    -0.8170 H     1 <1>   0.0800 
 40 H        5.6940    11.2270    -1.2640 H     1 <1>   0.0800 
 41 H        6.5660     8.8320    -2.0010 H     1 <1>   0.0800 
 42 H        8.2820     8.5580    -1.9940 H     1 <1>   0.0800 
 43 H        8.7000    10.8310    -1.2050 H     1 <1>   0.0800 
 44 H        7.7010    10.9030    -2.6310 H     1 <1>   0.0800 
@<TRIPOS>BOND
  1   1   2  2   
  2   1   3  2   
  3   1   4  am  
  4   1   5  1   
  5   4   6  1   
  6   4  23  1   
  7   5  24  1   
  8   5  25  1   
  9   5  26  1   
 10   6   7  1   
 11   6  27  1   
 12   6  28  1   
 13   7   8  1   
 14   7  29  1   
 15   7  30  1   
 16   8   9  1   
 17   8  31  1   
 18   9  10  ar  
 19   9  11  ar  
 20  10  12  ar  
 21  11  13  ar  
 22  11  32  1   
 23  12  14  ar  
 24  12  33  1   
 25  13  14  ar  
 26  13  15  1   
 27  14  34  1   
 28  15  16  2   
 29  15  17  am  
 30  17  18  1   
 31  17  19  1   
 32  18  20  1   
 33  18  35  1   
 34  18  36  1   
 35  19  21  1   
 36  19  37  1   
 37  19  38  1   
 38  20  22  1   
 39  20  39  1   
 40  20  40  1   
 41  21  22  1   
 42  21  41  1   
 43  21  42  1   
 44  22  43  1   
 45  22  44  1   
@<TRIPOS>SUBSTRUCTURE
  1 ****   9 GROUP 4 **** **** 0

# MOE 2024.06 (io_trps.svl 2023.06)
