@<TRIPOS>MOLECULE
NONAME
51 54 1 0 0 
SMALL
USER_CHARGES


@<TRIPOS>ATOM
  1 O       -0.4430     0.6480    -1.4440 O.2   1 <1>  -0.5700 
  2 C       -1.0200     1.3790    -0.6500 C.2   1 <1>   0.7160 
  3 N       -2.2020     0.9010    -0.0930 N.am  1 <1>  -0.6600 
  4 C       -0.4370     2.6860    -0.3290 C.2   1 <1>   0.2030 
  5 C       -2.8920    -0.3100    -0.6390 C.3   1 <1>   0.1400 
  6 C       -2.8350     1.5240     1.1030 C.3   1 <1>   0.1400 
  7 N       -1.0920     3.7960    -0.0080 N.2   1 <1>  -0.7070 
  8 C        0.9440     2.9510    -0.3330 C.2   1 <1>  -0.1810 
  9 C       -4.3450    -0.0250    -1.0490 C.3   1 <1>   0.1400 
 10 C       -4.0270     2.3830     0.6700 C.3   1 <1>  -0.1600 
 11 N       -0.1530     4.7350     0.1790 N.pl3 1 <1>   0.3000 
 12 C        1.0840     4.2470    -0.0140 C.2   1 <1>  -0.3320 
 13 C        2.1180     2.0340    -0.6310 C.3   1 <1>   0.0210 
 14 N       -5.2210     0.2060     0.1420 N.am  1 <1>  -0.6600 
 15 C       -5.3610     1.6270     0.5820 C.3   1 <1>   0.1400 
 16 C        2.3970     4.9960     0.1060 C.3   1 <1>   0.0200 
 17 C        3.4340     2.6720    -0.1460 C.3   1 <1>  -0.1600 
 18 C       -5.9470    -0.7940     0.7550 C.2   1 <1>   0.5690 
 19 C        3.5270     4.1640    -0.5280 C.3   1 <1>  -0.1600 
 20 O       -6.7300    -0.5310     1.6440 O.2   1 <1>  -0.5700 
 21 C       -5.7640    -2.2810     0.3460 C.3   1 <1>   0.2610 
 22 O       -6.3420    -2.5440    -0.9040 O.3   1 <1>  -0.5600 
 23 C       -6.4380    -3.3080     1.2590 C.3   1 <1>  -0.1600 
 24 C       -7.6920    -2.8420    -0.7410 C.3   1 <1>   0.1200 
 25 C       -7.8150    -3.4900     0.6360 C.3   1 <1>  -0.1600 
 26 H       -2.8670    -1.0930     0.0960 H     1 <1>   0.0800 
 27 H       -2.3730    -0.6700    -1.5090 H     1 <1>   0.0800 
 28 H       -2.1170     2.1370     1.6180 H     1 <1>   0.0800 
 29 H       -3.1520     0.7600     1.7930 H     1 <1>   0.0800 
 30 H       -4.7150    -0.8560    -1.6200 H     1 <1>   0.0800 
 31 H       -4.3720     0.8330    -1.6980 H     1 <1>   0.0800 
 32 H       -3.8080     2.8560    -0.2710 H     1 <1>   0.0800 
 33 H       -4.1520     3.1750     1.3850 H     1 <1>   0.0800 
 34 H       -0.3820     5.7030     0.4320 H     1 <1>   0.2700 
 35 H        2.1620     1.8700    -1.6940 H     1 <1>   0.0800 
 36 H        1.9770     1.0820    -0.1500 H     1 <1>   0.0800 
 37 H       -6.0220     2.1400    -0.0940 H     1 <1>   0.0800 
 38 H       -5.8180     1.6530     1.5570 H     1 <1>   0.0800 
 39 H        2.6110     5.1620     1.1480 H     1 <1>   0.0800 
 40 H        2.3330     5.9510    -0.3870 H     1 <1>   0.0800 
 41 H        4.2660     2.1340    -0.5660 H     1 <1>   0.0800 
 42 H        3.4890     2.5830     0.9250 H     1 <1>   0.0800 
 43 H        4.4790     4.5620    -0.2240 H     1 <1>   0.0800 
 44 H        3.4600     4.2490    -1.5990 H     1 <1>   0.0800 
 45 H       -4.7140    -2.4920     0.2760 H     1 <1>   0.0800 
 46 H       -6.4840    -2.9850     2.2840 H     1 <1>   0.0800 
 47 H       -5.8880    -4.2300     1.2100 H     1 <1>   0.0800 
 48 H       -8.0010    -3.4990    -1.5350 H     1 <1>   0.0800 
 49 H       -8.2460    -1.9190    -0.7850 H     1 <1>   0.0800 
 50 H       -8.5700    -2.9800     1.2090 H     1 <1>   0.0800 
 51 H       -8.0770    -4.5300     0.5530 H     1 <1>   0.0800 
@<TRIPOS>BOND
  1   1   2  2   
  2   2   3  am  
  3   2   4  1   
  4   3   5  1   
  5   3   6  1   
  6   4   7  2   
  7   4   8  1   
  8   5   9  1   
  9   5  26  1   
 10   5  27  1   
 11   6  10  1   
 12   6  28  1   
 13   6  29  1   
 14   7  11  1   
 15   8  12  2   
 16   8  13  1   
 17   9  14  1   
 18   9  30  1   
 19   9  31  1   
 20  10  15  1   
 21  10  32  1   
 22  10  33  1   
 23  11  12  1   
 24  11  34  1   
 25  12  16  1   
 26  13  17  1   
 27  13  35  1   
 28  13  36  1   
 29  14  15  1   
 30  14  18  am  
 31  15  37  1   
 32  15  38  1   
 33  16  19  1   
 34  16  39  1   
 35  16  40  1   
 36  17  19  1   
 37  17  41  1   
 38  17  42  1   
 39  18  20  2   
 40  18  21  1   
 41  19  43  1   
 42  19  44  1   
 43  21  22  1   
 44  21  23  1   
 45  21  45  1   
 46  22  24  1   
 47  23  25  1   
 48  23  46  1   
 49  23  47  1   
 50  24  25  1   
 51  24  48  1   
 52  24  49  1   
 53  25  50  1   
 54  25  51  1   
@<TRIPOS>SUBSTRUCTURE
  1 ****   3 GROUP 4 **** **** 0

# MOE 2024.06 (io_trps.svl 2023.06)
