@<TRIPOS>MOLECULE
NONAME
42 45 1 0 0 
SMALL
USER_CHARGES


@<TRIPOS>ATOM
  1 O       -0.9880     0.3340     2.2920 O.2   1 <1>  -0.5700 
  2 C       -1.8890     0.8760     1.6610 C.2   1 <1>   0.5440 
  3 N       -3.0770     0.1600     1.5610 N.am  1 <1>  -0.6600 
  4 C       -1.6770     2.1820     1.0740 C.ar  1 <1>   0.3960 
  5 C       -3.0720    -1.3270     1.4400 C.3   1 <1>   0.1400 
  6 C       -4.3870     0.7540     1.1520 C.3   1 <1>   0.1400 
  7 N       -2.2760     2.5170    -0.1030 N.ar  1 <1>  -0.6200 
  8 C       -0.8390     3.0910     1.7360 C.ar  1 <1>   0.1600 
  9 C       -3.5580    -1.7510     0.0390 C.3   1 <1>   0.3440 
 10 C       -4.7950     0.2420    -0.2470 C.3   1 <1>   0.2950 
 11 C       -2.0060     3.7340    -0.4900 C.ar  1 <1>   0.1600 
 12 N       -0.5680     4.3150     1.3580 N.ar  1 <1>  -0.6200 
 13 O       -4.8010    -1.1600    -0.2500 O.3   1 <1>  -0.5600 
 14 C       -3.6800    -3.2690    -0.0500 C.ar  1 <1>  -0.1440 
 15 C       -6.1900     0.6920    -0.7200 C.3   1 <1>  -0.1950 
 16 C       -1.1810     4.6470     0.2080 C.ar  1 <1>   0.1390 
 17 C       -4.8470    -3.9250     0.3160 C.ar  1 <1>  -0.1500 
 18 C       -2.5980    -4.0180    -0.4920 C.ar  1 <1>  -0.1500 
 19 C       -6.7810     2.0290    -0.3900 C.3   1 <1>  -0.2000 
 20 C       -7.3920     0.7730     0.1700 C.3   1 <1>  -0.2000 
 21 O       -1.0070     5.7920    -0.2370 O.3   1 <1>  -0.8290 
 22 C       -4.9330    -5.3050     0.2430 C.ar  1 <1>  -0.1500 
 23 C       -2.6810    -5.3980    -0.5660 C.ar  1 <1>  -0.1500 
 24 C       -3.8490    -6.0430    -0.1980 C.ar  1 <1>  -0.1500 
 25 H       -2.0830    -1.7180     1.6020 H     1 <1>   0.0800 
 26 H       -3.7210    -1.7500     2.1870 H     1 <1>   0.0800 
 27 H       -5.1330     0.4650     1.8690 H     1 <1>   0.0800 
 28 H       -4.3350     1.8270     1.1550 H     1 <1>   0.0800 
 29 H       -0.3750     2.7610     2.6460 H     1 <1>   0.1500 
 30 H       -2.8540    -1.4090    -0.7000 H     1 <1>   0.0800 
 31 H       -4.0680     0.5780    -0.9680 H     1 <1>   0.0800 
 32 H       -2.4260     4.1070    -1.4040 H     1 <1>   0.1500 
 33 H       -6.3620     0.3450    -1.7240 H     1 <1>   0.1000 
 34 H       -5.6970    -3.3590     0.6570 H     1 <1>   0.1500 
 35 H       -1.6830    -3.5320    -0.7810 H     1 <1>   0.1500 
 36 H       -6.2720     2.6970     0.2820 H     1 <1>   0.1000 
 37 H       -7.3070     2.5590    -1.1650 H     1 <1>   0.1000 
 38 H       -8.3340     0.4300    -0.2220 H     1 <1>   0.1000 
 39 H       -7.2940     0.5710     1.2210 H     1 <1>   0.1000 
 40 H       -5.8430    -5.8010     0.5280 H     1 <1>   0.1500 
 41 H       -1.8380    -5.9700    -0.9110 H     1 <1>   0.1500 
 42 H       -3.9150    -7.1150    -0.2550 H     1 <1>   0.1500 
@<TRIPOS>BOND
  1   1   2  2   
  2   2   3  am  
  3   2   4  1   
  4   3   5  1   
  5   3   6  1   
  6   4   7  ar  
  7   4   8  ar  
  8   5   9  1   
  9   5  25  1   
 10   5  26  1   
 11   6  10  1   
 12   6  27  1   
 13   6  28  1   
 14   7  11  ar  
 15   8  12  ar  
 16   8  29  1   
 17   9  13  1   
 18   9  14  1   
 19   9  30  1   
 20  10  13  1   
 21  10  15  1   
 22  10  31  1   
 23  11  16  ar  
 24  11  32  1   
 25  12  16  ar  
 26  14  17  ar  
 27  14  18  ar  
 28  15  19  1   
 29  15  20  1   
 30  15  33  1   
 31  16  21  1   
 32  17  22  ar  
 33  17  34  1   
 34  18  23  ar  
 35  18  35  1   
 36  19  20  1   
 37  19  36  1   
 38  19  37  1   
 39  20  38  1   
 40  20  39  1   
 41  22  24  ar  
 42  22  40  1   
 43  23  24  ar  
 44  23  41  1   
 45  24  42  1   
@<TRIPOS>SUBSTRUCTURE
  1 ****   3 GROUP 4 **** **** 0

# MOE 2024.06 (io_trps.svl 2023.06)
