@<TRIPOS>MOLECULE
NONAME
45 48 1 0 0 
SMALL
USER_CHARGES


@<TRIPOS>ATOM
  1 O        0.4670    -0.0720     0.2140 O.3   1 <1>  -0.5600 
  2 C        1.7170    -0.7060     0.0370 C.3   1 <1>   0.4240 
  3 C       -0.4620    -0.6860     1.0440 C.3   1 <1>   0.1200 
  4 C        1.5600    -2.2520    -0.0710 C.ar  1 <1>  -0.1440 
  5 C        2.2570    -0.0980    -1.2660 C.3   1 <1>  -0.1600 
  6 C        2.6070    -0.2840     1.2190 C.3   1 <1>  -0.1600 
  7 C       -0.9110    -1.9740     0.3720 C.3   1 <1>  -0.0160 
  8 C        2.6500    -3.0990    -0.3130 C.ar  1 <1>   0.0820 
  9 C        0.3000    -2.8340     0.0760 C.ar  1 <1>  -0.1440 
 10 C        2.4280     1.4190    -1.1660 C.3   1 <1>   0.2090 
 11 C        2.7520     1.2350     1.3100 C.3   1 <1>   0.2090 
 12 O        3.8900    -2.5590    -0.4320 O.3   1 <1>  -0.3630 
 13 C        2.4610    -4.4760    -0.4200 C.ar  1 <1>  -0.1500 
 14 C        0.1240    -4.2030    -0.0350 C.ar  1 <1>  -0.1500 
 15 N        3.2640     1.7710     0.0180 N.pl3 1 <1>  -0.8380 
 16 C        5.0040    -3.2930    -0.8890 C.3   1 <1>   0.0400 
 17 C        1.2030    -5.0250    -0.2850 C.ar  1 <1>  -0.1500 
 18 C        4.6040     2.1170    -0.1330 C.ar  1 <1>   0.4100 
 19 N        5.2800     1.3580    -0.9930 N.ar  1 <1>  -0.6200 
 20 C        5.2070     3.1920     0.5690 C.ar  1 <1>   0.3830 
 21 C        6.5470     1.6950    -1.1040 C.ar  1 <1>   0.1600 
 22 N        6.4980     3.5140     0.4450 N.ar  1 <1>  -0.6200 
 23 C        4.3980     3.9820     1.4540 C.1   1 <1>   0.4840 
 24 C        7.1390     2.7360    -0.4080 C.ar  1 <1>   0.1600 
 25 N        3.7560     4.5920     2.1790 N.1   1 <1>  -0.5570 
 26 H       -1.2920    -0.0130     1.1660 H     1 <1>   0.0800 
 27 H       -0.0150    -0.8790     2.0030 H     1 <1>   0.0800 
 28 H        1.5880    -0.3370    -2.0710 H     1 <1>   0.0800 
 29 H        3.2130    -0.5120    -1.5140 H     1 <1>   0.0800 
 30 H        3.5910    -0.6930     1.1050 H     1 <1>   0.0800 
 31 H        2.2110    -0.6730     2.1370 H     1 <1>   0.0800 
 32 H       -1.4260    -1.7420    -0.5430 H     1 <1>   0.0800 
 33 H       -1.5900    -2.4930     1.0230 H     1 <1>   0.0800 
 34 H        1.4650     1.8910    -1.0660 H     1 <1>   0.0800 
 35 H        2.8890     1.7920    -2.0650 H     1 <1>   0.0800 
 36 H        3.4280     1.4770     2.1110 H     1 <1>   0.0800 
 37 H        1.7990     1.6880     1.5270 H     1 <1>   0.0800 
 38 H        3.2810    -5.1410    -0.6040 H     1 <1>   0.1500 
 39 H       -0.8550    -4.6350     0.0730 H     1 <1>   0.1500 
 40 H        5.8300    -2.6120    -0.9900 H     1 <1>   0.0800 
 41 H        4.7690    -3.7270    -1.8440 H     1 <1>   0.0800 
 42 H        5.2430    -4.0520    -0.1650 H     1 <1>   0.0800 
 43 H        1.0630    -6.0880    -0.3720 H     1 <1>   0.1500 
 44 H        7.1500     1.1160    -1.7820 H     1 <1>   0.1500 
 45 H        8.1860     2.9340    -0.5630 H     1 <1>   0.1500 
@<TRIPOS>BOND
  1   1   2  1   
  2   1   3  1   
  3   2   4  1   
  4   2   5  1   
  5   2   6  1   
  6   3   7  1   
  7   3  26  1   
  8   3  27  1   
  9   4   8  ar  
 10   4   9  ar  
 11   5  10  1   
 12   5  28  1   
 13   5  29  1   
 14   6  11  1   
 15   6  30  1   
 16   6  31  1   
 17   7   9  1   
 18   7  32  1   
 19   7  33  1   
 20   8  12  1   
 21   8  13  ar  
 22   9  14  ar  
 23  10  15  1   
 24  10  34  1   
 25  10  35  1   
 26  11  15  1   
 27  11  36  1   
 28  11  37  1   
 29  12  16  1   
 30  13  17  ar  
 31  13  38  1   
 32  14  17  ar  
 33  14  39  1   
 34  15  18  1   
 35  16  40  1   
 36  16  41  1   
 37  16  42  1   
 38  17  43  1   
 39  18  19  ar  
 40  18  20  ar  
 41  19  21  ar  
 42  20  22  ar  
 43  20  23  1   
 44  21  24  ar  
 45  21  44  1   
 46  22  24  ar  
 47  23  25  3   
 48  24  45  1   
@<TRIPOS>SUBSTRUCTURE
  1 ****   6 GROUP 4 **** **** 0

# MOE 2024.06 (io_trps.svl 2023.06)
