@<TRIPOS>MOLECULE
NONAME
47 49 1 0 0 
SMALL
USER_CHARGES


@<TRIPOS>ATOM
  1 O        0.3790    -0.4700    -1.0350 O.2   1 <1>  -0.5700 
  2 C        1.0650    -1.3740    -0.6240 C.2   1 <1>   0.5690 
  3 N        0.6050    -2.3520     0.2150 N.am  1 <1>  -0.6600 
  4 C        2.5130    -1.4570    -1.0590 C.3   1 <1>  -0.0990 
  5 C        1.5110    -3.4210     0.6960 C.3   1 <1>   0.1400 
  6 C       -0.7820    -2.3510     0.7550 C.3   1 <1>   0.0600 
  7 C        2.8550    -2.8990    -1.4780 C.3   1 <1>  -0.0800 
  8 C        2.3560    -3.9670    -0.4760 C.3   1 <1>  -0.0800 
  9 C        4.3600    -3.1300    -1.6690 C.3   1 <1>  -0.1600 
 10 C        3.6040    -4.7330    -0.0140 C.3   1 <1>  -0.1600 
 11 C        4.6050    -4.5430    -1.1520 C.3   1 <1>   0.4230 
 12 N        6.0420    -4.8230    -0.8180 N.4   1 <1>  -0.9590 
 13 C        6.5590    -4.4160     0.5350 C.3   1 <1>   0.4860 
 14 C        6.3190    -6.2780    -1.0340 C.3   1 <1>   0.2630 
 15 C        6.6290    -2.9130     0.6750 C.ar  1 <1>  -0.1440 
 16 C        7.5220    -2.1560    -0.0510 C.ar  1 <1>   0.1600 
 17 C        5.7920    -2.2340     1.5320 C.ar  1 <1>   0.1600 
 18 N        7.5540    -0.8500     0.0260 N.ar  1 <1>  -0.6200 
 19 N        5.8010    -0.9300     1.6280 N.ar  1 <1>  -0.6200 
 20 C        6.6820    -0.2960     0.8670 C.ar  1 <1>   0.7030 
 21 O        6.6620     1.0400     0.9790 O.3   1 <1>  -0.3620 
 22 C        7.5430     1.8740     0.2520 C.3   1 <1>   0.0400 
 23 H        2.6780    -0.7810    -1.8790 H     1 <1>   0.0800 
 24 H        3.1220    -1.1370    -0.2330 H     1 <1>   0.0800 
 25 H        2.1460    -2.9980     1.4560 H     1 <1>   0.0800 
 26 H        0.9400    -4.2190     1.1380 H     1 <1>   0.0800 
 27 H       -1.2850    -3.2580     0.4710 H     1 <1>   0.0800 
 28 H       -1.3380    -1.5150     0.3660 H     1 <1>   0.0800 
 29 H       -0.7560    -2.2760     1.8280 H     1 <1>   0.0800 
 30 H        2.3570    -3.0840    -2.4170 H     1 <1>   0.0800 
 31 H        1.7280    -4.6510    -1.0240 H     1 <1>   0.0800 
 32 H        4.9000    -2.3940    -1.1080 H     1 <1>   0.0800 
 33 H        4.6270    -3.0410    -2.7070 H     1 <1>   0.0800 
 34 H        3.3780    -5.7730     0.1490 H     1 <1>   0.0800 
 35 H        3.9540    -4.2930     0.8970 H     1 <1>   0.0800 
 36 H        4.3040    -5.2060    -1.9490 H     1 <1>   0.0800 
 37 H        6.5880    -4.2990    -1.5150 H     1 <1>   0.4500 
 38 H        5.9340    -4.8290     1.3100 H     1 <1>   0.0800 
 39 H        7.5520    -4.8130     0.6740 H     1 <1>   0.0800 
 40 H        5.7540    -6.8760    -0.3360 H     1 <1>   0.0800 
 41 H        7.3680    -6.4890    -0.8990 H     1 <1>   0.0800 
 42 H        6.0410    -6.5680    -2.0350 H     1 <1>   0.0800 
 43 H        8.2280    -2.6210    -0.7200 H     1 <1>   0.1500 
 44 H        5.0890    -2.7590     2.1570 H     1 <1>   0.1500 
 45 H        7.3340     2.8950     0.5160 H     1 <1>   0.0800 
 46 H        7.3780     1.7230    -0.8000 H     1 <1>   0.0800 
 47 H        8.5560     1.6240     0.5150 H     1 <1>   0.0800 
@<TRIPOS>BOND
  1   1   2  2   
  2   2   3  am  
  3   2   4  1   
  4   3   5  1   
  5   3   6  1   
  6   4   7  1   
  7   4  23  1   
  8   4  24  1   
  9   5   8  1   
 10   5  25  1   
 11   5  26  1   
 12   6  27  1   
 13   6  28  1   
 14   6  29  1   
 15   7   8  1   
 16   7   9  1   
 17   7  30  1   
 18   8  10  1   
 19   8  31  1   
 20   9  11  1   
 21   9  32  1   
 22   9  33  1   
 23  10  11  1   
 24  10  34  1   
 25  10  35  1   
 26  11  12  1   
 27  11  36  1   
 28  12  13  1   
 29  12  14  1   
 30  12  37  1   
 31  13  15  1   
 32  13  38  1   
 33  13  39  1   
 34  14  40  1   
 35  14  41  1   
 36  14  42  1   
 37  15  16  ar  
 38  15  17  ar  
 39  16  18  ar  
 40  16  43  1   
 41  17  19  ar  
 42  17  44  1   
 43  18  20  ar  
 44  19  20  ar  
 45  20  21  1   
 46  21  22  1   
 47  22  45  1   
 48  22  46  1   
 49  22  47  1   
@<TRIPOS>SUBSTRUCTURE
  1 ****   9 GROUP 4 **** **** 0

# MOE 2024.06 (io_trps.svl 2023.06)
