@<TRIPOS>MOLECULE
NONAME
45 47 1 0 0 
SMALL
USER_CHARGES


@<TRIPOS>ATOM
  1 O       -2.5070     0.8760    -2.1060 O.2   1 <1>  -0.5700 
  2 C       -2.3290     0.8580    -0.9130 C.2   1 <1>   0.5690 
  3 N       -2.1990    -0.3000    -0.2250 N.am  1 <1>  -0.7300 
  4 C       -2.2520     2.1650    -0.1670 C.3   1 <1>  -0.0990 
  5 C       -2.2340    -1.6540    -0.8260 C.3   1 <1>   0.2200 
  6 C       -1.0480     2.9730    -0.6570 C.3   1 <1>   0.0960 
  7 C       -3.5560    -2.3530    -0.5400 C.3   1 <1>  -0.0800 
  8 C       -1.2720    -2.5540    -0.0630 C.3   1 <1>   0.1200 
  9 N       -0.9350     4.2280     0.1040 N.pl3 1 <1>   0.3140 
 10 C       -3.3340    -2.9580     0.8510 C.3   1 <1>   0.1200 
 11 C       -4.8200    -1.4810    -0.6590 C.3   1 <1>  -0.0170 
 12 O       -1.9580    -2.9100     1.0980 O.3   1 <1>  -0.5600 
 13 N       -0.5470     4.2400     1.3930 N.2   1 <1>  -0.7070 
 14 C       -1.2020     5.4720    -0.3390 C.2   1 <1>  -0.3020 
 15 C       -6.0740    -2.3100    -0.4330 C.ar  1 <1>  -0.1440 
 16 C       -0.5730     5.4920     1.7350 C.2   1 <1>   0.1390 
 17 C       -0.9780     6.3150     0.6890 C.2   1 <1>  -0.1810 
 18 C       -6.7310    -2.3300     0.7810 C.ar  1 <1>  -0.1500 
 19 C       -6.6200    -3.0870    -1.4340 C.ar  1 <1>  -0.1500 
 20 C       -1.1250     7.8220     0.7260 C.3   1 <1>  -0.0590 
 21 C       -7.8660    -3.1100     0.9310 C.ar  1 <1>   0.1600 
 22 C       -7.7600    -3.8310    -1.1800 C.ar  1 <1>   0.1600 
 23 N       -8.3950    -3.8630    -0.0190 N.ar  1 <1>  -0.6200 
 24 H       -2.0610    -0.3020     0.7890 H     1 <1>   0.3700 
 25 H       -3.1580     2.7150    -0.3470 H     1 <1>   0.0800 
 26 H       -2.1610     1.9780     0.8870 H     1 <1>   0.0800 
 27 H       -2.0060    -1.6090    -1.8790 H     1 <1>   0.0800 
 28 H       -1.1520     3.2050    -1.7010 H     1 <1>   0.0800 
 29 H       -0.1430     2.4120    -0.5140 H     1 <1>   0.0800 
 30 H       -3.6490    -3.1710    -1.2320 H     1 <1>   0.0800 
 31 H       -0.3510    -2.0620     0.1930 H     1 <1>   0.0800 
 32 H       -1.0680    -3.4540    -0.6170 H     1 <1>   0.0800 
 33 H       -3.6640    -3.9820     0.8980 H     1 <1>   0.0800 
 34 H       -3.8210    -2.3840     1.6190 H     1 <1>   0.0800 
 35 H       -4.8560    -1.0380    -1.6390 H     1 <1>   0.0800 
 36 H       -4.7930    -0.6780     0.0560 H     1 <1>   0.0800 
 37 H       -1.5300     5.6820    -1.3400 H     1 <1>   0.1500 
 38 H       -0.3100     5.8410     2.7190 H     1 <1>   0.1500 
 39 H       -6.3750    -1.7490     1.6110 H     1 <1>   0.1500 
 40 H       -6.1700    -3.1210    -2.4100 H     1 <1>   0.1500 
 41 H       -1.8470     8.1010     1.4720 H     1 <1>   0.0800 
 42 H       -1.4560     8.1850    -0.2310 H     1 <1>   0.0800 
 43 H       -0.1810     8.2770     0.9630 H     1 <1>   0.0800 
 44 H       -8.3660    -3.1150     1.8850 H     1 <1>   0.1500 
 45 H       -8.1710    -4.4310    -1.9730 H     1 <1>   0.1500 
@<TRIPOS>BOND
  1   1   2  2   
  2   2   3  am  
  3   2   4  1   
  4   3   5  1   
  5   3  24  1   
  6   4   6  1   
  7   4  25  1   
  8   4  26  1   
  9   5   7  1   
 10   5   8  1   
 11   5  27  1   
 12   6   9  1   
 13   6  28  1   
 14   6  29  1   
 15   7  10  1   
 16   7  11  1   
 17   7  30  1   
 18   8  12  1   
 19   8  31  1   
 20   8  32  1   
 21   9  13  1   
 22   9  14  1   
 23  10  12  1   
 24  10  33  1   
 25  10  34  1   
 26  11  15  1   
 27  11  35  1   
 28  11  36  1   
 29  13  16  2   
 30  14  17  2   
 31  14  37  1   
 32  15  18  ar  
 33  15  19  ar  
 34  16  17  1   
 35  16  38  1   
 36  17  20  1   
 37  18  21  ar  
 38  18  39  1   
 39  19  22  ar  
 40  19  40  1   
 41  20  41  1   
 42  20  42  1   
 43  20  43  1   
 44  21  23  ar  
 45  21  44  1   
 46  22  23  ar  
 47  22  45  1   
@<TRIPOS>SUBSTRUCTURE
  1 ****   3 GROUP 4 **** **** 0

# MOE 2024.06 (io_trps.svl 2023.06)
