@<TRIPOS>MOLECULE
NONAME
44 46 1 0 0 
SMALL
USER_CHARGES


@<TRIPOS>ATOM
  1 O       -1.0960    -0.4360    -0.4230 O.2   1 <1>  -0.5700 
  2 C       -1.7990     0.5610    -0.4650 C.2   1 <1>   0.7160 
  3 N       -3.1570     0.3800    -0.6270 N.am  1 <1>  -0.6600 
  4 C       -1.2300     1.8780    -0.2810 C.2   1 <1>  -0.0860 
  5 C       -3.6750    -0.8960    -1.1790 C.3   1 <1>   0.1400 
  6 C       -4.0820     1.0170     0.3560 C.3   1 <1>   0.1400 
  7 C       -1.7300     3.1140    -0.6140 C.2   1 <1>  -0.3020 
  8 C        0.0260     2.1410     0.3030 C.2   1 <1>  -0.1500 
  9 C       -4.4030    -1.5790    -0.0040 C.3   1 <1>   0.4230 
 10 C       -5.5090     0.3780     0.3250 C.3   1 <1>  -0.1600 
 11 N       -0.8600     4.0870    -0.2590 N.pl3 1 <1>   0.0330 
 12 C        0.2160     3.4830     0.3050 C.2   1 <1>  -0.3020 
 13 N       -3.8630    -2.9470     0.3140 N.4   1 <1>  -0.9590 
 14 C       -5.9410    -1.1560    -0.0410 C.3   1 <1>   0.0000 
 15 C       -4.2910    -3.9210    -0.6710 C.3   1 <1>   0.3430 
 16 C       -2.3760    -2.9610     0.5240 C.3   1 <1>   0.2630 
 17 C       -6.4690    -2.6310    -0.4690 C.3   1 <1>  -0.1600 
 18 C       -7.4770    -0.6670    -0.0030 C.3   1 <1>   0.1200 
 19 C       -5.7610    -4.0010    -0.3990 C.3   1 <1>  -0.1600 
 20 O       -7.9670    -0.8900     1.2820 O.3   1 <1>  -0.6800 
 21 H       -4.3630    -0.6780    -1.9770 H     1 <1>   0.0800 
 22 H       -2.8820    -1.4960    -1.5870 H     1 <1>   0.0800 
 23 H       -3.6620     0.9110     1.3450 H     1 <1>   0.0800 
 24 H       -4.1530     2.0730     0.1540 H     1 <1>   0.0800 
 25 H       -2.6640     3.3340    -1.0990 H     1 <1>   0.1500 
 26 H        0.6940     1.3800     0.6710 H     1 <1>   0.1500 
 27 H       -4.0410    -1.0810     0.8760 H     1 <1>   0.0800 
 28 H       -5.9510     0.6680     1.2670 H     1 <1>   0.0800 
 29 H       -5.9220     1.0240    -0.4340 H     1 <1>   0.0800 
 30 H       -0.9780     5.0980    -0.3990 H     1 <1>   0.2700 
 31 H        1.0620     4.0390     0.6720 H     1 <1>   0.1500 
 32 H       -4.3080    -3.2140     1.2030 H     1 <1>   0.4500 
 33 H       -4.0890    -3.5800    -1.6740 H     1 <1>   0.0800 
 34 H       -3.8210    -4.8780    -0.5060 H     1 <1>   0.0800 
 35 H       -1.8560    -2.7610    -0.3980 H     1 <1>   0.0800 
 36 H       -2.0570    -3.9210     0.8960 H     1 <1>   0.0800 
 37 H       -2.0910    -2.2030     1.2370 H     1 <1>   0.0800 
 38 H       -7.3840    -2.9040     0.0400 H     1 <1>   0.0800 
 39 H       -6.7270    -2.5370    -1.5130 H     1 <1>   0.0800 
 40 H       -8.1410    -1.1650    -0.6940 H     1 <1>   0.0800 
 41 H       -7.6970     0.3650    -0.2160 H     1 <1>   0.0800 
 42 H       -6.2120    -4.6740    -1.1080 H     1 <1>   0.0800 
 43 H       -5.9120    -4.4380     0.5750 H     1 <1>   0.0800 
 44 H       -8.9040    -0.6140     1.3580 H     1 <1>   0.4000 
@<TRIPOS>BOND
  1   1   2  2   
  2   2   3  am  
  3   2   4  1   
  4   3   5  1   
  5   3   6  1   
  6   4   7  2   
  7   4   8  1   
  8   5   9  1   
  9   5  21  1   
 10   5  22  1   
 11   6  10  1   
 12   6  23  1   
 13   6  24  1   
 14   7  11  1   
 15   7  25  1   
 16   8  12  2   
 17   8  26  1   
 18   9  13  1   
 19   9  14  1   
 20   9  27  1   
 21  10  14  1   
 22  10  28  1   
 23  10  29  1   
 24  11  12  1   
 25  11  30  1   
 26  12  31  1   
 27  13  15  1   
 28  13  16  1   
 29  13  32  1   
 30  14  17  1   
 31  14  18  1   
 32  15  19  1   
 33  15  33  1   
 34  15  34  1   
 35  16  35  1   
 36  16  36  1   
 37  16  37  1   
 38  17  19  1   
 39  17  38  1   
 40  17  39  1   
 41  18  20  1   
 42  18  40  1   
 43  18  41  1   
 44  19  42  1   
 45  19  43  1   
 46  20  44  1   
@<TRIPOS>SUBSTRUCTURE
  1 ****   3 GROUP 4 **** **** 0

# MOE 2024.06 (io_trps.svl 2023.06)
