@<TRIPOS>MOLECULE
NONAME
48 50 1 0 0 
SMALL
USER_CHARGES


@<TRIPOS>ATOM
  1 O       -0.1170    -0.5300    -1.1420 O.3   1 <1>  -0.3630 
  2 C       -0.1370    -1.8150    -0.6920 C.ar  1 <1>   0.0820 
  3 C       -1.2540     0.0740    -1.7190 C.3   1 <1>   0.0400 
  4 C        1.0750    -2.4110    -0.2710 C.ar  1 <1>   0.0820 
  5 C       -1.2920    -2.5630    -0.6460 C.ar  1 <1>  -0.1500 
  6 O        2.2650    -1.7550    -0.2650 O.3   1 <1>  -0.3630 
  7 C        1.0870    -3.7160     0.1430 C.ar  1 <1>  -0.1500 
  8 C       -1.3030    -3.8960    -0.2120 C.ar  1 <1>   0.3100 
  9 C        2.3480    -0.5090     0.3920 C.3   1 <1>   0.0400 
 10 C       -0.0860    -4.4960     0.1890 C.ar  1 <1>   0.0000 
 11 N       -2.4930    -4.5420    -0.2050 N.ar  1 <1>  -0.6200 
 12 C       -0.1260    -5.8410     0.6140 C.ar  1 <1>  -0.1430 
 13 C       -2.4970    -5.7850     0.1890 C.ar  1 <1>   0.4100 
 14 C       -1.3370    -6.4610     0.6070 C.ar  1 <1>  -0.1500 
 15 C        1.1270    -6.5760     1.0670 C.3   1 <1>  -0.0970 
 16 N       -3.6970    -6.4660     0.1830 N.pl3 1 <1>  -0.8380 
 17 C       -3.8520    -7.5570    -0.8200 C.3   1 <1>   0.2090 
 18 C       -4.9450    -5.7010     0.4350 C.3   1 <1>   0.2090 
 19 C       -4.9650    -8.5270    -0.3890 C.3   1 <1>   0.2000 
 20 C       -6.0460    -6.6540     0.9110 C.3   1 <1>  -0.1600 
 21 O       -5.1690    -9.4700    -1.3890 O.3   1 <1>  -0.6800 
 22 C       -6.2930    -7.8020    -0.0930 C.3   1 <1>  -0.0800 
 23 C       -7.3470    -8.8000     0.4150 C.3   1 <1>   0.1200 
 24 O       -8.5440    -8.1420     0.6470 O.3   1 <1>  -0.6800 
 25 H       -0.9770     1.0590    -2.0500 H     1 <1>   0.0800 
 26 H       -2.0280     0.1430    -0.9760 H     1 <1>   0.0800 
 27 H       -1.5750    -0.5170    -2.5580 H     1 <1>   0.0800 
 28 H       -2.2400    -2.1640    -0.9440 H     1 <1>   0.1500 
 29 H        2.0230    -4.1480     0.4420 H     1 <1>   0.1500 
 30 H        3.3710    -0.3500     0.6800 H     1 <1>   0.0800 
 31 H        1.7160    -0.5240     1.2630 H     1 <1>   0.0800 
 32 H        2.0390     0.2650    -0.2870 H     1 <1>   0.0800 
 33 H       -1.4520    -7.4790     0.9240 H     1 <1>   0.1500 
 34 H        0.8970    -7.5870     1.3510 H     1 <1>   0.0800 
 35 H        1.5600    -6.0760     1.9150 H     1 <1>   0.0800 
 36 H        1.8470    -6.6030     0.2690 H     1 <1>   0.0800 
 37 H       -4.0980    -7.1150    -1.7700 H     1 <1>   0.0800 
 38 H       -2.9270    -8.0970    -0.9180 H     1 <1>   0.0800 
 39 H       -4.7610    -4.9510     1.1870 H     1 <1>   0.0800 
 40 H       -5.2450    -5.2020    -0.4720 H     1 <1>   0.0800 
 41 H       -4.6320    -9.0590     0.4860 H     1 <1>   0.0800 
 42 H       -5.7590    -7.0540     1.8670 H     1 <1>   0.0800 
 43 H       -6.9450    -6.0810     1.0460 H     1 <1>   0.0800 
 44 H       -5.5630    -9.0510    -2.1780 H     1 <1>   0.4000 
 45 H       -6.6490    -7.3710    -1.0130 H     1 <1>   0.0800 
 46 H       -7.0320    -9.2670     1.3330 H     1 <1>   0.0800 
 47 H       -7.5340    -9.5660    -0.3180 H     1 <1>   0.0800 
 48 H       -8.4470    -7.5070     1.3810 H     1 <1>   0.4000 
@<TRIPOS>BOND
  1   1   2  1   
  2   1   3  1   
  3   2   4  ar  
  4   2   5  ar  
  5   3  25  1   
  6   3  26  1   
  7   3  27  1   
  8   4   6  1   
  9   4   7  ar  
 10   5   8  ar  
 11   5  28  1   
 12   6   9  1   
 13   7  10  ar  
 14   7  29  1   
 15   8  10  ar  
 16   8  11  ar  
 17   9  30  1   
 18   9  31  1   
 19   9  32  1   
 20  10  12  ar  
 21  11  13  ar  
 22  12  14  ar  
 23  12  15  1   
 24  13  14  ar  
 25  13  16  1   
 26  14  33  1   
 27  15  34  1   
 28  15  35  1   
 29  15  36  1   
 30  16  17  1   
 31  16  18  1   
 32  17  19  1   
 33  17  37  1   
 34  17  38  1   
 35  18  20  1   
 36  18  39  1   
 37  18  40  1   
 38  19  21  1   
 39  19  22  1   
 40  19  41  1   
 41  20  22  1   
 42  20  42  1   
 43  20  43  1   
 44  21  44  1   
 45  22  23  1   
 46  22  45  1   
 47  23  24  1   
 48  23  46  1   
 49  23  47  1   
 50  24  48  1   
@<TRIPOS>SUBSTRUCTURE
  1 ****  11 GROUP 4 **** **** 0

# MOE 2024.06 (io_trps.svl 2023.06)
