@<TRIPOS>MOLECULE
NONAME
59 63 1 0 0 
SMALL
USER_CHARGES


@<TRIPOS>ATOM
  1 N        0.6370     0.3260     0.0800 N.ar  1 <1>  -0.6200 
  2 C       -0.3350     1.1490     0.5070 C.ar  1 <1>   0.6200 
  3 C        1.3460     0.7690    -0.9270 C.ar  1 <1>   0.1660 
  4 N       -0.5920     2.3620    -0.0020 N.ar  1 <1>  -0.6200 
  5 C       -1.1730     0.6910     1.6070 C.ar  1 <1>   0.0000 
  6 C        1.1560     1.9840    -1.5050 C.ar  1 <1>  -0.1430 
  7 C        2.4760     0.0070    -1.5780 C.3   1 <1>   0.1440 
  8 C        0.1530     2.7730    -1.0030 C.ar  1 <1>   0.1600 
  9 C       -2.5060     1.0960     1.7270 C.ar  1 <1>  -0.1500 
 10 C       -0.6880    -0.1750     2.5920 C.ar  1 <1>  -0.1500 
 11 C        2.1320     2.2290    -2.6270 C.3   1 <1>  -0.0160 
 12 C        3.3830    -0.5590    -0.4720 C.3   1 <1>   0.3430 
 13 C        1.9160    -1.1380    -2.4470 C.3   1 <1>  -0.1600 
 14 C        3.1680     1.1030    -2.4340 C.3   1 <1>  -0.1600 
 15 C       -3.3090     0.6640     2.7660 C.ar  1 <1>  -0.1500 
 16 C       -1.4860    -0.6120     3.6340 C.ar  1 <1>  -0.1500 
 17 N        4.4760    -1.4410    -1.0230 N.4   1 <1>  -0.9590 
 18 C        3.0240    -2.0950    -2.9220 C.3   1 <1>  -0.1600 
 19 C       -2.8000    -0.1930     3.7240 C.ar  1 <1>  -0.1500 
 20 C        3.8850    -2.5990    -1.7600 C.3   1 <1>   0.3430 
 21 C        5.4030    -1.9180     0.0430 C.3   1 <1>   0.3430 
 22 C        6.2520    -0.7590     0.5670 C.3   1 <1>  -0.1600 
 23 C        7.2820    -1.2390     1.5990 C.3   1 <1>   0.0960 
 24 N        8.0260    -0.0760     2.1180 N.pl3 1 <1>   0.0480 
 25 C        9.2050     0.4470     1.6980 C.2   1 <1>   0.0060 
 26 C        7.6190     0.7450     3.1030 C.2   1 <1>  -0.3020 
 27 N        9.5510     1.5160     2.3340 N.2   1 <1>  -0.5650 
 28 C       10.0540    -0.1460     0.5910 C.3   1 <1>  -0.0600 
 29 C        8.5590     1.7050     3.2210 C.2   1 <1>   0.0770 
 30 H       -0.0430     3.7460    -1.4220 H     1 <1>   0.1500 
 31 H       -2.9210     1.7640     0.9910 H     1 <1>   0.1500 
 32 H        0.3310    -0.5110     2.5430 H     1 <1>   0.1500 
 33 H        2.5840     3.2040    -2.5590 H     1 <1>   0.0800 
 34 H        1.6270     2.1280    -3.5730 H     1 <1>   0.0800 
 35 H        2.7700    -1.1280     0.2080 H     1 <1>   0.0800 
 36 H        3.8040     0.2660     0.0780 H     1 <1>   0.0800 
 37 H        1.3830    -0.7370    -3.2930 H     1 <1>   0.0800 
 38 H        1.2030    -1.6990    -1.8640 H     1 <1>   0.0800 
 39 H        3.5230     0.7400    -3.3820 H     1 <1>   0.0800 
 40 H        4.0020     1.5150    -1.8920 H     1 <1>   0.0800 
 41 H       -4.3310     0.9950     2.8300 H     1 <1>   0.1500 
 42 H       -1.0860    -1.2790     4.3780 H     1 <1>   0.1500 
 43 H        5.0160    -0.8890    -1.7020 H     1 <1>   0.4500 
 44 H        3.6510    -1.6140    -3.6520 H     1 <1>   0.0800 
 45 H        2.5680    -2.9410    -3.4080 H     1 <1>   0.0800 
 46 H       -3.4230    -0.5310     4.5340 H     1 <1>   0.1500 
 47 H        3.2740    -3.1840    -1.0910 H     1 <1>   0.0800 
 48 H        4.6680    -3.2340    -2.1450 H     1 <1>   0.0800 
 49 H        6.0570    -2.6740    -0.3620 H     1 <1>   0.0800 
 50 H        4.8390    -2.3590     0.8510 H     1 <1>   0.0800 
 51 H        5.6220    -0.0280     1.0420 H     1 <1>   0.0800 
 52 H        6.7760    -0.2970    -0.2510 H     1 <1>   0.0800 
 53 H        7.9780    -1.9300     1.1580 H     1 <1>   0.0800 
 54 H        6.7960    -1.7240     2.4270 H     1 <1>   0.0800 
 55 H        6.7100     0.6130     3.6600 H     1 <1>   0.1500 
 56 H        9.5030    -0.1720    -0.3300 H     1 <1>   0.0800 
 57 H       10.3680    -1.1390     0.8560 H     1 <1>   0.0800 
 58 H       10.9310     0.4600     0.4460 H     1 <1>   0.0800 
 59 H        8.5780     2.5360     3.9070 H     1 <1>   0.1500 
@<TRIPOS>BOND
  1   1   2  ar  
  2   1   3  ar  
  3   2   4  ar  
  4   2   5  1   
  5   3   6  ar  
  6   3   7  1   
  7   4   8  ar  
  8   5   9  ar  
  9   5  10  ar  
 10   6   8  ar  
 11   6  11  1   
 12   7  12  1   
 13   7  13  1   
 14   7  14  1   
 15   8  30  1   
 16   9  15  ar  
 17   9  31  1   
 18  10  16  ar  
 19  10  32  1   
 20  11  14  1   
 21  11  33  1   
 22  11  34  1   
 23  12  17  1   
 24  12  35  1   
 25  12  36  1   
 26  13  18  1   
 27  13  37  1   
 28  13  38  1   
 29  14  39  1   
 30  14  40  1   
 31  15  19  ar  
 32  15  41  1   
 33  16  19  ar  
 34  16  42  1   
 35  17  20  1   
 36  17  21  1   
 37  17  43  1   
 38  18  20  1   
 39  18  44  1   
 40  18  45  1   
 41  19  46  1   
 42  20  47  1   
 43  20  48  1   
 44  21  22  1   
 45  21  49  1   
 46  21  50  1   
 47  22  23  1   
 48  22  51  1   
 49  22  52  1   
 50  23  24  1   
 51  23  53  1   
 52  23  54  1   
 53  24  25  1   
 54  24  26  1   
 55  25  27  2   
 56  25  28  1   
 57  26  29  2   
 58  26  55  1   
 59  27  29  1   
 60  28  56  1   
 61  28  57  1   
 62  28  58  1   
 63  29  59  1   
@<TRIPOS>SUBSTRUCTURE
  1 ****  12 GROUP 4 **** **** 0

# MOE 2024.06 (io_trps.svl 2023.06)
