@<TRIPOS>MOLECULE
NONAME
57 59 1 0 0 
SMALL
USER_CHARGES


@<TRIPOS>ATOM
  1 S       -0.1260     0.0110     1.5990 S.o2  1 <1>   1.4470 
  2 O       -0.3890     0.8200     2.7660 O.2   1 <1>  -0.6500 
  3 O        0.0200    -1.4260     1.7440 O.2   1 <1>  -0.6500 
  4 N       -1.4610     0.1910     0.5630 N.am  1 <1>  -0.8490 
  5 C        1.2480     0.7020     0.6410 C.ar  1 <1>  -0.0090 
  6 C       -1.4730    -0.8180    -0.5220 C.3   1 <1>   0.1960 
  7 C       -2.7270     0.2930     1.3290 C.3   1 <1>   0.1960 
  8 C        2.4710     0.0470     0.5650 C.ar  1 <1>  -0.1500 
  9 C        1.1150     1.9070    -0.0380 C.ar  1 <1>  -0.1500 
 10 C       -2.3130    -2.0310    -0.0730 C.3   1 <1>   0.4230 
 11 C       -3.9470    -0.1970     0.5270 C.3   1 <1>  -0.1600 
 12 C        3.5300     0.5570    -0.1690 C.ar  1 <1>  -0.1440 
 13 C        2.1600     2.4340    -0.7750 C.ar  1 <1>  -0.1500 
 14 N       -2.0160    -3.3840    -0.6760 N.4   1 <1>  -0.9590 
 15 C       -3.8180    -1.6710     0.0310 C.3   1 <1>   0.0000 
 16 C        3.3760     1.7630    -0.8480 C.ar  1 <1>   0.0830 
 17 C        4.8450    -0.2150    -0.2040 C.3   1 <1>  -0.0170 
 18 C       -3.0470    -4.4080    -0.3010 C.3   1 <1>   0.3430 
 19 C       -1.7920    -3.3550    -2.1560 C.3   1 <1>   0.2630 
 20 C       -4.4110    -2.6630     1.0650 C.3   1 <1>  -0.1600 
 21 C       -4.6300    -1.7970    -1.2880 C.3   1 <1>   0.1200 
 22 O        4.4340     2.2380    -1.5550 O.3   1 <1>  -0.3630 
 23 C        5.7810     0.2690     0.9060 C.3   1 <1>  -0.2400 
 24 C       -3.7430    -4.0630     1.0300 C.3   1 <1>  -0.1600 
 25 O       -3.9760    -1.1870    -2.3480 O.3   1 <1>  -0.6800 
 26 C        4.4020     3.4940    -2.1960 C.3   1 <1>   0.0400 
 27 H       -1.8970    -0.3690    -1.4020 H     1 <1>   0.0800 
 28 H       -0.4680    -1.1200    -0.7580 H     1 <1>   0.0800 
 29 H       -2.6580    -0.2950     2.2320 H     1 <1>   0.0800 
 30 H       -2.8700     1.3190     1.6290 H     1 <1>   0.0800 
 31 H        2.5990    -0.8800     1.0980 H     1 <1>   0.1500 
 32 H        0.1810     2.4400     0.0130 H     1 <1>   0.1500 
 33 H       -2.0140    -2.1470     0.9550 H     1 <1>   0.0800 
 34 H       -4.8350    -0.0820     1.1250 H     1 <1>   0.0800 
 35 H       -4.0550     0.4740    -0.3080 H     1 <1>   0.0800 
 36 H        2.0070     3.3670    -1.2830 H     1 <1>   0.1500 
 37 H       -1.1310    -3.6710    -0.2300 H     1 <1>   0.4500 
 38 H        4.6560    -1.2670    -0.0770 H     1 <1>   0.0800 
 39 H        5.3240    -0.0910    -1.1600 H     1 <1>   0.0800 
 40 H       -3.7960    -4.4630    -1.0730 H     1 <1>   0.0800 
 41 H       -2.5850    -5.3800    -0.2280 H     1 <1>   0.0800 
 42 H       -2.7010    -3.0890    -2.6700 H     1 <1>   0.0800 
 43 H       -1.4740    -4.3240    -2.5040 H     1 <1>   0.0800 
 44 H       -1.0330    -2.6340    -2.4100 H     1 <1>   0.0800 
 45 H       -4.2870    -2.2710     2.0620 H     1 <1>   0.0800 
 46 H       -5.4720    -2.7620     0.9090 H     1 <1>   0.0800 
 47 H       -5.5890    -1.3190    -1.1720 H     1 <1>   0.0800 
 48 H       -4.8030    -2.8220    -1.5620 H     1 <1>   0.0800 
 49 H        5.3210     0.1320     1.8680 H     1 <1>   0.0800 
 50 H        5.9970     1.3150     0.7730 H     1 <1>   0.0800 
 51 H        6.7050    -0.2810     0.8790 H     1 <1>   0.0800 
 52 H       -4.4860    -4.8130     1.2410 H     1 <1>   0.0800 
 53 H       -3.0100    -4.1280     1.8170 H     1 <1>   0.0800 
 54 H       -4.6090    -0.9640    -3.0650 H     1 <1>   0.4000 
 55 H        5.3610     3.6590    -2.6530 H     1 <1>   0.0800 
 56 H        4.2110     4.2560    -1.4620 H     1 <1>   0.0800 
 57 H        3.6360     3.4820    -2.9510 H     1 <1>   0.0800 
@<TRIPOS>BOND
  1   1   2  2   
  2   1   3  2   
  3   1   4  am  
  4   1   5  1   
  5   4   6  1   
  6   4   7  1   
  7   5   8  ar  
  8   5   9  ar  
  9   6  10  1   
 10   6  27  1   
 11   6  28  1   
 12   7  11  1   
 13   7  29  1   
 14   7  30  1   
 15   8  12  ar  
 16   8  31  1   
 17   9  13  ar  
 18   9  32  1   
 19  10  14  1   
 20  10  15  1   
 21  10  33  1   
 22  11  15  1   
 23  11  34  1   
 24  11  35  1   
 25  12  16  ar  
 26  12  17  1   
 27  13  16  ar  
 28  13  36  1   
 29  14  18  1   
 30  14  19  1   
 31  14  37  1   
 32  15  20  1   
 33  15  21  1   
 34  16  22  1   
 35  17  23  1   
 36  17  38  1   
 37  17  39  1   
 38  18  24  1   
 39  18  40  1   
 40  18  41  1   
 41  19  42  1   
 42  19  43  1   
 43  19  44  1   
 44  20  24  1   
 45  20  45  1   
 46  20  46  1   
 47  21  25  1   
 48  21  47  1   
 49  21  48  1   
 50  22  26  1   
 51  23  49  1   
 52  23  50  1   
 53  23  51  1   
 54  24  52  1   
 55  24  53  1   
 56  25  54  1   
 57  26  55  1   
 58  26  56  1   
 59  26  57  1   
@<TRIPOS>SUBSTRUCTURE
  1 ****   6 GROUP 4 **** **** 0

# MOE 2024.06 (io_trps.svl 2023.06)
