@<TRIPOS>MOLECULE
NONAME
49 51 1 0 0 
SMALL
USER_CHARGES


@<TRIPOS>ATOM
  1 CL       1.6990     0.9170     1.6970 Cl    1 <1>  -0.1770 
  2 C        2.0820    -0.6720     1.0860 C.ar  1 <1>   0.1770 
  3 C        2.8590    -0.7900    -0.0470 C.ar  1 <1>  -0.1500 
  4 C        1.5900    -1.7780     1.7490 C.ar  1 <1>  -0.1500 
  5 C        3.1640    -2.0550    -0.5420 C.ar  1 <1>   0.0830 
  6 C        1.8900    -3.0460     1.2730 C.ar  1 <1>  -0.1440 
  7 O        3.8900    -2.2130    -1.6840 O.3   1 <1>  -0.3620 
  8 C        2.6880    -3.1900     0.1380 C.ar  1 <1>   0.0830 
  9 C        1.3470    -4.2660     1.9980 C.3   1 <1>   0.4870 
 10 C        4.4050    -1.1170    -2.4110 C.3   1 <1>   0.0400 
 11 O        2.9390    -4.4730    -0.2610 O.3   1 <1>  -0.3630 
 12 N        0.5740    -5.0800     1.0310 N.4   1 <1>  -0.9590 
 13 C        4.2180    -4.8520    -0.7320 C.3   1 <1>   0.0400 
 14 C       -0.6400    -4.4260     0.4490 C.3   1 <1>   0.3430 
 15 C        0.1800    -6.4300     1.4870 C.3   1 <1>   0.3430 
 16 C       -1.6930    -5.5400     0.3110 C.3   1 <1>   0.2000 
 17 C       -0.9170    -6.8460     0.5030 C.3   1 <1>  -0.0800 
 18 O       -2.6330    -5.4220     1.3270 O.3   1 <1>  -0.6800 
 19 C       -0.3710    -7.3540    -0.8550 C.3   1 <1>   0.0200 
 20 C        0.8870    -8.1870    -0.7090 C.2   1 <1>  -0.0400 
 21 O        2.0280    -7.5850    -0.5010 O.3   1 <1>  -0.0190 
 22 C        1.1200    -9.5070    -0.7490 C.2   1 <1>  -0.1500 
 23 N        3.0060    -8.4270    -0.3720 N.2   1 <1>  -0.4100 
 24 C        2.4930    -9.5960    -0.5270 C.2   1 <1>   0.1080 
 25 C        3.2800   -10.8870    -0.4730 C.3   1 <1>  -0.0590 
 26 H        3.2020     0.1100    -0.5180 H     1 <1>   0.1500 
 27 H        0.9860    -1.6270     2.6270 H     1 <1>   0.1500 
 28 H        0.7200    -3.9660     2.8220 H     1 <1>   0.0800 
 29 H        2.1750    -4.8410     2.3810 H     1 <1>   0.0800 
 30 H        4.9430    -1.5010    -3.2580 H     1 <1>   0.0800 
 31 H        5.0730    -0.5590    -1.7790 H     1 <1>   0.0800 
 32 H        3.5880    -0.5030    -2.7480 H     1 <1>   0.0800 
 33 H        1.2550    -5.2090     0.2540 H     1 <1>   0.4500 
 34 H        4.3420    -5.9080    -0.5710 H     1 <1>   0.0800 
 35 H        4.9740    -4.3070    -0.1940 H     1 <1>   0.0800 
 36 H        4.2800    -4.6420    -1.7850 H     1 <1>   0.0800 
 37 H       -1.0130    -3.6410     1.0860 H     1 <1>   0.0800 
 38 H       -0.3980    -4.0150    -0.5180 H     1 <1>   0.0800 
 39 H        1.0140    -7.1140     1.4980 H     1 <1>   0.0800 
 40 H       -0.2340    -6.3720     2.4800 H     1 <1>   0.0800 
 41 H       -2.2210    -5.4860    -0.6270 H     1 <1>   0.0800 
 42 H       -1.5300    -7.6190     0.9330 H     1 <1>   0.0800 
 43 H       -2.2730    -5.5950     2.2170 H     1 <1>   0.4000 
 44 H       -0.1410    -6.5340    -1.5130 H     1 <1>   0.0800 
 45 H       -1.1300    -7.9460    -1.3380 H     1 <1>   0.0800 
 46 H        0.4460   -10.3290    -0.9070 H     1 <1>   0.1500 
 47 H        2.9130   -11.5080     0.3230 H     1 <1>   0.0800 
 48 H        4.3210   -10.6770    -0.2990 H     1 <1>   0.0800 
 49 H        3.1850   -11.4120    -1.4050 H     1 <1>   0.0800 
@<TRIPOS>BOND
  1   1   2  1   
  2   2   3  ar  
  3   2   4  ar  
  4   3   5  ar  
  5   3  26  1   
  6   4   6  ar  
  7   4  27  1   
  8   5   7  1   
  9   5   8  ar  
 10   6   8  ar  
 11   6   9  1   
 12   7  10  1   
 13   8  11  1   
 14   9  12  1   
 15   9  28  1   
 16   9  29  1   
 17  10  30  1   
 18  10  31  1   
 19  10  32  1   
 20  11  13  1   
 21  12  14  1   
 22  12  15  1   
 23  12  33  1   
 24  13  34  1   
 25  13  35  1   
 26  13  36  1   
 27  14  16  1   
 28  14  37  1   
 29  14  38  1   
 30  15  17  1   
 31  15  39  1   
 32  15  40  1   
 33  16  17  1   
 34  16  18  1   
 35  16  41  1   
 36  17  19  1   
 37  17  42  1   
 38  18  43  1   
 39  19  20  1   
 40  19  44  1   
 41  19  45  1   
 42  20  21  1   
 43  20  22  2   
 44  21  23  1   
 45  22  24  1   
 46  22  46  1   
 47  23  24  2   
 48  24  25  1   
 49  25  47  1   
 50  25  48  1   
 51  25  49  1   
@<TRIPOS>SUBSTRUCTURE
  1 ****  12 GROUP 4 **** **** 0

# MOE 2024.06 (io_trps.svl 2023.06)
