@<TRIPOS>MOLECULE
NONAME
46 49 1 0 0 
SMALL
USER_CHARGES


@<TRIPOS>ATOM
  1 S       -2.7130    -0.2540     1.6060 S.3   1 <1>  -0.0800 
  2 C       -1.8250    -1.4300     0.6440 C.2   1 <1>  -0.1400 
  3 C       -1.9010     1.0830     0.8140 C.2   1 <1>  -0.1100 
  4 C       -0.9810    -0.7970    -0.1960 C.2   1 <1>  -0.1500 
  5 C       -2.1250    -2.9020     0.8970 C.3   1 <1>   0.3800 
  6 C       -1.0260     0.6310    -0.1010 C.2   1 <1>  -0.1500 
  7 O       -1.2760    -3.6570     0.1080 O.3   1 <1>  -0.6800 
  8 C       -3.5910    -3.2790     0.5790 C.3   1 <1>  -0.0800 
  9 C       -3.8870    -4.7680     0.8440 C.3   1 <1>  -0.1600 
 10 C       -4.0230    -2.9280    -0.8590 C.3   1 <1>  -0.1600 
 11 C       -5.3420    -5.1190     0.5260 C.3   1 <1>   0.1100 
 12 C       -5.4780    -3.3250    -1.1100 C.3   1 <1>   0.1100 
 13 N       -5.6570    -4.7630    -0.8670 N.3   1 <1>  -0.8100 
 14 C       -7.0240    -5.1890    -1.2680 C.3   1 <1>   0.2900 
 15 C       -7.2180    -6.7010    -1.3810 C.2   1 <1>   0.2980 
 16 O       -7.3590    -7.4160    -0.3000 O.3   1 <1>  -0.2800 
 17 N       -7.2940    -7.3590    -2.4710 N.2   1 <1>  -0.3380 
 18 C       -7.5120    -8.6100    -0.8250 C.2   1 <1>   0.4250 
 19 N       -7.4840    -8.6070    -2.1140 N.2   1 <1>  -0.3380 
 20 C       -7.6920    -9.7620     0.0350 C.ar  1 <1>   0.0530 
 21 C       -7.8540   -11.0400    -0.5030 C.ar  1 <1>  -0.1500 
 22 C       -7.7120    -9.6460     1.4300 C.ar  1 <1>  -0.1500 
 23 C       -8.0250   -12.1230     0.3340 C.ar  1 <1>   0.1900 
 24 C       -7.8850   -10.7450     2.2580 C.ar  1 <1>  -0.1500 
 25 F       -8.1750   -13.3080    -0.1930 F     1 <1>  -0.1900 
 26 C       -8.0450   -12.0040     1.7090 C.ar  1 <1>  -0.1500 
 27 H       -2.1670     2.0780     1.1240 H     1 <1>   0.1500 
 28 H       -0.3120    -1.2780    -0.8880 H     1 <1>   0.1500 
 29 H       -1.8980    -3.1380     1.9230 H     1 <1>   0.0800 
 30 H       -0.3990     1.2450    -0.7240 H     1 <1>   0.1500 
 31 H       -1.5200    -3.5130    -0.8240 H     1 <1>   0.4000 
 32 H       -4.2120    -2.7110     1.2490 H     1 <1>   0.0800 
 33 H       -3.6840    -5.0020     1.8740 H     1 <1>   0.0800 
 34 H       -3.2510    -5.3890     0.2370 H     1 <1>   0.0800 
 35 H       -3.4050    -3.4410    -1.5740 H     1 <1>   0.0800 
 36 H       -3.9200    -1.8710    -1.0290 H     1 <1>   0.0800 
 37 H       -6.0030    -4.5970     1.1990 H     1 <1>   0.0800 
 38 H       -5.4690    -6.1770     0.6740 H     1 <1>   0.0800 
 39 H       -5.7250    -3.0980    -2.1340 H     1 <1>   0.0800 
 40 H       -6.1300    -2.7570    -0.4670 H     1 <1>   0.0800 
 41 H       -7.2400    -4.7750    -2.2370 H     1 <1>   0.0800 
 42 H       -7.7460    -4.7940    -0.5750 H     1 <1>   0.0800 
 43 H       -7.8470   -11.1910    -1.5680 H     1 <1>   0.1500 
 44 H       -7.5900    -8.6770     1.8810 H     1 <1>   0.1500 
 45 H       -7.8960   -10.6200     3.3280 H     1 <1>   0.1500 
 46 H       -8.1810   -12.8740     2.3270 H     1 <1>   0.1500 
@<TRIPOS>BOND
  1   1   2  1   
  2   1   3  1   
  3   2   4  2   
  4   2   5  1   
  5   3   6  2   
  6   3  27  1   
  7   4   6  1   
  8   4  28  1   
  9   5   7  1   
 10   5   8  1   
 11   5  29  1   
 12   6  30  1   
 13   7  31  1   
 14   8   9  1   
 15   8  10  1   
 16   8  32  1   
 17   9  11  1   
 18   9  33  1   
 19   9  34  1   
 20  10  12  1   
 21  10  35  1   
 22  10  36  1   
 23  11  13  1   
 24  11  37  1   
 25  11  38  1   
 26  12  13  1   
 27  12  39  1   
 28  12  40  1   
 29  13  14  1   
 30  14  15  1   
 31  14  41  1   
 32  14  42  1   
 33  15  16  1   
 34  15  17  2   
 35  16  18  1   
 36  17  19  1   
 37  18  19  2   
 38  18  20  1   
 39  20  21  ar  
 40  20  22  ar  
 41  21  23  ar  
 42  21  43  1   
 43  22  24  ar  
 44  22  44  1   
 45  23  25  1   
 46  23  26  ar  
 47  24  26  ar  
 48  24  45  1   
 49  26  46  1   
@<TRIPOS>SUBSTRUCTURE
  1 ****  11 GROUP 4 **** **** 0

# MOE 2024.06 (io_trps.svl 2023.06)
