@<TRIPOS>MOLECULE
NONAME
33 34 1 0 0 
SMALL
USER_CHARGES


@<TRIPOS>ATOM
  1 CL      -0.3160    -0.5700     1.3950 Cl    1 <1>  -0.1770 
  2 C        1.1180    -1.5060     1.0280 C.ar  1 <1>   0.1770 
  3 C        2.1880    -1.4410     1.9070 C.ar  1 <1>   0.1770 
  4 C        1.1820    -2.2950    -0.1130 C.ar  1 <1>  -0.0090 
  5 CL       2.1110    -0.4400     3.3390 Cl    1 <1>  -0.1770 
  6 C        3.3430    -2.1630     1.6760 C.ar  1 <1>  -0.1500 
  7 S       -0.2030    -2.4080    -1.2690 S.o2  1 <1>   1.4470 
  8 C        2.3520    -3.0210    -0.3310 C.ar  1 <1>  -0.1500 
  9 C        3.4220    -2.9590     0.5480 C.ar  1 <1>  -0.1500 
 10 O        0.1390    -3.3200    -2.3400 O.2   1 <1>  -0.6500 
 11 O       -0.6470    -1.0810    -1.6360 O.2   1 <1>  -0.6500 
 12 N       -1.4310    -3.1490    -0.3690 N.am  1 <1>  -0.8490 
 13 C       -1.0890    -4.5360    -0.0050 C.3   1 <1>   0.1960 
 14 C       -2.7170    -3.0850    -1.0660 C.3   1 <1>   0.1960 
 15 C       -2.1430    -5.1270     0.9300 C.3   1 <1>  -0.1860 
 16 C       -3.8360    -3.6340    -0.1800 C.3   1 <1>  -0.1600 
 17 C       -1.7870    -6.5530     1.2860 C.2   1 <1>   0.9060 
 18 C       -3.5110    -5.0590     0.2570 C.3   1 <1>   0.2000 
 19 O       -0.6740    -6.9940     0.9800 O.co2 1 <1>  -0.9000 
 20 O       -2.6320    -7.2410     1.8730 O.co2 1 <1>  -0.9000 
 21 O       -4.4680    -5.4740     1.1540 O.3   1 <1>  -0.6800 
 22 H        4.1620    -2.1030     2.3710 H     1 <1>   0.1500 
 23 H        2.4280    -3.6510    -1.2030 H     1 <1>   0.1500 
 24 H        4.3130    -3.5350     0.3540 H     1 <1>   0.1500 
 25 H       -1.0080    -5.1470    -0.8910 H     1 <1>   0.0800 
 26 H       -0.1370    -4.5620     0.4990 H     1 <1>   0.0800 
 27 H       -2.9440    -2.0610    -1.3130 H     1 <1>   0.0800 
 28 H       -2.6610    -3.6490    -1.9840 H     1 <1>   0.0800 
 29 H       -2.1520    -4.5570     1.8390 H     1 <1>   0.0800 
 30 H       -4.7620    -3.6280    -0.7230 H     1 <1>   0.0800 
 31 H       -3.9360    -3.0020     0.6850 H     1 <1>   0.0800 
 32 H       -3.5380    -5.7310    -0.5850 H     1 <1>   0.0800 
 33 H       -4.0740    -6.2750     1.6100 H     1 <1>   0.4000 
@<TRIPOS>BOND
  1   1   2  1   
  2   2   3  ar  
  3   2   4  ar  
  4   3   5  1   
  5   3   6  ar  
  6   4   7  1   
  7   4   8  ar  
  8   6   9  ar  
  9   6  22  1   
 10   7  10  2   
 11   7  11  2   
 12   7  12  am  
 13   8   9  ar  
 14   8  23  1   
 15   9  24  1   
 16  12  13  1   
 17  12  14  1   
 18  13  15  1   
 19  13  25  1   
 20  13  26  1   
 21  14  16  1   
 22  14  27  1   
 23  14  28  1   
 24  15  17  1   
 25  15  18  1   
 26  15  29  1   
 27  16  18  1   
 28  16  30  1   
 29  16  31  1   
 30  17  19  ar  
 31  17  20  ar  
 32  18  21  1   
 33  18  32  1   
 34  21  33  1   
@<TRIPOS>SUBSTRUCTURE
  1 ****  12 GROUP 4 **** **** 0

# MOE 2024.06 (io_trps.svl 2023.06)
