@<TRIPOS>MOLECULE
NONAME
59 60 1 0 0 
SMALL
USER_CHARGES


@<TRIPOS>ATOM
  1 O       -0.8420     0.8300    -0.9590 O.2   1 <1>  -0.5700 
  2 C       -1.7270     1.3470    -0.3190 C.2   1 <1>   0.5690 
  3 N       -2.7710     0.6110     0.1880 N.am  1 <1>  -0.6600 
  4 C       -1.6490     2.8490    -0.0760 C.3   1 <1>  -0.0990 
  5 C       -2.9110    -0.8430    -0.1510 C.3   1 <1>   0.1400 
  6 C       -3.8510     1.1470     1.0640 C.3   1 <1>   0.1400 
  7 C       -0.5580     3.5600    -0.9000 C.3   1 <1>  -0.0990 
  8 C       -4.2950    -1.1260    -0.7620 C.3   1 <1>   0.2000 
  9 C       -5.2150     0.8890     0.4110 C.3   1 <1>  -0.1600 
 10 C       -0.4840     5.0370    -0.5720 C.2   1 <1>   0.5690 
 11 O       -4.4120    -2.4900    -1.0140 O.3   1 <1>  -0.6800 
 12 C       -5.4750    -0.6140     0.1160 C.3   1 <1>   0.0000 
 13 O       -1.4770     5.7040    -0.7200 O.2   1 <1>  -0.5700 
 14 N        0.7120     5.5250    -0.1260 N.am  1 <1>  -0.5470 
 15 C       -5.5250    -1.4250     1.4430 C.3   1 <1>   0.1200 
 16 C       -6.8430    -0.7900    -0.6080 C.3   1 <1>  -0.1600 
 17 C        1.1080     6.8160     0.2680 C.ar  1 <1>   0.1170 
 18 O       -6.5080    -0.9540     2.3030 O.3   1 <1>  -0.6800 
 19 C       -6.9740    -0.1710    -2.0130 C.3   1 <1>  -0.1600 
 20 C        2.4580     7.1830     0.1970 C.ar  1 <1>  -0.1430 
 21 C        0.1820     7.7360     0.7530 C.ar  1 <1>  -0.1500 
 22 C       -8.3830    -0.3900    -2.5710 C.3   1 <1>  -0.2400 
 23 C        2.8350     8.4540     0.6160 C.ar  1 <1>  -0.1500 
 24 C        3.4850     6.1780    -0.3430 C.3   1 <1>  -0.0170 
 25 C        0.5700     8.9960     1.1620 C.ar  1 <1>  -0.1500 
 26 C        1.9010     9.3560     1.0940 C.ar  1 <1>  -0.1500 
 27 C        4.9140     6.7050    -0.5250 C.3   1 <1>  -0.2400 
 28 H       -2.5970     3.2870    -0.3300 H     1 <1>   0.0800 
 29 H       -1.4650     3.0130     0.9700 H     1 <1>   0.0800 
 30 H       -2.1610    -1.1360    -0.8650 H     1 <1>   0.0800 
 31 H       -2.7640    -1.4220     0.7420 H     1 <1>   0.0800 
 32 H       -3.7950     0.6660     2.0250 H     1 <1>   0.0800 
 33 H       -3.7350     2.2020     1.2300 H     1 <1>   0.0800 
 34 H       -0.7760     3.4550    -1.9470 H     1 <1>   0.0800 
 35 H        0.3940     3.0970    -0.7120 H     1 <1>   0.0800 
 36 H       -4.3170    -0.6350    -1.7190 H     1 <1>   0.0800 
 37 H       -5.9920     1.2890     1.0360 H     1 <1>   0.0800 
 38 H       -5.2360     1.4520    -0.5050 H     1 <1>   0.0800 
 39 H       -4.4130    -3.0060    -0.1870 H     1 <1>   0.4000 
 40 H        1.4720     4.8500    -0.1260 H     1 <1>   0.3700 
 41 H       -4.5900    -1.3850     1.9730 H     1 <1>   0.0800 
 42 H       -5.7550    -2.4570     1.2450 H     1 <1>   0.0800 
 43 H       -7.0480    -1.8440    -0.6950 H     1 <1>   0.0800 
 44 H       -7.6200    -0.3770     0.0120 H     1 <1>   0.0800 
 45 H       -6.4100     0.0040     2.4580 H     1 <1>   0.4000 
 46 H       -6.7800     0.8860    -1.9850 H     1 <1>   0.0800 
 47 H       -6.2710    -0.6280    -2.6880 H     1 <1>   0.0800 
 48 H       -0.8570     7.4690     0.8190 H     1 <1>   0.1500 
 49 H       -9.1170     0.0740    -1.9360 H     1 <1>   0.0800 
 50 H       -8.6000    -1.4420    -2.6400 H     1 <1>   0.0800 
 51 H       -8.4600     0.0390    -3.5540 H     1 <1>   0.0800 
 52 H        3.8600     8.7750     0.5810 H     1 <1>   0.1500 
 53 H        3.5220     5.3340     0.3240 H     1 <1>   0.0800 
 54 H        3.1440     5.8260    -1.3020 H     1 <1>   0.0800 
 55 H       -0.1610     9.6930     1.5310 H     1 <1>   0.1500 
 56 H        2.2110    10.3360     1.4120 H     1 <1>   0.1500 
 57 H        5.3320     6.9970     0.4220 H     1 <1>   0.0800 
 58 H        4.9200     7.5480    -1.1940 H     1 <1>   0.0800 
 59 H        5.5370     5.9350    -0.9450 H     1 <1>   0.0800 
@<TRIPOS>BOND
  1   1   2  2   
  2   2   3  am  
  3   2   4  1   
  4   3   5  1   
  5   3   6  1   
  6   4   7  1   
  7   4  28  1   
  8   4  29  1   
  9   5   8  1   
 10   5  30  1   
 11   5  31  1   
 12   6   9  1   
 13   6  32  1   
 14   6  33  1   
 15   7  10  1   
 16   7  34  1   
 17   7  35  1   
 18   8  11  1   
 19   8  12  1   
 20   8  36  1   
 21   9  12  1   
 22   9  37  1   
 23   9  38  1   
 24  10  13  2   
 25  10  14  am  
 26  11  39  1   
 27  12  15  1   
 28  12  16  1   
 29  14  17  1   
 30  14  40  1   
 31  15  18  1   
 32  15  41  1   
 33  15  42  1   
 34  16  19  1   
 35  16  43  1   
 36  16  44  1   
 37  17  20  ar  
 38  17  21  ar  
 39  18  45  1   
 40  19  22  1   
 41  19  46  1   
 42  19  47  1   
 43  20  23  ar  
 44  20  24  1   
 45  21  25  ar  
 46  21  48  1   
 47  22  49  1   
 48  22  50  1   
 49  22  51  1   
 50  23  26  ar  
 51  23  52  1   
 52  24  27  1   
 53  24  53  1   
 54  24  54  1   
 55  25  26  ar  
 56  25  55  1   
 57  26  56  1   
 58  27  57  1   
 59  27  58  1   
 60  27  59  1   
@<TRIPOS>SUBSTRUCTURE
  1 ****   4 GROUP 4 **** **** 0

# MOE 2024.06 (io_trps.svl 2023.06)
