@<TRIPOS>MOLECULE
NONAME
45 47 1 0 0 
SMALL
USER_CHARGES


@<TRIPOS>ATOM
  1 CL      -0.1810     0.3930     2.3410 Cl    1 <1>  -0.1770 
  2 C       -1.5450     1.2050     1.6130 C.ar  1 <1>   0.1770 
  3 C       -1.3420     2.3940     0.9380 C.ar  1 <1>  -0.1500 
  4 C       -2.8010     0.6450     1.7250 C.ar  1 <1>  -0.1500 
  5 C       -2.4160     3.0580     0.3520 C.ar  1 <1>  -0.1440 
  6 C       -3.8770     1.2920     1.1470 C.ar  1 <1>  -0.1500 
  7 C       -3.6880     2.4920     0.4630 C.ar  1 <1>   0.0820 
  8 C       -2.3110     4.3820    -0.4240 C.3   1 <1>   0.2540 
  9 O       -4.7170     3.1580    -0.1220 O.3   1 <1>  -0.3630 
 10 N       -1.0180     5.0980    -0.3730 N.3   1 <1>  -0.8100 
 11 C       -6.0720     2.7260    -0.0050 C.3   1 <1>   0.0140 
 12 C       -0.6650     5.5950     0.9800 C.3   1 <1>   0.1100 
 13 C        0.0270     4.5300    -1.2480 C.3   1 <1>   0.1100 
 14 C       -7.0570     3.6690    -0.6820 C.2   1 <1>   0.9060 
 15 C        0.4680     6.6490     1.0540 C.3   1 <1>   0.2200 
 16 C        1.2400     5.4470    -1.4880 C.3   1 <1>  -0.0190 
 17 O       -7.3720     3.4590    -1.8600 O.co2 1 <1>  -0.9000 
 18 O       -7.5700     4.5760    -0.0150 O.co2 1 <1>  -0.9000 
 19 N        0.5800     7.4830    -0.1820 N.am  1 <1>  -0.6600 
 20 C        1.8260     6.0260     1.4370 C.3   1 <1>   0.1200 
 21 C        0.9190     6.9280    -1.3880 C.2   1 <1>   0.5690 
 22 C        2.4620     5.0820    -0.6330 C.3   1 <1>   0.1200 
 23 C        0.1180     8.8920    -0.0660 C.3   1 <1>   0.0600 
 24 O        2.1320     4.8760     0.7040 O.3   1 <1>  -0.5600 
 25 O        1.0170     7.5930    -2.3950 O.2   1 <1>  -0.5700 
 26 H       -0.3430     2.7740     0.8890 H     1 <1>   0.1500 
 27 H       -2.9300    -0.2810     2.2560 H     1 <1>   0.1500 
 28 H       -4.8520     0.8510     1.2350 H     1 <1>   0.1500 
 29 H       -3.0700     5.0490    -0.0500 H     1 <1>   0.0800 
 30 H       -2.5630     4.1910    -1.4530 H     1 <1>   0.0800 
 31 H       -6.1610     1.7610    -0.4640 H     1 <1>   0.0800 
 32 H       -6.3230     2.6730     1.0360 H     1 <1>   0.0800 
 33 H       -1.5450     6.0540     1.3950 H     1 <1>   0.0800 
 34 H       -0.4170     4.7750     1.6270 H     1 <1>   0.0800 
 35 H        0.3640     3.5810    -0.8770 H     1 <1>   0.0800 
 36 H       -0.4260     4.3480    -2.2080 H     1 <1>   0.0800 
 37 H        0.2200     7.3090     1.8660 H     1 <1>   0.0800 
 38 H        1.5490     5.2780    -2.5030 H     1 <1>   0.0800 
 39 H        1.7880     5.7240     2.4680 H     1 <1>   0.0800 
 40 H        2.6210     6.7420     1.3260 H     1 <1>   0.0800 
 41 H        3.2230     5.8410    -0.6980 H     1 <1>   0.0800 
 42 H        2.8790     4.1560    -0.9910 H     1 <1>   0.0800 
 43 H        0.6980     9.4080     0.6780 H     1 <1>   0.0800 
 44 H       -0.9210     8.9070     0.2110 H     1 <1>   0.0800 
 45 H        0.2280     9.4080    -1.0050 H     1 <1>   0.0800 
@<TRIPOS>BOND
  1   1   2  1   
  2   2   3  ar  
  3   2   4  ar  
  4   3   5  ar  
  5   3  26  1   
  6   4   6  ar  
  7   4  27  1   
  8   5   7  ar  
  9   5   8  1   
 10   6   7  ar  
 11   6  28  1   
 12   7   9  1   
 13   8  10  1   
 14   8  29  1   
 15   8  30  1   
 16   9  11  1   
 17  10  12  1   
 18  10  13  1   
 19  11  14  1   
 20  11  31  1   
 21  11  32  1   
 22  12  15  1   
 23  12  33  1   
 24  12  34  1   
 25  13  16  1   
 26  13  35  1   
 27  13  36  1   
 28  14  17  ar  
 29  14  18  ar  
 30  15  19  1   
 31  15  20  1   
 32  15  37  1   
 33  16  21  1   
 34  16  22  1   
 35  16  38  1   
 36  19  21  am  
 37  19  23  1   
 38  20  24  1   
 39  20  39  1   
 40  20  40  1   
 41  21  25  2   
 42  22  24  1   
 43  22  41  1   
 44  22  42  1   
 45  23  43  1   
 46  23  44  1   
 47  23  45  1   
@<TRIPOS>SUBSTRUCTURE
  1 ****   8 GROUP 4 **** **** 0

# MOE 2024.06 (io_trps.svl 2023.06)
