@<TRIPOS>MOLECULE
NONAME
50 53 1 0 0 
SMALL
USER_CHARGES


@<TRIPOS>ATOM
  1 F        0.3260     0.8410     0.5900 F     1 <1>  -0.1900 
  2 C        1.5180     1.3550     0.4460 C.ar  1 <1>   0.1900 
  3 C        1.8900     1.8410    -0.7920 C.ar  1 <1>  -0.1500 
  4 C        2.3630     1.3940     1.5390 C.ar  1 <1>  -0.1500 
  5 C        3.1570     2.3820    -0.9370 C.ar  1 <1>  -0.1500 
  6 C        3.6270     1.9370     1.3800 C.ar  1 <1>  -0.1500 
  7 C        4.0300     2.4290     0.1440 C.ar  1 <1>  -0.1430 
  8 C        5.4300     3.0160    -0.0330 C.3   1 <1>   0.0450 
  9 C        5.5090     4.5430    -0.0040 C.2   1 <1>   0.5690 
 10 O        4.4800     5.1760    -0.0490 O.2   1 <1>  -0.5700 
 11 N        6.7300     5.1780     0.0530 N.am  1 <1>  -0.6600 
 12 C        8.0620     4.4990    -0.0650 C.3   1 <1>   0.1400 
 13 C        6.7920     6.6600     0.2150 C.3   1 <1>   0.1400 
 14 C        8.8530     4.9850    -1.2880 C.3   1 <1>   0.1400 
 15 C        7.0760     7.3250    -1.1360 C.3   1 <1>  -0.1600 
 16 N        9.4190     6.3470    -1.0610 N.am  1 <1>  -0.6600 
 17 C        8.5700     7.5170    -1.4330 C.3   1 <1>   0.1400 
 18 C       10.6840     6.4890    -0.5060 C.2   1 <1>   0.7160 
 19 O       11.1380     5.5200     0.0860 O.2   1 <1>  -0.5700 
 20 C       11.4840     7.7130    -0.5810 C.2   1 <1>   0.2030 
 21 N       11.3240     8.7460    -1.3970 N.2   1 <1>  -0.7070 
 22 C       12.5930     7.9390     0.2470 C.2   1 <1>  -0.1500 
 23 N       12.3110     9.6020    -1.0900 N.pl3 1 <1>   0.3000 
 24 C       13.0910     9.1410    -0.0970 C.2   1 <1>  -0.2370 
 25 C       14.2780     9.9030     0.4530 C.3   1 <1>  -0.0150 
 26 C       14.6580     9.7610     1.8910 C.3   1 <1>  -0.2000 
 27 C       14.0490    11.0400     1.3950 C.3   1 <1>  -0.2000 
 28 H        1.2040     1.7990    -1.6170 H     1 <1>   0.1500 
 29 H        2.0350     1.0100     2.4870 H     1 <1>   0.1500 
 30 H        3.4590     2.7740    -1.8930 H     1 <1>   0.1500 
 31 H        4.2910     1.9780     2.2250 H     1 <1>   0.1500 
 32 H        5.8270     2.6800    -0.9720 H     1 <1>   0.0800 
 33 H        6.0590     2.6320     0.7480 H     1 <1>   0.0800 
 34 H        7.9380     3.4380    -0.1580 H     1 <1>   0.0800 
 35 H        8.6380     4.6780     0.8260 H     1 <1>   0.0800 
 36 H        7.5490     6.9220     0.9350 H     1 <1>   0.0800 
 37 H        5.8510     7.0220     0.5930 H     1 <1>   0.0800 
 38 H        8.2290     4.9780    -2.1650 H     1 <1>   0.0800 
 39 H        9.6630     4.2990    -1.4670 H     1 <1>   0.0800 
 40 H        6.6250     8.3000    -1.1320 H     1 <1>   0.0800 
 41 H        6.6010     6.7720    -1.9260 H     1 <1>   0.0800 
 42 H        8.8970     8.3750    -0.8730 H     1 <1>   0.0800 
 43 H        8.7110     7.7370    -2.4780 H     1 <1>   0.0800 
 44 H       12.9480     7.2560     0.9990 H     1 <1>   0.1500 
 45 H       12.4360    10.5010    -1.5710 H     1 <1>   0.2700 
 46 H       15.0830     9.9920    -0.2570 H     1 <1>   0.1000 
 47 H       15.7030     9.7460     2.1470 H     1 <1>   0.1000 
 48 H       14.0680     9.1230     2.5250 H     1 <1>   0.1000 
 49 H       13.0420    11.2740     1.6950 H     1 <1>   0.1000 
 50 H       14.6730    11.9130     1.3170 H     1 <1>   0.1000 
@<TRIPOS>BOND
  1   1   2  1   
  2   2   3  ar  
  3   2   4  ar  
  4   3   5  ar  
  5   3  28  1   
  6   4   6  ar  
  7   4  29  1   
  8   5   7  ar  
  9   5  30  1   
 10   6   7  ar  
 11   6  31  1   
 12   7   8  1   
 13   8   9  1   
 14   8  32  1   
 15   8  33  1   
 16   9  10  2   
 17   9  11  am  
 18  11  12  1   
 19  11  13  1   
 20  12  14  1   
 21  12  34  1   
 22  12  35  1   
 23  13  15  1   
 24  13  36  1   
 25  13  37  1   
 26  14  16  1   
 27  14  38  1   
 28  14  39  1   
 29  15  17  1   
 30  15  40  1   
 31  15  41  1   
 32  16  17  1   
 33  16  18  am  
 34  17  42  1   
 35  17  43  1   
 36  18  19  2   
 37  18  20  1   
 38  20  21  2   
 39  20  22  1   
 40  21  23  1   
 41  22  24  2   
 42  22  44  1   
 43  23  24  1   
 44  23  45  1   
 45  24  25  1   
 46  25  26  1   
 47  25  27  1   
 48  25  46  1   
 49  26  27  1   
 50  26  47  1   
 51  26  48  1   
 52  27  49  1   
 53  27  50  1   
@<TRIPOS>SUBSTRUCTURE
  1 ****  12 GROUP 4 **** **** 0

# MOE 2024.06 (io_trps.svl 2023.06)
