@<TRIPOS>MOLECULE
NONAME
39 41 1 0 0 
SMALL
USER_CHARGES


@<TRIPOS>ATOM
  1 O       -2.9640     1.5560    -2.1880 O.2   1 <1>  -0.5700 
  2 C       -2.4920     1.3560    -1.0960 C.2   1 <1>   0.5690 
  3 N       -2.2280     0.0990    -0.6570 N.am  1 <1>  -0.7300 
  4 C       -2.2180     2.5450    -0.2000 C.3   1 <1>   0.1570 
  5 C       -2.3900    -1.1490    -1.4370 C.3   1 <1>   0.2200 
  6 N       -0.9840     2.3340     0.5720 N.pl3 1 <1>   0.3140 
  7 C       -3.4590    -2.0460    -0.8320 C.3   1 <1>  -0.0800 
  8 C       -1.1520    -2.0190    -1.2560 C.3   1 <1>   0.1200 
  9 N       -0.9500     1.5210     1.6490 N.2   1 <1>  -0.7070 
 10 C        0.2280     2.8720     0.3320 C.2   1 <1>  -0.3020 
 11 C       -2.6960    -2.7910     0.2660 C.3   1 <1>   0.1200 
 12 C       -4.7340    -1.3340    -0.3430 C.3   1 <1>  -0.0160 
 13 O       -1.3370    -2.7020    -0.0520 O.3   1 <1>  -0.5600 
 14 C        0.2800     1.5650     2.0620 C.2   1 <1>   0.1390 
 15 C        1.0680     2.3970     1.2760 C.2   1 <1>  -0.1500 
 16 C       -5.7650    -2.3410     0.1430 C.ar  1 <1>  -0.1440 
 17 C       -5.9170    -2.6480     1.4800 C.ar  1 <1>  -0.1500 
 18 C       -6.6010    -3.0030    -0.7320 C.ar  1 <1>  -0.1500 
 19 C       -6.8690    -3.5790     1.8650 C.ar  1 <1>   0.1600 
 20 C       -7.5210    -3.9170    -0.2440 C.ar  1 <1>   0.1600 
 21 N       -7.6730    -4.2220     1.0350 N.ar  1 <1>  -0.6200 
 22 H       -1.7720    -0.0150     0.2630 H     1 <1>   0.3700 
 23 H       -3.0350     2.6730     0.4820 H     1 <1>   0.0800 
 24 H       -2.1130     3.4300    -0.7970 H     1 <1>   0.0800 
 25 H       -2.5770    -0.9250    -2.4740 H     1 <1>   0.0800 
 26 H       -3.7410    -2.7700    -1.5760 H     1 <1>   0.0800 
 27 H       -0.2430    -1.4450    -1.2110 H     1 <1>   0.0800 
 28 H       -1.0860    -2.7520    -2.0400 H     1 <1>   0.0800 
 29 H        0.4260     3.5470    -0.4810 H     1 <1>   0.1500 
 30 H       -2.9780    -3.8280     0.3200 H     1 <1>   0.0800 
 31 H       -2.8320    -2.3250     1.2260 H     1 <1>   0.0800 
 32 H       -5.1520    -0.7570    -1.1500 H     1 <1>   0.0800 
 33 H       -4.5010    -0.6510     0.4550 H     1 <1>   0.0800 
 34 H        0.6400     1.0170     2.9170 H     1 <1>   0.1500 
 35 H        2.1150     2.5960     1.4150 H     1 <1>   0.1500 
 36 H       -5.3070    -2.1740     2.2270 H     1 <1>   0.1500 
 37 H       -6.5470    -2.8170    -1.7890 H     1 <1>   0.1500 
 38 H       -6.9730    -3.8050     2.9120 H     1 <1>   0.1500 
 39 H       -8.1650    -4.4230    -0.9420 H     1 <1>   0.1500 
@<TRIPOS>BOND
  1   1   2  2   
  2   2   3  am  
  3   2   4  1   
  4   3   5  1   
  5   3  22  1   
  6   4   6  1   
  7   4  23  1   
  8   4  24  1   
  9   5   7  1   
 10   5   8  1   
 11   5  25  1   
 12   6   9  1   
 13   6  10  1   
 14   7  11  1   
 15   7  12  1   
 16   7  26  1   
 17   8  13  1   
 18   8  27  1   
 19   8  28  1   
 20   9  14  2   
 21  10  15  2   
 22  10  29  1   
 23  11  13  1   
 24  11  30  1   
 25  11  31  1   
 26  12  16  1   
 27  12  32  1   
 28  12  33  1   
 29  14  15  1   
 30  14  34  1   
 31  15  35  1   
 32  16  17  ar  
 33  16  18  ar  
 34  17  19  ar  
 35  17  36  1   
 36  18  20  ar  
 37  18  37  1   
 38  19  21  ar  
 39  19  38  1   
 40  20  21  ar  
 41  20  39  1   
@<TRIPOS>SUBSTRUCTURE
  1 ****   3 GROUP 4 **** **** 0

# MOE 2024.06 (io_trps.svl 2023.06)
