@<TRIPOS>MOLECULE
NONAME
43 45 1 0 0 
SMALL
USER_CHARGES


@<TRIPOS>ATOM
  1 F       -0.0530    -0.5300    -1.0260 F     1 <1>  -0.1900 
  2 C       -0.6430    -1.6450    -0.6770 C.ar  1 <1>   0.1900 
  3 C        0.0670    -2.7250    -0.1400 C.ar  1 <1>   0.0830 
  4 C       -2.0110    -1.7010    -0.8630 C.ar  1 <1>  -0.1500 
  5 O        1.4110    -2.7900     0.0910 O.3   1 <1>  -0.3630 
  6 C       -0.6510    -3.8590     0.2020 C.ar  1 <1>  -0.1500 
  7 C       -2.6950    -2.8490    -0.5100 C.ar  1 <1>  -0.1500 
  8 C        2.3010    -1.7520    -0.2550 C.3   1 <1>   0.0400 
  9 C       -2.0340    -3.9560     0.0280 C.ar  1 <1>   0.0530 
 10 C       -2.7430    -5.1590     0.3970 C.2   1 <1>   0.0870 
 11 O       -2.2330    -5.9840     1.2820 O.3   1 <1>  -0.0190 
 12 C       -3.9280    -5.6930     0.0090 C.2   1 <1>  -0.2330 
 13 N       -2.9980    -7.0210     1.5120 N.2   1 <1>  -0.4100 
 14 C       -4.0280    -6.8650     0.7580 C.2   1 <1>   0.3720 
 15 C       -4.8840    -5.2270    -0.9380 C.2   1 <1>   1.0330 
 16 N       -5.0810    -7.7840     0.7370 N.pl3 1 <1>  -0.8210 
 17 O       -5.7610    -4.4150    -0.5950 O.co2 1 <1>  -0.9000 
 18 O       -4.8560    -5.6180    -2.1170 O.co2 1 <1>  -0.9000 
 19 C       -5.1950    -8.5080    -0.5560 C.3   1 <1>   0.2090 
 20 C       -6.3760    -7.2070     1.1850 C.3   1 <1>   0.2090 
 21 C       -6.2020    -9.6490    -0.4190 C.3   1 <1>  -0.1600 
 22 C       -7.4010    -8.3280     1.3550 C.3   1 <1>  -0.1600 
 23 C       -7.5550    -9.0970     0.0440 C.3   1 <1>   0.2000 
 24 O       -8.4410   -10.1490     0.2710 O.3   1 <1>  -0.5600 
 25 C       -9.1190   -10.6030    -0.8570 C.3   1 <1>   0.0400 
 26 H       -2.5360    -0.8600    -1.2780 H     1 <1>   0.1500 
 27 H       -0.1160    -4.6960     0.6130 H     1 <1>   0.1500 
 28 H       -3.7620    -2.8810    -0.6520 H     1 <1>   0.1500 
 29 H        3.2970    -2.0670     0.0000 H     1 <1>   0.0800 
 30 H        2.0440    -0.8700     0.3040 H     1 <1>   0.0800 
 31 H        2.2350    -1.5730    -1.3130 H     1 <1>   0.0800 
 32 H       -4.2290    -8.8970    -0.8310 H     1 <1>   0.0800 
 33 H       -5.5200    -7.8340    -1.3290 H     1 <1>   0.0800 
 34 H       -6.7370    -6.4980     0.4600 H     1 <1>   0.0800 
 35 H       -6.2330    -6.6920     2.1190 H     1 <1>   0.0800 
 36 H       -5.8290   -10.3570     0.2990 H     1 <1>   0.0800 
 37 H       -6.3010   -10.1330    -1.3710 H     1 <1>   0.0800 
 38 H       -8.3460    -7.9030     1.6370 H     1 <1>   0.0800 
 39 H       -7.0670    -8.9890     2.1340 H     1 <1>   0.0800 
 40 H       -7.9670    -8.4380    -0.7030 H     1 <1>   0.0800 
 41 H       -9.7800   -11.3950    -0.5510 H     1 <1>   0.0800 
 42 H       -8.4130   -10.9800    -1.5750 H     1 <1>   0.0800 
 43 H       -9.6920    -9.7950    -1.2760 H     1 <1>   0.0800 
@<TRIPOS>BOND
  1   1   2  1   
  2   2   3  ar  
  3   2   4  ar  
  4   3   5  1   
  5   3   6  ar  
  6   4   7  ar  
  7   4  26  1   
  8   5   8  1   
  9   6   9  ar  
 10   6  27  1   
 11   7   9  ar  
 12   7  28  1   
 13   8  29  1   
 14   8  30  1   
 15   8  31  1   
 16   9  10  1   
 17  10  11  1   
 18  10  12  2   
 19  11  13  1   
 20  12  14  1   
 21  12  15  1   
 22  13  14  2   
 23  14  16  1   
 24  15  17  ar  
 25  15  18  ar  
 26  16  19  1   
 27  16  20  1   
 28  19  21  1   
 29  19  32  1   
 30  19  33  1   
 31  20  22  1   
 32  20  34  1   
 33  20  35  1   
 34  21  23  1   
 35  21  36  1   
 36  21  37  1   
 37  22  23  1   
 38  22  38  1   
 39  22  39  1   
 40  23  24  1   
 41  23  40  1   
 42  24  25  1   
 43  25  41  1   
 44  25  42  1   
 45  25  43  1   
@<TRIPOS>SUBSTRUCTURE
  1 ****  12 GROUP 4 **** **** 0

# MOE 2024.06 (io_trps.svl 2023.06)
