@<TRIPOS>MOLECULE
NONAME
49 51 1 0 0 
SMALL
USER_CHARGES


@<TRIPOS>ATOM
  1 O       -0.1160     0.2500     0.5510 O.2   1 <1>  -0.5700 
  2 C        0.3140     1.3800     0.3840 C.2   1 <1>   0.7800 
  3 O        1.3320     1.6120    -0.4540 O.3   1 <1>  -0.4300 
  4 N       -0.2250     2.4540     1.0390 N.am  1 <1>  -0.3250 
  5 C        2.0180     0.6720    -1.2510 C.3   1 <1>   0.2800 
  6 O        0.2420     3.7680     0.9070 O.3   1 <1>  -0.3160 
  7 C       -1.4230     2.4230     1.8980 C.3   1 <1>   0.2200 
  8 C        1.0550     0.0270    -2.2550 C.3   1 <1>  -0.2400 
  9 C        3.0670     1.4850    -2.0100 C.3   1 <1>  -0.2400 
 10 C        2.7230    -0.3620    -0.3650 C.3   1 <1>  -0.2400 
 11 C       -0.8420     4.6290     1.1290 C.3   1 <1>   0.1200 
 12 C       -1.7070     3.9010     2.1620 C.3   1 <1>  -0.0800 
 13 C       -2.6620     1.8750     1.1700 C.3   1 <1>   0.1400 
 14 C       -3.1990     4.1170     1.9210 C.3   1 <1>   0.1400 
 15 N       -3.5890     3.0190     1.0210 N.am  1 <1>  -0.6600 
 16 C       -4.4810     3.1300    -0.0060 C.2   1 <1>   0.7800 
 17 O       -4.7000     2.2250    -0.7860 O.2   1 <1>  -0.5700 
 18 O       -5.1160     4.2900    -0.1370 O.3   1 <1>  -0.4300 
 19 C       -6.0360     4.4770    -1.1860 C.3   1 <1>   0.2630 
 20 C       -6.5220     5.9160    -1.1390 C.ar  1 <1>  -0.1440 
 21 C       -5.8900     6.8920    -1.8940 C.ar  1 <1>  -0.1500 
 22 C       -7.5990     6.2660    -0.3390 C.ar  1 <1>  -0.1500 
 23 C       -6.3330     8.2030    -1.8540 C.ar  1 <1>  -0.1500 
 24 C       -8.0430     7.5760    -0.2980 C.ar  1 <1>  -0.1500 
 25 C       -7.4100     8.5460    -1.0560 C.ar  1 <1>  -0.1500 
 26 H       -1.2190     1.8720     2.7980 H     1 <1>   0.0800 
 27 H        1.6050    -0.5780    -2.9520 H     1 <1>   0.0800 
 28 H        0.5250     0.7840    -2.8030 H     1 <1>   0.0800 
 29 H        0.3480    -0.6130    -1.7600 H     1 <1>   0.0800 
 30 H        3.6450     0.8450    -2.6510 H     1 <1>   0.0800 
 31 H        3.7350     1.9670    -1.3190 H     1 <1>   0.0800 
 32 H        2.5910     2.2340    -2.6150 H     1 <1>   0.0800 
 33 H        3.3570    -0.9880    -0.9670 H     1 <1>   0.0800 
 34 H        2.0140    -1.0000     0.1290 H     1 <1>   0.0800 
 35 H        3.3310     0.1310     0.3720 H     1 <1>   0.0800 
 36 H       -0.4750     5.5770     1.4810 H     1 <1>   0.0800 
 37 H       -1.3570     4.7470     0.1910 H     1 <1>   0.0800 
 38 H       -1.4230     4.1920     3.1570 H     1 <1>   0.0800 
 39 H       -3.1350     1.1140     1.7660 H     1 <1>   0.0800 
 40 H       -2.4160     1.4640     0.2050 H     1 <1>   0.0800 
 41 H       -3.4010     5.0820     1.4880 H     1 <1>   0.0800 
 42 H       -3.7460     4.0190     2.8440 H     1 <1>   0.0800 
 43 H       -5.5420     4.2690    -2.1190 H     1 <1>   0.0800 
 44 H       -6.8520     3.7880    -1.0520 H     1 <1>   0.0800 
 45 H       -5.0490     6.6360    -2.5150 H     1 <1>   0.1500 
 46 H       -8.0930     5.5190     0.2570 H     1 <1>   0.1500 
 47 H       -5.8390     8.9570    -2.4430 H     1 <1>   0.1500 
 48 H       -8.8790     7.8410     0.3250 H     1 <1>   0.1500 
 49 H       -7.7550     9.5640    -1.0240 H     1 <1>   0.1500 
@<TRIPOS>BOND
  1   1   2  2   
  2   2   3  1   
  3   2   4  am  
  4   3   5  1   
  5   4   6  1   
  6   4   7  1   
  7   5   8  1   
  8   5   9  1   
  9   5  10  1   
 10   6  11  1   
 11   7  12  1   
 12   7  13  1   
 13   7  26  1   
 14   8  27  1   
 15   8  28  1   
 16   8  29  1   
 17   9  30  1   
 18   9  31  1   
 19   9  32  1   
 20  10  33  1   
 21  10  34  1   
 22  10  35  1   
 23  11  12  1   
 24  11  36  1   
 25  11  37  1   
 26  12  14  1   
 27  12  38  1   
 28  13  15  1   
 29  13  39  1   
 30  13  40  1   
 31  14  15  1   
 32  14  41  1   
 33  14  42  1   
 34  15  16  am  
 35  16  17  2   
 36  16  18  1   
 37  18  19  1   
 38  19  20  1   
 39  19  43  1   
 40  19  44  1   
 41  20  21  ar  
 42  20  22  ar  
 43  21  23  ar  
 44  21  45  1   
 45  22  24  ar  
 46  22  46  1   
 47  23  25  ar  
 48  23  47  1   
 49  24  25  ar  
 50  24  48  1   
 51  25  49  1   
@<TRIPOS>SUBSTRUCTURE
  1 ****  15 GROUP 4 **** **** 0

# MOE 2024.06 (io_trps.svl 2023.06)
