@<TRIPOS>MOLECULE
NONAME
51 53 1 0 0 
SMALL
USER_CHARGES


@<TRIPOS>ATOM
  1 O       -0.0670     2.1110     1.5870 O.2   1 <1>  -0.5700 
  2 C        0.0050     2.8180     0.5950 C.2   1 <1>   0.5440 
  3 N       -1.1480     3.3870     0.0870 N.am  1 <1>  -0.6600 
  4 C        1.2870     3.0170    -0.0370 C.ar  1 <1>   0.0860 
  5 C       -2.4980     3.1110     0.6660 C.3   1 <1>   0.1400 
  6 C       -1.1860     4.2170    -1.1430 C.3   1 <1>   0.1400 
  7 C        2.1240     4.0730     0.3470 C.ar  1 <1>   0.0830 
  8 C        1.7270     2.1720    -1.0630 C.ar  1 <1>   0.0830 
  9 C       -3.3900     2.3700    -0.3630 C.3   1 <1>   0.0000 
 10 C       -2.0370     3.5130    -2.2050 C.3   1 <1>  -0.1600 
 11 O        1.6830     4.8990     1.3270 O.3   1 <1>  -0.3620 
 12 C        3.3570     4.2590    -0.2750 C.ar  1 <1>  -0.1500 
 13 O        0.9670     1.1510    -1.5070 O.3   1 <1>  -0.3630 
 14 C        2.9490     2.3720    -1.6840 C.ar  1 <1>  -0.1500 
 15 C       -4.7970     2.1080     0.2010 C.3   1 <1>   0.2000 
 16 C       -3.4450     3.1810    -1.6770 C.3   1 <1>  -0.1600 
 17 C       -2.8770     0.9370    -0.5850 C.3   1 <1>  -0.1600 
 18 C        2.4850     5.9090     1.8960 C.3   1 <1>   0.0400 
 19 C        3.7670     3.4120    -1.2880 C.ar  1 <1>  -0.1500 
 20 C        0.9970    -0.0440    -0.7570 C.3   1 <1>   0.0400 
 21 O       -5.2770     3.2060     0.9200 O.3   1 <1>  -0.5600 
 22 C       -4.6620     0.8690     1.0930 C.3   1 <1>  -0.1600 
 23 C       -3.4180     0.1210     0.5940 C.3   1 <1>  -0.1600 
 24 C       -6.6390     3.1710     1.2070 C.3   1 <1>   0.0400 
 25 H       -2.4130     2.5340     1.5700 H     1 <1>   0.0800 
 26 H       -2.9490     4.0510     0.9280 H     1 <1>   0.0800 
 27 H       -1.6190     5.1730    -0.9020 H     1 <1>   0.0800 
 28 H       -0.1960     4.3900    -1.5280 H     1 <1>   0.0800 
 29 H       -2.1180     4.1470    -3.0700 H     1 <1>   0.0800 
 30 H       -1.5340     2.6120    -2.5080 H     1 <1>   0.0800 
 31 H        4.0100     5.0610     0.0110 H     1 <1>   0.1500 
 32 H        3.2520     1.7100    -2.4750 H     1 <1>   0.1500 
 33 H       -5.4690     1.9010    -0.6140 H     1 <1>   0.0800 
 34 H       -3.9930     2.6400    -2.4280 H     1 <1>   0.0800 
 35 H       -3.9700     4.1020    -1.4900 H     1 <1>   0.0800 
 36 H       -3.2860     0.5420    -1.4980 H     1 <1>   0.0800 
 37 H       -1.8040     0.8850    -0.6420 H     1 <1>   0.0800 
 38 H        1.9230     6.3730     2.6870 H     1 <1>   0.0800 
 39 H        2.7200     6.6370     1.1400 H     1 <1>   0.0800 
 40 H        3.3780     5.4620     2.2960 H     1 <1>   0.0800 
 41 H        4.7190     3.5620    -1.7690 H     1 <1>   0.1500 
 42 H        0.4040    -0.7780    -1.2710 H     1 <1>   0.0800 
 43 H        0.5850     0.1370     0.2190 H     1 <1>   0.0800 
 44 H        2.0150    -0.3790    -0.6760 H     1 <1>   0.0800 
 45 H       -4.5140     1.1630     2.1180 H     1 <1>   0.0800 
 46 H       -5.5380     0.2500     1.0150 H     1 <1>   0.0800 
 47 H       -2.6780     0.0900     1.3770 H     1 <1>   0.0800 
 48 H       -3.6490    -0.8860     0.2940 H     1 <1>   0.0800 
 49 H       -6.8900     4.0720     1.7380 H     1 <1>   0.0800 
 50 H       -6.8540     2.3170     1.8250 H     1 <1>   0.0800 
 51 H       -7.1950     3.1250     0.2870 H     1 <1>   0.0800 
@<TRIPOS>BOND
  1   1   2  2   
  2   2   3  am  
  3   2   4  1   
  4   3   5  1   
  5   3   6  1   
  6   4   7  ar  
  7   4   8  ar  
  8   5   9  1   
  9   5  25  1   
 10   5  26  1   
 11   6  10  1   
 12   6  27  1   
 13   6  28  1   
 14   7  11  1   
 15   7  12  ar  
 16   8  13  1   
 17   8  14  ar  
 18   9  15  1   
 19   9  16  1   
 20   9  17  1   
 21  10  16  1   
 22  10  29  1   
 23  10  30  1   
 24  11  18  1   
 25  12  19  ar  
 26  12  31  1   
 27  13  20  1   
 28  14  19  ar  
 29  14  32  1   
 30  15  21  1   
 31  15  22  1   
 32  15  33  1   
 33  16  34  1   
 34  16  35  1   
 35  17  23  1   
 36  17  36  1   
 37  17  37  1   
 38  18  38  1   
 39  18  39  1   
 40  18  40  1   
 41  19  41  1   
 42  20  42  1   
 43  20  43  1   
 44  20  44  1   
 45  21  24  1   
 46  22  23  1   
 47  22  45  1   
 48  22  46  1   
 49  23  47  1   
 50  23  48  1   
 51  24  49  1   
 52  24  50  1   
 53  24  51  1   
@<TRIPOS>SUBSTRUCTURE
  1 ****   3 GROUP 4 **** **** 0

# MOE 2024.06 (io_trps.svl 2023.06)
