@<TRIPOS>MOLECULE
NONAME
46 49 1 0 0 
SMALL
USER_CHARGES


@<TRIPOS>ATOM
  1 O        0.9520    -0.0660    -3.2240 O.2   1 <1>  -0.5700 
  2 C        1.1550    -0.6830    -2.2060 C.2   1 <1>   0.5690 
  3 N        1.8350    -0.1410    -1.1710 N.am  1 <1>  -0.7300 
  4 C        0.6150    -2.1080    -2.0450 C.3   1 <1>   0.1710 
  5 C        2.2660     1.2580    -1.0630 C.3   1 <1>   0.3640 
  6 N        0.4120    -2.5240    -0.6260 N.3   1 <1>  -0.8100 
  7 C        2.9330     1.4230     0.2690 C.ar  1 <1>  -0.1430 
  8 C        1.0640     2.2130    -0.9140 C.3   1 <1>   0.1200 
  9 C       -0.7370    -1.8040    -0.0130 C.3   1 <1>   0.1100 
 10 C        0.1900    -3.9870    -0.5300 C.3   1 <1>   0.1100 
 11 C        2.1100     2.1630     1.0790 C.ar  1 <1>   0.0820 
 12 C        4.1440     0.9490     0.7420 C.ar  1 <1>  -0.1500 
 13 O        0.9810     2.5550     0.4650 O.3   1 <1>  -0.3620 
 14 C       -0.9650    -2.2200     1.4510 C.3   1 <1>   0.2090 
 15 C       -0.0360    -4.4540     0.9220 C.3   1 <1>   0.2090 
 16 C        2.4540     2.4540     2.3860 C.ar  1 <1>  -0.1500 
 17 C        4.5050     1.2360     2.0510 C.ar  1 <1>  -0.1500 
 18 N       -1.1650    -3.6980     1.5430 N.pl3 1 <1>  -0.8380 
 19 C        3.6650     1.9830     2.8690 C.ar  1 <1>  -0.1500 
 20 C       -2.4010    -4.2720     1.7460 C.ar  1 <1>   0.7200 
 21 N       -2.4280    -5.5860     1.9640 N.ar  1 <1>  -0.6200 
 22 N       -3.4640    -3.4680     1.6990 N.ar  1 <1>  -0.6200 
 23 C       -3.6070    -6.1210     2.1620 C.ar  1 <1>   0.1600 
 24 C       -4.6300    -4.0310     1.8980 C.ar  1 <1>   0.1600 
 25 C       -4.7600    -5.3760     2.1390 C.ar  1 <1>  -0.1500 
 26 H        1.8690    -0.6860    -0.3030 H     1 <1>   0.3700 
 27 H        1.3260    -2.7680    -2.5080 H     1 <1>   0.0800 
 28 H       -0.3120    -2.1900    -2.5860 H     1 <1>   0.0800 
 29 H        2.8970     1.5280    -1.8930 H     1 <1>   0.0800 
 30 H        0.1380     1.7640    -1.2260 H     1 <1>   0.0800 
 31 H        1.2390     3.1210    -1.4610 H     1 <1>   0.0800 
 32 H       -1.6370    -2.0060    -0.5680 H     1 <1>   0.0800 
 33 H       -0.5610    -0.7430    -0.0400 H     1 <1>   0.0800 
 34 H        1.0460    -4.5040    -0.9270 H     1 <1>   0.0800 
 35 H       -0.6710    -4.2650    -1.1150 H     1 <1>   0.0800 
 36 H        4.7900     0.3670     0.1080 H     1 <1>   0.1500 
 37 H       -1.8070    -1.6860     1.8540 H     1 <1>   0.0800 
 38 H       -0.1030    -1.9450     2.0340 H     1 <1>   0.0800 
 39 H        0.8580    -4.2820     1.4940 H     1 <1>   0.0800 
 40 H       -0.2260    -5.5120     0.9250 H     1 <1>   0.0800 
 41 H        1.7890     3.0350     2.9990 H     1 <1>   0.1500 
 42 H        5.4430     0.8760     2.4370 H     1 <1>   0.1500 
 43 H        3.9560     2.1970     3.8830 H     1 <1>   0.1500 
 44 H       -3.6550    -7.1810     2.3470 H     1 <1>   0.1500 
 45 H       -5.5040    -3.4030     1.8690 H     1 <1>   0.1500 
 46 H       -5.7200    -5.8260     2.3030 H     1 <1>   0.1500 
@<TRIPOS>BOND
  1   1   2  2   
  2   2   3  am  
  3   2   4  1   
  4   3   5  1   
  5   3  26  1   
  6   4   6  1   
  7   4  27  1   
  8   4  28  1   
  9   5   7  1   
 10   5   8  1   
 11   5  29  1   
 12   6   9  1   
 13   6  10  1   
 14   7  11  ar  
 15   7  12  ar  
 16   8  13  1   
 17   8  30  1   
 18   8  31  1   
 19   9  14  1   
 20   9  32  1   
 21   9  33  1   
 22  10  15  1   
 23  10  34  1   
 24  10  35  1   
 25  11  13  1   
 26  11  16  ar  
 27  12  17  ar  
 28  12  36  1   
 29  14  18  1   
 30  14  37  1   
 31  14  38  1   
 32  15  18  1   
 33  15  39  1   
 34  15  40  1   
 35  16  19  ar  
 36  16  41  1   
 37  17  19  ar  
 38  17  42  1   
 39  18  20  1   
 40  19  43  1   
 41  20  21  ar  
 42  20  22  ar  
 43  21  23  ar  
 44  22  24  ar  
 45  23  25  ar  
 46  23  44  1   
 47  24  25  ar  
 48  24  45  1   
 49  25  46  1   
@<TRIPOS>SUBSTRUCTURE
  1 ****   9 GROUP 4 **** **** 0

# MOE 2024.06 (io_trps.svl 2023.06)
