@<TRIPOS>MOLECULE
NONAME
48 52 1 0 0 
SMALL
USER_CHARGES


@<TRIPOS>ATOM
  1 S       -0.4440     0.7940    -1.9670 S.3   1 <1>  -0.0800 
  2 C       -0.2940     2.0570    -0.7630 C.2   1 <1>  -0.1400 
  3 C        1.2190     1.0560    -2.4750 C.2   1 <1>  -0.1100 
  4 C        0.9280     2.6050    -0.7610 C.2   1 <1>  -0.1810 
  5 C       -1.4300     2.4550     0.1400 C.3   1 <1>   0.0200 
  6 C        1.7970     2.0340    -1.7500 C.2   1 <1>  -0.1500 
  7 C        1.2890     3.7200     0.2230 C.3   1 <1>   0.4610 
  8 C       -1.0850     3.8340     0.7260 C.3   1 <1>   0.1200 
  9 O        0.2490     3.8770     1.1740 O.3   1 <1>  -0.5600 
 10 C        1.5110     5.0520    -0.5070 C.3   1 <1>  -0.1600 
 11 C        2.5400     3.3440     1.0240 C.3   1 <1>  -0.1600 
 12 C        1.9450     6.1650     0.4480 C.3   1 <1>   0.1400 
 13 C        2.9580     4.4660     1.9740 C.3   1 <1>   0.1400 
 14 N        3.1510     5.7240     1.2000 N.am  1 <1>  -0.6600 
 15 C        4.3500     6.4250     1.2180 C.2   1 <1>   0.7160 
 16 O        5.3440     5.8170     1.5900 O.2   1 <1>  -0.5700 
 17 C        4.4700     7.8250     0.8030 C.2   1 <1>   0.2030 
 18 N        3.5560     8.7750     0.9630 N.2   1 <1>  -0.7070 
 19 C        5.6000     8.3740     0.1670 C.2   1 <1>  -0.1810 
 20 N        4.0900     9.8890     0.4450 N.pl3 1 <1>   0.3000 
 21 C        5.3190     9.6680    -0.0520 C.2   1 <1>  -0.3320 
 22 C        6.9120     7.7240    -0.2440 C.3   1 <1>   0.0210 
 23 C        6.2320    10.6750    -0.7250 C.3   1 <1>   0.0200 
 24 C        7.9590     8.7970    -0.5980 C.3   1 <1>  -0.1600 
 25 C        7.3640     9.9320    -1.4570 C.3   1 <1>  -0.1600 
 26 H        1.5910     0.4410    -3.2740 H     1 <1>   0.1500 
 27 H       -1.5420     1.7330     0.9280 H     1 <1>   0.0800 
 28 H       -2.3490     2.5140    -0.4130 H     1 <1>   0.0800 
 29 H        2.8090     2.3800    -1.8720 H     1 <1>   0.1500 
 30 H       -1.7210     4.0510     1.5660 H     1 <1>   0.0800 
 31 H       -1.2220     4.6010    -0.0160 H     1 <1>   0.0800 
 32 H        0.6200     5.3420    -1.0310 H     1 <1>   0.0800 
 33 H        2.2810     4.9220    -1.2450 H     1 <1>   0.0800 
 34 H        3.3570     3.1440     0.3570 H     1 <1>   0.0800 
 35 H        2.3460     2.4460     1.5810 H     1 <1>   0.0800 
 36 H        1.1570     6.3890     1.1470 H     1 <1>   0.0800 
 37 H        2.1480     7.0500    -0.1270 H     1 <1>   0.0800 
 38 H        3.8610     4.1880     2.4900 H     1 <1>   0.0800 
 39 H        2.1920     4.6260     2.7130 H     1 <1>   0.0800 
 40 H        3.5960    10.7900     0.4440 H     1 <1>   0.2700 
 41 H        6.7310     7.0930    -1.0970 H     1 <1>   0.0800 
 42 H        7.2910     7.1110     0.5540 H     1 <1>   0.0800 
 43 H        6.6500    11.3230     0.0260 H     1 <1>   0.0800 
 44 H        5.6800    11.2740    -1.4280 H     1 <1>   0.0800 
 45 H        8.7800     8.3350    -1.1170 H     1 <1>   0.0800 
 46 H        8.3420     9.2190     0.3150 H     1 <1>   0.0800 
 47 H        8.1360    10.6310    -1.7250 H     1 <1>   0.0800 
 48 H        6.9720     9.5080    -2.3650 H     1 <1>   0.0800 
@<TRIPOS>BOND
  1   1   2  1   
  2   1   3  1   
  3   2   4  2   
  4   2   5  1   
  5   3   6  2   
  6   3  26  1   
  7   4   6  1   
  8   4   7  1   
  9   5   8  1   
 10   5  27  1   
 11   5  28  1   
 12   6  29  1   
 13   7   9  1   
 14   7  10  1   
 15   7  11  1   
 16   8   9  1   
 17   8  30  1   
 18   8  31  1   
 19  10  12  1   
 20  10  32  1   
 21  10  33  1   
 22  11  13  1   
 23  11  34  1   
 24  11  35  1   
 25  12  14  1   
 26  12  36  1   
 27  12  37  1   
 28  13  14  1   
 29  13  38  1   
 30  13  39  1   
 31  14  15  am  
 32  15  16  2   
 33  15  17  1   
 34  17  18  2   
 35  17  19  1   
 36  18  20  1   
 37  19  21  2   
 38  19  22  1   
 39  20  21  1   
 40  20  40  1   
 41  21  23  1   
 42  22  24  1   
 43  22  41  1   
 44  22  42  1   
 45  23  25  1   
 46  23  43  1   
 47  23  44  1   
 48  24  25  1   
 49  24  45  1   
 50  24  46  1   
 51  25  47  1   
 52  25  48  1   
@<TRIPOS>SUBSTRUCTURE
  1 ****  14 GROUP 4 **** **** 0

# MOE 2024.06 (io_trps.svl 2023.06)
