@<TRIPOS>MOLECULE
NONAME
29 31 1 0 0 
SMALL
USER_CHARGES


@<TRIPOS>ATOM
  1 S       -0.6530     0.2540     0.5640 S.3   1 <1>  -0.0800 
  2 C       -0.3560     1.9520     0.1900 C.ar  1 <1>   0.2970 
  3 C        1.0330     0.0100     1.0350 C.2   1 <1>  -0.1100 
  4 N       -1.2830     2.7770    -0.2490 N.ar  1 <1>  -0.5670 
  5 C        0.9570     2.2650     0.4250 C.ar  1 <1>   0.0000 
  6 C        1.7320     1.1520     0.9040 C.2   1 <1>  -0.1500 
  7 C       -0.8250     3.9960    -0.4580 C.ar  1 <1>   0.4770 
  8 C        1.3010     3.5870     0.1600 C.ar  1 <1>   0.4100 
  9 N        0.4090     4.4550    -0.2850 N.ar  1 <1>  -0.6200 
 10 C       -1.8260     5.0090    -0.9630 C.3   1 <1>  -0.0960 
 11 N        2.5800     4.0480     0.3460 N.pl3 1 <1>  -0.8380 
 12 C        3.3590     4.4390    -0.8740 C.3   1 <1>   0.2090 
 13 C        2.7840     5.1250     1.3610 C.3   1 <1>   0.2090 
 14 C        3.9310     5.8380    -0.6060 C.3   1 <1>   0.2600 
 15 C        3.0990     6.3830     0.5490 C.3   1 <1>   0.2000 
 16 F        5.1810     5.6930    -0.1640 F     1 <1>  -0.3400 
 17 O        1.8990     6.8860     0.0470 O.3   1 <1>  -0.6800 
 18 H        1.3130    -0.9760     1.3610 H     1 <1>   0.1500 
 19 H        2.7770     1.2860     1.1210 H     1 <1>   0.1500 
 20 H       -1.8090     5.8770    -0.3310 H     1 <1>   0.0800 
 21 H       -2.8180     4.5950    -0.9610 H     1 <1>   0.0800 
 22 H       -1.5680     5.2970    -1.9640 H     1 <1>   0.0800 
 23 H        4.1440     3.7290    -1.0700 H     1 <1>   0.0800 
 24 H        2.7000     4.4800    -1.7230 H     1 <1>   0.0800 
 25 H        1.9180     5.2630     1.9860 H     1 <1>   0.0800 
 26 H        3.6270     4.8660     1.9790 H     1 <1>   0.0800 
 27 H        3.9750     6.4800    -1.4660 H     1 <1>   0.0800 
 28 H        3.5940     7.1590     1.1050 H     1 <1>   0.0800 
 29 H        1.3120     6.1100    -0.1550 H     1 <1>   0.4000 
@<TRIPOS>BOND
  1   1   2  1   
  2   1   3  1   
  3   2   4  ar  
  4   2   5  ar  
  5   3   6  2   
  6   3  18  1   
  7   4   7  ar  
  8   5   6  1   
  9   5   8  ar  
 10   6  19  1   
 11   7   9  ar  
 12   7  10  1   
 13   8   9  ar  
 14   8  11  1   
 15  10  20  1   
 16  10  21  1   
 17  10  22  1   
 18  11  12  1   
 19  11  13  1   
 20  12  14  1   
 21  12  23  1   
 22  12  24  1   
 23  13  15  1   
 24  13  25  1   
 25  13  26  1   
 26  14  15  1   
 27  14  16  1   
 28  14  27  1   
 29  15  17  1   
 30  15  28  1   
 31  17  29  1   
@<TRIPOS>SUBSTRUCTURE
  1 ****   8 GROUP 4 **** **** 0

# MOE 2024.06 (io_trps.svl 2023.06)
