@<TRIPOS>MOLECULE
NONAME
46 49 1 0 0 
SMALL
USER_CHARGES


@<TRIPOS>ATOM
  1 O       -2.6150    -0.8420    -1.3030 O.2   1 <1>  -0.5700 
  2 C       -2.7200     0.0860    -0.5170 C.2   1 <1>   0.7670 
  3 N       -2.4000     1.3350    -0.9910 N.2   1 <1>  -0.6610 
  4 C       -3.1580    -0.1020     0.8290 C.2   1 <1>   0.0290 
  5 C       -2.4540     2.3280    -0.1860 C.2   1 <1>   0.5000 
  6 C       -3.5270    -1.4030     1.2930 C.2   1 <1>   0.6160 
  7 C       -3.1800     0.9930     1.6410 C.2   1 <1>  -0.0500 
  8 N       -2.8270     2.2000     1.1210 N.pl3 1 <1>  -0.5500 
  9 C       -2.0950     3.7240    -0.6810 C.3   1 <1>  -0.1000 
 10 O       -2.9810    -1.8470     2.2870 O.2   1 <1>  -0.5700 
 11 N       -4.5350    -2.1480     0.7230 N.am  1 <1>  -0.6600 
 12 C       -1.3800     4.7220     0.1840 C.3   1 <1>  -0.2000 
 13 C       -2.8120     4.9530    -0.2010 C.3   1 <1>  -0.2000 
 14 C       -5.4500    -1.7220    -0.3690 C.3   1 <1>   0.1400 
 15 C       -4.8260    -3.5500     1.1220 C.3   1 <1>   0.1400 
 16 C       -6.5460    -2.7880    -0.3900 C.3   1 <1>   0.2000 
 17 C       -5.8430    -4.0590     0.0910 C.3   1 <1>  -0.0800 
 18 O       -7.5080    -2.4410     0.5450 O.3   1 <1>  -0.6800 
 19 C       -5.1430    -4.7770    -1.0790 C.3   1 <1>   0.0210 
 20 C       -4.4380    -6.0360    -0.6160 C.2   1 <1>   0.1080 
 21 N       -5.0720    -7.0780    -0.1770 N.2   1 <1>  -0.7070 
 22 C       -3.0580    -6.2150    -0.6010 C.2   1 <1>  -0.1500 
 23 N       -4.1030    -7.9600     0.1330 N.pl3 1 <1>   0.3000 
 24 C       -2.8740    -7.4600    -0.1140 C.2   1 <1>  -0.3320 
 25 C       -1.5790    -8.2100     0.1360 C.3   1 <1>  -0.0600 
 26 H       -3.4670     0.9280     2.6800 H     1 <1>   0.1500 
 27 H       -2.8190     3.0540     1.6870 H     1 <1>   0.4000 
 28 H       -1.8160     3.7040    -1.7210 H     1 <1>   0.1000 
 29 H       -1.1430     4.4680     1.2030 H     1 <1>   0.1000 
 30 H       -0.6170     5.3310    -0.2690 H     1 <1>   0.1000 
 31 H       -3.0360     5.7230    -0.9190 H     1 <1>   0.1000 
 32 H       -3.5780     4.8630     0.5490 H     1 <1>   0.1000 
 33 H       -5.8520    -0.7380    -0.1990 H     1 <1>   0.0800 
 34 H       -4.9210    -1.7410    -1.3050 H     1 <1>   0.0800 
 35 H       -3.9220    -4.1360     1.1420 H     1 <1>   0.0800 
 36 H       -5.2590    -3.5520     2.1070 H     1 <1>   0.0800 
 37 H       -7.0250    -2.8870    -1.3490 H     1 <1>   0.0800 
 38 H       -6.5390    -4.7470     0.5400 H     1 <1>   0.0800 
 39 H       -7.0750    -2.3130     1.4120 H     1 <1>   0.4000 
 40 H       -4.4260    -4.1260    -1.5480 H     1 <1>   0.0800 
 41 H       -5.8730    -5.0570    -1.8170 H     1 <1>   0.0800 
 42 H       -2.3230    -5.4940    -0.9130 H     1 <1>   0.1500 
 43 H       -4.3130    -8.8920     0.5100 H     1 <1>   0.2700 
 44 H       -0.7390    -7.5950    -0.1330 H     1 <1>   0.0800 
 45 H       -1.5490    -9.1080    -0.4550 H     1 <1>   0.0800 
 46 H       -1.4940    -8.4690     1.1760 H     1 <1>   0.0800 
@<TRIPOS>BOND
  1   1   2  2   
  2   2   3  1   
  3   2   4  1   
  4   3   5  2   
  5   4   6  1   
  6   4   7  2   
  7   5   8  1   
  8   5   9  1   
  9   6  10  2   
 10   6  11  am  
 11   7   8  1   
 12   7  26  1   
 13   8  27  1   
 14   9  12  1   
 15   9  13  1   
 16   9  28  1   
 17  11  14  1   
 18  11  15  1   
 19  12  13  1   
 20  12  29  1   
 21  12  30  1   
 22  13  31  1   
 23  13  32  1   
 24  14  16  1   
 25  14  33  1   
 26  14  34  1   
 27  15  17  1   
 28  15  35  1   
 29  15  36  1   
 30  16  17  1   
 31  16  18  1   
 32  16  37  1   
 33  17  19  1   
 34  17  38  1   
 35  18  39  1   
 36  19  20  1   
 37  19  40  1   
 38  19  41  1   
 39  20  21  2   
 40  20  22  1   
 41  21  23  1   
 42  22  24  2   
 43  22  42  1   
 44  23  24  1   
 45  23  43  1   
 46  24  25  1   
 47  25  44  1   
 48  25  45  1   
 49  25  46  1   
@<TRIPOS>SUBSTRUCTURE
  1 ****  11 GROUP 4 **** **** 0

# MOE 2024.06 (io_trps.svl 2023.06)
