@<TRIPOS>MOLECULE
NONAME
38 39 1 0 0 
SMALL
USER_CHARGES


@<TRIPOS>ATOM
  1 CL       0.5920    -0.1480    -0.2100 Cl    1 <1>  -0.1770 
  2 C        0.2170    -1.8520    -0.1690 C.ar  1 <1>   0.1770 
  3 C       -1.0900    -2.2530     0.0430 C.ar  1 <1>  -0.1500 
  4 C        1.2310    -2.7740    -0.3480 C.ar  1 <1>  -0.1500 
  5 C       -1.3910    -3.6050     0.0760 C.ar  1 <1>  -0.1500 
  6 C        0.9270    -4.1240    -0.3140 C.ar  1 <1>  -0.1500 
  7 C       -0.3780    -4.5470    -0.1030 C.ar  1 <1>   0.0830 
  8 O       -0.5830    -5.8880    -0.0860 O.3   1 <1>  -0.3620 
  9 C       -1.8670    -6.4350     0.1010 C.3   1 <1>   0.1200 
 10 C       -1.7230    -7.9600     0.0670 C.3   1 <1>   0.3430 
 11 N       -3.0050    -8.6730     0.3580 N.4   1 <1>  -0.9590 
 12 C       -2.7400   -10.1520     0.5750 C.3   1 <1>   0.3430 
 13 C       -4.0380    -8.4740    -0.7060 C.3   1 <1>   0.3430 
 14 C       -3.9580   -11.0580     0.3000 C.3   1 <1>   0.2000 
 15 C       -5.3870    -9.0030    -0.2060 C.3   1 <1>  -0.1600 
 16 O       -3.9570   -11.3890    -1.0440 O.3   1 <1>  -0.6800 
 17 C       -5.2640   -10.3180     0.6080 C.3   1 <1>  -0.1860 
 18 C       -6.4380   -11.2440     0.3870 C.2   1 <1>   0.9060 
 19 O       -7.2380   -11.3930     1.3060 O.co2 1 <1>  -0.9000 
 20 O       -6.5190   -11.8190    -0.7050 O.co2 1 <1>  -0.9000 
 21 H       -1.8550    -1.5100     0.1790 H     1 <1>   0.1500 
 22 H        2.2380    -2.4360    -0.5100 H     1 <1>   0.1500 
 23 H       -2.4110    -3.8930     0.2420 H     1 <1>   0.1500 
 24 H        1.7050    -4.8550    -0.4520 H     1 <1>   0.1500 
 25 H       -2.2320    -6.1060     1.0580 H     1 <1>   0.0800 
 26 H       -2.4960    -6.0840    -0.6970 H     1 <1>   0.0800 
 27 H       -0.9880    -8.2420     0.8030 H     1 <1>   0.0800 
 28 H       -1.3600    -8.2570    -0.9040 H     1 <1>   0.0800 
 29 H       -3.4220    -8.3210     1.2290 H     1 <1>   0.4500 
 30 H       -1.9390   -10.4860    -0.0640 H     1 <1>   0.0800 
 31 H       -2.4320   -10.3010     1.5960 H     1 <1>   0.0800 
 32 H       -4.1360    -7.4340    -0.9690 H     1 <1>   0.0800 
 33 H       -3.7510    -9.0240    -1.5890 H     1 <1>   0.0800 
 34 H       -3.8920   -11.9770     0.8580 H     1 <1>   0.0800 
 35 H       -5.8880    -8.2590     0.3870 H     1 <1>   0.0800 
 36 H       -6.0040    -9.1790    -1.0710 H     1 <1>   0.0800 
 37 H       -4.8820   -11.7420    -1.2360 H     1 <1>   0.4000 
 38 H       -5.2630   -10.0740     1.6540 H     1 <1>   0.0800 
@<TRIPOS>BOND
  1   1   2  1   
  2   2   3  ar  
  3   2   4  ar  
  4   3   5  ar  
  5   3  21  1   
  6   4   6  ar  
  7   4  22  1   
  8   5   7  ar  
  9   5  23  1   
 10   6   7  ar  
 11   6  24  1   
 12   7   8  1   
 13   8   9  1   
 14   9  10  1   
 15   9  25  1   
 16   9  26  1   
 17  10  11  1   
 18  10  27  1   
 19  10  28  1   
 20  11  12  1   
 21  11  13  1   
 22  11  29  1   
 23  12  14  1   
 24  12  30  1   
 25  12  31  1   
 26  13  15  1   
 27  13  32  1   
 28  13  33  1   
 29  14  16  1   
 30  14  17  1   
 31  14  34  1   
 32  15  17  1   
 33  15  35  1   
 34  15  36  1   
 35  16  37  1   
 36  17  18  1   
 37  17  38  1   
 38  18  19  ar  
 39  18  20  ar  
@<TRIPOS>SUBSTRUCTURE
  1 ****   9 GROUP 4 **** **** 0

# MOE 2024.06 (io_trps.svl 2023.06)
