@<TRIPOS>MOLECULE
NONAME
45 46 1 0 0 
SMALL
USER_CHARGES


@<TRIPOS>ATOM
  1 F        1.1560     0.7330    -1.2270 F     1 <1>  -0.3400 
  2 C        1.9490    -0.0770    -1.9230 C.3   1 <1>   1.1640 
  3 F        1.1730    -1.0580    -2.3770 F     1 <1>  -0.3400 
  4 F        2.3160     0.6150    -3.0010 F     1 <1>  -0.3400 
  5 C        3.1540    -0.6030    -1.1000 C.ar  1 <1>   0.1660 
  6 N        2.9400    -1.2460     0.0420 N.ar  1 <1>  -0.6200 
  7 C        4.4390    -0.4000    -1.5390 C.ar  1 <1>  -0.1500 
  8 C        4.0080    -1.6520     0.7190 C.ar  1 <1>   0.7200 
  9 C        5.4850    -0.8500    -0.7620 C.ar  1 <1>   0.4100 
 10 N        5.2720    -1.4770     0.3660 N.ar  1 <1>  -0.6200 
 11 N        3.7760    -2.3050     1.9170 N.pl3 1 <1>  -0.8380 
 12 N        6.7930    -0.6040    -1.1260 N.pl3 1 <1>  -0.8380 
 13 C        2.3950    -2.6830     2.3390 C.3   1 <1>   0.1290 
 14 C        4.8700    -3.0490     2.6040 C.3   1 <1>   0.1290 
 15 C        7.8530    -0.4160    -0.0840 C.3   1 <1>   0.3890 
 16 C        7.2970    -0.8590    -2.5030 C.3   1 <1>   0.1290 
 17 C        8.5330     0.9420    -0.2050 C.2   1 <1>   0.0070 
 18 N        9.8130     1.0910    -0.1420 N.2   1 <1>  -0.3380 
 19 N        7.9120     2.1210    -0.3660 N.pl3 1 <1>   0.0480 
 20 N       10.0670     2.3930    -0.2640 N.2   1 <1>  -0.3380 
 21 C        8.9310     2.9820    -0.3960 C.2   1 <1>   0.0370 
 22 C        6.4830     2.4650    -0.5410 C.3   1 <1>   0.0960 
 23 C        5.6710     2.1820     0.7200 C.3   1 <1>   0.1200 
 24 O        4.3300     2.3760     0.4020 O.3   1 <1>  -0.5600 
 25 C        3.4540     2.0120     1.4230 C.3   1 <1>   0.0400 
 26 H        4.6550     0.1180    -2.4530 H     1 <1>   0.1500 
 27 H        1.7130    -1.8680     2.1670 H     1 <1>   0.0800 
 28 H        2.3740    -2.9220     3.3870 H     1 <1>   0.0800 
 29 H        2.0660    -3.5380     1.7740 H     1 <1>   0.0800 
 30 H        5.7420    -2.4240     2.6960 H     1 <1>   0.0800 
 31 H        5.1270    -3.9230     2.0300 H     1 <1>   0.0800 
 32 H        4.5640    -3.3500     3.5900 H     1 <1>   0.0800 
 33 H        8.5910    -1.1930    -0.1840 H     1 <1>   0.0800 
 34 H        7.4400    -0.4950     0.9060 H     1 <1>   0.0800 
 35 H        6.5060    -1.2150    -3.1390 H     1 <1>   0.0800 
 36 H        8.0720    -1.6060    -2.4770 H     1 <1>   0.0800 
 37 H        7.7030     0.0480    -2.9170 H     1 <1>   0.0800 
 38 H        8.8040     4.0410    -0.5210 H     1 <1>   0.1500 
 39 H        6.0950     1.8920    -1.3610 H     1 <1>   0.0800 
 40 H        6.4030     3.5070    -0.7860 H     1 <1>   0.0800 
 41 H        5.9390     2.8600     1.5110 H     1 <1>   0.0800 
 42 H        5.8000     1.1640     1.0440 H     1 <1>   0.0800 
 43 H        2.4480     2.1590     1.0710 H     1 <1>   0.0800 
 44 H        3.6330     2.6330     2.2830 H     1 <1>   0.0800 
 45 H        3.6000     0.9740     1.6700 H     1 <1>   0.0800 
@<TRIPOS>BOND
  1   1   2  1   
  2   2   3  1   
  3   2   4  1   
  4   2   5  1   
  5   5   6  ar  
  6   5   7  ar  
  7   6   8  ar  
  8   7   9  ar  
  9   7  26  1   
 10   8  10  ar  
 11   8  11  1   
 12   9  10  ar  
 13   9  12  1   
 14  11  13  1   
 15  11  14  1   
 16  12  15  1   
 17  12  16  1   
 18  13  27  1   
 19  13  28  1   
 20  13  29  1   
 21  14  30  1   
 22  14  31  1   
 23  14  32  1   
 24  15  17  1   
 25  15  33  1   
 26  15  34  1   
 27  16  35  1   
 28  16  36  1   
 29  16  37  1   
 30  17  18  2   
 31  17  19  1   
 32  18  20  1   
 33  19  21  1   
 34  19  22  1   
 35  20  21  2   
 36  21  38  1   
 37  22  23  1   
 38  22  39  1   
 39  22  40  1   
 40  23  24  1   
 41  23  41  1   
 42  23  42  1   
 43  24  25  1   
 44  25  43  1   
 45  25  44  1   
 46  25  45  1   
@<TRIPOS>SUBSTRUCTURE
  1 ****   9 GROUP 4 **** **** 0

# MOE 2024.06 (io_trps.svl 2023.06)
