@<TRIPOS>MOLECULE
NONAME
54 56 1 0 0 
SMALL
USER_CHARGES


@<TRIPOS>ATOM
  1 O        0.6520     0.2950     2.6050 O.co2 1 <1>  -0.9000 
  2 C        1.0920    -0.2610     1.5920 C.2   1 <1>   0.9060 
  3 O        0.8690    -1.4620     1.3710 O.co2 1 <1>  -0.9000 
  4 C        1.9470     0.5170     0.5800 C.3   1 <1>  -0.1060 
  5 C        3.2680    -0.2740     0.4240 C.3   1 <1>   0.2000 
  6 C        2.3280     1.9230     1.1220 C.3   1 <1>  -0.1600 
  7 C        1.1760     0.6100    -0.7750 C.3   1 <1>  -0.0160 
  8 O        3.0030    -1.5000    -0.1660 O.3   1 <1>  -0.6800 
  9 C        4.3480     0.4480    -0.4020 C.3   1 <1>   0.1400 
 10 C        3.3230     2.6610     0.2260 C.3   1 <1>   0.1400 
 11 C        0.1130     1.7060    -0.8660 C.ar  1 <1>  -0.1440 
 12 N        4.5680     1.8550     0.0690 N.am  1 <1>  -0.6600 
 13 C       -1.0000     1.6840    -0.0390 C.ar  1 <1>  -0.1500 
 14 C        0.2470     2.7340    -1.7870 C.ar  1 <1>  -0.1500 
 15 C        5.8310     2.3240     0.3410 C.2   1 <1>   0.6300 
 16 C       -1.9590     2.6780    -0.1250 C.ar  1 <1>  -0.1500 
 17 C       -0.7110     3.7300    -1.8770 C.ar  1 <1>  -0.1500 
 18 O        6.8040     1.6070     0.2680 O.2   1 <1>  -0.5700 
 19 C        6.0380     3.7790     0.7800 C.3   1 <1>  -0.1000 
 20 C       -1.8160     3.7030    -1.0440 C.ar  1 <1>  -0.1500 
 21 C        5.7970     4.9650    -0.1340 C.3   1 <1>  -0.1900 
 22 C        7.1880     4.6570     0.3300 C.3   1 <1>  -0.1900 
 23 C        5.4050     4.7420    -1.6050 C.3   1 <1>  -0.1450 
 24 C        5.0320     6.1710     0.4350 C.3   1 <1>  -0.1450 
 25 C        7.8740     5.5250     1.3980 C.3   1 <1>  -0.1450 
 26 C        8.2430     4.1290    -0.6580 C.3   1 <1>  -0.1450 
 27 H        3.6710    -0.4790     1.4020 H     1 <1>   0.0800 
 28 H        2.7640     1.8180     2.1010 H     1 <1>   0.0800 
 29 H        1.4440     2.5220     1.2480 H     1 <1>   0.0800 
 30 H        1.8740     0.7560    -1.5750 H     1 <1>   0.0800 
 31 H        0.6970    -0.3340    -0.9720 H     1 <1>   0.0800 
 32 H        2.1900    -1.8460     0.3090 H     1 <1>   0.4000 
 33 H        4.0560     0.4740    -1.4350 H     1 <1>   0.0800 
 34 H        5.2600    -0.1180    -0.3300 H     1 <1>   0.0800 
 35 H        3.5320     3.6170     0.6680 H     1 <1>   0.0800 
 36 H        2.8910     2.8320    -0.7420 H     1 <1>   0.0800 
 37 H       -1.1230     0.8940     0.6840 H     1 <1>   0.1500 
 38 H        1.0990     2.7640    -2.4420 H     1 <1>   0.1500 
 39 H       -2.8120     2.6480     0.5290 H     1 <1>   0.1500 
 40 H       -0.5980     4.5230    -2.5940 H     1 <1>   0.1500 
 41 H        5.7450     3.8790     1.8080 H     1 <1>   0.1000 
 42 H       -2.5630     4.4740    -1.1090 H     1 <1>   0.1500 
 43 H        4.3350     4.7250    -1.7090 H     1 <1>   0.0800 
 44 H        5.7770     3.8100    -1.9870 H     1 <1>   0.0800 
 45 H        5.7950     5.5390    -2.2110 H     1 <1>   0.0800 
 46 H        3.9780     6.0670     0.2460 H     1 <1>   0.0800 
 47 H        5.3760     7.0760    -0.0330 H     1 <1>   0.0800 
 48 H        5.1600     6.2630     1.4970 H     1 <1>   0.0800 
 49 H        8.6910     4.9830     1.8410 H     1 <1>   0.0800 
 50 H        7.2030     5.7980     2.1890 H     1 <1>   0.0800 
 51 H        8.2610     6.4220     0.9480 H     1 <1>   0.0800 
 52 H        9.0230     3.6170    -0.1220 H     1 <1>   0.0800 
 53 H        8.6780     4.9460    -1.2040 H     1 <1>   0.0800 
 54 H        7.8330     3.4300    -1.3610 H     1 <1>   0.0800 
@<TRIPOS>BOND
  1   1   2  ar  
  2   2   3  ar  
  3   2   4  1   
  4   4   5  1   
  5   4   6  1   
  6   4   7  1   
  7   5   8  1   
  8   5   9  1   
  9   5  27  1   
 10   6  10  1   
 11   6  28  1   
 12   6  29  1   
 13   7  11  1   
 14   7  30  1   
 15   7  31  1   
 16   8  32  1   
 17   9  12  1   
 18   9  33  1   
 19   9  34  1   
 20  10  12  1   
 21  10  35  1   
 22  10  36  1   
 23  11  13  ar  
 24  11  14  ar  
 25  12  15  am  
 26  13  16  ar  
 27  13  37  1   
 28  14  17  ar  
 29  14  38  1   
 30  15  18  2   
 31  15  19  1   
 32  16  20  ar  
 33  16  39  1   
 34  17  20  ar  
 35  17  40  1   
 36  19  21  1   
 37  19  22  1   
 38  19  41  1   
 39  20  42  1   
 40  21  22  1   
 41  21  23  1   
 42  21  24  1   
 43  22  25  1   
 44  22  26  1   
 45  23  43  1   
 46  23  44  1   
 47  23  45  1   
 48  24  46  1   
 49  24  47  1   
 50  24  48  1   
 51  25  49  1   
 52  25  50  1   
 53  25  51  1   
 54  26  52  1   
 55  26  53  1   
 56  26  54  1   
@<TRIPOS>SUBSTRUCTURE
  1 ****  10 GROUP 4 **** **** 0

# MOE 2024.06 (io_trps.svl 2023.06)
