@<TRIPOS>MOLECULE
NONAME
48 50 1 0 0 
SMALL
USER_CHARGES


@<TRIPOS>ATOM
  1 S        0.7740     0.2880    -1.5620 S.o2  1 <1>   1.3330 
  2 O        0.0820     0.9900    -2.6190 O.2   1 <1>  -0.6500 
  3 O        1.1100    -1.1080    -1.7320 O.2   1 <1>  -0.6500 
  4 N       -0.1810     0.4240    -0.1630 N.am  1 <1>  -0.8490 
  5 C        2.2760     1.1750    -1.1430 C.3   1 <1>  -0.0550 
  6 C       -1.1330    -0.6850    -0.0350 C.3   1 <1>   0.1160 
  7 C       -0.8970     1.7010    -0.0710 C.3   1 <1>   0.1160 
  8 C        3.1450     0.4800    -0.0720 C.3   1 <1>  -0.0800 
  9 C        4.5030     1.1220     0.1690 C.3   1 <1>   0.2200 
 10 C        2.5390     0.4320     1.3380 C.3   1 <1>   0.1200 
 11 N        4.3850     2.5970     0.2440 N.am  1 <1>  -0.7300 
 12 C        4.8100     0.5950     1.5620 C.3   1 <1>   0.1200 
 13 O        3.5900     0.6510     2.2350 O.3   1 <1>  -0.5600 
 14 C        4.6850     3.4730    -0.7580 C.2   1 <1>   0.5440 
 15 O        4.9910     3.0150    -1.8410 O.2   1 <1>  -0.5700 
 16 C        4.6040     4.9070    -0.5410 C.ar  1 <1>   0.0860 
 17 C        4.7820     5.4770     0.7220 C.ar  1 <1>  -0.1500 
 18 C        4.3370     5.7790    -1.5960 C.ar  1 <1>  -0.1500 
 19 C        4.6840     6.8420     0.9210 C.ar  1 <1>  -0.1500 
 20 C        4.2380     7.1430    -1.4020 C.ar  1 <1>  -0.1500 
 21 C        4.4100     7.7020    -0.1390 C.ar  1 <1>  -0.0230 
 22 N        4.3070     9.1090     0.0540 N.pl3 1 <1>   0.5930 
 23 N        3.4580     9.9010    -0.6510 N.2   1 <1>  -0.7070 
 24 C        5.0050     9.8680     0.9370 C.2   1 <1>  -0.3020 
 25 C        3.6380    11.1020    -0.2000 C.2   1 <1>   0.1390 
 26 C        4.6000    11.1470     0.8010 C.2   1 <1>  -0.1500 
 27 H        2.8670     1.2710    -2.0340 H     1 <1>   0.0800 
 28 H        2.0250     2.1660    -0.8220 H     1 <1>   0.0800 
 29 H       -1.7150    -0.5770     0.8640 H     1 <1>   0.0800 
 30 H       -0.6040    -1.6220     0.0190 H     1 <1>   0.0800 
 31 H       -1.7940    -0.7100    -0.8860 H     1 <1>   0.0800 
 32 H       -1.4120     1.7700     0.8720 H     1 <1>   0.0800 
 33 H       -1.6160     1.7890    -0.8690 H     1 <1>   0.0800 
 34 H       -0.2040     2.5220    -0.1400 H     1 <1>   0.0800 
 35 H        3.3150    -0.5360    -0.3850 H     1 <1>   0.0800 
 36 H        5.2430     0.8300    -0.5580 H     1 <1>   0.0800 
 37 H        2.0900    -0.5240     1.5470 H     1 <1>   0.0800 
 38 H        1.8140     1.2130     1.4910 H     1 <1>   0.0800 
 39 H        4.0000     2.9300     1.1300 H     1 <1>   0.3700 
 40 H        5.5440     1.1840     2.0830 H     1 <1>   0.0800 
 41 H        5.1220    -0.4350     1.5250 H     1 <1>   0.0800 
 42 H        5.0050     4.8440     1.5620 H     1 <1>   0.1500 
 43 H        4.2030     5.3730    -2.5850 H     1 <1>   0.1500 
 44 H        4.8200     7.2400     1.9120 H     1 <1>   0.1500 
 45 H        4.0220     7.7880    -2.2390 H     1 <1>   0.1500 
 46 H        5.7430     9.4530     1.5960 H     1 <1>   0.1500 
 47 H        3.1000    11.9610    -0.5660 H     1 <1>   0.1500 
 48 H        4.9250    12.0270     1.3280 H     1 <1>   0.1500 
@<TRIPOS>BOND
  1   1   2  2   
  2   1   3  2   
  3   1   4  am  
  4   1   5  1   
  5   4   6  1   
  6   4   7  1   
  7   5   8  1   
  8   5  27  1   
  9   5  28  1   
 10   6  29  1   
 11   6  30  1   
 12   6  31  1   
 13   7  32  1   
 14   7  33  1   
 15   7  34  1   
 16   8   9  1   
 17   8  10  1   
 18   8  35  1   
 19   9  11  1   
 20   9  12  1   
 21   9  36  1   
 22  10  13  1   
 23  10  37  1   
 24  10  38  1   
 25  11  14  am  
 26  11  39  1   
 27  12  13  1   
 28  12  40  1   
 29  12  41  1   
 30  14  15  2   
 31  14  16  1   
 32  16  17  ar  
 33  16  18  ar  
 34  17  19  ar  
 35  17  42  1   
 36  18  20  ar  
 37  18  43  1   
 38  19  21  ar  
 39  19  44  1   
 40  20  21  ar  
 41  20  45  1   
 42  21  22  1   
 43  22  23  1   
 44  22  24  1   
 45  23  25  2   
 46  24  26  2   
 47  24  46  1   
 48  25  26  1   
 49  25  47  1   
 50  26  48  1   
@<TRIPOS>SUBSTRUCTURE
  1 ****  14 GROUP 4 **** **** 0

# MOE 2024.06 (io_trps.svl 2023.06)
