@<TRIPOS>MOLECULE
NONAME
47 49 1 0 0 
SMALL
USER_CHARGES


@<TRIPOS>ATOM
  1 O        2.4680    -0.7600     2.7140 O.2   1 <1>  -0.5700 
  2 C        2.3570    -1.0380     1.5320 C.2   1 <1>   0.5440 
  3 N        2.6220    -0.0460     0.5990 N.am  1 <1>  -0.6600 
  4 C        2.0280    -2.3930     1.1670 C.ar  1 <1>   0.0860 
  5 C        2.9150     1.3420     1.0770 C.3   1 <1>   0.1400 
  6 C        2.9010    -0.3730    -0.8350 C.3   1 <1>   0.1400 
  7 C        0.8910    -2.7090     0.4120 C.ar  1 <1>   0.3920 
  8 C        2.8490    -3.4420     1.5590 C.ar  1 <1>  -0.1500 
  9 C        4.4270     1.6880     1.0920 C.3   1 <1>   0.4230 
 10 C        4.2710     0.1160    -1.3540 C.3   1 <1>  -0.0800 
 11 O        0.0800    -1.6940     0.0440 O.3   1 <1>  -0.3630 
 12 N        0.5510    -3.9330     0.0170 N.ar  1 <1>  -0.6200 
 13 C        2.5030    -4.7130     1.1680 C.ar  1 <1>  -0.1500 
 14 N        4.9130     2.2820    -0.2080 N.4   1 <1>  -0.9590 
 15 C        5.3590     0.5240     1.5300 C.3   1 <1>   0.1200 
 16 C        5.5050    -0.5180    -0.6740 C.3   1 <1>   0.1200 
 17 C        4.3330     1.6440    -1.4270 C.3   1 <1>   0.3430 
 18 C       -1.1480    -1.9200    -0.6220 C.3   1 <1>   0.0400 
 19 C        1.3620    -4.9090     0.4050 C.ar  1 <1>   0.3930 
 20 C        4.7080     3.7620    -0.2440 C.3   1 <1>   0.2630 
 21 O        5.3650    -0.6180     0.7070 O.3   1 <1>  -0.5600 
 22 O        1.0780    -6.1740     0.0460 O.3   1 <1>  -0.3620 
 23 C       -0.0730    -6.4830    -0.7150 C.3   1 <1>   0.0400 
 24 H        2.3710     2.0490     0.4790 H     1 <1>   0.0800 
 25 H        2.5440     1.4590     2.0800 H     1 <1>   0.0800 
 26 H        2.8630    -1.4380    -0.9830 H     1 <1>   0.0800 
 27 H        2.1120     0.0500    -1.4350 H     1 <1>   0.0800 
 28 H        3.7270    -3.2520     2.1520 H     1 <1>   0.1500 
 29 H        4.5440     2.4490     1.8460 H     1 <1>   0.0800 
 30 H        4.3090    -0.2060    -2.3790 H     1 <1>   0.0800 
 31 H        3.1010    -5.5620     1.4430 H     1 <1>   0.1500 
 32 H        5.9250     2.0950    -0.2280 H     1 <1>   0.4500 
 33 H        5.0480     0.1880     2.5050 H     1 <1>   0.0800 
 34 H        6.3720     0.8710     1.6170 H     1 <1>   0.0800 
 35 H        6.4150     0.0120    -0.8980 H     1 <1>   0.0800 
 36 H        5.6170    -1.5280    -1.0330 H     1 <1>   0.0800 
 37 H        3.3360     2.0190    -1.5960 H     1 <1>   0.0800 
 38 H        4.9310     1.9230    -2.2800 H     1 <1>   0.0800 
 39 H       -1.6290    -0.9720    -0.7810 H     1 <1>   0.0800 
 40 H       -1.7670    -2.5480    -0.0040 H     1 <1>   0.0800 
 41 H       -0.9520    -2.4000    -1.5650 H     1 <1>   0.0800 
 42 H        3.6560     3.9970    -0.2160 H     1 <1>   0.0800 
 43 H        5.1290     4.1780    -1.1460 H     1 <1>   0.0800 
 44 H        5.1870     4.2290     0.6010 H     1 <1>   0.0800 
 45 H       -0.0990    -7.5450    -0.8730 H     1 <1>   0.0800 
 46 H       -0.0150    -5.9690    -1.6580 H     1 <1>   0.0800 
 47 H       -0.9450    -6.1670    -0.1680 H     1 <1>   0.0800 
@<TRIPOS>BOND
  1   1   2  2   
  2   2   3  am  
  3   2   4  1   
  4   3   5  1   
  5   3   6  1   
  6   4   7  ar  
  7   4   8  ar  
  8   5   9  1   
  9   5  24  1   
 10   5  25  1   
 11   6  10  1   
 12   6  26  1   
 13   6  27  1   
 14   7  11  1   
 15   7  12  ar  
 16   8  13  ar  
 17   8  28  1   
 18   9  14  1   
 19   9  15  1   
 20   9  29  1   
 21  10  16  1   
 22  10  17  1   
 23  10  30  1   
 24  11  18  1   
 25  12  19  ar  
 26  13  19  ar  
 27  13  31  1   
 28  14  17  1   
 29  14  20  1   
 30  14  32  1   
 31  15  21  1   
 32  15  33  1   
 33  15  34  1   
 34  16  21  1   
 35  16  35  1   
 36  16  36  1   
 37  17  37  1   
 38  17  38  1   
 39  18  39  1   
 40  18  40  1   
 41  18  41  1   
 42  19  22  1   
 43  20  42  1   
 44  20  43  1   
 45  20  44  1   
 46  22  23  1   
 47  23  45  1   
 48  23  46  1   
 49  23  47  1   
@<TRIPOS>SUBSTRUCTURE
  1 ****   2 GROUP 4 **** **** 0

# MOE 2024.06 (io_trps.svl 2023.06)
