@<TRIPOS>MOLECULE
NONAME
44 45 1 0 0 
SMALL
USER_CHARGES


@<TRIPOS>ATOM
  1 S        0.6290    -0.6650     1.1920 S.o2  1 <1>   1.5010 
  2 O        0.3940    -0.0300     2.4650 O.2   1 <1>  -0.6500 
  3 O        1.9010    -1.2960     0.9250 O.2   1 <1>  -0.6500 
  4 N       -0.5270    -1.8760     1.1110 N.am  1 <1>  -0.9140 
  5 C        0.1310     0.4110    -0.1550 C.2   1 <1>  -0.0630 
  6 C       -0.2450    -2.9260     0.1410 C.3   1 <1>   0.2760 
  7 C        0.6770     0.6860    -1.3530 C.2   1 <1>  -0.0400 
  8 C       -1.0250     1.1630    -0.1930 C.2   1 <1>   0.1080 
  9 C       -1.5330    -3.6630    -0.1970 C.3   1 <1>  -0.0800 
 10 C        0.5400    -4.0530     0.8090 C.3   1 <1>   0.1200 
 11 O       -0.0680     1.5160    -2.0510 O.3   1 <1>  -0.0190 
 12 C        1.9620     0.2080    -2.0040 C.3   1 <1>  -0.0600 
 13 N       -1.1130     1.7880    -1.3060 N.2   1 <1>  -0.4100 
 14 C       -2.0700     1.2670     0.9010 C.3   1 <1>  -0.0590 
 15 C       -1.6480    -4.7020     0.9280 C.3   1 <1>   0.1200 
 16 C       -2.7760    -2.7630    -0.3580 C.3   1 <1>  -0.0550 
 17 O       -0.4080    -4.7260     1.5750 O.3   1 <1>  -0.5600 
 18 S       -4.2100    -3.6540    -0.9530 S.o2  1 <1>   1.3330 
 19 O       -4.6630    -4.5610     0.0780 O.2   1 <1>  -0.6500 
 20 O       -3.8830    -4.1660    -2.2650 O.2   1 <1>  -0.6500 
 21 N       -5.3710    -2.4280    -1.1250 N.am  1 <1>  -0.8490 
 22 C       -6.3320    -2.7160    -2.1940 C.3   1 <1>   0.1160 
 23 C       -6.0840    -2.1210     0.1200 C.3   1 <1>   0.1160 
 24 H       -0.4850    -2.3330     2.0250 H     1 <1>   0.4200 
 25 H        0.2400    -2.5370    -0.7400 H     1 <1>   0.0800 
 26 H       -1.3790    -4.1970    -1.1190 H     1 <1>   0.0800 
 27 H        1.3400    -3.7100     1.4410 H     1 <1>   0.0800 
 28 H        0.9260    -4.7410     0.0760 H     1 <1>   0.0800 
 29 H        2.5120    -0.4530    -1.3620 H     1 <1>   0.0800 
 30 H        2.5850     1.0540    -2.2340 H     1 <1>   0.0800 
 31 H        1.7360    -0.3080    -2.9190 H     1 <1>   0.0800 
 32 H       -2.4470     0.2930     1.1500 H     1 <1>   0.0800 
 33 H       -2.8880     1.8810     0.5700 H     1 <1>   0.0800 
 34 H       -1.6380     1.7150     1.7780 H     1 <1>   0.0800 
 35 H       -1.8600    -5.6860     0.5430 H     1 <1>   0.0800 
 36 H       -2.3920    -4.4320     1.6580 H     1 <1>   0.0800 
 37 H       -2.5470    -1.9810    -1.0560 H     1 <1>   0.0800 
 38 H       -3.0140    -2.3030     0.5810 H     1 <1>   0.0800 
 39 H       -7.0410    -1.9110    -2.2870 H     1 <1>   0.0800 
 40 H       -6.8590    -3.6320    -1.9880 H     1 <1>   0.0800 
 41 H       -5.8160    -2.8170    -3.1350 H     1 <1>   0.0800 
 42 H       -6.7370    -1.2780    -0.0270 H     1 <1>   0.0800 
 43 H       -5.3830    -1.8760     0.8990 H     1 <1>   0.0800 
 44 H       -6.6700    -2.9680     0.4360 H     1 <1>   0.0800 
@<TRIPOS>BOND
  1   1   2  2   
  2   1   3  2   
  3   1   4  am  
  4   1   5  1   
  5   4   6  1   
  6   4  24  1   
  7   5   7  2   
  8   5   8  1   
  9   6   9  1   
 10   6  10  1   
 11   6  25  1   
 12   7  11  1   
 13   7  12  1   
 14   8  13  2   
 15   8  14  1   
 16   9  15  1   
 17   9  16  1   
 18   9  26  1   
 19  10  17  1   
 20  10  27  1   
 21  10  28  1   
 22  11  13  1   
 23  12  29  1   
 24  12  30  1   
 25  12  31  1   
 26  14  32  1   
 27  14  33  1   
 28  14  34  1   
 29  15  17  1   
 30  15  35  1   
 31  15  36  1   
 32  16  18  1   
 33  16  37  1   
 34  16  38  1   
 35  18  19  2   
 36  18  20  2   
 37  18  21  am  
 38  21  22  1   
 39  21  23  1   
 40  22  39  1   
 41  22  40  1   
 42  22  41  1   
 43  23  42  1   
 44  23  43  1   
 45  23  44  1   
@<TRIPOS>SUBSTRUCTURE
  1 ****  16 GROUP 4 **** **** 0

# MOE 2024.06 (io_trps.svl 2023.06)
