@<TRIPOS>MOLECULE
NONAME
54 57 1 0 0 
SMALL
USER_CHARGES


@<TRIPOS>ATOM
  1 O       -2.2210     0.7890     1.6290 O.2   1 <1>  -0.5700 
  2 C       -2.9360    -0.0380     1.0750 C.2   1 <1>   0.4690 
  3 C       -2.8460    -0.3080    -0.3330 C.ar  1 <1>   0.0860 
  4 C       -3.8750    -0.7730     1.8300 C.2   1 <1>  -0.1360 
  5 C       -3.7370    -1.2330    -0.9130 C.ar  1 <1>   0.1000 
  6 C       -1.8780     0.3090    -1.1350 C.ar  1 <1>  -0.1500 
  7 C       -4.7510    -1.6320     1.2550 C.2   1 <1>  -0.0380 
  8 N       -4.7590    -1.8070    -0.1220 N.pl3 1 <1>  -0.5690 
  9 C       -3.5580    -1.5520    -2.2670 C.ar  1 <1>  -0.1500 
 10 C       -1.7510     0.0040    -2.4700 C.ar  1 <1>  -0.1500 
 11 C       -5.7190    -2.4120     2.1330 C.3   1 <1>  -0.1020 
 12 C       -5.9170    -2.5090    -0.7990 C.3   1 <1>   0.2700 
 13 C       -2.5920    -0.9420    -3.0350 C.ar  1 <1>  -0.1500 
 14 C       -5.7730    -4.0350    -0.9140 C.2   1 <1>   0.5690 
 15 O       -4.8540    -4.4830    -1.5620 O.2   1 <1>  -0.5700 
 16 N       -6.6850    -4.8840    -0.3360 N.am  1 <1>  -0.6600 
 17 C       -8.0020    -4.5560     0.2710 C.3   1 <1>   0.1400 
 18 C       -6.4180    -6.3350    -0.2030 C.3   1 <1>   0.1400 
 19 C       -8.4370    -5.8220     1.0180 C.3   1 <1>   0.2000 
 20 C       -7.7430    -6.9530     0.2520 C.3   1 <1>  -0.0800 
 21 O       -7.9380    -5.7820     2.3250 O.3   1 <1>  -0.5600 
 22 C       -7.5700    -8.2540     1.0570 C.3   1 <1>   0.0200 
 23 C       -8.7780    -5.1910     3.2650 C.3   1 <1>   0.0400 
 24 C       -7.0350    -9.4080     0.2250 C.2   1 <1>  -0.0400 
 25 O       -6.7720   -10.5400     0.8220 O.3   1 <1>  -0.0190 
 26 C       -6.7470    -9.5600    -1.0780 C.2   1 <1>  -0.1500 
 27 N       -6.3240   -11.4380    -0.0070 N.2   1 <1>  -0.4100 
 28 C       -6.2970   -10.8740    -1.1610 C.2   1 <1>   0.1080 
 29 C       -5.8360   -11.5550    -2.4300 C.3   1 <1>  -0.0590 
 30 H       -3.8490    -0.6060     2.8890 H     1 <1>   0.1500 
 31 H       -1.2170     1.0310    -0.6870 H     1 <1>   0.1500 
 32 H       -4.1670    -2.2980    -2.7380 H     1 <1>   0.1500 
 33 H       -1.0010     0.4850    -3.0730 H     1 <1>   0.1500 
 34 H       -5.6450    -3.4650     1.9270 H     1 <1>   0.0800 
 35 H       -6.7250    -2.0760     1.9720 H     1 <1>   0.0800 
 36 H       -5.4860    -2.2670     3.1720 H     1 <1>   0.0800 
 37 H       -6.8180    -2.2680    -0.2730 H     1 <1>   0.0800 
 38 H       -6.0500    -2.1110    -1.7860 H     1 <1>   0.0800 
 39 H       -2.4820    -1.2000    -4.0740 H     1 <1>   0.1500 
 40 H       -7.9430    -3.7170     0.9370 H     1 <1>   0.0800 
 41 H       -8.7020    -4.3450    -0.5190 H     1 <1>   0.0800 
 42 H       -6.0770    -6.7500    -1.1360 H     1 <1>   0.0800 
 43 H       -5.6570    -6.4760     0.5460 H     1 <1>   0.0800 
 44 H       -9.5070    -5.9500     1.0430 H     1 <1>   0.0800 
 45 H       -8.3280    -7.1620    -0.6260 H     1 <1>   0.0800 
 46 H       -8.5200    -8.5470     1.4670 H     1 <1>   0.0800 
 47 H       -6.8980    -8.0870     1.8810 H     1 <1>   0.0800 
 48 H       -8.2750    -5.2050     4.2160 H     1 <1>   0.0800 
 49 H       -9.6910    -5.7580     3.3330 H     1 <1>   0.0800 
 50 H       -8.9830    -4.1740     2.9800 H     1 <1>   0.0800 
 51 H       -6.8280    -8.8700    -1.8970 H     1 <1>   0.1500 
 52 H       -6.6080   -11.5030    -3.1740 H     1 <1>   0.0800 
 53 H       -5.6120   -12.5880    -2.2310 H     1 <1>   0.0800 
 54 H       -4.9510   -11.0720    -2.8000 H     1 <1>   0.0800 
@<TRIPOS>BOND
  1   1   2  2   
  2   2   3  1   
  3   2   4  1   
  4   3   5  ar  
  5   3   6  ar  
  6   4   7  2   
  7   4  30  1   
  8   5   8  1   
  9   5   9  ar  
 10   6  10  ar  
 11   6  31  1   
 12   7   8  1   
 13   7  11  1   
 14   8  12  1   
 15   9  13  ar  
 16   9  32  1   
 17  10  13  ar  
 18  10  33  1   
 19  11  34  1   
 20  11  35  1   
 21  11  36  1   
 22  12  14  1   
 23  12  37  1   
 24  12  38  1   
 25  13  39  1   
 26  14  15  2   
 27  14  16  am  
 28  16  17  1   
 29  16  18  1   
 30  17  19  1   
 31  17  40  1   
 32  17  41  1   
 33  18  20  1   
 34  18  42  1   
 35  18  43  1   
 36  19  20  1   
 37  19  21  1   
 38  19  44  1   
 39  20  22  1   
 40  20  45  1   
 41  21  23  1   
 42  22  24  1   
 43  22  46  1   
 44  22  47  1   
 45  23  48  1   
 46  23  49  1   
 47  23  50  1   
 48  24  25  1   
 49  24  26  2   
 50  25  27  1   
 51  26  28  1   
 52  26  51  1   
 53  27  28  2   
 54  28  29  1   
 55  29  52  1   
 56  29  53  1   
 57  29  54  1   
@<TRIPOS>SUBSTRUCTURE
  1 ****  14 GROUP 4 **** **** 0

# MOE 2024.06 (io_trps.svl 2023.06)
