@<TRIPOS>MOLECULE
NONAME
38 38 1 0 0 
SMALL
USER_CHARGES


@<TRIPOS>ATOM
  1 S       -0.5610     2.0420     1.3490 S.3   1 <1>  -0.3320 
  2 C        0.2800     3.2810     0.3710 C.ar  1 <1>   0.7220 
  3 C       -2.3610     2.4100     1.1490 C.3   1 <1>  -0.0100 
  4 N        1.5930     3.1860     0.3790 N.ar  1 <1>  -0.6200 
  5 N       -0.5000     4.1520    -0.2490 N.ar  1 <1>  -0.6200 
  6 C        2.2280     4.0880    -0.3380 C.ar  1 <1>   0.4100 
  7 C        0.1560     5.0490    -0.9540 C.ar  1 <1>   0.1600 
  8 N        3.6120     4.0280    -0.3600 N.pl3 1 <1>  -0.8380 
  9 C        1.5220     5.0610    -1.0290 C.ar  1 <1>  -0.1500 
 10 C        4.4010     4.5020    -1.5620 C.3   1 <1>   0.2700 
 11 C        4.3590     3.1340     0.5740 C.3   1 <1>   0.1290 
 12 C        4.8480     5.9670    -1.4690 C.2   1 <1>   0.5690 
 13 O        5.4120     6.4750    -2.4090 O.2   1 <1>  -0.5700 
 14 N        4.5710     6.6530    -0.3290 N.am  1 <1>  -0.7300 
 15 C        4.8490     8.0760    -0.0640 C.3   1 <1>   0.1400 
 16 C        3.5370     8.7740     0.2940 C.3   1 <1>  -0.1600 
 17 C        3.7620    10.2630     0.5870 C.3   1 <1>  -0.1600 
 18 C        2.4440    10.9580     0.9430 C.3   1 <1>  -0.2400 
 19 H       -2.9110     1.6830     1.7190 H     1 <1>   0.0800 
 20 H       -2.5980     2.3400     0.1030 H     1 <1>   0.0800 
 21 H       -2.5380     3.4050     1.5180 H     1 <1>   0.0800 
 22 H       -0.4210     5.7910    -1.4800 H     1 <1>   0.1500 
 23 H        2.0280     5.8100    -1.6030 H     1 <1>   0.1500 
 24 H        3.8060     4.3880    -2.4500 H     1 <1>   0.0800 
 25 H        5.2770     3.8920    -1.6850 H     1 <1>   0.0800 
 26 H        3.8700     3.1020     1.5330 H     1 <1>   0.0800 
 27 H        5.3620     3.4980     0.7170 H     1 <1>   0.0800 
 28 H        4.3950     2.1370     0.1710 H     1 <1>   0.0800 
 29 H        4.0780     6.1250     0.4010 H     1 <1>   0.3700 
 30 H        5.2860     8.5320    -0.9370 H     1 <1>   0.0800 
 31 H        5.5490     8.1550     0.7500 H     1 <1>   0.0800 
 32 H        3.1070     8.3030     1.1600 H     1 <1>   0.0800 
 33 H        2.8520     8.6750    -0.5300 H     1 <1>   0.0800 
 34 H        4.1910    10.7420    -0.2780 H     1 <1>   0.0800 
 35 H        4.4520    10.3720     1.4060 H     1 <1>   0.0800 
 36 H        1.7460    10.8830     0.1280 H     1 <1>   0.0800 
 37 H        2.6210    11.9990     1.1460 H     1 <1>   0.0800 
 38 H        2.0060    10.5090     1.8170 H     1 <1>   0.0800 
@<TRIPOS>BOND
  1   1   2  1   
  2   1   3  1   
  3   2   4  ar  
  4   2   5  ar  
  5   3  19  1   
  6   3  20  1   
  7   3  21  1   
  8   4   6  ar  
  9   5   7  ar  
 10   6   8  1   
 11   6   9  ar  
 12   7   9  ar  
 13   7  22  1   
 14   8  10  1   
 15   8  11  1   
 16   9  23  1   
 17  10  12  1   
 18  10  24  1   
 19  10  25  1   
 20  11  26  1   
 21  11  27  1   
 22  11  28  1   
 23  12  13  2   
 24  12  14  am  
 25  14  15  1   
 26  14  29  1   
 27  15  16  1   
 28  15  30  1   
 29  15  31  1   
 30  16  17  1   
 31  16  32  1   
 32  16  33  1   
 33  17  18  1   
 34  17  34  1   
 35  17  35  1   
 36  18  36  1   
 37  18  37  1   
 38  18  38  1   
@<TRIPOS>SUBSTRUCTURE
  1 ****   9 GROUP 4 **** **** 0

# MOE 2024.06 (io_trps.svl 2023.06)
