@<TRIPOS>MOLECULE
NONAME
53 57 1 0 0 
SMALL
USER_CHARGES


@<TRIPOS>ATOM
  1 S       -0.6080    -0.2700    -0.1070 S.o2  1 <1>   1.0900 
  2 O       -0.7630     0.9630     0.6260 O.2   1 <1>  -0.6500 
  3 O        0.6920    -0.7980    -0.4510 O.2   1 <1>  -0.6500 
  4 C       -1.5230    -1.5750     0.6600 C.3   1 <1>  -0.0550 
  5 C       -1.6030    -0.2510    -1.5910 C.3   1 <1>  -0.0550 
  6 C       -1.9450    -2.4670    -0.5040 C.3   1 <1>   0.1760 
  7 C       -2.4440    -1.5390    -1.6320 C.3   1 <1>  -0.1600 
  8 N       -2.9830    -3.4420    -0.0870 N.pl3 1 <1>   0.3140 
  9 N       -4.1100    -3.0350     0.5260 N.2   1 <1>  -0.7070 
 10 C       -2.9580    -4.7910    -0.2340 C.2   1 <1>  -0.3320 
 11 C       -4.7740    -4.1220     0.7660 C.2   1 <1>   0.1080 
 12 C       -4.1000    -5.2600     0.3130 C.2   1 <1>   0.0630 
 13 C       -1.8250    -5.5750    -0.8860 C.3   1 <1>  -0.0600 
 14 C       -6.1240    -4.0940     1.4480 C.3   1 <1>  -0.0590 
 15 N       -4.4850    -6.6210     0.3670 N.am  1 <1>  -0.4930 
 16 C       -4.9930    -7.3420     1.4090 C.2   1 <1>   0.5690 
 17 O       -5.2890    -6.8510     2.4750 O.2   1 <1>  -0.5700 
 18 C       -5.1690    -8.8440     1.2160 C.3   1 <1>   0.2680 
 19 C       -3.9300    -9.4760     0.5850 C.ar  1 <1>  -0.1440 
 20 C       -6.2170    -9.1580     0.1530 C.ar  1 <1>  -0.1440 
 21 C       -4.2450   -10.0330    -0.6410 C.ar  1 <1>   0.0000 
 22 C       -2.6400    -9.5170     1.0830 C.ar  1 <1>  -0.1500 
 23 C       -5.6420    -9.8430    -0.9030 C.ar  1 <1>   0.0000 
 24 C       -7.5620    -8.8400     0.1550 C.ar  1 <1>  -0.1500 
 25 C       -3.2510   -10.6460    -1.3920 C.ar  1 <1>  -0.1500 
 26 C       -1.6510   -10.1300     0.3290 C.ar  1 <1>  -0.1500 
 27 C       -6.4250   -10.2200    -1.9850 C.ar  1 <1>  -0.1500 
 28 C       -8.3410    -9.2180    -0.9280 C.ar  1 <1>  -0.1500 
 29 C       -1.9560   -10.6910    -0.9030 C.ar  1 <1>  -0.1500 
 30 C       -7.7740    -9.9050    -1.9920 C.ar  1 <1>  -0.1500 
 31 H       -2.3920    -1.1700     1.1450 H     1 <1>   0.0800 
 32 H       -0.9260    -2.1110     1.3720 H     1 <1>   0.0800 
 33 H       -0.9670    -0.1880    -2.4550 H     1 <1>   0.0800 
 34 H       -2.2550     0.6030    -1.5880 H     1 <1>   0.0800 
 35 H       -1.0800    -3.0030    -0.8510 H     1 <1>   0.0800 
 36 H       -2.3650    -2.0240    -2.5890 H     1 <1>   0.0800 
 37 H       -3.4760    -1.2800    -1.4580 H     1 <1>   0.0800 
 38 H       -1.7040    -5.2730    -1.9110 H     1 <1>   0.0800 
 39 H       -2.0300    -6.6310    -0.8650 H     1 <1>   0.0800 
 40 H       -0.9040    -5.4060    -0.3560 H     1 <1>   0.0800 
 41 H       -6.6080    -3.1540     1.2630 H     1 <1>   0.0800 
 42 H       -5.9910    -4.2190     2.5070 H     1 <1>   0.0800 
 43 H       -6.7440    -4.8870     1.0750 H     1 <1>   0.0800 
 44 H       -4.2220    -7.1670    -0.4540 H     1 <1>   0.3700 
 45 H       -5.4120    -9.3240     2.1470 H     1 <1>   0.0800 
 46 H       -2.4040    -9.0800     2.0380 H     1 <1>   0.1500 
 47 H       -8.0000    -8.3050     0.9810 H     1 <1>   0.1500 
 48 H       -3.4910   -11.0820    -2.3450 H     1 <1>   0.1500 
 49 H       -0.6420   -10.1720     0.7030 H     1 <1>   0.1500 
 50 H       -5.9850   -10.7530    -2.8080 H     1 <1>   0.1500 
 51 H       -9.3900    -8.9780    -0.9420 H     1 <1>   0.1500 
 52 H       -1.1820   -11.1670    -1.4800 H     1 <1>   0.1500 
 53 H       -8.3880   -10.1950    -2.8280 H     1 <1>   0.1500 
@<TRIPOS>BOND
  1   1   2  2   
  2   1   3  2   
  3   1   4  1   
  4   1   5  1   
  5   4   6  1   
  6   4  31  1   
  7   4  32  1   
  8   5   7  1   
  9   5  33  1   
 10   5  34  1   
 11   6   7  1   
 12   6   8  1   
 13   6  35  1   
 14   7  36  1   
 15   7  37  1   
 16   8   9  1   
 17   8  10  1   
 18   9  11  2   
 19  10  12  2   
 20  10  13  1   
 21  11  12  1   
 22  11  14  1   
 23  12  15  1   
 24  13  38  1   
 25  13  39  1   
 26  13  40  1   
 27  14  41  1   
 28  14  42  1   
 29  14  43  1   
 30  15  16  am  
 31  15  44  1   
 32  16  17  2   
 33  16  18  1   
 34  18  19  1   
 35  18  20  1   
 36  18  45  1   
 37  19  21  ar  
 38  19  22  ar  
 39  20  23  ar  
 40  20  24  ar  
 41  21  23  1   
 42  21  25  ar  
 43  22  26  ar  
 44  22  46  1   
 45  23  27  ar  
 46  24  28  ar  
 47  24  47  1   
 48  25  29  ar  
 49  25  48  1   
 50  26  29  ar  
 51  26  49  1   
 52  27  30  ar  
 53  27  50  1   
 54  28  30  ar  
 55  28  51  1   
 56  29  52  1   
 57  30  53  1   
@<TRIPOS>SUBSTRUCTURE
  1 ****  15 GROUP 4 **** **** 0

# MOE 2024.06 (io_trps.svl 2023.06)
