@<TRIPOS>MOLECULE
NONAME
41 43 1 0 0 
SMALL
USER_CHARGES


@<TRIPOS>ATOM
  1 O       -1.5050    -0.4150    -2.4760 O.2   1 <1>  -0.5700 
  2 C       -1.8580    -0.8860    -1.4170 C.2   1 <1>   0.5690 
  3 N       -2.5120    -0.1460    -0.4660 N.am  1 <1>  -0.6600 
  4 C       -1.5210    -2.3440    -1.1340 C.3   1 <1>  -0.0190 
  5 C       -3.0270    -0.8010     0.7780 C.3   1 <1>   0.2200 
  6 C       -2.8030     1.3010    -0.6390 C.3   1 <1>   0.0600 
  7 C       -0.4730    -2.4480    -0.0120 C.3   1 <1>   0.1200 
  8 C       -2.7340    -3.2730    -0.8890 C.3   1 <1>   0.1100 
  9 C       -1.9340    -1.5080     1.6280 C.3   1 <1>   0.1200 
 10 C       -4.1930    -1.7630     0.4450 C.3   1 <1>   0.1100 
 11 O       -0.6700    -1.5360     1.0290 O.3   1 <1>  -0.5600 
 12 N       -4.0280    -2.5740    -0.7860 N.3   1 <1>  -0.8100 
 13 C       -5.1620    -3.4880    -1.0380 C.3   1 <1>   0.2900 
 14 C       -5.3890    -4.4980     0.0860 C.2   1 <1>   0.0060 
 15 N       -4.6610    -5.5380     0.3060 N.2   1 <1>  -0.5650 
 16 N       -6.3910    -4.4150     0.9760 N.pl3 1 <1>   0.3140 
 17 C       -5.2650    -6.0710     1.3740 C.2   1 <1>   0.3660 
 18 N       -6.2980    -5.4360     1.8150 N.2   1 <1>  -0.7070 
 19 C       -7.4750    -3.4150     1.0960 C.3   1 <1>   0.0960 
 20 C       -8.6620    -3.7710     0.1920 C.3   1 <1>  -0.2400 
 21 H       -1.0400    -2.7280    -2.0150 H     1 <1>   0.0800 
 22 H       -3.4410    -0.0370     1.4120 H     1 <1>   0.0800 
 23 H       -2.3760     1.8560     0.1770 H     1 <1>   0.0800 
 24 H       -3.8670     1.4560    -0.6650 H     1 <1>   0.0800 
 25 H       -2.3800     1.6630    -1.5590 H     1 <1>   0.0800 
 26 H        0.4970    -2.2260    -0.4220 H     1 <1>   0.0800 
 27 H       -0.4400    -3.4400     0.4040 H     1 <1>   0.0800 
 28 H       -2.5800    -3.8720    -0.0090 H     1 <1>   0.0800 
 29 H       -2.7830    -3.9550    -1.7220 H     1 <1>   0.0800 
 30 H       -2.2150    -2.5150     1.8790 H     1 <1>   0.0800 
 31 H       -1.8200    -0.9680     2.5500 H     1 <1>   0.0800 
 32 H       -5.0760    -1.1610     0.3250 H     1 <1>   0.0800 
 33 H       -4.3570    -2.4080     1.2900 H     1 <1>   0.0800 
 34 H       -6.0490    -2.9020    -1.1970 H     1 <1>   0.0800 
 35 H       -4.9810    -4.0290    -1.9520 H     1 <1>   0.0800 
 36 H       -4.8910    -6.9780     1.8220 H     1 <1>   0.1500 
 37 H       -7.7960    -3.3940     2.1230 H     1 <1>   0.0800 
 38 H       -7.0890    -2.4460     0.8430 H     1 <1>   0.0800 
 39 H       -9.0550    -4.7360     0.4650 H     1 <1>   0.0800 
 40 H       -8.3660    -3.7890    -0.8410 H     1 <1>   0.0800 
 41 H       -9.4430    -3.0420     0.3120 H     1 <1>   0.0800 
@<TRIPOS>BOND
  1   1   2  2   
  2   2   3  am  
  3   2   4  1   
  4   3   5  1   
  5   3   6  1   
  6   4   7  1   
  7   4   8  1   
  8   4  21  1   
  9   5   9  1   
 10   5  10  1   
 11   5  22  1   
 12   6  23  1   
 13   6  24  1   
 14   6  25  1   
 15   7  11  1   
 16   7  26  1   
 17   7  27  1   
 18   8  12  1   
 19   8  28  1   
 20   8  29  1   
 21   9  11  1   
 22   9  30  1   
 23   9  31  1   
 24  10  12  1   
 25  10  32  1   
 26  10  33  1   
 27  12  13  1   
 28  13  14  1   
 29  13  34  1   
 30  13  35  1   
 31  14  15  2   
 32  14  16  1   
 33  15  17  1   
 34  16  18  1   
 35  16  19  1   
 36  17  18  2   
 37  17  36  1   
 38  19  20  1   
 39  19  37  1   
 40  19  38  1   
 41  20  39  1   
 42  20  40  1   
 43  20  41  1   
@<TRIPOS>SUBSTRUCTURE
  1 ****  12 GROUP 4 **** **** 0

# MOE 2024.06 (io_trps.svl 2023.06)
