@<TRIPOS>MOLECULE
NONAME
55 58 1 0 0 
SMALL
USER_CHARGES


@<TRIPOS>ATOM
  1 O       -0.0940    -2.0700    -1.7840 O.3   1 <1>  -0.5600 
  2 C        0.4520    -1.8140    -0.5220 C.3   1 <1>   0.2800 
  3 C       -1.4650    -1.8470    -2.0350 C.3   1 <1>   0.1200 
  4 C       -0.4410    -0.8280     0.2680 C.3   1 <1>  -0.1600 
  5 C        1.8340    -1.1980    -0.7730 C.3   1 <1>  -0.1600 
  6 C        0.6620    -3.1780     0.1540 C.3   1 <1>  -0.1600 
  7 C       -2.3330    -2.1590    -0.8060 C.3   1 <1>   0.2000 
  8 C       -1.8890    -1.3130     0.4280 C.3   1 <1>   0.2800 
  9 C        2.6300    -1.0580     0.5240 C.3   1 <1>   0.3430 
 10 C        1.4060    -3.0230     1.4730 C.3   1 <1>   0.3430 
 11 O       -3.6810    -1.9850    -1.1210 O.3   1 <1>  -0.6800 
 12 O       -1.9200    -2.1200     1.5490 O.3   1 <1>  -0.6800 
 13 C       -2.7970    -0.1190     0.7590 C.3   1 <1>  -0.2400 
 14 N        2.7200    -2.3750     1.2150 N.4   1 <1>  -0.9590 
 15 C        3.5800    -2.3210     2.4170 C.3   1 <1>   0.5240 
 16 C        5.0160    -2.2430     1.9530 C.2   1 <1>  -0.1810 
 17 C        5.5600    -2.7890     0.8320 C.2   1 <1>  -0.0260 
 18 C        6.0660    -1.6050     2.5920 C.2   1 <1>   0.1390 
 19 N        4.9720    -3.5290    -0.1740 N.2   1 <1>  -0.5760 
 20 N        6.8980    -2.4580     0.8570 N.pl3 1 <1>   0.6010 
 21 N        7.1920    -1.7180     1.9490 N.2   1 <1>  -0.7070 
 22 C        5.7560    -3.9240    -1.1250 C.2   1 <1>   0.3750 
 23 C        7.7230    -2.8880    -0.1730 C.2   1 <1>  -0.1690 
 24 C        7.1490    -3.6220    -1.1630 C.2   1 <1>  -0.1360 
 25 C        5.1750    -4.7410    -2.2580 C.3   1 <1>  -0.1790 
 26 C        9.2000    -2.5170    -0.1270 C.3   1 <1>  -0.1020 
 27 H       -1.5800    -0.8170    -2.3260 H     1 <1>   0.0800 
 28 H       -1.7470    -2.4800    -2.8590 H     1 <1>   0.0800 
 29 H       -0.0340    -0.6040     1.2370 H     1 <1>   0.0800 
 30 H       -0.4500     0.1000    -0.2770 H     1 <1>   0.0800 
 31 H        2.3900    -1.8170    -1.4540 H     1 <1>   0.0800 
 32 H        1.7260    -0.2300    -1.2260 H     1 <1>   0.0800 
 33 H       -0.2710    -3.6690     0.3460 H     1 <1>   0.0800 
 34 H        1.2300    -3.8210    -0.4950 H     1 <1>   0.0800 
 35 H       -2.2150    -3.2060    -0.5900 H     1 <1>   0.0800 
 36 H        2.1490    -0.3400     1.1680 H     1 <1>   0.0800 
 37 H        3.6210    -0.6980     0.2950 H     1 <1>   0.0800 
 38 H        1.5520    -3.9950     1.9150 H     1 <1>   0.0800 
 39 H        0.8170    -2.4240     2.1500 H     1 <1>   0.0800 
 40 H       -3.8750    -1.0520    -1.3350 H     1 <1>   0.4000 
 41 H       -2.8440    -2.4130     1.6930 H     1 <1>   0.4000 
 42 H       -2.8380     0.5600    -0.0730 H     1 <1>   0.0800 
 43 H       -2.4150     0.4170     1.6090 H     1 <1>   0.0800 
 44 H       -3.7980    -0.4440     0.9810 H     1 <1>   0.0800 
 45 H        3.2630    -2.9880     0.5700 H     1 <1>   0.4500 
 46 H        3.3270    -1.4680     3.0250 H     1 <1>   0.0800 
 47 H        3.4530    -3.2180     3.0030 H     1 <1>   0.0800 
 48 H        5.9930    -1.0650     3.5230 H     1 <1>   0.1500 
 49 H        7.7200    -3.9940    -1.9940 H     1 <1>   0.1500 
 50 H        5.3360    -4.2380    -3.1930 H     1 <1>   0.0800 
 51 H        4.1180    -4.8810    -2.1200 H     1 <1>   0.0800 
 52 H        5.6480    -5.7060    -2.2910 H     1 <1>   0.0800 
 53 H        9.6510    -2.9110     0.7670 H     1 <1>   0.0800 
 54 H        9.3110    -1.4470    -0.1200 H     1 <1>   0.0800 
 55 H        9.7240    -2.9120    -0.9790 H     1 <1>   0.0800 
@<TRIPOS>BOND
  1   1   2  1   
  2   1   3  1   
  3   2   4  1   
  4   2   5  1   
  5   2   6  1   
  6   3   7  1   
  7   3  27  1   
  8   3  28  1   
  9   4   8  1   
 10   4  29  1   
 11   4  30  1   
 12   5   9  1   
 13   5  31  1   
 14   5  32  1   
 15   6  10  1   
 16   6  33  1   
 17   6  34  1   
 18   7   8  1   
 19   7  11  1   
 20   7  35  1   
 21   8  12  1   
 22   8  13  1   
 23   9  14  1   
 24   9  36  1   
 25   9  37  1   
 26  10  14  1   
 27  10  38  1   
 28  10  39  1   
 29  11  40  1   
 30  12  41  1   
 31  13  42  1   
 32  13  43  1   
 33  13  44  1   
 34  14  15  1   
 35  14  45  1   
 36  15  16  1   
 37  15  46  1   
 38  15  47  1   
 39  16  17  2   
 40  16  18  1   
 41  17  19  1   
 42  17  20  1   
 43  18  21  2   
 44  18  48  1   
 45  19  22  2   
 46  20  21  1   
 47  20  23  1   
 48  22  24  1   
 49  22  25  1   
 50  23  24  2   
 51  23  26  1   
 52  24  49  1   
 53  25  50  1   
 54  25  51  1   
 55  25  52  1   
 56  26  53  1   
 57  26  54  1   
 58  26  55  1   
@<TRIPOS>SUBSTRUCTURE
  1 ****  14 GROUP 4 **** **** 0

# MOE 2024.06 (io_trps.svl 2023.06)
