@<TRIPOS>MOLECULE
NONAME
51 54 1 0 0 
SMALL
USER_CHARGES


@<TRIPOS>ATOM
  1 O        0.0470     1.1750    -1.7280 O.2   1 <1>  -0.5700 
  2 C       -0.3050     1.8980    -0.8140 C.2   1 <1>   0.5440 
  3 N       -1.5650     1.7250    -0.2760 N.am  1 <1>  -0.6600 
  4 C        0.5970     2.9230    -0.3440 C.ar  1 <1>   0.0860 
  5 C       -2.3330     2.8130     0.4150 C.3   1 <1>   0.1400 
  6 C       -2.3810     0.5130    -0.5730 C.3   1 <1>   0.1400 
  7 C        0.8330     3.1160     1.0140 C.ar  1 <1>   0.1600 
  8 C        1.2810     3.7570    -1.2210 C.ar  1 <1>  -0.1500 
  9 C       -3.5580     3.2400    -0.4180 C.3   1 <1>   0.1440 
 10 C       -3.5990     0.8970    -1.4210 C.3   1 <1>  -0.1600 
 11 N        1.6160     4.0370     1.5450 N.ar  1 <1>  -0.6200 
 12 C        2.1080     4.7150    -0.6880 C.ar  1 <1>  -0.1500 
 13 C       -4.3240     4.2930     0.3620 C.ar  1 <1>   0.1670 
 14 C       -4.4270     2.0080    -0.7510 C.3   1 <1>  -0.1600 
 15 C       -3.1360     4.0170    -1.6950 C.3   1 <1>  -0.1600 
 16 C        2.2500     4.8390     0.6930 C.ar  1 <1>   0.4100 
 17 N       -5.0670     4.0670     1.4230 N.ar  1 <1>  -0.6200 
 18 C       -4.1390     5.5380    -0.1600 C.ar  1 <1>  -0.1430 
 19 C       -3.2250     5.5160    -1.3590 C.3   1 <1>  -0.0170 
 20 N        3.0690     5.8130     1.2300 N.pl3 1 <1>  -0.8380 
 21 C       -5.6360     5.1500     1.9340 C.ar  1 <1>   0.4770 
 22 C       -4.7750     6.5900     0.4510 C.ar  1 <1>   0.1600 
 23 C        3.0040     7.2200     0.7550 C.3   1 <1>   0.1290 
 24 C        3.6700     5.6300     2.5800 C.3   1 <1>   0.1290 
 25 N       -5.5360     6.4030     1.5090 N.ar  1 <1>  -0.6200 
 26 C       -6.5080     4.9380     3.1470 C.3   1 <1>  -0.0970 
 27 H       -1.7140     3.6740     0.5900 H     1 <1>   0.0800 
 28 H       -2.6660     2.4480     1.3710 H     1 <1>   0.0800 
 29 H       -2.7070     0.0760     0.3550 H     1 <1>   0.0800 
 30 H       -1.7930    -0.2240    -1.0940 H     1 <1>   0.0800 
 31 H        0.3320     2.4580     1.7030 H     1 <1>   0.1500 
 32 H        1.1610     3.6370    -2.2840 H     1 <1>   0.1500 
 33 H       -4.2150     0.0270    -1.5670 H     1 <1>   0.0800 
 34 H       -3.2580     1.2180    -2.3900 H     1 <1>   0.0800 
 35 H        2.6650     5.3720    -1.3270 H     1 <1>   0.1500 
 36 H       -5.2490     2.2930    -1.3840 H     1 <1>   0.0800 
 37 H       -4.8460     1.6210     0.1620 H     1 <1>   0.0800 
 38 H       -3.8370     3.8120    -2.4850 H     1 <1>   0.0800 
 39 H       -2.1550     3.7440    -2.0440 H     1 <1>   0.0800 
 40 H       -3.6280     6.0820    -2.1810 H     1 <1>   0.0800 
 41 H       -2.2580     5.9020    -1.0850 H     1 <1>   0.0800 
 42 H       -4.6620     7.5920     0.0740 H     1 <1>   0.1500 
 43 H        2.2750     7.3240    -0.0300 H     1 <1>   0.0800 
 44 H        3.9680     7.5210     0.3830 H     1 <1>   0.0800 
 45 H        2.7210     7.8670     1.5670 H     1 <1>   0.0800 
 46 H        3.8680     4.5870     2.7570 H     1 <1>   0.0800 
 47 H        2.9870     5.9860     3.3320 H     1 <1>   0.0800 
 48 H        4.5960     6.1720     2.6480 H     1 <1>   0.0800 
 49 H       -6.3590     3.9540     3.5510 H     1 <1>   0.0800 
 50 H       -7.5380     5.0520     2.8680 H     1 <1>   0.0800 
 51 H       -6.2630     5.6650     3.8990 H     1 <1>   0.0800 
@<TRIPOS>BOND
  1   1   2  2   
  2   2   3  am  
  3   2   4  1   
  4   3   5  1   
  5   3   6  1   
  6   4   7  ar  
  7   4   8  ar  
  8   5   9  1   
  9   5  27  1   
 10   5  28  1   
 11   6  10  1   
 12   6  29  1   
 13   6  30  1   
 14   7  11  ar  
 15   7  31  1   
 16   8  12  ar  
 17   8  32  1   
 18   9  13  1   
 19   9  14  1   
 20   9  15  1   
 21  10  14  1   
 22  10  33  1   
 23  10  34  1   
 24  11  16  ar  
 25  12  16  ar  
 26  12  35  1   
 27  13  17  ar  
 28  13  18  ar  
 29  14  36  1   
 30  14  37  1   
 31  15  19  1   
 32  15  38  1   
 33  15  39  1   
 34  16  20  1   
 35  17  21  ar  
 36  18  19  1   
 37  18  22  ar  
 38  19  40  1   
 39  19  41  1   
 40  20  23  1   
 41  20  24  1   
 42  21  25  ar  
 43  21  26  1   
 44  22  25  ar  
 45  22  42  1   
 46  23  43  1   
 47  23  44  1   
 48  23  45  1   
 49  24  46  1   
 50  24  47  1   
 51  24  48  1   
 52  26  49  1   
 53  26  50  1   
 54  26  51  1   
@<TRIPOS>SUBSTRUCTURE
  1 ****   5 GROUP 4 **** **** 0

# MOE 2024.06 (io_trps.svl 2023.06)
