@<TRIPOS>MOLECULE
NONAME
40 42 1 0 0 
SMALL
USER_CHARGES


@<TRIPOS>ATOM
  1 O       -0.5540    -1.1350     0.2230 O.3   1 <1>  -0.6800 
  2 C        0.5670    -1.7140     0.8050 C.3   1 <1>   0.2000 
  3 C        1.8350    -1.4210    -0.0260 C.3   1 <1>   0.0000 
  4 C        0.3880    -3.2330     0.7470 C.3   1 <1>  -0.1600 
  5 C        3.0730    -1.6960     0.8700 C.3   1 <1>   0.2090 
  6 C        1.9030     0.0240    -0.5730 C.3   1 <1>  -0.1600 
  7 C        1.7330    -2.4600    -1.1580 C.3   1 <1>  -0.1600 
  8 C        1.0670    -3.7000    -0.5480 C.3   1 <1>  -0.1600 
  9 N        4.3690    -1.2820     0.2550 N.pl3 1 <1>  -0.8380 
 10 C        3.2320     0.2850    -1.2970 C.3   1 <1>  -0.1600 
 11 C        5.3870    -2.2040     0.0710 C.ar  1 <1>   0.4100 
 12 C        4.4350     0.0560    -0.3810 C.3   1 <1>   0.2090 
 13 N        5.0460    -3.3120    -0.5780 N.ar  1 <1>  -0.6200 
 14 C        6.6850    -1.9650     0.5510 C.ar  1 <1>  -0.1440 
 15 C        6.0090    -4.1890    -0.7880 C.ar  1 <1>   0.1600 
 16 C        7.6720    -2.8970     0.3170 C.ar  1 <1>  -0.1500 
 17 C        7.0390    -0.7130     1.3440 C.3   1 <1>  -0.0970 
 18 C        7.3180    -4.0360    -0.3740 C.ar  1 <1>  -0.1500 
 19 H       -1.3630    -1.4760     0.6450 H     1 <1>   0.4000 
 20 H        0.6400    -1.3470     1.8150 H     1 <1>   0.0800 
 21 H        0.9000    -3.6770     1.5820 H     1 <1>   0.0800 
 22 H       -0.6460    -3.5270     0.7880 H     1 <1>   0.0800 
 23 H        3.1210    -2.7410     1.1220 H     1 <1>   0.0800 
 24 H        2.9640    -1.1490     1.7890 H     1 <1>   0.0800 
 25 H        1.0900     0.2030    -1.2550 H     1 <1>   0.0800 
 26 H        1.8010     0.7170     0.2440 H     1 <1>   0.0800 
 27 H        1.0930    -2.0770    -1.9340 H     1 <1>   0.0800 
 28 H        2.6890    -2.6910    -1.5930 H     1 <1>   0.0800 
 29 H        1.8140    -4.4430    -0.3270 H     1 <1>   0.0800 
 30 H        0.3520    -4.1160    -1.2360 H     1 <1>   0.0800 
 31 H        3.2530     1.2980    -1.6560 H     1 <1>   0.0800 
 32 H        3.3210    -0.3640    -2.1500 H     1 <1>   0.0800 
 33 H        4.4500     0.8050     0.3910 H     1 <1>   0.0800 
 34 H        5.3410     0.1390    -0.9560 H     1 <1>   0.0800 
 35 H        5.7370    -5.0830    -1.3220 H     1 <1>   0.1500 
 36 H        8.6820    -2.7550     0.6590 H     1 <1>   0.1500 
 37 H        7.9390    -0.8610     1.9120 H     1 <1>   0.0800 
 38 H        6.2460    -0.4740     2.0300 H     1 <1>   0.0800 
 39 H        7.1850     0.1160     0.6760 H     1 <1>   0.0800 
 40 H        8.0460    -4.7970    -0.5860 H     1 <1>   0.1500 
@<TRIPOS>BOND
  1   1   2  1   
  2   1  19  1   
  3   2   3  1   
  4   2   4  1   
  5   2  20  1   
  6   3   5  1   
  7   3   6  1   
  8   3   7  1   
  9   4   8  1   
 10   4  21  1   
 11   4  22  1   
 12   5   9  1   
 13   5  23  1   
 14   5  24  1   
 15   6  10  1   
 16   6  25  1   
 17   6  26  1   
 18   7   8  1   
 19   7  27  1   
 20   7  28  1   
 21   8  29  1   
 22   8  30  1   
 23   9  11  1   
 24   9  12  1   
 25  10  12  1   
 26  10  31  1   
 27  10  32  1   
 28  11  13  ar  
 29  11  14  ar  
 30  12  33  1   
 31  12  34  1   
 32  13  15  ar  
 33  14  16  ar  
 34  14  17  1   
 35  15  18  ar  
 36  15  35  1   
 37  16  18  ar  
 38  16  36  1   
 39  17  37  1   
 40  17  38  1   
 41  17  39  1   
 42  18  40  1   
@<TRIPOS>SUBSTRUCTURE
  1 ****   9 GROUP 4 **** **** 0

# MOE 2024.06 (io_trps.svl 2023.06)
