@<TRIPOS>MOLECULE
NONAME
17 18 1 0 0 
SMALL
USER_CHARGES


@<TRIPOS>ATOM
  1 S        0.3180     0.1680    -0.2150 S.3   1 <1>  -0.0800 
  2 C       -1.2250    -0.6370    -0.0420 C.2   1 <1>   0.2930 
  3 C       -0.5190     1.5830    -0.7770 C.2   1 <1>  -0.1100 
  4 N       -2.2270     0.0770    -0.3670 N.2   1 <1>  -0.5650 
  5 C       -1.1990    -2.0680     0.4660 C.3   1 <1>  -0.0150 
  6 C       -1.8430     1.3440    -0.7890 C.2   1 <1>   0.2460 
  7 C       -0.8790    -3.1960    -0.4670 C.3   1 <1>  -0.2000 
  8 C       -2.2680    -3.0440     0.0780 C.3   1 <1>  -0.2000 
  9 C       -2.8620     2.2660    -1.1900 C.1   1 <1>  -0.0190 
 10 C       -3.7100     3.0340    -1.5250 C.1   1 <1>  -0.1770 
 11 H        0.0590     2.4470    -1.0420 H     1 <1>   0.1500 
 12 H       -0.8230    -2.1300     1.4720 H     1 <1>   0.1000 
 13 H       -0.2640    -4.0030    -0.1080 H     1 <1>   0.1000 
 14 H       -0.7090    -2.9750    -1.5070 H     1 <1>   0.1000 
 15 H       -3.0520    -2.7040    -0.5770 H     1 <1>   0.1000 
 16 H       -2.6200    -3.7400     0.8180 H     1 <1>   0.1000 
 17 H       -4.4830     3.7180    -1.8240 H     1 <1>   0.1770 
@<TRIPOS>BOND
  1   1   2  1   
  2   1   3  1   
  3   2   4  2   
  4   2   5  1   
  5   3   6  2   
  6   3  11  1   
  7   4   6  1   
  8   5   7  1   
  9   5   8  1   
 10   5  12  1   
 11   6   9  1   
 12   7   8  1   
 13   7  13  1   
 14   7  14  1   
 15   8  15  1   
 16   8  16  1   
 17   9  10  3   
 18  10  17  1   
@<TRIPOS>SUBSTRUCTURE
  1 ****   4 GROUP 4 **** **** 0

# MOE 2024.06 (io_trps.svl 2023.06)
