@<TRIPOS>MOLECULE
NONAME
36 37 1 0 0 
SMALL
USER_CHARGES


@<TRIPOS>ATOM
  1 O        0.1210    -1.5380    -2.8400 O.2   1 <1>  -0.5700 
  2 C       -0.0250    -2.1470    -1.7980 C.2   1 <1>   0.5440 
  3 N       -1.3040    -2.3880    -1.4390 N.am  1 <1>  -0.8000 
  4 C        1.1080    -2.5610    -0.9930 C.ar  1 <1>   0.0860 
  5 C        1.0470    -3.5730    -0.0080 C.ar  1 <1>   0.4100 
  6 C        2.3290    -1.9220    -1.1670 C.ar  1 <1>  -0.1500 
  7 N        2.0780    -3.8940     0.7730 N.ar  1 <1>  -0.6200 
  8 N       -0.0940    -4.3290     0.2210 N.pl3 1 <1>  -0.8380 
  9 C        3.4000    -2.2710    -0.3750 C.ar  1 <1>  -0.1430 
 10 C        3.2160    -3.2620     0.5820 C.ar  1 <1>   0.1670 
 11 C       -0.4500    -5.4020    -0.7690 C.3   1 <1>   0.2090 
 12 C       -0.4180    -4.7740     1.6090 C.3   1 <1>   0.2090 
 13 C        4.7330    -1.5590    -0.5710 C.3   1 <1>  -0.0970 
 14 C        4.3510    -3.6910     1.4940 C.3   1 <1>  -0.0970 
 15 C       -1.9150    -5.8340    -0.5930 C.3   1 <1>   0.0940 
 16 C       -1.8820    -5.2370     1.7010 C.3   1 <1>   0.1200 
 17 O       -2.1560    -6.2320     0.7570 O.3   1 <1>  -0.5600 
 18 C       -2.2570    -6.8920    -1.6510 C.2   1 <1>   0.9060 
 19 O       -1.4310    -7.7700    -1.9430 O.co2 1 <1>  -0.9000 
 20 O       -3.3260    -6.7800    -2.2690 O.co2 1 <1>  -0.9000 
 21 H       -2.0490    -2.2610    -2.1210 H     1 <1>   0.3700 
 22 H       -1.4610    -3.0860    -0.7000 H     1 <1>   0.3700 
 23 H        2.4230    -1.1560    -1.9170 H     1 <1>   0.1500 
 24 H        0.1890    -6.2580    -0.6240 H     1 <1>   0.0800 
 25 H       -0.2990    -5.0500    -1.7750 H     1 <1>   0.0800 
 26 H       -0.2470    -3.9640     2.2960 H     1 <1>   0.0800 
 27 H        0.2300    -5.5900     1.8830 H     1 <1>   0.0800 
 28 H        4.6360    -0.7470    -1.2700 H     1 <1>   0.0800 
 29 H        5.4650    -2.2470    -0.9510 H     1 <1>   0.0800 
 30 H        5.0800    -1.1550     0.3640 H     1 <1>   0.0800 
 31 H        4.1010    -4.6120     1.9900 H     1 <1>   0.0800 
 32 H        4.5210    -2.9370     2.2390 H     1 <1>   0.0800 
 33 H        5.2500    -3.8500     0.9300 H     1 <1>   0.0800 
 34 H       -2.5520    -4.9960    -0.7970 H     1 <1>   0.0800 
 35 H       -2.5490    -4.4120     1.5300 H     1 <1>   0.0800 
 36 H       -2.0790    -5.6490     2.6740 H     1 <1>   0.0800 
@<TRIPOS>BOND
  1   1   2  2   
  2   2   3  am  
  3   2   4  1   
  4   3  21  1   
  5   3  22  1   
  6   4   5  ar  
  7   4   6  ar  
  8   5   7  ar  
  9   5   8  1   
 10   6   9  ar  
 11   6  23  1   
 12   7  10  ar  
 13   8  11  1   
 14   8  12  1   
 15   9  10  ar  
 16   9  13  1   
 17  10  14  1   
 18  11  15  1   
 19  11  24  1   
 20  11  25  1   
 21  12  16  1   
 22  12  26  1   
 23  12  27  1   
 24  13  28  1   
 25  13  29  1   
 26  13  30  1   
 27  14  31  1   
 28  14  32  1   
 29  14  33  1   
 30  15  17  1   
 31  15  18  1   
 32  15  34  1   
 33  16  17  1   
 34  16  35  1   
 35  16  36  1   
 36  18  19  ar  
 37  18  20  ar  
@<TRIPOS>SUBSTRUCTURE
  1 ****   8 GROUP 4 **** **** 0

# MOE 2024.06 (io_trps.svl 2023.06)
