@<TRIPOS>MOLECULE
NONAME
56 58 1 0 0 
SMALL
USER_CHARGES


@<TRIPOS>ATOM
  1 S        0.5910     0.2040    -0.3180 S.o2  1 <1>   1.3330 
  2 O        1.9940     0.5190    -0.4720 O.2   1 <1>  -0.6500 
  3 O       -0.1700    -0.2220    -1.4680 O.2   1 <1>  -0.6500 
  4 N        0.3860    -0.8920     0.9550 N.am  1 <1>  -0.8490 
  5 C       -0.1720     1.7020     0.2960 C.3   1 <1>  -0.0550 
  6 C       -0.8860    -1.6250     0.8960 C.3   1 <1>   0.1160 
  7 C        1.4980    -1.8440     1.0650 C.3   1 <1>   0.1160 
  8 C       -0.2090     2.8200    -0.7730 C.3   1 <1>  -0.0800 
  9 C       -0.7640     4.1660    -0.3010 C.3   1 <1>   0.2000 
 10 C        1.1730     3.1400    -1.3750 C.3   1 <1>   0.3430 
 11 O       -0.2990     4.4460     0.9820 O.3   1 <1>  -0.6800 
 12 C       -0.1140     5.1490    -1.2780 C.3   1 <1>   0.3430 
 13 N        1.2740     4.6240    -1.5080 N.4   1 <1>  -0.9590 
 14 C        2.2560     5.1410    -0.5020 C.3   1 <1>   0.4860 
 15 C        2.2560     6.6490    -0.5010 C.ar  1 <1>  -0.1440 
 16 C        1.6130     7.3500     0.4940 C.ar  1 <1>   0.1600 
 17 C        2.8770     7.3850    -1.4840 C.ar  1 <1>   0.1600 
 18 N        1.5560     8.6560     0.4970 N.ar  1 <1>  -0.6200 
 19 N        2.8370     8.6920    -1.5010 N.ar  1 <1>  -0.6200 
 20 C        2.1680     9.2650    -0.5070 C.ar  1 <1>   0.7200 
 21 N        2.0760    10.6070    -0.4890 N.pl3 1 <1>  -0.8690 
 22 C        3.0910    11.4970    -1.0710 C.3   1 <1>   0.3530 
 23 C        3.2640    12.6820    -0.1390 C.ar  1 <1>  -0.1440 
 24 C        4.0330    12.5570     1.0090 C.ar  1 <1>  -0.1500 
 25 C        2.6540    13.8960    -0.4190 C.ar  1 <1>  -0.1500 
 26 C        4.1950    13.6330     1.8630 C.ar  1 <1>  -0.1500 
 27 C        2.8160    14.9740     0.4350 C.ar  1 <1>  -0.1500 
 28 C        3.5880    14.8430     1.5760 C.ar  1 <1>  -0.1500 
 29 H       -1.1740     1.4830     0.6100 H     1 <1>   0.0800 
 30 H        0.3790     2.0290     1.1580 H     1 <1>   0.0800 
 31 H       -0.9990    -2.2420     1.7710 H     1 <1>   0.0800 
 32 H       -0.9180    -2.2520     0.0190 H     1 <1>   0.0800 
 33 H       -1.7120    -0.9360     0.8570 H     1 <1>   0.0800 
 34 H        1.3420    -2.5070     1.8990 H     1 <1>   0.0800 
 35 H        2.4230    -1.3160     1.2250 H     1 <1>   0.0800 
 36 H        1.5840    -2.4270     0.1620 H     1 <1>   0.0800 
 37 H       -0.8260     2.4750    -1.5860 H     1 <1>   0.0800 
 38 H       -1.8400     4.2260    -0.3090 H     1 <1>   0.0800 
 39 H        1.2760     2.6590    -2.3360 H     1 <1>   0.0800 
 40 H        1.9560     2.7760    -0.7290 H     1 <1>   0.0800 
 41 H       -0.9310     4.1300     1.6650 H     1 <1>   0.4000 
 42 H       -0.1280     6.1550    -0.8940 H     1 <1>   0.0800 
 43 H       -0.6610     5.1270    -2.2070 H     1 <1>   0.0800 
 44 H        1.5940     4.8870    -2.4490 H     1 <1>   0.4500 
 45 H        1.9930     4.7860     0.4820 H     1 <1>   0.0800 
 46 H        3.2450     4.7790    -0.7320 H     1 <1>   0.0800 
 47 H        1.1230     6.8330     1.3040 H     1 <1>   0.1500 
 48 H        3.4170     6.9000    -2.2800 H     1 <1>   0.1500 
 49 H        1.6780    10.9700     0.3760 H     1 <1>   0.4000 
 50 H        4.0290    10.9790    -1.1810 H     1 <1>   0.0800 
 51 H        2.7640    11.8220    -2.0440 H     1 <1>   0.0800 
 52 H        4.5040    11.6170     1.2410 H     1 <1>   0.1500 
 53 H        2.0480    14.0070    -1.3020 H     1 <1>   0.1500 
 54 H        4.7930    13.5290     2.7520 H     1 <1>   0.1500 
 55 H        2.3410    15.9130     0.2120 H     1 <1>   0.1500 
 56 H        3.7140    15.6800     2.2400 H     1 <1>   0.1500 
@<TRIPOS>BOND
  1   1   2  2   
  2   1   3  2   
  3   1   4  am  
  4   1   5  1   
  5   4   6  1   
  6   4   7  1   
  7   5   8  1   
  8   5  29  1   
  9   5  30  1   
 10   6  31  1   
 11   6  32  1   
 12   6  33  1   
 13   7  34  1   
 14   7  35  1   
 15   7  36  1   
 16   8   9  1   
 17   8  10  1   
 18   8  37  1   
 19   9  11  1   
 20   9  12  1   
 21   9  38  1   
 22  10  13  1   
 23  10  39  1   
 24  10  40  1   
 25  11  41  1   
 26  12  13  1   
 27  12  42  1   
 28  12  43  1   
 29  13  14  1   
 30  13  44  1   
 31  14  15  1   
 32  14  45  1   
 33  14  46  1   
 34  15  16  ar  
 35  15  17  ar  
 36  16  18  ar  
 37  16  47  1   
 38  17  19  ar  
 39  17  48  1   
 40  18  20  ar  
 41  19  20  ar  
 42  20  21  1   
 43  21  22  1   
 44  21  49  1   
 45  22  23  1   
 46  22  50  1   
 47  22  51  1   
 48  23  24  ar  
 49  23  25  ar  
 50  24  26  ar  
 51  24  52  1   
 52  25  27  ar  
 53  25  53  1   
 54  26  28  ar  
 55  26  54  1   
 56  27  28  ar  
 57  27  55  1   
 58  28  56  1   
@<TRIPOS>SUBSTRUCTURE
  1 ****  15 GROUP 4 **** **** 0

# MOE 2024.06 (io_trps.svl 2023.06)
