@<TRIPOS>MOLECULE
NONAME
54 56 1 0 0 
SMALL
USER_CHARGES


@<TRIPOS>ATOM
  1 CL      -3.1820     3.9940    -3.1010 Cl    1 <1>  -0.1770 
  2 C       -1.7820     4.2130    -2.0880 C.ar  1 <1>   0.1770 
  3 C       -1.7670     5.2370    -1.1610 C.ar  1 <1>  -0.1500 
  4 C       -0.7050     3.3610    -2.2250 C.ar  1 <1>  -0.1500 
  5 C       -0.6550     5.4210    -0.3530 C.ar  1 <1>  -0.1440 
  6 C        0.4030     3.5450    -1.4180 C.ar  1 <1>  -0.1500 
  7 C        0.4560     4.5730    -0.4740 C.ar  1 <1>   0.0860 
  8 C       -0.6600     6.5530     0.6660 C.3   1 <1>  -0.0960 
  9 C        1.6530     4.7360     0.3320 C.2   1 <1>   0.5440 
 10 O        1.6040     4.5420     1.5330 O.2   1 <1>  -0.5700 
 11 N        2.8540     5.1150    -0.2320 N.am  1 <1>  -0.6600 
 12 C        4.1080     5.0710     0.5740 C.3   1 <1>   0.1400 
 13 C        2.9620     5.6910    -1.5990 C.3   1 <1>   0.1400 
 14 C        4.2710     6.3550     1.4010 C.3   1 <1>   0.1100 
 15 C        3.8440     6.9460    -1.6470 C.3   1 <1>  -0.1600 
 16 N        4.6540     7.5530     0.6100 N.3   1 <1>  -0.8100 
 17 C        3.6750     7.8840    -0.4460 C.3   1 <1>   0.1100 
 18 C        4.8680     8.7030     1.5340 C.3   1 <1>   0.2540 
 19 C        5.5360     9.9410     0.8960 C.cat 1 <1>   0.6560 
 20 N        5.0970    11.1840     1.0470 N.pl3 1 <1>  -0.7000 
 21 N        6.6190     9.9440     0.1160 N.pl3 1 <1>  -0.7640 
 22 C        5.9170    12.0160     0.3400 C.2   1 <1>   0.1820 
 23 C        6.8660    11.2470    -0.2440 C.2   1 <1>   0.1820 
 24 C        7.3920     8.7460    -0.3230 C.3   1 <1>   0.2740 
 25 C        5.6730    13.5130     0.3110 C.3   1 <1>  -0.0720 
 26 C        8.0250    11.6350    -1.1450 C.3   1 <1>  -0.0720 
 27 H       -2.6270     5.8770    -1.0800 H     1 <1>   0.1500 
 28 H       -0.7390     2.5670    -2.9500 H     1 <1>   0.1500 
 29 H        1.2470     2.8830    -1.5120 H     1 <1>   0.1500 
 30 H       -1.5430     7.1590     0.5720 H     1 <1>   0.0800 
 31 H        0.2010     7.1820     0.5290 H     1 <1>   0.0800 
 32 H       -0.6330     6.1460     1.6620 H     1 <1>   0.0800 
 33 H        4.9630     4.9210    -0.0610 H     1 <1>   0.0800 
 34 H        4.0550     4.2330     1.2480 H     1 <1>   0.0800 
 35 H        1.9820     5.9580    -1.9540 H     1 <1>   0.0800 
 36 H        3.3590     4.9450    -2.2670 H     1 <1>   0.0800 
 37 H        5.0400     6.1650     2.1290 H     1 <1>   0.0800 
 38 H        3.3550     6.5370     1.9380 H     1 <1>   0.0800 
 39 H        3.5770     7.4840    -2.5390 H     1 <1>   0.0800 
 40 H        4.8770     6.6680    -1.7530 H     1 <1>   0.0800 
 41 H        2.6680     7.8410    -0.0630 H     1 <1>   0.0800 
 42 H        3.8520     8.8860    -0.7980 H     1 <1>   0.0800 
 43 H        5.5050     8.3870     2.3410 H     1 <1>   0.0800 
 44 H        3.9240     8.9930     1.9600 H     1 <1>   0.0800 
 45 H        4.2840    11.4800     1.5900 H     1 <1>   0.4500 
 46 H        7.2360     7.9230     0.3520 H     1 <1>   0.0800 
 47 H        8.4440     8.9690    -0.3450 H     1 <1>   0.0800 
 48 H        7.0720     8.4500    -1.3070 H     1 <1>   0.0800 
 49 H        4.7020    13.7190    -0.1010 H     1 <1>   0.0800 
 50 H        6.4120    14.0120    -0.2890 H     1 <1>   0.0800 
 51 H        5.7200    13.9120     1.3090 H     1 <1>   0.0800 
 52 H        7.9420    11.1270    -2.0890 H     1 <1>   0.0800 
 53 H        8.9560    11.3640    -0.6820 H     1 <1>   0.0800 
 54 H        8.0320    12.6930    -1.3290 H     1 <1>   0.0800 
@<TRIPOS>BOND
  1   1   2  1   
  2   2   3  ar  
  3   2   4  ar  
  4   3   5  ar  
  5   3  27  1   
  6   4   6  ar  
  7   4  28  1   
  8   5   7  ar  
  9   5   8  1   
 10   6   7  ar  
 11   6  29  1   
 12   7   9  1   
 13   8  30  1   
 14   8  31  1   
 15   8  32  1   
 16   9  10  2   
 17   9  11  am  
 18  11  12  1   
 19  11  13  1   
 20  12  14  1   
 21  12  33  1   
 22  12  34  1   
 23  13  15  1   
 24  13  35  1   
 25  13  36  1   
 26  14  16  1   
 27  14  37  1   
 28  14  38  1   
 29  15  17  1   
 30  15  39  1   
 31  15  40  1   
 32  16  17  1   
 33  16  18  1   
 34  17  41  1   
 35  17  42  1   
 36  18  19  1   
 37  18  43  1   
 38  18  44  1   
 39  19  20  ar  
 40  19  21  ar  
 41  20  22  1   
 42  20  45  1   
 43  21  23  1   
 44  21  24  1   
 45  22  23  2   
 46  22  25  1   
 47  23  26  1   
 48  24  46  1   
 49  24  47  1   
 50  24  48  1   
 51  25  49  1   
 52  25  50  1   
 53  25  51  1   
 54  26  52  1   
 55  26  53  1   
 56  26  54  1   
@<TRIPOS>SUBSTRUCTURE
  1 ****  17 GROUP 4 **** **** 0

# MOE 2024.06 (io_trps.svl 2023.06)
