@<TRIPOS>MOLECULE
NONAME
48 51 1 0 0 
SMALL
USER_CHARGES


@<TRIPOS>ATOM
  1 S       -1.2640    -0.6400     0.5870 S.3   1 <1>  -0.2860 
  2 C       -0.5640     0.9880     0.8710 C.2   1 <1>   0.2420 
  3 C       -2.0860    -0.4420    -1.0700 C.3   1 <1>   0.1310 
  4 N       -0.6560     1.9630     0.0370 N.2   1 <1>  -0.3380 
  5 N        0.1070     1.2960     1.9790 N.pl3 1 <1>   0.0480 
  6 C       -2.7020    -1.7510    -1.5360 C.2   1 <1>   0.5690 
  7 N       -0.0140     2.9890     0.6060 N.2   1 <1>  -0.3380 
  8 C        0.4270     2.5740     1.7480 C.2   1 <1>   0.0360 
  9 C        0.4150     0.4530     3.1480 C.3   1 <1>   0.0160 
 10 O       -3.6730    -1.7190    -2.2530 O.2   1 <1>  -0.5700 
 11 N       -2.1580    -2.9310    -1.1410 N.am  1 <1>  -0.7300 
 12 C       -2.7040    -4.2620    -1.4800 C.3   1 <1>   0.2200 
 13 C       -3.7030    -4.6720    -0.4130 C.3   1 <1>  -0.0800 
 14 C       -1.6240    -5.3280    -1.3280 C.3   1 <1>   0.1200 
 15 C       -2.7950    -5.2800     0.6600 C.3   1 <1>   0.1200 
 16 C       -4.7280    -5.6850    -0.9600 C.3   1 <1>  -0.0160 
 17 O       -1.6270    -5.7040     0.0180 O.3   1 <1>  -0.5600 
 18 C       -5.8030    -6.0060     0.0740 C.ar  1 <1>  -0.1440 
 19 C       -6.8510    -5.1050     0.3780 C.ar  1 <1>   0.0000 
 20 C       -5.7780    -7.1940     0.7430 C.ar  1 <1>  -0.1500 
 21 C       -7.7880    -5.4960     1.3660 C.ar  1 <1>   0.3100 
 22 C       -7.0280    -3.8430    -0.2390 C.ar  1 <1>  -0.1500 
 23 C       -6.7580    -7.4860     1.6990 C.ar  1 <1>   0.1600 
 24 N       -7.7270    -6.6870     2.0150 N.ar  1 <1>  -0.6200 
 25 C       -8.8340    -4.6200     1.6970 C.ar  1 <1>  -0.1500 
 26 C       -8.0600    -3.0130     0.1070 C.ar  1 <1>  -0.1500 
 27 C       -8.9750    -3.4030     1.0870 C.ar  1 <1>  -0.1500 
 28 H       -2.8430     0.3130    -0.9610 H     1 <1>   0.0800 
 29 H       -1.3370    -0.1100    -1.7640 H     1 <1>   0.0800 
 30 H        0.9860     3.1750     2.4420 H     1 <1>   0.1500 
 31 H        0.9520     1.0270     3.8800 H     1 <1>   0.0800 
 32 H        1.0150    -0.3820     2.8360 H     1 <1>   0.0800 
 33 H       -0.5030     0.0920     3.5770 H     1 <1>   0.0800 
 34 H       -1.4120    -2.9330    -0.4390 H     1 <1>   0.3700 
 35 H       -3.1240    -4.2440    -2.4720 H     1 <1>   0.0800 
 36 H       -4.2260    -3.8170    -0.0240 H     1 <1>   0.0800 
 37 H       -0.6470    -4.9710    -1.6030 H     1 <1>   0.0800 
 38 H       -1.8690    -6.2000    -1.9080 H     1 <1>   0.0800 
 39 H       -3.2420    -6.1170     1.1670 H     1 <1>   0.0800 
 40 H       -2.5140    -4.5340     1.3820 H     1 <1>   0.0800 
 41 H       -4.2240    -6.5910    -1.2490 H     1 <1>   0.0800 
 42 H       -5.1980    -5.2930    -1.8440 H     1 <1>   0.0800 
 43 H       -5.0150    -7.9290     0.5600 H     1 <1>   0.1500 
 44 H       -6.3400    -3.5200    -0.9990 H     1 <1>   0.1500 
 45 H       -6.7010    -8.4350     2.2040 H     1 <1>   0.1500 
 46 H       -9.5260    -4.9420     2.4520 H     1 <1>   0.1500 
 47 H       -8.1790    -2.0550    -0.3710 H     1 <1>   0.1500 
 48 H       -9.7810    -2.7410     1.3510 H     1 <1>   0.1500 
@<TRIPOS>BOND
  1   1   2  1   
  2   1   3  1   
  3   2   4  2   
  4   2   5  1   
  5   3   6  1   
  6   3  28  1   
  7   3  29  1   
  8   4   7  1   
  9   5   8  1   
 10   5   9  1   
 11   6  10  2   
 12   6  11  am  
 13   7   8  2   
 14   8  30  1   
 15   9  31  1   
 16   9  32  1   
 17   9  33  1   
 18  11  12  1   
 19  11  34  1   
 20  12  13  1   
 21  12  14  1   
 22  12  35  1   
 23  13  15  1   
 24  13  16  1   
 25  13  36  1   
 26  14  17  1   
 27  14  37  1   
 28  14  38  1   
 29  15  17  1   
 30  15  39  1   
 31  15  40  1   
 32  16  18  1   
 33  16  41  1   
 34  16  42  1   
 35  18  19  ar  
 36  18  20  ar  
 37  19  21  ar  
 38  19  22  ar  
 39  20  23  ar  
 40  20  43  1   
 41  21  24  ar  
 42  21  25  ar  
 43  22  26  ar  
 44  22  44  1   
 45  23  24  ar  
 46  23  45  1   
 47  25  27  ar  
 48  25  46  1   
 49  26  27  ar  
 50  26  47  1   
 51  27  48  1   
@<TRIPOS>SUBSTRUCTURE
  1 ****  13 GROUP 4 **** **** 0

# MOE 2024.06 (io_trps.svl 2023.06)
