@<TRIPOS>MOLECULE
NONAME
57 59 1 0 0 
SMALL
USER_CHARGES


@<TRIPOS>ATOM
  1 O       -1.8070    -0.8800    -0.6780 O.2   1 <1>  -0.5700 
  2 C       -1.9380     0.3080    -0.8950 C.2   1 <1>   0.5690 
  3 N       -3.1100     0.7280    -1.4890 N.am  1 <1>  -0.6600 
  4 C       -0.8700     1.3210    -0.3560 C.3   1 <1>   0.4300 
  5 C       -4.0030     1.6270    -0.6960 C.3   1 <1>   0.1400 
  6 C       -3.9180    -0.2610    -2.2770 C.3   1 <1>   0.1400 
  7 N       -1.3030     1.8360     0.9880 N.pl3 1 <1>  -0.8690 
  8 C       -0.6570     2.4710    -1.3580 C.3   1 <1>  -0.2400 
  9 C        0.4850     0.6340    -0.1340 C.3   1 <1>  -0.2400 
 10 C       -4.7570     0.8000     0.3830 C.3   1 <1>   0.4230 
 11 C       -4.9770    -0.9600    -1.3860 C.3   1 <1>   0.3430 
 12 C       -0.8350     3.0500     1.4840 C.ar  1 <1>   0.1000 
 13 N       -4.7220    -0.6920     0.0770 N.4   1 <1>  -0.9590 
 14 C       -6.2090     1.3030     0.5450 C.3   1 <1>   0.1200 
 15 C       -1.4330     4.2580     1.1430 C.ar  1 <1>  -0.1500 
 16 C        0.2390     3.0660     2.3660 C.ar  1 <1>  -0.1500 
 17 C       -5.5610    -1.4550     1.0550 C.3   1 <1>   0.4230 
 18 O       -6.9160     0.5140     1.4590 O.3   1 <1>  -0.5600 
 19 C       -0.9610     5.4520     1.6550 C.ar  1 <1>  -0.1500 
 20 C        0.7150     4.2580     2.8810 C.ar  1 <1>  -0.1500 
 21 C       -6.9820    -0.8520     1.1510 C.3   1 <1>   0.1200 
 22 C       -5.5650    -2.9540     0.7150 C.3   1 <1>  -0.1600 
 23 C        0.1160     5.4550     2.5240 C.ar  1 <1>  -0.1500 
 24 C       -6.0990    -3.8180     1.8680 C.3   1 <1>  -0.1600 
 25 C       -6.0120    -5.3070     1.5200 C.3   1 <1>  -0.2400 
 26 H       -3.4460     2.4130    -0.2210 H     1 <1>   0.0800 
 27 H       -4.7020     2.0990    -1.3640 H     1 <1>   0.0800 
 28 H       -4.4030     0.2380    -3.0980 H     1 <1>   0.0800 
 29 H       -3.2650    -1.0060    -2.7010 H     1 <1>   0.0800 
 30 H       -1.0970     1.0880     1.6570 H     1 <1>   0.4000 
 31 H       -0.3730     2.0690    -2.3140 H     1 <1>   0.0800 
 32 H        0.1270     3.1290    -1.0300 H     1 <1>   0.0800 
 33 H       -1.5570     3.0390    -1.4930 H     1 <1>   0.0800 
 34 H        0.8310     0.2020    -1.0560 H     1 <1>   0.0800 
 35 H        0.3990    -0.1560     0.5910 H     1 <1>   0.0800 
 36 H        1.2220     1.3410     0.2020 H     1 <1>   0.0800 
 37 H       -4.2550     0.9670     1.3220 H     1 <1>   0.0800 
 38 H       -4.9420    -2.0180    -1.5840 H     1 <1>   0.0800 
 39 H       -5.9580    -0.6070    -1.6550 H     1 <1>   0.0800 
 40 H       -3.7300    -0.9700     0.2050 H     1 <1>   0.4500 
 41 H       -6.7350     1.2890    -0.3930 H     1 <1>   0.0800 
 42 H       -6.2100     2.3110     0.9220 H     1 <1>   0.0800 
 43 H       -2.2710     4.2640     0.4750 H     1 <1>   0.1500 
 44 H        0.7100     2.1440     2.6500 H     1 <1>   0.1500 
 45 H       -5.1130    -1.3510     2.0300 H     1 <1>   0.0800 
 46 H       -1.4290     6.3820     1.3800 H     1 <1>   0.1500 
 47 H        1.5500     4.2580     3.5590 H     1 <1>   0.1500 
 48 H       -7.5370    -1.3270     1.9400 H     1 <1>   0.0800 
 49 H       -7.5250    -0.9750     0.2300 H     1 <1>   0.0800 
 50 H       -6.1680    -3.1380    -0.1570 H     1 <1>   0.0800 
 51 H       -4.5550    -3.2660     0.5080 H     1 <1>   0.0800 
 52 H        0.4870     6.3830     2.9230 H     1 <1>   0.1500 
 53 H       -5.5250    -3.6360     2.7620 H     1 <1>   0.0800 
 54 H       -7.1280    -3.5780     2.0790 H     1 <1>   0.0800 
 55 H       -4.9910    -5.5970     1.3380 H     1 <1>   0.0800 
 56 H       -6.5980    -5.5300     0.6460 H     1 <1>   0.0800 
 57 H       -6.3870    -5.8980     2.3380 H     1 <1>   0.0800 
@<TRIPOS>BOND
  1   1   2  2   
  2   2   3  am  
  3   2   4  1   
  4   3   5  1   
  5   3   6  1   
  6   4   7  1   
  7   4   8  1   
  8   4   9  1   
  9   5  10  1   
 10   5  26  1   
 11   5  27  1   
 12   6  11  1   
 13   6  28  1   
 14   6  29  1   
 15   7  12  1   
 16   7  30  1   
 17   8  31  1   
 18   8  32  1   
 19   8  33  1   
 20   9  34  1   
 21   9  35  1   
 22   9  36  1   
 23  10  13  1   
 24  10  14  1   
 25  10  37  1   
 26  11  13  1   
 27  11  38  1   
 28  11  39  1   
 29  12  15  ar  
 30  12  16  ar  
 31  13  17  1   
 32  13  40  1   
 33  14  18  1   
 34  14  41  1   
 35  14  42  1   
 36  15  19  ar  
 37  15  43  1   
 38  16  20  ar  
 39  16  44  1   
 40  17  21  1   
 41  17  22  1   
 42  17  45  1   
 43  18  21  1   
 44  19  23  ar  
 45  19  46  1   
 46  20  23  ar  
 47  20  47  1   
 48  21  48  1   
 49  21  49  1   
 50  22  24  1   
 51  22  50  1   
 52  22  51  1   
 53  23  52  1   
 54  24  25  1   
 55  24  53  1   
 56  24  54  1   
 57  25  55  1   
 58  25  56  1   
 59  25  57  1   
@<TRIPOS>SUBSTRUCTURE
  1 ****  10 GROUP 4 **** **** 0

# MOE 2024.06 (io_trps.svl 2023.06)
