@<TRIPOS>MOLECULE
NONAME
49 53 1 0 0 
SMALL
USER_CHARGES


@<TRIPOS>ATOM
  1 S        0.1470     0.5650     2.0040 S.3   1 <1>  -0.0800 
  2 C        0.0310     1.9520     0.9410 C.2   1 <1>  -0.1400 
  3 C        1.8770     0.8240     2.1840 C.2   1 <1>  -0.1100 
  4 C        1.2220     2.5320     0.7440 C.2   1 <1>  -0.1810 
  5 C       -1.2700     2.4140     0.3440 C.3   1 <1>   0.0200 
  6 C        2.2830     1.8890     1.4660 C.2   1 <1>  -0.1500 
  7 C        1.3640     3.7540    -0.1660 C.3   1 <1>   0.4610 
  8 C       -1.0620     3.8630    -0.1250 C.3   1 <1>   0.1200 
  9 O        0.1420     3.9990    -0.8430 O.3   1 <1>  -0.5600 
 10 C        2.4050     3.4870    -1.2580 C.3   1 <1>  -0.1600 
 11 C        1.7520     5.0010     0.6360 C.3   1 <1>  -0.1600 
 12 C        2.6130     4.7120    -2.1470 C.3   1 <1>   0.1400 
 13 C        1.9860     6.2140    -0.2680 C.3   1 <1>   0.1400 
 14 N        3.0070     5.8780    -1.3030 N.am  1 <1>  -0.6600 
 15 C        4.2350     6.4890    -1.4710 C.2   1 <1>   0.5690 
 16 O        5.0430     6.0370    -2.2510 O.2   1 <1>  -0.5700 
 17 C        4.6500     7.7990    -0.7780 C.3   1 <1>   0.1610 
 18 C        4.8530     7.6700     0.7290 C.2   1 <1>   0.0070 
 19 C        3.7110     8.9680    -1.1620 C.3   1 <1>  -0.1600 
 20 N        4.6610     6.6240     1.4410 N.2   1 <1>  -0.3380 
 21 N        5.2820     8.6510     1.5040 N.pl3 1 <1>   0.3140 
 22 C        4.3270    10.3680    -1.0020 C.3   1 <1>  -0.1600 
 23 N        4.9610     6.9690     2.6850 N.2   1 <1>   0.0000 
 24 N        5.3390     8.1940     2.7350 N.2   1 <1>  -0.4180 
 25 C        5.6830    10.0290     1.1610 C.3   1 <1>   0.0960 
 26 C        4.5630    10.8030     0.4520 C.3   1 <1>  -0.1600 
 27 H        2.4140     0.1430     2.8190 H     1 <1>   0.1500 
 28 H       -2.0550     2.3770     1.0780 H     1 <1>   0.0800 
 29 H       -1.5380     1.7870    -0.4860 H     1 <1>   0.0800 
 30 H        3.2940     2.2550     1.4140 H     1 <1>   0.1500 
 31 H       -1.0330     4.5290     0.7190 H     1 <1>   0.0800 
 32 H       -1.8660     4.1630    -0.7730 H     1 <1>   0.0800 
 33 H        2.0870     2.6510    -1.8520 H     1 <1>   0.0800 
 34 H        3.3480     3.2300    -0.8110 H     1 <1>   0.0800 
 35 H        2.6580     4.7980     1.1760 H     1 <1>   0.0800 
 36 H        0.9980     5.2230     1.3670 H     1 <1>   0.0800 
 37 H        1.7000     4.9470    -2.6680 H     1 <1>   0.0800 
 38 H        3.3650     4.4950    -2.8850 H     1 <1>   0.0800 
 39 H        2.2980     7.0390     0.3410 H     1 <1>   0.0800 
 40 H        1.0660     6.4850    -0.7580 H     1 <1>   0.0800 
 41 H        5.6170     8.0360    -1.1850 H     1 <1>   0.0800 
 42 H        2.7980     8.9170    -0.6000 H     1 <1>   0.0800 
 43 H        3.4480     8.8490    -2.2000 H     1 <1>   0.0800 
 44 H        3.6480    11.0760    -1.4500 H     1 <1>   0.0800 
 45 H        5.2480    10.4290    -1.5580 H     1 <1>   0.0800 
 46 H        6.5630     9.9870     0.5450 H     1 <1>   0.0800 
 47 H        5.9400    10.5340     2.0760 H     1 <1>   0.0800 
 48 H        3.6510    10.7300     1.0220 H     1 <1>   0.0800 
 49 H        4.8440    11.8420     0.4410 H     1 <1>   0.0800 
@<TRIPOS>BOND
  1   1   2  1   
  2   1   3  1   
  3   2   4  2   
  4   2   5  1   
  5   3   6  2   
  6   3  27  1   
  7   4   6  1   
  8   4   7  1   
  9   5   8  1   
 10   5  28  1   
 11   5  29  1   
 12   6  30  1   
 13   7   9  1   
 14   7  10  1   
 15   7  11  1   
 16   8   9  1   
 17   8  31  1   
 18   8  32  1   
 19  10  12  1   
 20  10  33  1   
 21  10  34  1   
 22  11  13  1   
 23  11  35  1   
 24  11  36  1   
 25  12  14  1   
 26  12  37  1   
 27  12  38  1   
 28  13  14  1   
 29  13  39  1   
 30  13  40  1   
 31  14  15  am  
 32  15  16  2   
 33  15  17  1   
 34  17  18  1   
 35  17  19  1   
 36  17  41  1   
 37  18  20  2   
 38  18  21  1   
 39  19  22  1   
 40  19  42  1   
 41  19  43  1   
 42  20  23  1   
 43  21  24  1   
 44  21  25  1   
 45  22  26  1   
 46  22  44  1   
 47  22  45  1   
 48  23  24  2   
 49  25  26  1   
 50  25  46  1   
 51  25  47  1   
 52  26  48  1   
 53  26  49  1   
@<TRIPOS>SUBSTRUCTURE
  1 ****  13 GROUP 4 **** **** 0

# MOE 2024.06 (io_trps.svl 2023.06)
