@<TRIPOS>MOLECULE
NONAME
46 48 1 0 0 
SMALL
USER_CHARGES


@<TRIPOS>ATOM
  1 S       -0.1570     0.2910     2.0670 S.o2  1 <1>   1.2040 
  2 O       -0.3810     1.6890     2.3660 O.2   1 <1>  -0.6500 
  3 O        0.4140    -0.5760     3.0740 O.2   1 <1>  -0.6500 
  4 C        0.8080     0.1620     0.5410 C.ar  1 <1>  -0.0090 
  5 C       -1.7260    -0.4010     1.5700 C.3   1 <1>  -0.0550 
  6 C        1.7020    -0.8830     0.3400 C.ar  1 <1>  -0.1500 
  7 C        0.6500     1.0880    -0.4840 C.ar  1 <1>  -0.1500 
  8 C       -1.6050    -1.8710     1.1710 C.3   1 <1>   0.1100 
  9 C        2.4080    -1.0070    -0.8440 C.ar  1 <1>  -0.1500 
 10 C        1.3520     0.9730    -1.6710 C.ar  1 <1>  -0.1500 
 11 N       -2.9110    -2.3830     0.7460 N.3   1 <1>  -0.8100 
 12 C        2.2310    -0.0780    -1.8530 C.ar  1 <1>  -0.1500 
 13 C       -3.3280    -1.9250    -0.5860 C.3   1 <1>   0.1100 
 14 C       -2.9240    -3.8540     0.6640 C.3   1 <1>   0.1100 
 15 C       -4.4420    -2.8910    -0.9690 C.3   1 <1>   0.2000 
 16 C       -3.9490    -4.2310    -0.4230 C.3   1 <1>  -0.0800 
 17 O       -5.5650    -2.5300    -0.2500 O.3   1 <1>  -0.6800 
 18 C       -3.3280    -5.0900    -1.5410 C.3   1 <1>  -0.0160 
 19 C       -2.8600    -6.4420    -1.0290 C.ar  1 <1>   0.1670 
 20 N       -1.5740    -6.5510    -0.7280 N.ar  1 <1>  -0.6200 
 21 C       -3.7750    -7.4770    -0.9060 C.ar  1 <1>  -0.1500 
 22 C       -1.1870    -7.7390    -0.2900 C.ar  1 <1>   0.1600 
 23 C       -3.3580    -8.7070    -0.4460 C.ar  1 <1>  -0.1500 
 24 C       -2.0230    -8.8310    -0.1320 C.ar  1 <1>  -0.1500 
 25 H       -2.4180    -0.3290     2.3870 H     1 <1>   0.0800 
 26 H       -2.1160     0.1650     0.7480 H     1 <1>   0.0800 
 27 H        1.8520    -1.6120     1.1210 H     1 <1>   0.1500 
 28 H       -0.0270     1.9160    -0.3500 H     1 <1>   0.1500 
 29 H       -1.2670    -2.4320     2.0270 H     1 <1>   0.0800 
 30 H       -0.8870    -2.0010     0.3780 H     1 <1>   0.0800 
 31 H        3.0960    -1.8250    -0.9800 H     1 <1>   0.1500 
 32 H        1.2170     1.7020    -2.4520 H     1 <1>   0.1500 
 33 H        2.7800    -0.1710    -2.7750 H     1 <1>   0.1500 
 34 H       -3.6770    -0.9070    -0.5740 H     1 <1>   0.0800 
 35 H       -2.5140    -2.0220    -1.2850 H     1 <1>   0.0800 
 36 H       -1.9450    -4.2180     0.3990 H     1 <1>   0.0800 
 37 H       -3.2000    -4.2730     1.6170 H     1 <1>   0.0800 
 38 H       -4.6840    -2.8900    -2.0180 H     1 <1>   0.0800 
 39 H       -4.7640    -4.7830     0.0130 H     1 <1>   0.0800 
 40 H       -5.2610    -2.3750     0.6710 H     1 <1>   0.4000 
 41 H       -2.4960    -4.5730    -1.9870 H     1 <1>   0.0800 
 42 H       -4.0590    -5.2500    -2.3130 H     1 <1>   0.0800 
 43 H       -4.8070    -7.3220    -1.1670 H     1 <1>   0.1500 
 44 H       -0.1450    -7.8490    -0.0430 H     1 <1>   0.1500 
 45 H       -4.0430    -9.5310    -0.3380 H     1 <1>   0.1500 
 46 H       -1.6300    -9.7630     0.2300 H     1 <1>   0.1500 
@<TRIPOS>BOND
  1   1   2  2   
  2   1   3  2   
  3   1   4  1   
  4   1   5  1   
  5   4   6  ar  
  6   4   7  ar  
  7   5   8  1   
  8   5  25  1   
  9   5  26  1   
 10   6   9  ar  
 11   6  27  1   
 12   7  10  ar  
 13   7  28  1   
 14   8  11  1   
 15   8  29  1   
 16   8  30  1   
 17   9  12  ar  
 18   9  31  1   
 19  10  12  ar  
 20  10  32  1   
 21  11  13  1   
 22  11  14  1   
 23  12  33  1   
 24  13  15  1   
 25  13  34  1   
 26  13  35  1   
 27  14  16  1   
 28  14  36  1   
 29  14  37  1   
 30  15  16  1   
 31  15  17  1   
 32  15  38  1   
 33  16  18  1   
 34  16  39  1   
 35  17  40  1   
 36  18  19  1   
 37  18  41  1   
 38  18  42  1   
 39  19  20  ar  
 40  19  21  ar  
 41  20  22  ar  
 42  21  23  ar  
 43  21  43  1   
 44  22  24  ar  
 45  22  44  1   
 46  23  24  ar  
 47  23  45  1   
 48  24  46  1   
@<TRIPOS>SUBSTRUCTURE
  1 ****   8 GROUP 4 **** **** 0

# MOE 2024.06 (io_trps.svl 2023.06)
