@<TRIPOS>MOLECULE
NONAME
41 43 1 0 0 
SMALL
USER_CHARGES


@<TRIPOS>ATOM
  1 O       -0.0060     2.0260     0.9750 O.co2 1 <1>  -0.9000 
  2 C        1.1330     1.8990     1.4470 C.2   1 <1>   0.9470 
  3 O        1.3950     2.2970     2.5910 O.co2 1 <1>  -0.9000 
  4 C        2.2840     1.4610     0.5380 C.3   1 <1>  -0.2420 
  5 C        2.9030     0.1130     0.2470 C.3   1 <1>  -0.2420 
  6 C        3.4070     2.4790     0.5870 C.3   1 <1>   0.2350 
  7 C        1.9550     0.7370    -0.7440 C.3   1 <1>  -0.2000 
  8 C        2.5910    -1.2740     0.8120 C.2   1 <1>   0.9470 
  9 C        4.4030     0.3080     0.0960 C.3   1 <1>   0.2350 
 10 N        4.6020     1.7830     0.0320 N.am  1 <1>  -0.6600 
 11 O        3.1490    -1.6340     1.8570 O.co2 1 <1>  -0.9000 
 12 O        1.9160    -2.0670     0.1410 O.co2 1 <1>  -0.9000 
 13 C        5.6870     2.3730    -0.5380 C.2   1 <1>   0.5690 
 14 O        6.5810     1.7290    -1.0420 O.2   1 <1>  -0.5700 
 15 C        5.7830     3.8910    -0.5460 C.3   1 <1>  -0.0990 
 16 C        7.1970     4.4170    -0.8320 C.3   1 <1>  -0.0160 
 17 C        7.2180     5.9370    -0.7780 C.ar  1 <1>  -0.1440 
 18 C        7.3960     6.5920     0.4310 C.ar  1 <1>  -0.1500 
 19 C        7.0540     6.6810    -1.9360 C.ar  1 <1>  -0.1500 
 20 C        7.4110     7.9750     0.4860 C.ar  1 <1>  -0.1500 
 21 C        7.0680     8.0640    -1.8840 C.ar  1 <1>  -0.1500 
 22 C        7.2460     8.7210    -0.6780 C.ar  1 <1>   0.0820 
 23 O        7.2480    10.0770    -0.7140 O.3   1 <1>  -0.3630 
 24 C        7.4570    10.8410     0.4530 C.3   1 <1>   0.0400 
 25 H        3.6040     2.7620     1.6070 H     1 <1>   0.0800 
 26 H        3.1450     3.3470     0.0090 H     1 <1>   0.0800 
 27 H        2.3340     1.1080    -1.6770 H     1 <1>   0.1000 
 28 H        0.9750     0.2990    -0.8390 H     1 <1>   0.1000 
 29 H        4.7660    -0.1740    -0.7950 H     1 <1>   0.0800 
 30 H        4.9200    -0.0820     0.9560 H     1 <1>   0.0800 
 31 H        5.1060     4.2670    -1.2890 H     1 <1>   0.0800 
 32 H        5.4700     4.2610     0.4130 H     1 <1>   0.0800 
 33 H        7.5190     4.0800    -1.8020 H     1 <1>   0.0800 
 34 H        7.8830     4.0170    -0.1050 H     1 <1>   0.0800 
 35 H        7.5220     6.0230     1.3350 H     1 <1>   0.1500 
 36 H        6.9130     6.1870    -2.8820 H     1 <1>   0.1500 
 37 H        7.5500     8.4500     1.4380 H     1 <1>   0.1500 
 38 H        6.9410     8.6430    -2.7800 H     1 <1>   0.1500 
 39 H        7.4300    11.8800     0.1800 H     1 <1>   0.0800 
 40 H        8.4200    10.5950     0.8630 H     1 <1>   0.0800 
 41 H        6.6710    10.6270     1.1550 H     1 <1>   0.0800 
@<TRIPOS>BOND
  1   1   2  ar  
  2   2   3  ar  
  3   2   4  1   
  4   4   5  1   
  5   4   6  1   
  6   4   7  1   
  7   5   7  1   
  8   5   8  1   
  9   5   9  1   
 10   6  10  1   
 11   6  25  1   
 12   6  26  1   
 13   7  27  1   
 14   7  28  1   
 15   8  11  ar  
 16   8  12  ar  
 17   9  10  1   
 18   9  29  1   
 19   9  30  1   
 20  10  13  am  
 21  13  14  2   
 22  13  15  1   
 23  15  16  1   
 24  15  31  1   
 25  15  32  1   
 26  16  17  1   
 27  16  33  1   
 28  16  34  1   
 29  17  18  ar  
 30  17  19  ar  
 31  18  20  ar  
 32  18  35  1   
 33  19  21  ar  
 34  19  36  1   
 35  20  22  ar  
 36  20  37  1   
 37  21  22  ar  
 38  21  38  1   
 39  22  23  1   
 40  23  24  1   
 41  24  39  1   
 42  24  40  1   
 43  24  41  1   
@<TRIPOS>SUBSTRUCTURE
  1 ****  15 GROUP 4 **** **** 0

# MOE 2024.06 (io_trps.svl 2023.06)
