@<TRIPOS>MOLECULE
NONAME
39 41 1 0 0 
SMALL
USER_CHARGES


@<TRIPOS>ATOM
  1 O        0.3260    -0.9210     1.7510 O.co2 1 <1>  -0.9000 
  2 C        1.1730    -1.0650     0.8530 C.2   1 <1>   0.9060 
  3 O        2.0080    -0.2210     0.5400 O.co2 1 <1>  -0.9000 
  4 C        1.0850    -2.3820     0.0790 C.3   1 <1>   0.2370 
  5 N       -0.2560    -3.0350     0.3380 N.4   1 <1>  -0.9590 
  6 C       -1.3310    -2.5770    -0.5660 C.3   1 <1>   0.3430 
  7 C       -0.2960    -4.5100     0.3730 C.3   1 <1>   0.3430 
  8 C       -2.4530    -3.5990    -0.3610 C.3   1 <1>   0.2000 
  9 C       -1.7570    -4.8930     0.0910 C.3   1 <1>  -0.0800 
 10 O       -3.3030    -3.1740     0.6520 O.3   1 <1>  -0.6800 
 11 C       -1.8640    -6.0010    -0.9720 C.3   1 <1>  -0.0170 
 12 C       -1.0990    -7.2450    -0.5510 C.ar  1 <1>   0.1670 
 13 N        0.1810    -7.2510    -0.7650 N.ar  1 <1>  -0.6200 
 14 C       -1.7940    -8.3060     0.0510 C.ar  1 <1>  -0.1500 
 15 C        0.8800    -8.3540    -0.3900 C.ar  1 <1>   0.3100 
 16 C       -1.1170    -9.4190     0.4460 C.ar  1 <1>  -0.1500 
 17 C        0.2700    -9.4660     0.2310 C.ar  1 <1>   0.0000 
 18 C        2.2650    -8.3940    -0.6210 C.ar  1 <1>  -0.1500 
 19 C        1.0690   -10.5650     0.6040 C.ar  1 <1>  -0.1500 
 20 C        3.0230    -9.4730    -0.2530 C.ar  1 <1>  -0.1500 
 21 C        2.4170   -10.5700     0.3690 C.ar  1 <1>  -0.1500 
 22 H        1.8810    -3.0110     0.4320 H     1 <1>   0.0800 
 23 H        1.2290    -2.1840    -0.9670 H     1 <1>   0.0800 
 24 H       -0.4730    -2.6200     1.2750 H     1 <1>   0.4500 
 25 H       -1.6510    -1.5730    -0.3330 H     1 <1>   0.0800 
 26 H       -0.9860    -2.6210    -1.5840 H     1 <1>   0.0800 
 27 H        0.3400    -4.9010    -0.4040 H     1 <1>   0.0800 
 28 H        0.0390    -4.8910     1.3240 H     1 <1>   0.0800 
 29 H       -3.0460    -3.7220    -1.2520 H     1 <1>   0.0800 
 30 H       -2.1990    -5.2610     1.0020 H     1 <1>   0.0800 
 31 H       -2.8090    -2.8760     1.4440 H     1 <1>   0.4000 
 32 H       -1.4670    -5.6550    -1.9110 H     1 <1>   0.0800 
 33 H       -2.8990    -6.2510    -1.1300 H     1 <1>   0.0800 
 34 H       -2.8570    -8.2320     0.1960 H     1 <1>   0.1500 
 35 H       -1.6130   -10.2530     0.9110 H     1 <1>   0.1500 
 36 H        2.7140    -7.5460    -1.1020 H     1 <1>   0.1500 
 37 H        0.5970   -11.4070     1.0800 H     1 <1>   0.1500 
 38 H        4.0840    -9.4940    -0.4350 H     1 <1>   0.1500 
 39 H        3.0250   -11.4110     0.6550 H     1 <1>   0.1500 
@<TRIPOS>BOND
  1   1   2  ar  
  2   2   3  ar  
  3   2   4  1   
  4   4   5  1   
  5   4  22  1   
  6   4  23  1   
  7   5   6  1   
  8   5   7  1   
  9   5  24  1   
 10   6   8  1   
 11   6  25  1   
 12   6  26  1   
 13   7   9  1   
 14   7  27  1   
 15   7  28  1   
 16   8   9  1   
 17   8  10  1   
 18   8  29  1   
 19   9  11  1   
 20   9  30  1   
 21  10  31  1   
 22  11  12  1   
 23  11  32  1   
 24  11  33  1   
 25  12  13  ar  
 26  12  14  ar  
 27  13  15  ar  
 28  14  16  ar  
 29  14  34  1   
 30  15  17  ar  
 31  15  18  ar  
 32  16  17  ar  
 33  16  35  1   
 34  17  19  ar  
 35  18  20  ar  
 36  18  36  1   
 37  19  21  ar  
 38  19  37  1   
 39  20  21  ar  
 40  20  38  1   
 41  21  39  1   
@<TRIPOS>SUBSTRUCTURE
  1 ****   7 GROUP 4 **** **** 0

# MOE 2024.06 (io_trps.svl 2023.06)
