@<TRIPOS>MOLECULE
NONAME
45 47 1 0 0 
SMALL
USER_CHARGES


@<TRIPOS>ATOM
  1 CL       0.5600    -0.1120     1.0290 Cl    1 <1>  -0.1230 
  2 C        2.2340    -0.5130     0.6840 C.2   1 <1>   0.1230 
  3 C        3.3260     0.3600     0.6840 C.2   1 <1>   0.2030 
  4 C        2.6890    -1.7310     0.3500 C.2   1 <1>  -0.3020 
  5 N        4.4150    -0.3220     0.3440 N.2   1 <1>  -0.7070 
  6 C        3.2310     1.7770     1.0180 C.2   1 <1>   0.7160 
  7 N        4.0110    -1.5890     0.1530 N.pl3 1 <1>   0.3140 
  8 O        2.4900     2.1250     1.9230 O.2   1 <1>  -0.5700 
  9 N        3.9470     2.7700     0.3550 N.am  1 <1>  -0.6600 
 10 C        4.9460    -2.6560    -0.2260 C.3   1 <1>   0.0160 
 11 C        4.7550     2.4850    -0.8710 C.3   1 <1>   0.1400 
 12 C        3.8440     4.2000     0.7810 C.3   1 <1>   0.1400 
 13 C        6.2260     2.2250    -0.5180 C.3   1 <1>   0.1400 
 14 C        5.1650     4.9800     0.7050 C.3   1 <1>  -0.1600 
 15 N        6.9370     3.4810    -0.1260 N.am  1 <1>  -0.6600 
 16 C        6.4070     4.1660     1.0850 C.3   1 <1>   0.1400 
 17 C        7.8550     4.0730    -0.9690 C.2   1 <1>   0.7160 
 18 O        7.9490     3.6810    -2.1160 O.2   1 <1>  -0.5700 
 19 C        8.6780     5.1660    -0.5270 C.2   1 <1>  -0.0860 
 20 C        8.7400     6.4500    -0.9340 C.2   1 <1>  -0.0400 
 21 C        9.6430     5.1520     0.4670 C.2   1 <1>   0.1080 
 22 O        9.6150     7.1470    -0.2510 O.3   1 <1>  -0.0190 
 23 C        7.9580     7.1460    -2.0300 C.3   1 <1>  -0.0600 
 24 N       10.1580     6.3150     0.6100 N.2   1 <1>  -0.4100 
 25 C       10.0600     3.9400     1.2730 C.3   1 <1>  -0.0590 
 26 H        2.1590    -2.6590     0.2430 H     1 <1>   0.1500 
 27 H        4.9170    -3.4310     0.5160 H     1 <1>   0.0800 
 28 H        5.9400    -2.2510    -0.2850 H     1 <1>   0.0800 
 29 H        4.6610    -3.0520    -1.1830 H     1 <1>   0.0800 
 30 H        4.6880     3.3070    -1.5620 H     1 <1>   0.0800 
 31 H        4.3590     1.6200    -1.3720 H     1 <1>   0.0800 
 32 H        3.5020     4.2420     1.8010 H     1 <1>   0.0800 
 33 H        3.1010     4.6920     0.1760 H     1 <1>   0.0800 
 34 H        6.7090     1.7810    -1.3710 H     1 <1>   0.0800 
 35 H        6.2880     1.5140     0.2860 H     1 <1>   0.0800 
 36 H        5.0830     5.8090     1.3860 H     1 <1>   0.0800 
 37 H        5.2880     5.4020    -0.2760 H     1 <1>   0.0800 
 38 H        6.1690     3.4420     1.8470 H     1 <1>   0.0800 
 39 H        7.1490     4.8310     1.4900 H     1 <1>   0.0800 
 40 H        7.2940     6.4560    -2.5190 H     1 <1>   0.0800 
 41 H        8.6380     7.5460    -2.7610 H     1 <1>   0.0800 
 42 H        7.3820     7.9520    -1.6130 H     1 <1>   0.0800 
 43 H       10.2740     3.1180     0.6140 H     1 <1>   0.0800 
 44 H        9.2760     3.6550     1.9490 H     1 <1>   0.0800 
 45 H       10.9440     4.1650     1.8420 H     1 <1>   0.0800 
@<TRIPOS>BOND
  1   1   2  1   
  2   2   3  1   
  3   2   4  2   
  4   3   5  2   
  5   3   6  1   
  6   4   7  1   
  7   4  26  1   
  8   5   7  1   
  9   6   8  2   
 10   6   9  am  
 11   7  10  1   
 12   9  11  1   
 13   9  12  1   
 14  10  27  1   
 15  10  28  1   
 16  10  29  1   
 17  11  13  1   
 18  11  30  1   
 19  11  31  1   
 20  12  14  1   
 21  12  32  1   
 22  12  33  1   
 23  13  15  1   
 24  13  34  1   
 25  13  35  1   
 26  14  16  1   
 27  14  36  1   
 28  14  37  1   
 29  15  16  1   
 30  15  17  am  
 31  16  38  1   
 32  16  39  1   
 33  17  18  2   
 34  17  19  1   
 35  19  20  2   
 36  19  21  1   
 37  20  22  1   
 38  20  23  1   
 39  21  24  2   
 40  21  25  1   
 41  22  24  1   
 42  23  40  1   
 43  23  41  1   
 44  23  42  1   
 45  25  43  1   
 46  25  44  1   
 47  25  45  1   
@<TRIPOS>SUBSTRUCTURE
  1 ****  13 GROUP 4 **** **** 0

# MOE 2024.06 (io_trps.svl 2023.06)
