@<TRIPOS>MOLECULE
NONAME
29 31 1 0 0 
SMALL
USER_CHARGES


@<TRIPOS>ATOM
  1 CL      -0.3610    -0.0300    -0.5310 Cl    1 <1>  -0.1230 
  2 C        0.2230     1.5980    -0.2140 C.2   1 <1>   0.1230 
  3 C       -0.5420     2.7370     0.0320 C.2   1 <1>   0.2120 
  4 C        1.5120     1.9800    -0.1860 C.2   1 <1>  -0.3320 
  5 N        0.2400     3.7860     0.1970 N.2   1 <1>  -0.7070 
  6 N       -1.9800     2.7590     0.0870 N.pl3 1 <1>   0.6470 
  7 N        1.5000     3.3060     0.0670 N.pl3 1 <1>   0.3140 
  8 C        2.7960     1.1930    -0.3890 C.3   1 <1>   0.0200 
  9 N       -2.7530     1.7530     0.6080 N.2   1 <1>  -0.7070 
 10 C       -2.7830     3.8040    -0.3130 C.2   1 <1>  -0.0680 
 11 C        2.7010     4.1430     0.2730 C.3   1 <1>   0.0960 
 12 C        3.9890     1.9430     0.2220 C.3   1 <1>  -0.1600 
 13 C       -3.9710     2.1750     0.5120 C.2   1 <1>   0.1390 
 14 N       -2.3270     5.0120    -0.8830 N.pl3 1 <1>  -0.8840 
 15 C       -4.0690     3.4440    -0.0510 C.2   1 <1>   0.0190 
 16 C        3.9790     3.4240    -0.2000 C.3   1 <1>  -0.1600 
 17 C       -5.2840     4.1580    -0.2740 C.1   1 <1>   0.5380 
 18 N       -6.2640     4.7210    -0.4320 N.1   1 <1>  -0.5570 
 19 H        2.9580     1.0680    -1.4460 H     1 <1>   0.0800 
 20 H        2.7040     0.2140     0.0510 H     1 <1>   0.0800 
 21 H        2.7700     4.3540     1.3250 H     1 <1>   0.0800 
 22 H        2.5720     5.0700    -0.2540 H     1 <1>   0.0800 
 23 H        4.9060     1.4760    -0.0930 H     1 <1>   0.0800 
 24 H        3.9350     1.8770     1.2960 H     1 <1>   0.0800 
 25 H       -4.8210     1.5980     0.8390 H     1 <1>   0.1500 
 26 H       -2.8740     5.8650    -0.7120 H     1 <1>   0.4000 
 27 H       -1.3140     5.1850    -0.7400 H     1 <1>   0.4000 
 28 H        4.8400     3.9270     0.2060 H     1 <1>   0.0800 
 29 H        4.0420     3.4910    -1.2730 H     1 <1>   0.0800 
@<TRIPOS>BOND
  1   1   2  1   
  2   2   3  1   
  3   2   4  2   
  4   3   5  2   
  5   3   6  1   
  6   4   7  1   
  7   4   8  1   
  8   5   7  1   
  9   6   9  1   
 10   6  10  1   
 11   7  11  1   
 12   8  12  1   
 13   8  19  1   
 14   8  20  1   
 15   9  13  2   
 16  10  14  1   
 17  10  15  2   
 18  11  16  1   
 19  11  21  1   
 20  11  22  1   
 21  12  16  1   
 22  12  23  1   
 23  12  24  1   
 24  13  15  1   
 25  13  25  1   
 26  14  26  1   
 27  14  27  1   
 28  15  17  1   
 29  16  28  1   
 30  16  29  1   
 31  17  18  3   
@<TRIPOS>SUBSTRUCTURE
  1 ****   3 GROUP 4 **** **** 0

# MOE 2024.06 (io_trps.svl 2023.06)
