@<TRIPOS>MOLECULE
NONAME
53 55 1 0 0 
SMALL
USER_CHARGES


@<TRIPOS>ATOM
  1 O       -2.6400     0.2100    -2.2700 O.2   1 <1>  -0.5700 
  2 C       -2.3970     0.4230    -1.1090 C.2   1 <1>   0.5690 
  3 N       -2.1560    -0.5810    -0.2340 N.am  1 <1>  -0.7300 
  4 C       -2.3780     1.8490    -0.5980 C.3   1 <1>  -0.0990 
  5 C       -2.0850    -2.0190    -0.5850 C.3   1 <1>   0.2200 
  6 C       -0.9480     2.3530    -0.3440 C.3   1 <1>  -0.1600 
  7 C       -3.3490    -2.7600    -0.1670 C.3   1 <1>  -0.0800 
  8 C       -1.0610    -2.6900     0.3190 C.3   1 <1>   0.1200 
  9 C       -0.9510     3.8040     0.1610 C.3   1 <1>  -0.1600 
 10 C       -3.0970    -3.0280     1.3230 C.3   1 <1>   0.1200 
 11 C       -4.6710    -2.0260    -0.4760 C.3   1 <1>  -0.0170 
 12 O       -1.7210    -2.8830     1.5340 O.3   1 <1>  -0.5600 
 13 C        0.4480     4.3190     0.5460 C.3   1 <1>  -0.0800 
 14 C       -5.9690    -2.7860    -0.1780 C.ar  1 <1>  -0.1440 
 15 C        0.3300     5.7100     1.1800 C.3   1 <1>  -0.2400 
 16 C        1.3940     4.3900    -0.6620 C.3   1 <1>  -0.2400 
 17 C       -7.2110    -2.1090    -0.2750 C.ar  1 <1>   0.0000 
 18 C       -6.0110    -4.1060     0.1770 C.ar  1 <1>  -0.1500 
 19 C       -8.3890    -2.8320     0.0360 C.ar  1 <1>   0.3100 
 20 C       -7.3530    -0.7570    -0.6700 C.ar  1 <1>  -0.1500 
 21 C       -7.2340    -4.7290     0.4540 C.ar  1 <1>   0.1600 
 22 N       -8.3830    -4.1380     0.3990 N.ar  1 <1>  -0.6200 
 23 C       -9.6300    -2.1780    -0.0370 C.ar  1 <1>  -0.1500 
 24 C       -8.5780    -0.1510    -0.7340 C.ar  1 <1>  -0.1500 
 25 C       -9.7330    -0.8660    -0.4110 C.ar  1 <1>  -0.1500 
 26 H       -1.9790    -0.3850     0.7540 H     1 <1>   0.3700 
 27 H       -2.8550     2.4770    -1.3300 H     1 <1>   0.0800 
 28 H       -2.9550     1.9000     0.3070 H     1 <1>   0.0800 
 29 H       -1.8550    -2.1440    -1.6310 H     1 <1>   0.0800 
 30 H       -0.4680     1.7200     0.3830 H     1 <1>   0.0800 
 31 H       -0.3950     2.2830    -1.2640 H     1 <1>   0.0800 
 32 H       -3.3490    -3.7020    -0.6850 H     1 <1>   0.0800 
 33 H       -0.1810    -2.0900     0.4730 H     1 <1>   0.0800 
 34 H       -0.7860    -3.6560    -0.0650 H     1 <1>   0.0800 
 35 H       -1.5860     3.8640     1.0280 H     1 <1>   0.0800 
 36 H       -1.3720     4.4450    -0.5950 H     1 <1>   0.0800 
 37 H       -3.3870    -4.0230     1.6140 H     1 <1>   0.0800 
 38 H       -3.6000    -2.3080     1.9450 H     1 <1>   0.0800 
 39 H       -4.6720    -1.7580    -1.5190 H     1 <1>   0.0800 
 40 H       -4.6880    -1.1140     0.0930 H     1 <1>   0.0800 
 41 H        0.8760     3.6540     1.2780 H     1 <1>   0.0800 
 42 H       -0.0900     6.4110     0.4810 H     1 <1>   0.0800 
 43 H        1.2990     6.0670     1.4820 H     1 <1>   0.0800 
 44 H       -0.2990     5.6730     2.0510 H     1 <1>   0.0800 
 45 H        0.9680     4.9980    -1.4410 H     1 <1>   0.0800 
 46 H        1.5870     3.4090    -1.0560 H     1 <1>   0.0800 
 47 H        2.3370     4.8170    -0.3710 H     1 <1>   0.0800 
 48 H       -5.1330    -4.7150     0.2590 H     1 <1>   0.1500 
 49 H       -6.4830    -0.1860    -0.9330 H     1 <1>   0.1500 
 50 H       -7.2150    -5.7690     0.7330 H     1 <1>   0.1500 
 51 H      -10.5040    -2.7510     0.2120 H     1 <1>   0.1500 
 52 H       -8.6690     0.8790    -1.0350 H     1 <1>   0.1500 
 53 H      -10.6910    -0.3780    -0.4630 H     1 <1>   0.1500 
@<TRIPOS>BOND
  1   1   2  2   
  2   2   3  am  
  3   2   4  1   
  4   3   5  1   
  5   3  26  1   
  6   4   6  1   
  7   4  27  1   
  8   4  28  1   
  9   5   7  1   
 10   5   8  1   
 11   5  29  1   
 12   6   9  1   
 13   6  30  1   
 14   6  31  1   
 15   7  10  1   
 16   7  11  1   
 17   7  32  1   
 18   8  12  1   
 19   8  33  1   
 20   8  34  1   
 21   9  13  1   
 22   9  35  1   
 23   9  36  1   
 24  10  12  1   
 25  10  37  1   
 26  10  38  1   
 27  11  14  1   
 28  11  39  1   
 29  11  40  1   
 30  13  15  1   
 31  13  16  1   
 32  13  41  1   
 33  14  17  ar  
 34  14  18  ar  
 35  15  42  1   
 36  15  43  1   
 37  15  44  1   
 38  16  45  1   
 39  16  46  1   
 40  16  47  1   
 41  17  19  ar  
 42  17  20  ar  
 43  18  21  ar  
 44  18  48  1   
 45  19  22  ar  
 46  19  23  ar  
 47  20  24  ar  
 48  20  49  1   
 49  21  22  ar  
 50  21  50  1   
 51  23  25  ar  
 52  23  51  1   
 53  24  25  ar  
 54  24  52  1   
 55  25  53  1   
@<TRIPOS>SUBSTRUCTURE
  1 ****  11 GROUP 4 **** **** 0

# MOE 2024.06 (io_trps.svl 2023.06)
