@<TRIPOS>MOLECULE
NONAME
51 54 1 0 0 
SMALL
USER_CHARGES


@<TRIPOS>ATOM
  1 S       -1.7010    -0.2850    -1.0890 S.3   1 <1>  -0.0800 
  2 C       -1.6850    -1.3270     0.3310 C.2   1 <1>  -0.1400 
  3 C       -1.5980     1.1540    -0.0920 C.2   1 <1>  -0.1100 
  4 C       -1.6040    -0.5850     1.4520 C.2   1 <1>  -0.1500 
  5 C       -1.7620    -2.8310     0.1280 C.3   1 <1>   0.3800 
  6 C       -1.5560     0.8250     1.2110 C.2   1 <1>  -0.1500 
  7 O       -0.6470    -3.2110    -0.5830 O.3   1 <1>  -0.6800 
  8 C       -3.0190    -3.2870    -0.6480 C.3   1 <1>  -0.0800 
  9 C       -4.3200    -2.8260     0.0360 C.3   1 <1>  -0.1600 
 10 C       -3.0620    -4.8150    -0.8440 C.3   1 <1>  -0.1600 
 11 C       -5.5530    -3.2920    -0.7370 C.3   1 <1>   0.3430 
 12 C       -4.3160    -5.2550    -1.5970 C.3   1 <1>   0.3430 
 13 N       -5.5360    -4.7760    -0.8750 N.4   1 <1>  -0.9590 
 14 C       -6.7920    -5.2670    -1.5200 C.3   1 <1>   0.5230 
 15 C       -6.9570    -6.7550    -1.2860 C.2   1 <1>  -0.0400 
 16 O       -6.2070    -7.5930    -1.9420 O.3   1 <1>  -0.0190 
 17 C       -7.7680    -7.4700    -0.4940 C.2   1 <1>  -0.1500 
 18 N       -6.4550    -8.8220    -1.6220 N.2   1 <1>  -0.4100 
 19 C       -7.4120    -8.8020    -0.7440 C.2   1 <1>   0.2350 
 20 C       -7.9990    -9.9720    -0.1180 C.ar  1 <1>   0.0540 
 21 C       -7.3040   -11.1790    -0.0640 C.ar  1 <1>  -0.1500 
 22 C       -9.2710    -9.9420     0.4540 C.ar  1 <1>  -0.1500 
 23 C       -7.8450   -12.2990     0.5400 C.ar  1 <1>  -0.1500 
 24 C       -9.8160   -11.0600     1.0600 C.ar  1 <1>  -0.1500 
 25 C       -9.1040   -12.2460     1.1110 C.ar  1 <1>  -0.1430 
 26 C       -9.7000   -13.4740     1.7740 C.3   1 <1>  -0.0970 
 27 H       -1.5780     2.1050    -0.5950 H     1 <1>   0.1500 
 28 H       -1.5730    -0.9640     2.4590 H     1 <1>   0.1500 
 29 H       -1.7150    -3.3220     1.0850 H     1 <1>   0.0800 
 30 H       -1.4900     1.5240     2.0280 H     1 <1>   0.1500 
 31 H        0.0680    -2.5690    -0.4010 H     1 <1>   0.4000 
 32 H       -2.9770    -2.8250    -1.6210 H     1 <1>   0.0800 
 33 H       -4.3430    -1.7510     0.0850 H     1 <1>   0.0800 
 34 H       -4.3650    -3.1950     1.0460 H     1 <1>   0.0800 
 35 H       -3.0160    -5.3180     0.1060 H     1 <1>   0.0800 
 36 H       -2.2030    -5.1290    -1.4130 H     1 <1>   0.0800 
 37 H       -5.5530    -2.8330    -1.7140 H     1 <1>   0.0800 
 38 H       -6.4420    -2.9760    -0.2140 H     1 <1>   0.0800 
 39 H       -4.3170    -6.3310    -1.6690 H     1 <1>   0.0800 
 40 H       -4.2950    -4.8490    -2.5960 H     1 <1>   0.0800 
 41 H       -5.5030    -5.1880     0.0660 H     1 <1>   0.4500 
 42 H       -6.7770    -5.0640    -2.5780 H     1 <1>   0.0800 
 43 H       -7.6390    -4.7600    -1.0890 H     1 <1>   0.0800 
 44 H       -8.5270    -7.1470     0.1960 H     1 <1>   0.1500 
 45 H       -6.3240   -11.2430    -0.5030 H     1 <1>   0.1500 
 46 H       -9.8550    -9.0420     0.4240 H     1 <1>   0.1500 
 47 H       -7.2800   -13.2150     0.5630 H     1 <1>   0.1500 
 48 H      -10.8000   -11.0050     1.4930 H     1 <1>   0.1500 
 49 H       -8.9240   -14.0870     2.1960 H     1 <1>   0.0800 
 50 H      -10.2430   -14.0520     1.0480 H     1 <1>   0.0800 
 51 H      -10.3720   -13.1870     2.5640 H     1 <1>   0.0800 
@<TRIPOS>BOND
  1   1   2  1   
  2   1   3  1   
  3   2   4  2   
  4   2   5  1   
  5   3   6  2   
  6   3  27  1   
  7   4   6  1   
  8   4  28  1   
  9   5   7  1   
 10   5   8  1   
 11   5  29  1   
 12   6  30  1   
 13   7  31  1   
 14   8   9  1   
 15   8  10  1   
 16   8  32  1   
 17   9  11  1   
 18   9  33  1   
 19   9  34  1   
 20  10  12  1   
 21  10  35  1   
 22  10  36  1   
 23  11  13  1   
 24  11  37  1   
 25  11  38  1   
 26  12  13  1   
 27  12  39  1   
 28  12  40  1   
 29  13  14  1   
 30  13  41  1   
 31  14  15  1   
 32  14  42  1   
 33  14  43  1   
 34  15  16  1   
 35  15  17  2   
 36  16  18  1   
 37  17  19  1   
 38  17  44  1   
 39  18  19  2   
 40  19  20  1   
 41  20  21  ar  
 42  20  22  ar  
 43  21  23  ar  
 44  21  45  1   
 45  22  24  ar  
 46  22  46  1   
 47  23  25  ar  
 48  23  47  1   
 49  24  25  ar  
 50  24  48  1   
 51  25  26  1   
 52  26  49  1   
 53  26  50  1   
 54  26  51  1   
@<TRIPOS>SUBSTRUCTURE
  1 ****  13 GROUP 4 **** **** 0

# MOE 2024.06 (io_trps.svl 2023.06)
