@<TRIPOS>MOLECULE
NONAME
31 32 1 0 0 
SMALL
USER_CHARGES


@<TRIPOS>ATOM
  1 O       -0.1570     0.6180    -0.5380 O.3   1 <1>  -0.6800 
  2 C        0.1140     1.7180     0.2720 C.3   1 <1>   0.2000 
  3 C       -1.1030     2.6790     0.2870 C.3   1 <1>  -0.0800 
  4 C        1.4010     2.3930    -0.2590 C.3   1 <1>   0.2090 
  5 C       -1.0830     3.5610    -0.9820 C.3   1 <1>  -0.1600 
  6 C       -2.4410     1.9490     0.4870 C.3   1 <1>   0.1200 
  7 N        1.2790     3.8820    -0.2210 N.pl3 1 <1>  -0.8380 
  8 C        0.1850     4.4280    -1.0740 C.3   1 <1>   0.2090 
  9 O       -3.4580     2.8740     0.6570 O.3   1 <1>  -0.6800 
 10 C        2.3990     4.6590     0.0250 C.ar  1 <1>   0.4100 
 11 N        3.4510     4.3710    -0.7330 N.ar  1 <1>  -0.6200 
 12 C        2.4120     5.6780     1.0100 C.ar  1 <1>   0.3830 
 13 C        4.4920     5.1400    -0.4820 C.ar  1 <1>   0.1600 
 14 N        3.4760     6.4490     1.2450 N.ar  1 <1>  -0.6200 
 15 C        1.2250     5.8780     1.7930 C.1   1 <1>   0.4840 
 16 C        4.5050     6.1460     0.4730 C.ar  1 <1>   0.1600 
 17 N        0.2640     6.0230     2.3980 N.1   1 <1>  -0.5570 
 18 H       -0.9170     0.1130    -0.1950 H     1 <1>   0.4000 
 19 H        0.2950     1.3460     1.2660 H     1 <1>   0.0800 
 20 H       -0.9660     3.3290     1.1350 H     1 <1>   0.0800 
 21 H        1.5780     2.0940    -1.2780 H     1 <1>   0.0800 
 22 H        2.2430     2.0820     0.3350 H     1 <1>   0.0800 
 23 H       -1.9420     4.2080    -1.0100 H     1 <1>   0.0800 
 24 H       -1.1350     2.9290    -1.8510 H     1 <1>   0.0800 
 25 H       -2.4110     1.3260     1.3650 H     1 <1>   0.0800 
 26 H       -2.6880     1.3480    -0.3720 H     1 <1>   0.0800 
 27 H       -0.0480     5.4270    -0.7480 H     1 <1>   0.0800 
 28 H        0.5200     4.4800    -2.0970 H     1 <1>   0.0800 
 29 H       -3.2400     3.4970     1.3770 H     1 <1>   0.4000 
 30 H        5.3810     4.9660    -1.0620 H     1 <1>   0.1500 
 31 H        5.4050     6.7230     0.6020 H     1 <1>   0.1500 
@<TRIPOS>BOND
  1   1   2  1   
  2   1  18  1   
  3   2   3  1   
  4   2   4  1   
  5   2  19  1   
  6   3   5  1   
  7   3   6  1   
  8   3  20  1   
  9   4   7  1   
 10   4  21  1   
 11   4  22  1   
 12   5   8  1   
 13   5  23  1   
 14   5  24  1   
 15   6   9  1   
 16   6  25  1   
 17   6  26  1   
 18   7   8  1   
 19   7  10  1   
 20   8  27  1   
 21   8  28  1   
 22   9  29  1   
 23  10  11  ar  
 24  10  12  ar  
 25  11  13  ar  
 26  12  14  ar  
 27  12  15  1   
 28  13  16  ar  
 29  13  30  1   
 30  14  16  ar  
 31  15  17  3   
 32  16  31  1   
@<TRIPOS>SUBSTRUCTURE
  1 ****   7 GROUP 4 **** **** 0

# MOE 2024.06 (io_trps.svl 2023.06)
