@<TRIPOS>MOLECULE
NONAME
40 41 1 0 0 
SMALL
USER_CHARGES


@<TRIPOS>ATOM
  1 S        0.6050     0.2170    -1.6560 S.o2  1 <1>   1.3330 
  2 O        0.8940    -1.0320    -2.3260 O.2   1 <1>  -0.6500 
  3 O       -0.2000     1.2130    -2.3260 O.2   1 <1>  -0.6500 
  4 N       -0.1760    -0.1530    -0.1930 N.am  1 <1>  -0.8490 
  5 C        2.1610     0.9480    -1.1480 C.3   1 <1>  -0.0550 
  6 C       -0.7860     1.0170     0.4500 C.3   1 <1>   0.1160 
  7 C       -1.1810    -1.2060    -0.3600 C.3   1 <1>   0.1160 
  8 C        3.1420    -0.0410    -0.4800 C.3   1 <1>  -0.0800 
  9 C        4.5080     0.5440    -0.1700 C.3   1 <1>   0.2890 
 10 C        2.6980    -0.5780     0.8830 C.3   1 <1>   0.1200 
 11 N        4.3670     1.9050     0.3990 N.pl3 1 <1>  -0.8690 
 12 C        4.9920    -0.4160     0.9110 C.3   1 <1>   0.1200 
 13 O        3.8580    -0.7850     1.6390 O.3   1 <1>  -0.5600 
 14 C        4.7780     3.0420    -0.1990 C.ar  1 <1>   0.7200 
 15 N        4.9830     4.0510     0.6310 N.ar  1 <1>  -0.6200 
 16 N        4.9170     3.0360    -1.5200 N.ar  1 <1>  -0.6200 
 17 C        5.3690     5.1750     0.0790 C.ar  1 <1>   0.1670 
 18 C        5.3030     4.1730    -2.0460 C.ar  1 <1>   0.1600 
 19 C        5.5470     5.2890    -1.2800 C.ar  1 <1>  -0.1500 
 20 C        5.6130     6.3470     1.0060 C.3   1 <1>  -0.0970 
 21 H        2.6430     1.3510    -2.0180 H     1 <1>   0.0800 
 22 H        1.9680     1.7700    -0.4880 H     1 <1>   0.0800 
 23 H       -1.1960     0.7400     1.4060 H     1 <1>   0.0800 
 24 H       -1.5740     1.4190    -0.1670 H     1 <1>   0.0800 
 25 H       -0.0470     1.7830     0.6080 H     1 <1>   0.0800 
 26 H       -1.6480    -1.4300     0.5830 H     1 <1>   0.0800 
 27 H       -0.7150    -2.1060    -0.7260 H     1 <1>   0.0800 
 28 H       -1.9340    -0.8960    -1.0660 H     1 <1>   0.0800 
 29 H        3.2810    -0.8840    -1.1350 H     1 <1>   0.0800 
 30 H        5.1640     0.5460    -1.0250 H     1 <1>   0.0800 
 31 H        2.1600    -1.5070     0.7980 H     1 <1>   0.0800 
 32 H        2.0960     0.1420     1.4100 H     1 <1>   0.0800 
 33 H        4.3530     1.9560     1.4170 H     1 <1>   0.4000 
 34 H        5.7170     0.0300     1.5680 H     1 <1>   0.0800 
 35 H        5.3970    -1.3080     0.4670 H     1 <1>   0.0800 
 36 H        5.4290     4.2180    -3.1140 H     1 <1>   0.1500 
 37 H        5.8630     6.2090    -1.7320 H     1 <1>   0.1500 
 38 H        5.9180     7.2190     0.4570 H     1 <1>   0.0800 
 39 H        6.3820     6.0940     1.7120 H     1 <1>   0.0800 
 40 H        4.7110     6.5730     1.5450 H     1 <1>   0.0800 
@<TRIPOS>BOND
  1   1   2  2   
  2   1   3  2   
  3   1   4  am  
  4   1   5  1   
  5   4   6  1   
  6   4   7  1   
  7   5   8  1   
  8   5  21  1   
  9   5  22  1   
 10   6  23  1   
 11   6  24  1   
 12   6  25  1   
 13   7  26  1   
 14   7  27  1   
 15   7  28  1   
 16   8   9  1   
 17   8  10  1   
 18   8  29  1   
 19   9  11  1   
 20   9  12  1   
 21   9  30  1   
 22  10  13  1   
 23  10  31  1   
 24  10  32  1   
 25  11  14  1   
 26  11  33  1   
 27  12  13  1   
 28  12  34  1   
 29  12  35  1   
 30  14  15  ar  
 31  14  16  ar  
 32  15  17  ar  
 33  16  18  ar  
 34  17  19  ar  
 35  17  20  1   
 36  18  19  ar  
 37  18  36  1   
 38  19  37  1   
 39  20  38  1   
 40  20  39  1   
 41  20  40  1   
@<TRIPOS>SUBSTRUCTURE
  1 ****   5 GROUP 4 **** **** 0

# MOE 2024.06 (io_trps.svl 2023.06)
