@<TRIPOS>MOLECULE
NONAME
46 48 1 0 0 
SMALL
USER_CHARGES


@<TRIPOS>ATOM
  1 F        0.5430     0.8330    -1.6310 F     1 <1>  -0.1900 
  2 C        1.7210     1.3040    -1.2780 C.ar  1 <1>   0.1900 
  3 C        2.7670     0.4570    -0.9190 C.ar  1 <1>   0.4100 
  4 C        1.9230     2.6560    -1.2640 C.ar  1 <1>   0.1600 
  5 N        3.9340     0.9700    -0.5730 N.ar  1 <1>  -0.6200 
  6 N        2.6530    -0.9280    -0.8920 N.pl3 1 <1>  -0.8380 
  7 N        3.0850     3.1750    -0.9160 N.ar  1 <1>  -0.6200 
  8 C        4.0220     2.2880    -0.5970 C.ar  1 <1>   0.7200 
  9 C        1.6590    -1.5560     0.0290 C.3   1 <1>   0.2090 
 10 C        3.8520    -1.7960    -1.1080 C.3   1 <1>   0.2090 
 11 N        5.2400     2.7560    -0.2370 N.pl3 1 <1>  -0.8690 
 12 C        2.3470    -2.0710     1.3080 C.3   1 <1>   0.1200 
 13 C        4.4190    -2.2920     0.2350 C.3   1 <1>   0.1200 
 14 C        5.4370     4.0890     0.3860 C.3   1 <1>   0.2090 
 15 O        3.4230    -2.9150     1.0010 O.3   1 <1>  -0.5600 
 16 C        5.5960     5.1700    -0.6910 C.3   1 <1>   0.2090 
 17 N        6.0110     6.4710    -0.0830 N.pl3 1 <1>  -0.8690 
 18 C        7.2520     7.0120     0.0030 C.ar  1 <1>   0.1000 
 19 C        7.4320     8.3330     0.4540 C.ar  1 <1>  -0.1440 
 20 C        8.4030     6.2910    -0.3460 C.ar  1 <1>  -0.1500 
 21 C        8.6960     8.8660     0.5270 C.ar  1 <1>   0.2110 
 22 C        6.2240     9.1750     0.8590 C.3   1 <1>  -0.0970 
 23 C        9.6450     6.8600    -0.2600 C.ar  1 <1>   0.2110 
 24 N        9.7830     8.1370     0.1720 N.ar  1 <1>  -0.1790 
 25 H        1.1240     3.3210    -1.5410 H     1 <1>   0.1500 
 26 H        1.1810    -2.3790    -0.4740 H     1 <1>   0.0800 
 27 H        0.8980    -0.8470     0.2990 H     1 <1>   0.0800 
 28 H        4.6120    -1.2550    -1.6450 H     1 <1>   0.0800 
 29 H        3.5700    -2.6440    -1.7070 H     1 <1>   0.0800 
 30 H        5.8000     1.9990     0.1560 H     1 <1>   0.4000 
 31 H        1.6500    -2.6320     1.9030 H     1 <1>   0.0800 
 32 H        2.7150    -1.2450     1.8910 H     1 <1>   0.0800 
 33 H        4.8210    -1.4670     0.7950 H     1 <1>   0.0800 
 34 H        5.2000    -3.0110     0.0640 H     1 <1>   0.0800 
 35 H        6.3250     4.0610     0.9940 H     1 <1>   0.0800 
 36 H        4.5950     4.3250     1.0140 H     1 <1>   0.0800 
 37 H        4.6580     5.3060    -1.2020 H     1 <1>   0.0800 
 38 H        6.3210     4.8510    -1.4170 H     1 <1>   0.0800 
 39 H        5.2010     7.0230     0.2300 H     1 <1>   0.4000 
 40 H        8.3070     5.2760    -0.6840 H     1 <1>   0.1500 
 41 H        8.8500     9.8780     0.8680 H     1 <1>   0.1500 
 42 H        5.7030     8.7050     1.6740 H     1 <1>   0.0800 
 43 H        5.5480     9.2730     0.0270 H     1 <1>   0.0800 
 44 H        6.5160    10.1620     1.1710 H     1 <1>   0.0800 
 45 H       10.5280     6.3040    -0.5330 H     1 <1>   0.1500 
 46 H       10.7180     8.5570     0.2320 H     1 <1>   0.4570 
@<TRIPOS>BOND
  1   1   2  1   
  2   2   3  ar  
  3   2   4  ar  
  4   3   5  ar  
  5   3   6  1   
  6   4   7  ar  
  7   4  25  1   
  8   5   8  ar  
  9   6   9  1   
 10   6  10  1   
 11   7   8  ar  
 12   8  11  1   
 13   9  12  1   
 14   9  26  1   
 15   9  27  1   
 16  10  13  1   
 17  10  28  1   
 18  10  29  1   
 19  11  14  1   
 20  11  30  1   
 21  12  15  1   
 22  12  31  1   
 23  12  32  1   
 24  13  15  1   
 25  13  33  1   
 26  13  34  1   
 27  14  16  1   
 28  14  35  1   
 29  14  36  1   
 30  16  17  1   
 31  16  37  1   
 32  16  38  1   
 33  17  18  1   
 34  17  39  1   
 35  18  19  ar  
 36  18  20  ar  
 37  19  21  ar  
 38  19  22  1   
 39  20  23  ar  
 40  20  40  1   
 41  21  24  ar  
 42  21  41  1   
 43  22  42  1   
 44  22  43  1   
 45  22  44  1   
 46  23  24  ar  
 47  23  45  1   
 48  24  46  1   
@<TRIPOS>SUBSTRUCTURE
  1 ****  11 GROUP 4 **** **** 0

# MOE 2024.06 (io_trps.svl 2023.06)
