@<TRIPOS>MOLECULE
NONAME
46 47 1 0 0 
SMALL
USER_CHARGES


@<TRIPOS>ATOM
  1 S       -0.1720     0.3720    -0.8080 S.o2  1 <1>   1.3330 
  2 O       -1.5720     0.2840    -1.1590 O.2   1 <1>  -0.6500 
  3 O        0.8100     0.5750    -1.8500 O.2   1 <1>  -0.6500 
  4 N        0.2490    -1.0530     0.0130 N.am  1 <1>  -0.8490 
  5 C       -0.0020     1.6280     0.4560 C.3   1 <1>  -0.0550 
  6 C        1.6980    -1.2380     0.1490 C.3   1 <1>   0.1160 
  7 C       -0.3490    -2.2410    -0.6030 C.3   1 <1>   0.1160 
  8 C       -0.3280     3.0460    -0.0450 C.3   1 <1>  -0.0800 
  9 C       -0.4010     4.0960     1.0680 C.3   1 <1>   0.2000 
 10 C        0.7150     3.5990    -1.0310 C.3   1 <1>   0.2090 
 11 O        0.6540     3.8810     1.9460 O.3   1 <1>  -0.6800 
 12 C       -0.1300     5.4000     0.3270 C.3   1 <1>   0.2090 
 13 N        0.9230     5.0180    -0.6400 N.pl3 1 <1>  -0.8380 
 14 C        2.1750     5.5250    -0.3650 C.ar  1 <1>   0.4100 
 15 N        2.9940     4.6880     0.2730 N.ar  1 <1>  -0.6200 
 16 C        2.5140     6.8400    -0.6960 C.ar  1 <1>  -0.1790 
 17 C        4.2070     5.1290     0.5420 C.ar  1 <1>   0.1670 
 18 C        1.5650     7.7430    -1.2950 C.2   1 <1>   0.9790 
 19 C        3.8020     7.2650    -0.4190 C.ar  1 <1>  -0.1500 
 20 C        4.6700     6.3970     0.2080 C.ar  1 <1>  -0.1440 
 21 C        5.0980     4.1300     1.2550 C.3   1 <1>  -0.0960 
 22 O        1.7940     8.2360    -2.4160 O.co2 1 <1>  -0.9000 
 23 O        0.5660     8.1470    -0.6640 O.co2 1 <1>  -0.9000 
 24 C        6.0870     6.8670     0.5060 C.3   1 <1>  -0.0970 
 25 H       -0.6630     1.3900     1.2670 H     1 <1>   0.0800 
 26 H        0.9990     1.6150     0.8410 H     1 <1>   0.0800 
 27 H        1.9040    -2.1090     0.7470 H     1 <1>   0.0800 
 28 H        2.1400    -0.3840     0.6320 H     1 <1>   0.0800 
 29 H        2.1550    -1.3620    -0.8200 H     1 <1>   0.0800 
 30 H       -0.0770    -3.1240    -0.0520 H     1 <1>   0.0800 
 31 H       -0.0160    -2.3410    -1.6230 H     1 <1>   0.0800 
 32 H       -1.4230    -2.1590    -0.5960 H     1 <1>   0.0800 
 33 H       -1.2790     3.0320    -0.5490 H     1 <1>   0.0800 
 34 H       -1.3260     4.0940     1.6170 H     1 <1>   0.0800 
 35 H        0.3500     3.5540    -2.0420 H     1 <1>   0.0800 
 36 H        1.6400     3.0500    -0.9790 H     1 <1>   0.0800 
 37 H        1.4740     4.1740     1.4620 H     1 <1>   0.4000 
 38 H        0.1930     6.1830     0.9940 H     1 <1>   0.0800 
 39 H       -0.9980     5.7360    -0.2130 H     1 <1>   0.0800 
 40 H        4.0900     8.2640    -0.6990 H     1 <1>   0.1500 
 41 H        5.7060     4.6170     1.9930 H     1 <1>   0.0800 
 42 H        5.7270     3.6370     0.5380 H     1 <1>   0.0800 
 43 H        4.4980     3.3900     1.7530 H     1 <1>   0.0800 
 44 H        6.2870     7.8020     0.0150 H     1 <1>   0.0800 
 45 H        6.8000     6.1440     0.1530 H     1 <1>   0.0800 
 46 H        6.2120     7.0040     1.5640 H     1 <1>   0.0800 
@<TRIPOS>BOND
  1   1   2  2   
  2   1   3  2   
  3   1   4  am  
  4   1   5  1   
  5   4   6  1   
  6   4   7  1   
  7   5   8  1   
  8   5  25  1   
  9   5  26  1   
 10   6  27  1   
 11   6  28  1   
 12   6  29  1   
 13   7  30  1   
 14   7  31  1   
 15   7  32  1   
 16   8   9  1   
 17   8  10  1   
 18   8  33  1   
 19   9  11  1   
 20   9  12  1   
 21   9  34  1   
 22  10  13  1   
 23  10  35  1   
 24  10  36  1   
 25  11  37  1   
 26  12  13  1   
 27  12  38  1   
 28  12  39  1   
 29  13  14  1   
 30  14  15  ar  
 31  14  16  ar  
 32  15  17  ar  
 33  16  18  1   
 34  16  19  ar  
 35  17  20  ar  
 36  17  21  1   
 37  18  22  ar  
 38  18  23  ar  
 39  19  20  ar  
 40  19  40  1   
 41  20  24  1   
 42  21  41  1   
 43  21  42  1   
 44  21  43  1   
 45  24  44  1   
 46  24  45  1   
 47  24  46  1   
@<TRIPOS>SUBSTRUCTURE
  1 ****  10 GROUP 4 **** **** 0

# MOE 2024.06 (io_trps.svl 2023.06)
