@<TRIPOS>MOLECULE
NONAME
52 54 1 0 0 
SMALL
USER_CHARGES


@<TRIPOS>ATOM
  1 O       -0.2810     0.9270     0.1170 O.2   1 <1>  -0.5700 
  2 C       -0.1240     2.1030     0.3220 C.2   1 <1>   0.5690 
  3 N       -1.1600     2.8800     0.7040 N.am  1 <1>  -0.7300 
  4 C        1.2520     2.7420     0.1110 C.3   1 <1>   0.1810 
  5 C       -1.0500     4.3370     0.9590 C.3   1 <1>   0.3640 
  6 O        1.3780     4.0080     0.7230 O.3   1 <1>  -0.5600 
  7 C       -2.2060     5.0420     0.2520 C.ar  1 <1>  -0.1440 
  8 C        0.3090     4.9100     0.4730 C.3   1 <1>   0.2610 
  9 C       -2.5650     4.7150    -1.0510 C.ar  1 <1>  -0.1500 
 10 C       -2.9110     6.0400     0.9100 C.ar  1 <1>  -0.1500 
 11 C        0.6140     6.2870     1.0930 C.2   1 <1>   0.5690 
 12 C       -3.6070     5.3740    -1.6800 C.ar  1 <1>  -0.1500 
 13 C       -3.9520     6.7000     0.2820 C.ar  1 <1>  -0.1500 
 14 O       -0.0190     6.6320     2.0680 O.2   1 <1>  -0.5700 
 15 N        1.5720     7.1180     0.5520 N.am  1 <1>  -0.6600 
 16 C       -4.3010     6.3670    -1.0140 C.ar  1 <1>  -0.1500 
 17 C        2.5070     6.7280    -0.5430 C.3   1 <1>   0.2840 
 18 C        1.7820     8.4890     1.1020 C.3   1 <1>   0.1400 
 19 C        3.9390     6.6650    -0.0380 C.ar  1 <1>  -0.1430 
 20 C        0.9590     9.4960     0.2960 C.3   1 <1>  -0.1600 
 21 C        4.2780     5.8270     1.0160 C.ar  1 <1>   0.1600 
 22 C        4.9280     7.4360    -0.6180 C.ar  1 <1>  -0.1500 
 23 C        1.1360    10.9180     0.8430 C.3   1 <1>  -0.1600 
 24 N        5.4970     5.6950     1.5170 N.ar  1 <1>  -0.6200 
 25 C        6.2020     7.3130    -0.1050 C.ar  1 <1>  -0.1500 
 26 C        0.3110    11.9240     0.0350 C.3   1 <1>  -0.2400 
 27 C        6.4280     6.4410     0.9470 C.ar  1 <1>   0.1600 
 28 H       -2.0780     2.4540     0.8360 H     1 <1>   0.3700 
 29 H        1.4350     2.8540    -0.9420 H     1 <1>   0.0800 
 30 H        2.0080     2.1010     0.5280 H     1 <1>   0.0800 
 31 H       -1.1380     4.4860     2.0220 H     1 <1>   0.0800 
 32 H        0.2440     5.0410    -0.5900 H     1 <1>   0.0800 
 33 H       -2.0390     3.9430    -1.5860 H     1 <1>   0.1500 
 34 H       -2.6480     6.3170     1.9190 H     1 <1>   0.1500 
 35 H       -3.8800     5.1130    -2.6880 H     1 <1>   0.1500 
 36 H       -4.4900     7.4730     0.8030 H     1 <1>   0.1500 
 37 H       -5.1120     6.8800    -1.5020 H     1 <1>   0.1500 
 38 H        2.2520     5.7710    -0.9560 H     1 <1>   0.0800 
 39 H        2.4310     7.4510    -1.3370 H     1 <1>   0.0800 
 40 H        1.4790     8.5200     2.1360 H     1 <1>   0.0800 
 41 H        2.8260     8.7490     1.0680 H     1 <1>   0.0800 
 42 H        1.2660     9.4720    -0.7340 H     1 <1>   0.0800 
 43 H       -0.0800     9.2220     0.3550 H     1 <1>   0.0800 
 44 H        3.5050     5.2340     1.4740 H     1 <1>   0.1500 
 45 H        4.7250     8.1050    -1.4360 H     1 <1>   0.1500 
 46 H        0.8230    10.9500     1.8730 H     1 <1>   0.0800 
 47 H        2.1760    11.1980     0.8010 H     1 <1>   0.0800 
 48 H        7.0150     7.8850    -0.5120 H     1 <1>   0.1500 
 49 H       -0.7350    11.6730     0.0800 H     1 <1>   0.0800 
 50 H        0.6230    11.9280    -0.9950 H     1 <1>   0.0800 
 51 H        0.4420    12.9140     0.4360 H     1 <1>   0.0800 
 52 H        7.4270     6.3530     1.3390 H     1 <1>   0.1500 
@<TRIPOS>BOND
  1   1   2  2   
  2   2   3  am  
  3   2   4  1   
  4   3   5  1   
  5   3  28  1   
  6   4   6  1   
  7   4  29  1   
  8   4  30  1   
  9   5   7  1   
 10   5   8  1   
 11   5  31  1   
 12   6   8  1   
 13   7   9  ar  
 14   7  10  ar  
 15   8  11  1   
 16   8  32  1   
 17   9  12  ar  
 18   9  33  1   
 19  10  13  ar  
 20  10  34  1   
 21  11  14  2   
 22  11  15  am  
 23  12  16  ar  
 24  12  35  1   
 25  13  16  ar  
 26  13  36  1   
 27  15  17  1   
 28  15  18  1   
 29  16  37  1   
 30  17  19  1   
 31  17  38  1   
 32  17  39  1   
 33  18  20  1   
 34  18  40  1   
 35  18  41  1   
 36  19  21  ar  
 37  19  22  ar  
 38  20  23  1   
 39  20  42  1   
 40  20  43  1   
 41  21  24  ar  
 42  21  44  1   
 43  22  25  ar  
 44  22  45  1   
 45  23  26  1   
 46  23  46  1   
 47  23  47  1   
 48  24  27  ar  
 49  25  27  ar  
 50  25  48  1   
 51  26  49  1   
 52  26  50  1   
 53  26  51  1   
 54  27  52  1   
@<TRIPOS>SUBSTRUCTURE
  1 ****  11 GROUP 4 **** **** 0

# MOE 2024.06 (io_trps.svl 2023.06)
