@<TRIPOS>MOLECULE
NONAME
42 42 1 0 0 
SMALL
USER_CHARGES


@<TRIPOS>ATOM
  1 S        0.0060    -0.2780    -1.2160 S.3   1 <1>  -0.0800 
  2 C       -1.6690    -0.6000    -0.9070 C.2   1 <1>   0.4420 
  3 C       -0.3490     1.3990    -0.9800 C.2   1 <1>   0.1980 
  4 N       -2.3320     0.4710    -0.6660 N.2   1 <1>  -0.3380 
  5 N       -2.0600    -1.9230    -0.9490 N.am  1 <1>  -0.4940 
  6 N       -1.5720     1.6080    -0.7100 N.2   1 <1>  -0.3380 
  7 C        0.7790     2.4050    -1.1150 C.3   1 <1>   0.0200 
  8 C       -3.3100    -2.4550    -0.8130 C.2   1 <1>   0.5690 
  9 C        1.7500     2.3310     0.0720 C.3   1 <1>  -0.1600 
 10 O       -4.3100    -1.7990    -0.6990 O.2   1 <1>  -0.5700 
 11 C       -3.4380    -3.9620    -0.8090 C.3   1 <1>  -0.0990 
 12 C        2.8720     3.3700    -0.0540 C.3   1 <1>  -0.1600 
 13 C       -3.4180    -4.5070     0.6240 C.3   1 <1>   0.2200 
 14 C        3.8350     3.2890     1.1370 C.3   1 <1>  -0.1600 
 15 N       -3.1080    -5.9540     0.6170 N.am  1 <1>  -0.7300 
 16 C       -4.7010    -4.2310     1.4090 C.3   1 <1>  -0.2400 
 17 C        4.9540     4.3250     1.0120 C.3   1 <1>  -0.2400 
 18 C       -3.7890    -7.0550     0.2210 C.2   1 <1>   0.5690 
 19 O       -3.2550    -8.1280     0.3130 O.2   1 <1>  -0.5700 
 20 C       -5.1930    -7.0040    -0.3310 C.3   1 <1>  -0.1790 
 21 H       -1.3050    -2.5810    -1.1170 H     1 <1>   0.3700 
 22 H        0.3510     3.3910    -1.1670 H     1 <1>   0.0800 
 23 H        1.3040     2.2220    -2.0350 H     1 <1>   0.0800 
 24 H        2.1800     1.3460     0.1240 H     1 <1>   0.0800 
 25 H        1.2020     2.5040     0.9830 H     1 <1>   0.0800 
 26 H       -2.6300    -4.3870    -1.3740 H     1 <1>   0.0800 
 27 H       -4.3600    -4.2180    -1.2940 H     1 <1>   0.0800 
 28 H        2.4450     4.3580    -0.0980 H     1 <1>   0.0800 
 29 H        3.4200     3.2010    -0.9650 H     1 <1>   0.0800 
 30 H       -2.6120    -4.0240     1.1520 H     1 <1>   0.0800 
 31 H        4.2690     2.3040     1.1870 H     1 <1>   0.0800 
 32 H        3.2940     3.4610     2.0530 H     1 <1>   0.0800 
 33 H       -2.1980    -6.1860     1.0190 H     1 <1>   0.3700 
 34 H       -5.5720    -4.5330     0.8600 H     1 <1>   0.0800 
 35 H       -4.7910    -3.1760     1.5990 H     1 <1>   0.0800 
 36 H       -4.6780    -4.7380     2.3570 H     1 <1>   0.0800 
 37 H        5.5240     4.1590     0.1150 H     1 <1>   0.0800 
 38 H        5.6180     4.2530     1.8560 H     1 <1>   0.0800 
 39 H        4.5450     5.3200     0.9840 H     1 <1>   0.0800 
 40 H       -5.2830    -6.2480    -1.0840 H     1 <1>   0.0800 
 41 H       -5.8870    -6.8150     0.4660 H     1 <1>   0.0800 
 42 H       -5.4360    -7.9530    -0.7730 H     1 <1>   0.0800 
@<TRIPOS>BOND
  1   1   2  1   
  2   1   3  1   
  3   2   4  2   
  4   2   5  1   
  5   3   6  2   
  6   3   7  1   
  7   4   6  1   
  8   5   8  am  
  9   5  21  1   
 10   7   9  1   
 11   7  22  1   
 12   7  23  1   
 13   8  10  2   
 14   8  11  1   
 15   9  12  1   
 16   9  24  1   
 17   9  25  1   
 18  11  13  1   
 19  11  26  1   
 20  11  27  1   
 21  12  14  1   
 22  12  28  1   
 23  12  29  1   
 24  13  15  1   
 25  13  16  1   
 26  13  30  1   
 27  14  17  1   
 28  14  31  1   
 29  14  32  1   
 30  15  18  am  
 31  15  33  1   
 32  16  34  1   
 33  16  35  1   
 34  16  36  1   
 35  17  37  1   
 36  17  38  1   
 37  17  39  1   
 38  18  19  2   
 39  18  20  1   
 40  20  40  1   
 41  20  41  1   
 42  20  42  1   
@<TRIPOS>SUBSTRUCTURE
  1 ****   5 GROUP 4 **** **** 0

# MOE 2024.06 (io_trps.svl 2023.06)
