@<TRIPOS>MOLECULE
NONAME
37 39 1 0 0 
SMALL
USER_CHARGES


@<TRIPOS>ATOM
  1 F       -0.7670     0.1510     0.3690 F     1 <1>  -0.1900 
  2 C       -1.3430     1.2710     0.0000 C.ar  1 <1>   0.1900 
  3 C       -0.6600     2.4930     0.1230 C.ar  1 <1>   0.4100 
  4 C       -2.6200     1.2030    -0.4980 C.ar  1 <1>  -0.1500 
  5 N       -1.2140     3.6510    -0.2400 N.ar  1 <1>  -0.6200 
  6 N        0.6380     2.5910     0.6190 N.pl3 1 <1>  -0.8380 
  7 C       -3.1840     2.4090    -0.8660 C.ar  1 <1>  -0.1500 
  8 C       -2.4520     3.5760    -0.7170 C.ar  1 <1>   0.1600 
  9 C        0.9530     3.6090     1.6700 C.3   1 <1>   0.2090 
 10 C        1.7540     1.8780    -0.0610 C.3   1 <1>   0.2090 
 11 C        2.1000     4.5920     1.3190 C.3   1 <1>   0.4230 
 12 C        2.6020     2.8250    -0.9390 C.3   1 <1>  -0.0800 
 13 N        2.0520     5.1790    -0.0780 N.4   1 <1>  -0.9590 
 14 C        3.4910     3.9670     1.5880 C.3   1 <1>   0.1200 
 15 C        4.0720     2.9390    -0.4750 C.3   1 <1>   0.1200 
 16 C        1.9150     4.1810    -1.1940 C.3   1 <1>   0.3430 
 17 C        0.9970     6.2240    -0.2060 C.3   1 <1>   0.2630 
 18 O        4.2850     3.9800     0.4330 O.3   1 <1>  -0.5600 
 19 H       -3.1420     0.2670    -0.5900 H     1 <1>   0.1500 
 20 H       -4.1840     2.4420    -1.2620 H     1 <1>   0.1500 
 21 H       -2.9170     4.5040    -1.0090 H     1 <1>   0.1500 
 22 H        0.0690     4.1870     1.8800 H     1 <1>   0.0800 
 23 H        1.1950     3.0930     2.5820 H     1 <1>   0.0800 
 24 H        2.3610     1.3800     0.6760 H     1 <1>   0.0800 
 25 H        1.3410     1.1090    -0.6920 H     1 <1>   0.0800 
 26 H        2.0120     5.4040     2.0210 H     1 <1>   0.0800 
 27 H        2.6470     2.3310    -1.8930 H     1 <1>   0.0800 
 28 H        2.9960     5.5780    -0.1970 H     1 <1>   0.4500 
 29 H        3.4240     2.9610     1.9660 H     1 <1>   0.0800 
 30 H        4.0010     4.5580     2.3280 H     1 <1>   0.0800 
 31 H        4.7000     3.1460    -1.3250 H     1 <1>   0.0800 
 32 H        4.4170     2.0210    -0.0310 H     1 <1>   0.0800 
 33 H        0.8700     3.9970    -1.3810 H     1 <1>   0.0800 
 34 H        2.3270     4.6120    -2.0910 H     1 <1>   0.0800 
 35 H        0.0220     5.7810    -0.0780 H     1 <1>   0.0800 
 36 H        1.0400     6.6810    -1.1810 H     1 <1>   0.0800 
 37 H        1.1320     6.9900     0.5400 H     1 <1>   0.0800 
@<TRIPOS>BOND
  1   1   2  1   
  2   2   3  ar  
  3   2   4  ar  
  4   3   5  ar  
  5   3   6  1   
  6   4   7  ar  
  7   4  19  1   
  8   5   8  ar  
  9   6   9  1   
 10   6  10  1   
 11   7   8  ar  
 12   7  20  1   
 13   8  21  1   
 14   9  11  1   
 15   9  22  1   
 16   9  23  1   
 17  10  12  1   
 18  10  24  1   
 19  10  25  1   
 20  11  13  1   
 21  11  14  1   
 22  11  26  1   
 23  12  15  1   
 24  12  16  1   
 25  12  27  1   
 26  13  16  1   
 27  13  17  1   
 28  13  28  1   
 29  14  18  1   
 30  14  29  1   
 31  14  30  1   
 32  15  18  1   
 33  15  31  1   
 34  15  32  1   
 35  16  33  1   
 36  16  34  1   
 37  17  35  1   
 38  17  36  1   
 39  17  37  1   
@<TRIPOS>SUBSTRUCTURE
  1 ****   6 GROUP 4 **** **** 0

# MOE 2024.06 (io_trps.svl 2023.06)
