@<TRIPOS>MOLECULE
NONAME
48 50 1 0 0 
SMALL
USER_CHARGES


@<TRIPOS>ATOM
  1 O        0.1420    -2.0000    -1.9680 O.3   1 <1>  -0.6800 
  2 C       -0.0410    -2.3190    -0.6300 C.3   1 <1>   0.1200 
  3 C        1.1540    -1.8320     0.2380 C.3   1 <1>   0.0000 
  4 C        2.5570    -2.1940    -0.3130 C.3   1 <1>   0.4230 
  5 C        1.0270    -0.2800     0.3730 C.3   1 <1>  -0.1600 
  6 C        1.0660    -2.5240     1.6230 C.3   1 <1>  -0.1600 
  7 N        2.7690    -3.6520    -0.6410 N.4   1 <1>  -0.9590 
  8 C        3.0760    -1.1290    -1.2840 C.3   1 <1>   0.2090 
  9 C        2.3520     0.4930     0.5390 C.3   1 <1>   0.2090 
 10 C        1.8190    -3.8810     1.6830 C.3   1 <1>  -0.1600 
 11 C        2.0480    -4.5550     0.3160 C.3   1 <1>   0.3430 
 12 C        2.4660    -3.9990    -2.0640 C.3   1 <1>   0.2630 
 13 N        3.4100     0.0430    -0.4220 N.pl3 1 <1>  -0.8380 
 14 C        4.7120     0.2490    -0.0270 C.ar  1 <1>   0.7200 
 15 N        5.5290    -0.8050    -0.0560 N.ar  1 <1>  -0.6200 
 16 N        5.0090     1.4730     0.3900 N.ar  1 <1>  -0.6200 
 17 C        6.7600    -0.5830     0.3350 C.ar  1 <1>   0.1670 
 18 C        6.2430     1.6690     0.7760 C.ar  1 <1>   0.1670 
 19 C        7.1720     0.6560     0.7640 C.ar  1 <1>  -0.1500 
 20 C        7.7220    -1.7520     0.2950 C.3   1 <1>  -0.0970 
 21 C        6.6040     3.0650     1.2360 C.3   1 <1>  -0.0970 
 22 H       -0.7200    -1.9570    -2.4360 H     1 <1>   0.4000 
 23 H       -0.9490    -1.8440    -0.2970 H     1 <1>   0.0800 
 24 H       -0.1830    -3.3820    -0.5660 H     1 <1>   0.0800 
 25 H        3.2020    -2.0360     0.5350 H     1 <1>   0.0800 
 26 H        0.3680    -0.0280     1.1850 H     1 <1>   0.0800 
 27 H        0.5690     0.1230    -0.5150 H     1 <1>   0.0800 
 28 H        1.4930    -1.8820     2.3760 H     1 <1>   0.0800 
 29 H        0.0330    -2.6680     1.8940 H     1 <1>   0.0800 
 30 H        3.7800    -3.7910    -0.4970 H     1 <1>   0.4500 
 31 H        2.3350    -0.8440    -2.0080 H     1 <1>   0.0800 
 32 H        3.9500    -1.4730    -1.8090 H     1 <1>   0.0800 
 33 H        2.7160     0.3620     1.5450 H     1 <1>   0.0800 
 34 H        2.1770     1.5470     0.3930 H     1 <1>   0.0800 
 35 H        1.2740    -4.5580     2.3190 H     1 <1>   0.0800 
 36 H        2.7800    -3.7320     2.1470 H     1 <1>   0.0800 
 37 H        1.0900    -4.8220    -0.0970 H     1 <1>   0.0800 
 38 H        2.6090    -5.4660     0.4490 H     1 <1>   0.0800 
 39 H        1.4120    -3.9010    -2.2610 H     1 <1>   0.0800 
 40 H        2.7590    -5.0140    -2.2730 H     1 <1>   0.0800 
 41 H        3.0000    -3.3440    -2.7340 H     1 <1>   0.0800 
 42 H        8.1830     0.8290     1.0810 H     1 <1>   0.1500 
 43 H        8.7020    -1.4570     0.6220 H     1 <1>   0.0800 
 44 H        7.7920    -2.1270    -0.7100 H     1 <1>   0.0800 
 45 H        7.3650    -2.5360     0.9370 H     1 <1>   0.0800 
 46 H        7.6370     3.1240     1.5230 H     1 <1>   0.0800 
 47 H        5.9920     3.3350     2.0770 H     1 <1>   0.0800 
 48 H        6.4230     3.7620     0.4390 H     1 <1>   0.0800 
@<TRIPOS>BOND
  1   1   2  1   
  2   1  22  1   
  3   2   3  1   
  4   2  23  1   
  5   2  24  1   
  6   3   4  1   
  7   3   5  1   
  8   3   6  1   
  9   4   7  1   
 10   4   8  1   
 11   4  25  1   
 12   5   9  1   
 13   5  26  1   
 14   5  27  1   
 15   6  10  1   
 16   6  28  1   
 17   6  29  1   
 18   7  11  1   
 19   7  12  1   
 20   7  30  1   
 21   8  13  1   
 22   8  31  1   
 23   8  32  1   
 24   9  13  1   
 25   9  33  1   
 26   9  34  1   
 27  10  11  1   
 28  10  35  1   
 29  10  36  1   
 30  11  37  1   
 31  11  38  1   
 32  12  39  1   
 33  12  40  1   
 34  12  41  1   
 35  13  14  1   
 36  14  15  ar  
 37  14  16  ar  
 38  15  17  ar  
 39  16  18  ar  
 40  17  19  ar  
 41  17  20  1   
 42  18  19  ar  
 43  18  21  1   
 44  19  42  1   
 45  20  43  1   
 46  20  44  1   
 47  20  45  1   
 48  21  46  1   
 49  21  47  1   
 50  21  48  1   
@<TRIPOS>SUBSTRUCTURE
  1 ****  13 GROUP 4 **** **** 0

# MOE 2024.06 (io_trps.svl 2023.06)
