@<TRIPOS>MOLECULE
NONAME
33 34 1 0 0 
SMALL
USER_CHARGES


@<TRIPOS>ATOM
  1 O       -2.0480    -2.0720     1.8180 O.co2 1 <1>  -0.9000 
  2 C       -1.8720    -1.6050     0.6850 C.2   1 <1>   0.9060 
  3 O       -1.1540    -2.1710    -0.1540 O.co2 1 <1>  -0.9000 
  4 C       -2.6030    -0.3070     0.2810 C.3   1 <1>   0.1830 
  5 N       -1.9110     0.4230    -0.8580 N.pl3 1 <1>  -0.8690 
  6 C       -4.0460    -0.6760    -0.1150 C.3   1 <1>   0.0200 
  7 C       -1.2220     1.5660    -0.6630 C.ar  1 <1>   0.7200 
  8 C       -4.9920     0.5110    -0.2720 C.2   1 <1>  -0.3320 
  9 N       -1.8250     2.5430     0.0070 N.ar  1 <1>  -0.6200 
 10 N       -0.0140     1.5940    -1.2030 N.ar  1 <1>  -0.6200 
 11 N       -4.5750     1.7200    -0.6760 N.pl3 1 <1>   0.0330 
 12 C       -6.3240     0.6230    -0.0650 C.2   1 <1>   0.0770 
 13 C       -1.1220     3.6320     0.1830 C.ar  1 <1>   0.1670 
 14 C        0.6710     2.6920    -1.0160 C.ar  1 <1>   0.1670 
 15 C       -5.6790     2.4940    -0.6930 C.2   1 <1>   0.0360 
 16 N       -6.7570     1.8720    -0.3350 N.2   1 <1>  -0.5650 
 17 C        0.1540     3.7580    -0.3160 C.ar  1 <1>  -0.1500 
 18 C       -1.7790     4.7490     0.9640 C.3   1 <1>  -0.0970 
 19 C        2.0640     2.7360    -1.6050 C.3   1 <1>  -0.0970 
 20 H       -2.6300     0.3190     1.1540 H     1 <1>   0.0800 
 21 H       -1.2910    -0.2740    -1.2950 H     1 <1>   0.4000 
 22 H       -4.4490    -1.3300     0.6390 H     1 <1>   0.0800 
 23 H       -4.0110    -1.2330    -1.0340 H     1 <1>   0.0800 
 24 H       -3.5900     1.9650    -0.8650 H     1 <1>   0.2700 
 25 H       -7.0020    -0.1440     0.2680 H     1 <1>   0.1500 
 26 H       -5.6380     3.5300    -0.9760 H     1 <1>   0.1500 
 27 H        0.7240     4.6530    -0.1650 H     1 <1>   0.1500 
 28 H       -1.1210     5.5920     1.0640 H     1 <1>   0.0800 
 29 H       -2.0430     4.3930     1.9430 H     1 <1>   0.0800 
 30 H       -2.6750     5.0630     0.4590 H     1 <1>   0.0800 
 31 H        2.5470     3.6710    -1.3930 H     1 <1>   0.0800 
 32 H        2.0070     2.6030    -2.6700 H     1 <1>   0.0800 
 33 H        2.6510     1.9360    -1.1900 H     1 <1>   0.0800 
@<TRIPOS>BOND
  1   1   2  ar  
  2   2   3  ar  
  3   2   4  1   
  4   4   5  1   
  5   4   6  1   
  6   4  20  1   
  7   5   7  1   
  8   5  21  1   
  9   6   8  1   
 10   6  22  1   
 11   6  23  1   
 12   7   9  ar  
 13   7  10  ar  
 14   8  11  1   
 15   8  12  2   
 16   9  13  ar  
 17  10  14  ar  
 18  11  15  1   
 19  11  24  1   
 20  12  16  1   
 21  12  25  1   
 22  13  17  ar  
 23  13  18  1   
 24  14  17  ar  
 25  14  19  1   
 26  15  16  2   
 27  15  26  1   
 28  17  27  1   
 29  18  28  1   
 30  18  29  1   
 31  18  30  1   
 32  19  31  1   
 33  19  32  1   
 34  19  33  1   
@<TRIPOS>SUBSTRUCTURE
  1 ****   5 GROUP 4 **** **** 0

# MOE 2024.06 (io_trps.svl 2023.06)
