@<TRIPOS>MOLECULE
NONAME
44 46 1 0 0 
SMALL
USER_CHARGES


@<TRIPOS>ATOM
  1 O       -0.5880     0.2260    -0.4350 O.2   1 <1>  -0.5700 
  2 C       -1.5440     0.8670    -0.0310 C.2   1 <1>   0.5440 
  3 N       -2.7050     0.1610     0.2430 N.am  1 <1>  -0.6600 
  4 C       -1.4080     2.3190     0.1080 C.ar  1 <1>   0.3960 
  5 C       -2.7200    -1.3290     0.3980 C.3   1 <1>   0.1400 
  6 C       -4.0720     0.7620     0.3150 C.3   1 <1>   0.1400 
  7 N       -2.1060     3.0050     1.0330 N.ar  1 <1>  -0.6200 
  8 C       -0.5170     2.9800    -0.7490 C.ar  1 <1>   0.1600 
  9 C       -3.7690    -1.9740    -0.5230 C.3   1 <1>   0.3440 
 10 C       -5.0640    -0.0020    -0.5940 C.3   1 <1>   0.2000 
 11 C       -1.8550     4.3010     1.0290 C.ar  1 <1>   0.1600 
 12 N       -0.2740     4.2810    -0.7620 N.ar  1 <1>  -0.6200 
 13 O       -5.0220    -1.3740    -0.3180 O.3   1 <1>  -0.5600 
 14 C       -3.8690    -3.4740    -0.2590 C.ar  1 <1>  -0.1430 
 15 C       -6.5330     0.4660    -0.4650 C.3   1 <1>  -0.0800 
 16 C       -0.9700     4.9210     0.1590 C.ar  1 <1>   0.1600 
 17 C       -3.0800    -4.3520    -0.9890 C.ar  1 <1>  -0.1500 
 18 C       -4.7250    -3.9840     0.7080 C.ar  1 <1>  -0.1500 
 19 C       -6.7100     1.9320    -0.8890 C.3   1 <1>  -0.2400 
 20 C       -7.1250     0.2600     0.9400 C.3   1 <1>  -0.2400 
 21 C       -3.1440    -5.7150    -0.7560 C.ar  1 <1>  -0.1500 
 22 C       -4.7910    -5.3470     0.9420 C.ar  1 <1>  -0.1500 
 23 C       -3.9990    -6.2140     0.2100 C.ar  1 <1>  -0.1500 
 24 H       -1.7560    -1.7500     0.1780 H     1 <1>   0.0800 
 25 H       -2.9560    -1.5740     1.4190 H     1 <1>   0.0800 
 26 H       -4.4090     0.7320     1.3360 H     1 <1>   0.0800 
 27 H       -4.0470     1.7880     0.0020 H     1 <1>   0.0800 
 28 H        0.0230     2.3840    -1.4640 H     1 <1>   0.1500 
 29 H       -3.4910    -1.8150    -1.5500 H     1 <1>   0.0800 
 30 H       -4.7610     0.1300    -1.6190 H     1 <1>   0.0800 
 31 H       -2.3760     4.9070     1.7500 H     1 <1>   0.1500 
 32 H       -7.1060    -0.1350    -1.1520 H     1 <1>   0.0800 
 33 H       -0.8330     5.9870     0.2290 H     1 <1>   0.1500 
 34 H       -2.4080    -3.9780    -1.7420 H     1 <1>   0.1500 
 35 H       -5.3470    -3.3180     1.2810 H     1 <1>   0.1500 
 36 H       -6.2200     2.5990    -0.2010 H     1 <1>   0.0800 
 37 H       -7.7550     2.1840    -0.9120 H     1 <1>   0.0800 
 38 H       -6.3060     2.0900    -1.8730 H     1 <1>   0.0800 
 39 H       -6.6420     0.8890     1.6660 H     1 <1>   0.0800 
 40 H       -7.0140    -0.7660     1.2450 H     1 <1>   0.0800 
 41 H       -8.1750     0.4940     0.9360 H     1 <1>   0.0800 
 42 H       -2.5280    -6.3880    -1.3270 H     1 <1>   0.1500 
 43 H       -5.4590    -5.7310     1.6920 H     1 <1>   0.1500 
 44 H       -4.0500    -7.2730     0.3910 H     1 <1>   0.1500 
@<TRIPOS>BOND
  1   1   2  2   
  2   2   3  am  
  3   2   4  1   
  4   3   5  1   
  5   3   6  1   
  6   4   7  ar  
  7   4   8  ar  
  8   5   9  1   
  9   5  24  1   
 10   5  25  1   
 11   6  10  1   
 12   6  26  1   
 13   6  27  1   
 14   7  11  ar  
 15   8  12  ar  
 16   8  28  1   
 17   9  13  1   
 18   9  14  1   
 19   9  29  1   
 20  10  13  1   
 21  10  15  1   
 22  10  30  1   
 23  11  16  ar  
 24  11  31  1   
 25  12  16  ar  
 26  14  17  ar  
 27  14  18  ar  
 28  15  19  1   
 29  15  20  1   
 30  15  32  1   
 31  16  33  1   
 32  17  21  ar  
 33  17  34  1   
 34  18  22  ar  
 35  18  35  1   
 36  19  36  1   
 37  19  37  1   
 38  19  38  1   
 39  20  39  1   
 40  20  40  1   
 41  20  41  1   
 42  21  23  ar  
 43  21  42  1   
 44  22  23  ar  
 45  22  43  1   
 46  23  44  1   
@<TRIPOS>SUBSTRUCTURE
  1 ****   3 GROUP 4 **** **** 0

# MOE 2024.06 (io_trps.svl 2023.06)
