@<TRIPOS>MOLECULE
NONAME
57 59 1 0 0 
SMALL
USER_CHARGES


@<TRIPOS>ATOM
  1 O        1.1420    -1.8040    -2.1650 O.3   1 <1>  -0.6800 
  2 C        0.4100    -2.0320    -1.0080 C.3   1 <1>   0.1200 
  3 C        1.2660    -1.8030     0.2720 C.3   1 <1>   0.0000 
  4 C        2.6530    -2.5100     0.2360 C.3   1 <1>   0.4230 
  5 C        1.4850    -0.2790     0.4770 C.3   1 <1>  -0.1600 
  6 C        0.4690    -2.3460     1.4920 C.3   1 <1>  -0.1600 
  7 N        2.5540    -4.0280     0.0750 N.4   1 <1>  -0.9590 
  8 C        3.6640    -1.7930    -0.7180 C.3   1 <1>   0.3430 
  9 C        2.4250     0.3630    -0.5470 C.3   1 <1>   0.3430 
 10 C        0.8740    -3.7740     1.9160 C.3   1 <1>  -0.1600 
 11 C        1.3480    -4.6320     0.7420 C.3   1 <1>   0.3430 
 12 C        2.6180    -4.5270    -1.3420 C.3   1 <1>   0.2630 
 13 N        3.7680    -0.3010    -0.4940 N.4   1 <1>  -0.9590 
 14 C        4.7070     0.3320    -1.4770 C.3   1 <1>   0.4860 
 15 C        4.9460     1.7670    -1.0730 C.ar  1 <1>  -0.1440 
 16 C        4.3300     2.8130    -1.7240 C.ar  1 <1>   0.1600 
 17 C        5.7800     2.0930    -0.0260 C.ar  1 <1>   0.1600 
 18 N        4.4830     4.0540    -1.3460 N.ar  1 <1>  -0.6200 
 19 N        5.9480     3.3250     0.3700 N.ar  1 <1>  -0.6200 
 20 C        5.2820     4.2540    -0.3080 C.ar  1 <1>   0.7200 
 21 N        5.3980     5.5440     0.0650 N.pl3 1 <1>  -0.8690 
 22 C        6.4310     6.1090     0.9340 C.3   1 <1>   0.2890 
 23 C        5.7670     7.1430     1.8340 C.3   1 <1>  -0.2400 
 24 C        7.4960     6.7460     0.0500 C.3   1 <1>  -0.2400 
 25 H        0.5430    -1.8060    -2.9490 H     1 <1>   0.4000 
 26 H       -0.4390    -1.3670    -1.0150 H     1 <1>   0.0800 
 27 H        0.0350    -3.0400    -1.0560 H     1 <1>   0.0800 
 28 H        3.0570    -2.3540     1.2230 H     1 <1>   0.0800 
 29 H        1.8840    -0.0820     1.4580 H     1 <1>   0.0800 
 30 H        0.5360     0.2290     0.4270 H     1 <1>   0.0800 
 31 H        0.6000    -1.7120     2.3540 H     1 <1>   0.0800 
 32 H       -0.5870    -2.3290     1.2750 H     1 <1>   0.0800 
 33 H        3.3620    -4.4360     0.5720 H     1 <1>   0.4500 
 34 H        3.3570    -1.9660    -1.7350 H     1 <1>   0.0800 
 35 H        4.6360    -2.2380    -0.5840 H     1 <1>   0.0800 
 36 H        2.5220     1.4150    -0.3230 H     1 <1>   0.0800 
 37 H        2.0040     0.2720    -1.5360 H     1 <1>   0.0800 
 38 H        0.0300    -4.2530     2.3830 H     1 <1>   0.0800 
 39 H        1.6550    -3.7340     2.6570 H     1 <1>   0.0800 
 40 H        0.5400    -4.7150     0.0330 H     1 <1>   0.0800 
 41 H        1.5800    -5.6280     1.0890 H     1 <1>   0.0800 
 42 H        1.7990    -4.1320    -1.9200 H     1 <1>   0.0800 
 43 H        2.5570    -5.6040    -1.3610 H     1 <1>   0.0800 
 44 H        3.5430    -4.2360    -1.8110 H     1 <1>   0.0800 
 45 H        4.1550    -0.1050     0.4410 H     1 <1>   0.4500 
 46 H        5.6490    -0.1920    -1.4860 H     1 <1>   0.0800 
 47 H        4.2890     0.2950    -2.4700 H     1 <1>   0.0800 
 48 H        3.6880     2.6390    -2.5720 H     1 <1>   0.1500 
 49 H        6.3230     1.3340     0.5120 H     1 <1>   0.1500 
 50 H        4.9530     6.1960    -0.5760 H     1 <1>   0.4000 
 51 H        6.8760     5.3390     1.5440 H     1 <1>   0.0800 
 52 H        5.3180     7.9260     1.2500 H     1 <1>   0.0800 
 53 H        6.4970     7.5790     2.4910 H     1 <1>   0.0800 
 54 H        5.0120     6.6700     2.4350 H     1 <1>   0.0800 
 55 H        7.0710     7.5210    -0.5620 H     1 <1>   0.0800 
 56 H        7.9410     5.9970    -0.5800 H     1 <1>   0.0800 
 57 H        8.2690     7.1750     0.6610 H     1 <1>   0.0800 
@<TRIPOS>BOND
  1   1   2  1   
  2   1  25  1   
  3   2   3  1   
  4   2  26  1   
  5   2  27  1   
  6   3   4  1   
  7   3   5  1   
  8   3   6  1   
  9   4   7  1   
 10   4   8  1   
 11   4  28  1   
 12   5   9  1   
 13   5  29  1   
 14   5  30  1   
 15   6  10  1   
 16   6  31  1   
 17   6  32  1   
 18   7  11  1   
 19   7  12  1   
 20   7  33  1   
 21   8  13  1   
 22   8  34  1   
 23   8  35  1   
 24   9  13  1   
 25   9  36  1   
 26   9  37  1   
 27  10  11  1   
 28  10  38  1   
 29  10  39  1   
 30  11  40  1   
 31  11  41  1   
 32  12  42  1   
 33  12  43  1   
 34  12  44  1   
 35  13  14  1   
 36  13  45  1   
 37  14  15  1   
 38  14  46  1   
 39  14  47  1   
 40  15  16  ar  
 41  15  17  ar  
 42  16  18  ar  
 43  16  48  1   
 44  17  19  ar  
 45  17  49  1   
 46  18  20  ar  
 47  19  20  ar  
 48  20  21  1   
 49  21  22  1   
 50  21  50  1   
 51  22  23  1   
 52  22  24  1   
 53  22  51  1   
 54  23  52  1   
 55  23  53  1   
 56  23  54  1   
 57  24  55  1   
 58  24  56  1   
 59  24  57  1   
@<TRIPOS>SUBSTRUCTURE
  1 ****  13 GROUP 4 **** **** 0

# MOE 2024.06 (io_trps.svl 2023.06)
