@<TRIPOS>MOLECULE
NONAME
54 56 1 0 0 
SMALL
USER_CHARGES


@<TRIPOS>ATOM
  1 O        4.6130    -2.4400     1.5990 O.2   1 <1>  -0.5700 
  2 C        3.5480    -2.2810     1.0350 C.2   1 <1>   0.5440 
  3 N        3.1640    -0.9860     0.7760 N.am  1 <1>  -0.6600 
  4 C        2.7580    -3.4200     0.5940 C.ar  1 <1>   0.0860 
  5 C        3.6120     0.1100     1.7180 C.3   1 <1>   0.2200 
  6 C        2.6970    -0.6140    -0.5960 C.3   1 <1>   0.1400 
  7 C        1.3740    -3.3330     0.4510 C.ar  1 <1>  -0.1500 
  8 C        3.3550    -4.6440     0.2920 C.ar  1 <1>  -0.1500 
  9 C        2.6080     1.2720     1.7830 C.3   1 <1>   0.1200 
 10 C        5.0350     0.6160     1.3800 C.3   1 <1>   0.3430 
 11 C        3.2170     0.7420    -1.1060 C.3   1 <1>  -0.0800 
 12 C        0.6090    -4.3900    -0.0110 C.ar  1 <1>   0.0730 
 13 C        2.6070    -5.7170    -0.1580 C.ar  1 <1>  -0.1500 
 14 O        2.8650     2.2190     0.7920 O.3   1 <1>  -0.5600 
 15 N        5.4670     0.1890     0.0100 N.4   1 <1>  -0.9590 
 16 C        2.4390     1.9190    -0.4940 C.3   1 <1>   0.1200 
 17 C        4.7470     0.9520    -1.0610 C.3   1 <1>   0.3430 
 18 C       -0.8020    -4.2220    -0.1780 C.1   1 <1>  -0.0730 
 19 C        1.2390    -5.5880    -0.3140 C.ar  1 <1>  -0.1500 
 20 C        6.9630     0.4290    -0.1230 C.3   1 <1>   0.2370 
 21 C       -1.9630    -4.0040    -0.3240 C.1   1 <1>  -0.2000 
 22 C        7.3810     1.9010    -0.0430 C.2   1 <1>   0.9060 
 23 C       -3.4030    -3.6790    -0.5100 C.3   1 <1>   0.4800 
 24 O        7.6130     2.3780     1.0710 O.co2 1 <1>  -0.9000 
 25 O        7.3410     2.5660    -1.0820 O.co2 1 <1>  -0.9000 
 26 O       -3.4820    -2.3540    -0.8470 O.3   1 <1>  -0.6800 
 27 C       -4.0040    -4.4780    -1.6610 C.3   1 <1>  -0.2400 
 28 C       -4.1810    -3.8650     0.7860 C.3   1 <1>  -0.2400 
 29 H        3.6490    -0.3110     2.7080 H     1 <1>   0.0800 
 30 H        3.0120    -1.3790    -1.2870 H     1 <1>   0.0800 
 31 H        1.6200    -0.6040    -0.6040 H     1 <1>   0.0800 
 32 H        0.8720    -2.4180     0.7060 H     1 <1>   0.1500 
 33 H        4.4190    -4.7530     0.4120 H     1 <1>   0.1500 
 34 H        2.7270     1.7810     2.7230 H     1 <1>   0.0800 
 35 H        1.5910     0.9280     1.7110 H     1 <1>   0.0800 
 36 H        5.7170     0.2060     2.1050 H     1 <1>   0.0800 
 37 H        5.0850     1.6910     1.4700 H     1 <1>   0.0800 
 38 H        2.9570     0.7740    -2.1480 H     1 <1>   0.0800 
 39 H        3.0880    -6.6530    -0.3870 H     1 <1>   0.1500 
 40 H        5.2440    -0.8150    -0.0380 H     1 <1>   0.4500 
 41 H        1.3790     1.7280    -0.4710 H     1 <1>   0.0800 
 42 H        2.6060     2.8050    -1.0840 H     1 <1>   0.0800 
 43 H        4.9530     2.0060    -0.9460 H     1 <1>   0.0800 
 44 H        5.1580     0.6590    -2.0130 H     1 <1>   0.0800 
 45 H        0.6550    -6.4190    -0.6700 H     1 <1>   0.1500 
 46 H        7.4850    -0.0930     0.6590 H     1 <1>   0.0800 
 47 H        7.3080     0.0550    -1.0690 H     1 <1>   0.0800 
 48 H       -4.4160    -2.1210    -0.9870 H     1 <1>   0.4000 
 49 H       -3.9420    -5.5280    -1.4430 H     1 <1>   0.0800 
 50 H       -3.4560    -4.2890    -2.5660 H     1 <1>   0.0800 
 51 H       -5.0380    -4.2220    -1.8070 H     1 <1>   0.0800 
 52 H       -4.1250    -4.8920     1.0980 H     1 <1>   0.0800 
 53 H       -5.2160    -3.6060     0.6540 H     1 <1>   0.0800 
 54 H       -3.7550    -3.2550     1.5630 H     1 <1>   0.0800 
@<TRIPOS>BOND
  1   1   2  2   
  2   2   3  am  
  3   2   4  1   
  4   3   5  1   
  5   3   6  1   
  6   4   7  ar  
  7   4   8  ar  
  8   5   9  1   
  9   5  10  1   
 10   5  29  1   
 11   6  11  1   
 12   6  30  1   
 13   6  31  1   
 14   7  12  ar  
 15   7  32  1   
 16   8  13  ar  
 17   8  33  1   
 18   9  14  1   
 19   9  34  1   
 20   9  35  1   
 21  10  15  1   
 22  10  36  1   
 23  10  37  1   
 24  11  16  1   
 25  11  17  1   
 26  11  38  1   
 27  12  18  1   
 28  12  19  ar  
 29  13  19  ar  
 30  13  39  1   
 31  14  16  1   
 32  15  17  1   
 33  15  20  1   
 34  15  40  1   
 35  16  41  1   
 36  16  42  1   
 37  17  43  1   
 38  17  44  1   
 39  18  21  3   
 40  19  45  1   
 41  20  22  1   
 42  20  46  1   
 43  20  47  1   
 44  21  23  1   
 45  22  24  ar  
 46  22  25  ar  
 47  23  26  1   
 48  23  27  1   
 49  23  28  1   
 50  26  48  1   
 51  27  49  1   
 52  27  50  1   
 53  27  51  1   
 54  28  52  1   
 55  28  53  1   
 56  28  54  1   
@<TRIPOS>SUBSTRUCTURE
  1 ****   3 GROUP 4 **** **** 0

# MOE 2024.06 (io_trps.svl 2023.06)
