@<TRIPOS>MOLECULE
NONAME
53 55 1 0 0 
SMALL
USER_CHARGES


@<TRIPOS>ATOM
  1 O        0.4330     0.0020    -0.1340 O.3   1 <1>  -0.2800 
  2 C        1.3680     0.8320     0.1980 C.2   1 <1>   0.2980 
  3 C        0.9460    -1.1550     0.1390 C.2   1 <1>   0.2980 
  4 N        2.4070     0.2420     0.6520 N.2   1 <1>  -0.3380 
  5 C        1.1770     2.3370     0.0340 C.3   1 <1>   0.5230 
  6 N        2.1300    -1.0590     0.6110 N.2   1 <1>  -0.3380 
  7 C        0.1520    -2.4170    -0.1090 C.3   1 <1>  -0.0600 
  8 N        2.4650     3.0890     0.2740 N.4   1 <1>  -0.9590 
  9 C        2.2450     4.5320     0.5420 C.3   1 <1>   0.3430 
 10 C        3.4380     2.8610    -0.8300 C.3   1 <1>   0.3430 
 11 C        3.5770     5.1950     0.9220 C.3   1 <1>  -0.1600 
 12 C        4.7820     3.4920    -0.4610 C.3   1 <1>  -0.1600 
 13 C        4.6890     5.0080    -0.1430 C.3   1 <1>  -0.0800 
 14 C        6.0440     5.6420     0.3290 C.3   1 <1>   0.4230 
 15 N        6.1680     7.1090     0.0590 N.4   1 <1>  -0.9590 
 16 C        7.2720     5.0010    -0.3310 C.3   1 <1>  -0.2400 
 17 C        7.1820     7.7930     0.9410 C.3   1 <1>   0.3430 
 18 C        4.9570     7.9950    -0.0450 C.3   1 <1>   0.3430 
 19 C        7.5720     9.1740     0.3580 C.3   1 <1>   0.1100 
 20 C        5.3420     9.3960    -0.5860 C.3   1 <1>   0.1100 
 21 N        6.7920     9.5000    -0.8580 N.3   1 <1>  -0.8100 
 22 C        7.1480    10.8270    -1.3810 C.3   1 <1>   0.0300 
 23 H        0.4300     2.6530     0.7420 H     1 <1>   0.0800 
 24 H        0.8090     2.5390    -0.9580 H     1 <1>   0.0800 
 25 H       -0.7510    -2.4000     0.4720 H     1 <1>   0.0800 
 26 H        0.7340    -3.2760     0.1750 H     1 <1>   0.0800 
 27 H       -0.0970    -2.4930    -1.1510 H     1 <1>   0.0800 
 28 H        2.8730     2.6450     1.1130 H     1 <1>   0.4500 
 29 H        1.5410     4.6540     1.3510 H     1 <1>   0.0800 
 30 H        1.8390     5.0090    -0.3360 H     1 <1>   0.0800 
 31 H        3.0680     3.2960    -1.7450 H     1 <1>   0.0800 
 32 H        3.5760     1.8020    -0.9920 H     1 <1>   0.0800 
 33 H        3.9030     4.7820     1.8620 H     1 <1>   0.0800 
 34 H        3.3810     6.2350     1.0950 H     1 <1>   0.0800 
 35 H        5.4380     3.3290    -1.2990 H     1 <1>   0.0800 
 36 H        5.1920     2.9550     0.3780 H     1 <1>   0.0800 
 37 H        4.3930     5.4880    -1.0600 H     1 <1>   0.0800 
 38 H        6.1240     5.4820     1.3930 H     1 <1>   0.0800 
 39 H        6.5970     7.2280    -0.8760 H     1 <1>   0.4500 
 40 H        7.2020     5.0520    -1.4030 H     1 <1>   0.0800 
 41 H        7.3600     3.9690    -0.0450 H     1 <1>   0.0800 
 42 H        8.1870     5.4720    -0.0240 H     1 <1>   0.0800 
 43 H        8.0740     7.1970     1.0310 H     1 <1>   0.0800 
 44 H        6.7800     7.9260     1.9320 H     1 <1>   0.0800 
 45 H        4.4960     8.1070     0.9220 H     1 <1>   0.0800 
 46 H        4.2340     7.5630    -0.7140 H     1 <1>   0.0800 
 47 H        8.6220     9.1650     0.1140 H     1 <1>   0.0800 
 48 H        7.4220     9.9320     1.1090 H     1 <1>   0.0800 
 49 H        5.0470    10.1480     0.1280 H     1 <1>   0.0800 
 50 H        4.7950     9.5830    -1.4950 H     1 <1>   0.0800 
 51 H        8.2000    10.8630    -1.6100 H     1 <1>   0.0800 
 52 H        6.9200    11.5960    -0.6620 H     1 <1>   0.0800 
 53 H        6.6020    11.0250    -2.2880 H     1 <1>   0.0800 
@<TRIPOS>BOND
  1   1   2  1   
  2   1   3  1   
  3   2   4  2   
  4   2   5  1   
  5   3   6  2   
  6   3   7  1   
  7   4   6  1   
  8   5   8  1   
  9   5  23  1   
 10   5  24  1   
 11   7  25  1   
 12   7  26  1   
 13   7  27  1   
 14   8   9  1   
 15   8  10  1   
 16   8  28  1   
 17   9  11  1   
 18   9  29  1   
 19   9  30  1   
 20  10  12  1   
 21  10  31  1   
 22  10  32  1   
 23  11  13  1   
 24  11  33  1   
 25  11  34  1   
 26  12  13  1   
 27  12  35  1   
 28  12  36  1   
 29  13  14  1   
 30  13  37  1   
 31  14  15  1   
 32  14  16  1   
 33  14  38  1   
 34  15  17  1   
 35  15  18  1   
 36  15  39  1   
 37  16  40  1   
 38  16  41  1   
 39  16  42  1   
 40  17  19  1   
 41  17  43  1   
 42  17  44  1   
 43  18  20  1   
 44  18  45  1   
 45  18  46  1   
 46  19  21  1   
 47  19  47  1   
 48  19  48  1   
 49  20  21  1   
 50  20  49  1   
 51  20  50  1   
 52  21  22  1   
 53  22  51  1   
 54  22  52  1   
 55  22  53  1   
@<TRIPOS>SUBSTRUCTURE
  1 ****  13 GROUP 4 **** **** 0

# MOE 2024.06 (io_trps.svl 2023.06)
