@<TRIPOS>MOLECULE
NONAME
50 53 1 0 0 
SMALL
USER_CHARGES


@<TRIPOS>ATOM
  1 O       -0.8100     1.6020     1.3980 O.3   1 <1>  -0.6800 
  2 C       -0.5650     2.9370     1.6430 C.3   1 <1>   0.2000 
  3 C       -1.4130     3.7760     0.6880 C.3   1 <1>  -0.1600 
  4 C        0.9250     3.1950     1.4320 C.3   1 <1>  -0.1600 
  5 C       -1.0880     5.2620     0.8550 C.3   1 <1>   0.2090 
  6 C        1.2360     4.6830     1.5970 C.3   1 <1>   0.2090 
  7 N        0.3750     5.4810     0.6860 N.pl3 1 <1>  -0.8380 
  8 C        0.8250     6.7190     0.2740 C.ar  1 <1>   0.4100 
  9 N        0.1170     7.7790     0.6220 N.ar  1 <1>  -0.6200 
 10 C        1.9730     6.8490    -0.4690 C.ar  1 <1>  -0.1500 
 11 C        0.5970     8.9350     0.2160 C.ar  1 <1>   0.4700 
 12 C        2.3860     8.1090    -0.8330 C.ar  1 <1>   0.4100 
 13 N        1.6910     9.1780    -0.4810 N.ar  1 <1>  -0.6200 
 14 N        3.5370     8.3120    -1.5720 N.pl3 1 <1>  -0.8380 
 15 C        3.6910     9.4970    -2.4750 C.3   1 <1>   0.3890 
 16 C        4.7890     7.5510    -1.3050 C.3   1 <1>   0.1290 
 17 C        4.4470    10.6110    -1.7700 C.2   1 <1>   0.0070 
 18 N        4.0570    11.0090    -0.5370 N.pl3 1 <1>   0.0330 
 19 N        5.4730    11.2470    -2.2270 N.2   1 <1>  -0.5650 
 20 C        4.9150    11.9920    -0.1690 C.ar  1 <1>  -0.1520 
 21 C        5.7870    12.1270    -1.2330 C.ar  1 <1>   0.2270 
 22 C        5.0350    12.7810     0.9760 C.ar  1 <1>  -0.1500 
 23 C        6.8090    13.0710    -1.1710 C.ar  1 <1>  -0.1500 
 24 C        6.0490    13.7140     1.0340 C.ar  1 <1>  -0.1440 
 25 C        6.9350    13.8560    -0.0440 C.ar  1 <1>  -0.1500 
 26 C        6.2270    14.6000     2.2530 C.3   1 <1>  -0.0970 
 27 H       -1.7640     1.4130     1.4710 H     1 <1>   0.4000 
 28 H       -0.8360     3.1450     2.6650 H     1 <1>   0.0800 
 29 H       -2.4570     3.6230     0.8860 H     1 <1>   0.0800 
 30 H       -1.2060     3.4950    -0.3300 H     1 <1>   0.0800 
 31 H        1.2130     2.8890     0.4420 H     1 <1>   0.0800 
 32 H        1.4940     2.6310     2.1470 H     1 <1>   0.0800 
 33 H       -1.3860     5.6030     1.8310 H     1 <1>   0.0800 
 34 H       -1.6270     5.8340     0.1180 H     1 <1>   0.0800 
 35 H        2.2750     4.8630     1.3800 H     1 <1>   0.0800 
 36 H        1.0470     4.9870     2.6130 H     1 <1>   0.0800 
 37 H        2.5200     5.9810    -0.7670 H     1 <1>   0.1500 
 38 H        0.0180     9.8000     0.4950 H     1 <1>   0.1500 
 39 H        2.7230     9.8580    -2.7770 H     1 <1>   0.0800 
 40 H        4.2270     9.2070    -3.3610 H     1 <1>   0.0800 
 41 H        4.6880     6.9570    -0.4140 H     1 <1>   0.0800 
 42 H        5.6140     8.2300    -1.1660 H     1 <1>   0.0800 
 43 H        5.0050     6.9050    -2.1380 H     1 <1>   0.0800 
 44 H        3.2810    10.5840    -0.0160 H     1 <1>   0.2700 
 45 H        4.3420    12.6500     1.7880 H     1 <1>   0.1500 
 46 H        7.4760    13.1630    -2.0070 H     1 <1>   0.1500 
 47 H        7.7210    14.5880     0.0120 H     1 <1>   0.1500 
 48 H        5.4830    14.3820     2.9980 H     1 <1>   0.0800 
 49 H        6.1370    15.6330     1.9700 H     1 <1>   0.0800 
 50 H        7.2000    14.4400     2.6820 H     1 <1>   0.0800 
@<TRIPOS>BOND
  1   1   2  1   
  2   1  27  1   
  3   2   3  1   
  4   2   4  1   
  5   2  28  1   
  6   3   5  1   
  7   3  29  1   
  8   3  30  1   
  9   4   6  1   
 10   4  31  1   
 11   4  32  1   
 12   5   7  1   
 13   5  33  1   
 14   5  34  1   
 15   6   7  1   
 16   6  35  1   
 17   6  36  1   
 18   7   8  1   
 19   8   9  ar  
 20   8  10  ar  
 21   9  11  ar  
 22  10  12  ar  
 23  10  37  1   
 24  11  13  ar  
 25  11  38  1   
 26  12  13  ar  
 27  12  14  1   
 28  14  15  1   
 29  14  16  1   
 30  15  17  1   
 31  15  39  1   
 32  15  40  1   
 33  16  41  1   
 34  16  42  1   
 35  16  43  1   
 36  17  18  1   
 37  17  19  2   
 38  18  20  1   
 39  18  44  1   
 40  19  21  1   
 41  20  21  ar  
 42  20  22  ar  
 43  21  23  ar  
 44  22  24  ar  
 45  22  45  1   
 46  23  25  ar  
 47  23  46  1   
 48  24  25  ar  
 49  24  26  1   
 50  25  47  1   
 51  26  48  1   
 52  26  49  1   
 53  26  50  1   
@<TRIPOS>SUBSTRUCTURE
  1 ****  12 GROUP 4 **** **** 0

# MOE 2024.06 (io_trps.svl 2023.06)
