@<TRIPOS>MOLECULE
NONAME
50 52 1 0 0 
SMALL
USER_CHARGES


@<TRIPOS>ATOM
  1 CL      -1.3660    -1.3680    -3.6590 Cl    1 <1>  -0.1770 
  2 C       -0.9880    -2.6440    -2.5230 C.ar  1 <1>   0.1770 
  3 C       -1.7740    -2.8590    -1.3950 C.ar  1 <1>  -0.1440 
  4 C        0.1130    -3.4250    -2.8070 C.ar  1 <1>  -0.1500 
  5 C       -1.4560    -3.9210    -0.5370 C.ar  1 <1>  -0.0090 
  6 C       -2.9650    -1.9350    -1.1260 C.3   1 <1>  -0.0970 
  7 C        0.4490    -4.4540    -1.9520 C.ar  1 <1>  -0.1500 
  8 S       -2.4310    -4.3630     0.9370 S.o2  1 <1>   1.4470 
  9 C       -0.3320    -4.6900    -0.8350 C.ar  1 <1>  -0.1500 
 10 O       -2.4490    -3.2830     1.8950 O.2   1 <1>  -0.6500 
 11 O       -2.0900    -5.6970     1.3940 O.2   1 <1>  -0.6500 
 12 N       -4.0190    -4.5340     0.3560 N.am  1 <1>  -0.8490 
 13 C       -4.2090    -5.7640    -0.4440 C.3   1 <1>   0.1960 
 14 C       -4.9950    -4.3780     1.4550 C.3   1 <1>   0.1960 
 15 C       -5.1870    -6.6990     0.2970 C.3   1 <1>   0.4230 
 16 C       -6.4010    -4.9530     1.0820 C.3   1 <1>  -0.1600 
 17 N       -4.8140    -8.1680     0.4310 N.4   1 <1>  -0.9590 
 18 C       -6.6690    -6.1620     0.0270 C.3   1 <1>   0.0000 
 19 C       -5.2420    -9.0350    -0.6620 C.3   1 <1>   0.3430 
 20 C       -3.3810    -8.3950     0.8100 C.3   1 <1>   0.2630 
 21 C       -6.9400    -7.3010    -1.0920 C.3   1 <1>  -0.1600 
 22 C       -8.1750    -5.6340    -0.1520 C.3   1 <1>   0.1200 
 23 C       -6.7200    -8.7820    -0.7710 C.3   1 <1>  -0.1600 
 24 O       -9.0270    -6.5460     0.4710 O.3   1 <1>  -0.6800 
 25 H        0.6990    -3.2240    -3.6860 H     1 <1>   0.1500 
 26 H       -3.1580    -1.8240    -0.0760 H     1 <1>   0.0800 
 27 H       -3.8470    -2.3240    -1.6020 H     1 <1>   0.0800 
 28 H       -2.7840    -0.9450    -1.5040 H     1 <1>   0.0800 
 29 H        1.3120    -5.0660    -2.1550 H     1 <1>   0.1500 
 30 H       -0.0520    -5.4970    -0.1780 H     1 <1>   0.1500 
 31 H       -4.6370    -5.4820    -1.3900 H     1 <1>   0.0800 
 32 H       -3.2720    -6.2460    -0.6560 H     1 <1>   0.0800 
 33 H       -4.6300    -4.8850     2.3360 H     1 <1>   0.0800 
 34 H       -5.0740    -3.3340     1.7160 H     1 <1>   0.0800 
 35 H       -5.0110    -6.4780     1.3280 H     1 <1>   0.0800 
 36 H       -6.9280    -5.1530     2.0020 H     1 <1>   0.0800 
 37 H       -6.7860    -4.0240     0.6940 H     1 <1>   0.0800 
 38 H       -5.3780    -8.4840     1.2330 H     1 <1>   0.4500 
 39 H       -4.7400    -8.7730    -1.5800 H     1 <1>   0.0800 
 40 H       -5.0520   -10.0710    -0.4310 H     1 <1>   0.0800 
 41 H       -2.7250    -8.1220     0.0000 H     1 <1>   0.0800 
 42 H       -3.2160    -9.4330     1.0500 H     1 <1>   0.0800 
 43 H       -3.1220    -7.8010     1.6720 H     1 <1>   0.0800 
 44 H       -7.9100    -7.3390    -1.5640 H     1 <1>   0.0800 
 45 H       -6.3090    -7.0590    -1.9330 H     1 <1>   0.0800 
 46 H       -8.4670    -5.5130    -1.1830 H     1 <1>   0.0800 
 47 H       -8.4820    -4.6950     0.2770 H     1 <1>   0.0800 
 48 H       -7.1070    -9.3860    -1.5740 H     1 <1>   0.0800 
 49 H       -7.2430    -9.0620     0.1280 H     1 <1>   0.0800 
 50 H       -9.9630    -6.2730     0.3820 H     1 <1>   0.4000 
@<TRIPOS>BOND
  1   1   2  1   
  2   2   3  ar  
  3   2   4  ar  
  4   3   5  ar  
  5   3   6  1   
  6   4   7  ar  
  7   4  25  1   
  8   5   8  1   
  9   5   9  ar  
 10   6  26  1   
 11   6  27  1   
 12   6  28  1   
 13   7   9  ar  
 14   7  29  1   
 15   8  10  2   
 16   8  11  2   
 17   8  12  am  
 18   9  30  1   
 19  12  13  1   
 20  12  14  1   
 21  13  15  1   
 22  13  31  1   
 23  13  32  1   
 24  14  16  1   
 25  14  33  1   
 26  14  34  1   
 27  15  17  1   
 28  15  18  1   
 29  15  35  1   
 30  16  18  1   
 31  16  36  1   
 32  16  37  1   
 33  17  19  1   
 34  17  20  1   
 35  17  38  1   
 36  18  21  1   
 37  18  22  1   
 38  19  23  1   
 39  19  39  1   
 40  19  40  1   
 41  20  41  1   
 42  20  42  1   
 43  20  43  1   
 44  21  23  1   
 45  21  44  1   
 46  21  45  1   
 47  22  24  1   
 48  22  46  1   
 49  22  47  1   
 50  23  48  1   
 51  23  49  1   
 52  24  50  1   
@<TRIPOS>SUBSTRUCTURE
  1 ****  13 GROUP 4 **** **** 0

# MOE 2024.06 (io_trps.svl 2023.06)
