@<TRIPOS>MOLECULE
NONAME
44 47 1 0 0 
SMALL
USER_CHARGES


@<TRIPOS>ATOM
  1 N       -0.3810    -0.2590    -1.8440 N.ar  1 <1>  -0.1790 
  2 C        0.2280     0.2470    -0.7320 C.ar  1 <1>   0.7710 
  3 C       -0.9490    -1.4720    -1.8780 C.ar  1 <1>   0.4610 
  4 N        0.3060    -0.4050     0.3970 N.ar  1 <1>  -0.5670 
  5 N        0.7520     1.4840    -0.8420 N.pl3 1 <1>  -0.8690 
  6 N       -1.5370    -1.9220    -3.0000 N.pl3 1 <1>  -0.9000 
  7 C       -0.8810    -2.2030    -0.6870 C.ar  1 <1>   0.0000 
  8 C       -0.2570    -1.6390     0.4010 C.ar  1 <1>   0.1050 
  9 C        1.7690     2.0610     0.0650 C.3   1 <1>   0.3900 
 10 C       -1.3000    -3.4600    -0.2260 C.2   1 <1>   0.1390 
 11 N       -0.3350    -2.5460     1.4070 N.pl3 1 <1>   0.3140 
 12 C        2.8030     2.7590    -0.8170 C.2   1 <1>   0.1080 
 13 N       -0.9820    -3.6680     1.0060 N.2   1 <1>  -0.7070 
 14 C        0.1810    -2.4170     2.7780 C.3   1 <1>   0.0160 
 15 N        2.7130     2.7980    -2.1220 N.2   1 <1>  -0.7070 
 16 C        3.9350     3.4250    -0.3510 C.2   1 <1>  -0.1810 
 17 N        3.7970     3.5010    -2.5120 N.pl3 1 <1>   0.3000 
 18 C        4.5460     3.8860    -1.4600 C.2   1 <1>  -0.3320 
 19 C        4.4050     3.6080     1.0820 C.3   1 <1>   0.0210 
 20 C        5.8260     4.6920    -1.5770 C.3   1 <1>   0.0200 
 21 C        4.6150     5.0870     1.4290 C.3   1 <1>  -0.1600 
 22 C        5.7690     5.9640    -0.7220 C.3   1 <1>  -0.1600 
 23 C        5.8670     5.7160     0.7940 C.3   1 <1>  -0.1600 
 24 H       -0.3910     0.3450    -2.6520 H     1 <1>   0.4570 
 25 H        0.9670     1.9040    -1.7600 H     1 <1>   0.4000 
 26 H       -1.9820    -2.8480    -3.0490 H     1 <1>   0.4000 
 27 H       -1.6100    -1.4280    -3.8970 H     1 <1>   0.4000 
 28 H        2.2500     1.2950     0.6490 H     1 <1>   0.0800 
 29 H        1.3080     2.7780     0.7210 H     1 <1>   0.0800 
 30 H       -1.8300    -4.1800    -0.8270 H     1 <1>   0.1500 
 31 H        0.6360    -1.4530     2.9080 H     1 <1>   0.0800 
 32 H        0.9080    -3.1890     2.9510 H     1 <1>   0.0800 
 33 H       -0.6330    -2.5310     3.4690 H     1 <1>   0.0800 
 34 H        4.0020     3.7060    -3.4980 H     1 <1>   0.2700 
 35 H        5.3220     3.0650     1.2270 H     1 <1>   0.0800 
 36 H        3.6750     3.1980     1.7550 H     1 <1>   0.0800 
 37 H        5.9780     4.9750    -2.6040 H     1 <1>   0.0800 
 38 H        6.6630     4.0850    -1.2780 H     1 <1>   0.0800 
 39 H        4.7150     5.1630     2.4980 H     1 <1>   0.0800 
 40 H        3.7410     5.6510     1.1490 H     1 <1>   0.0800 
 41 H        4.8660     6.5060    -0.9450 H     1 <1>   0.0800 
 42 H        6.5970     6.5900    -1.0080 H     1 <1>   0.0800 
 43 H        6.7300     5.1100     1.0100 H     1 <1>   0.0800 
 44 H        6.0270     6.6700     1.2680 H     1 <1>   0.0800 
@<TRIPOS>BOND
  1   1   2  ar  
  2   1   3  ar  
  3   1  24  1   
  4   2   4  ar  
  5   2   5  1   
  6   3   6  1   
  7   3   7  ar  
  8   4   8  ar  
  9   5   9  1   
 10   5  25  1   
 11   6  26  1   
 12   6  27  1   
 13   7   8  ar  
 14   7  10  1   
 15   8  11  1   
 16   9  12  1   
 17   9  28  1   
 18   9  29  1   
 19  10  13  2   
 20  10  30  1   
 21  11  13  1   
 22  11  14  1   
 23  12  15  2   
 24  12  16  1   
 25  14  31  1   
 26  14  32  1   
 27  14  33  1   
 28  15  17  1   
 29  16  18  2   
 30  16  19  1   
 31  17  18  1   
 32  17  34  1   
 33  18  20  1   
 34  19  21  1   
 35  19  35  1   
 36  19  36  1   
 37  20  22  1   
 38  20  37  1   
 39  20  38  1   
 40  21  23  1   
 41  21  39  1   
 42  21  40  1   
 43  22  23  1   
 44  22  41  1   
 45  22  42  1   
 46  23  43  1   
 47  23  44  1   
@<TRIPOS>SUBSTRUCTURE
  1 ****   9 GROUP 4 **** **** 0

# MOE 2024.06 (io_trps.svl 2023.06)
