@<TRIPOS>MOLECULE
NONAME
55 57 1 0 0 
SMALL
USER_CHARGES


@<TRIPOS>ATOM
  1 O        0.3430     0.2070    -1.4390 O.3   1 <1>  -0.5600 
  2 C        1.5800    -0.4590    -1.5430 C.3   1 <1>   0.2000 
  3 C        0.4070     1.6020    -1.4450 C.3   1 <1>   0.1200 
  4 C        2.5600    -0.0010    -0.4290 C.3   1 <1>   0.5660 
  5 C        1.3290    -1.9730    -1.4470 C.3   1 <1>   0.1200 
  6 C        1.2490     2.0980    -0.2570 C.3   1 <1>   0.3430 
  7 N        2.6180     1.4860    -0.2640 N.4   1 <1>  -0.9590 
  8 C        3.9760    -0.4940    -0.6970 C.ar  1 <1>  -0.1440 
  9 O        1.0610    -2.3320    -0.1270 O.3   1 <1>  -0.6800 
 10 C        3.4100     1.8700     0.9340 C.3   1 <1>   0.4870 
 11 C        4.5490    -1.3960     0.1880 C.ar  1 <1>  -0.1500 
 12 C        4.7100    -0.0630    -1.7980 C.ar  1 <1>  -0.1500 
 13 C        3.6630     3.3600     0.8550 C.ar  1 <1>  -0.1440 
 14 C        5.8390    -1.8570    -0.0050 C.ar  1 <1>   0.0820 
 15 C        6.0050    -0.5120    -1.9900 C.ar  1 <1>  -0.1500 
 16 C        4.5580     3.8570    -0.0800 C.ar  1 <1>  -0.1500 
 17 C        3.0010     4.2400     1.6990 C.ar  1 <1>  -0.1500 
 18 O        6.3120    -2.7530     0.8950 O.3   1 <1>  -0.3620 
 19 C        6.5850    -1.3920    -1.0930 C.ar  1 <1>   0.0820 
 20 C        4.7810     5.2180    -0.1930 C.ar  1 <1>   0.0820 
 21 C        3.2240     5.6030     1.5960 C.ar  1 <1>  -0.1500 
 22 C        6.6460    -4.0350     0.4080 C.3   1 <1>   0.0400 
 23 O        7.8670    -1.7600    -1.3230 O.3   1 <1>  -0.3630 
 24 O        5.6610     5.6080    -1.1460 O.3   1 <1>  -0.3620 
 25 C        4.1080     6.0950     0.6520 C.ar  1 <1>  -0.1500 
 26 C        8.8280    -1.3290    -0.3820 C.3   1 <1>   0.0400 
 27 C        6.0370     6.9620    -1.2870 C.3   1 <1>   0.0400 
 28 H        1.9830    -0.2370    -2.5150 H     1 <1>   0.0800 
 29 H        0.8200     1.9310    -2.3840 H     1 <1>   0.0800 
 30 H       -0.6000     1.9740    -1.3650 H     1 <1>   0.0800 
 31 H        2.2170    -0.4360     0.4950 H     1 <1>   0.0800 
 32 H        2.1970    -2.5230    -1.7670 H     1 <1>   0.0800 
 33 H        0.4880    -2.2500    -2.0610 H     1 <1>   0.0800 
 34 H        0.7350     1.8370     0.6540 H     1 <1>   0.0800 
 35 H        1.3260     3.1730    -0.2980 H     1 <1>   0.0800 
 36 H        3.1310     1.8580    -1.0680 H     1 <1>   0.4500 
 37 H        0.6710    -3.2320    -0.0870 H     1 <1>   0.4000 
 38 H        2.8750     1.6250     1.8370 H     1 <1>   0.0800 
 39 H        4.3560     1.3520     0.9430 H     1 <1>   0.0800 
 40 H        4.0020    -1.7650     1.0400 H     1 <1>   0.1500 
 41 H        4.2970     0.6210    -2.5200 H     1 <1>   0.1500 
 42 H        6.5820    -0.1800    -2.8360 H     1 <1>   0.1500 
 43 H        5.1060     3.2030    -0.7370 H     1 <1>   0.1500 
 44 H        2.3110     3.8830     2.4450 H     1 <1>   0.1500 
 45 H        2.7110     6.2850     2.2530 H     1 <1>   0.1500 
 46 H        6.8650    -4.6680     1.2490 H     1 <1>   0.0800 
 47 H        7.5090    -3.9640    -0.2280 H     1 <1>   0.0800 
 48 H        5.8090    -4.4300    -0.1410 H     1 <1>   0.0800 
 49 H        4.2610     7.1570     0.5910 H     1 <1>   0.1500 
 50 H        9.7980    -1.6330    -0.7310 H     1 <1>   0.0800 
 51 H        8.6240    -1.7820     0.5710 H     1 <1>   0.0800 
 52 H        8.7830    -0.2580    -0.3050 H     1 <1>   0.0800 
 53 H        6.7670     7.0260    -2.0750 H     1 <1>   0.0800 
 54 H        6.4670     7.3040    -0.3630 H     1 <1>   0.0800 
 55 H        5.1690     7.5420    -1.5470 H     1 <1>   0.0800 
@<TRIPOS>BOND
  1   1   2  1   
  2   1   3  1   
  3   2   4  1   
  4   2   5  1   
  5   2  28  1   
  6   3   6  1   
  7   3  29  1   
  8   3  30  1   
  9   4   7  1   
 10   4   8  1   
 11   4  31  1   
 12   5   9  1   
 13   5  32  1   
 14   5  33  1   
 15   6   7  1   
 16   6  34  1   
 17   6  35  1   
 18   7  10  1   
 19   7  36  1   
 20   8  11  ar  
 21   8  12  ar  
 22   9  37  1   
 23  10  13  1   
 24  10  38  1   
 25  10  39  1   
 26  11  14  ar  
 27  11  40  1   
 28  12  15  ar  
 29  12  41  1   
 30  13  16  ar  
 31  13  17  ar  
 32  14  18  1   
 33  14  19  ar  
 34  15  19  ar  
 35  15  42  1   
 36  16  20  ar  
 37  16  43  1   
 38  17  21  ar  
 39  17  44  1   
 40  18  22  1   
 41  19  23  1   
 42  20  24  1   
 43  20  25  ar  
 44  21  25  ar  
 45  21  45  1   
 46  22  46  1   
 47  22  47  1   
 48  22  48  1   
 49  23  26  1   
 50  24  27  1   
 51  25  49  1   
 52  26  50  1   
 53  26  51  1   
 54  26  52  1   
 55  27  53  1   
 56  27  54  1   
 57  27  55  1   
@<TRIPOS>SUBSTRUCTURE
  1 ****   7 GROUP 4 **** **** 0

# MOE 2024.06 (io_trps.svl 2023.06)
