@<TRIPOS>MOLECULE
NONAME
61 63 1 0 0 
SMALL
USER_CHARGES


@<TRIPOS>ATOM
  1 O       -0.2760    -1.4430    -1.6680 O.3   1 <1>  -0.6800 
  2 C        0.7770    -2.2960    -1.4030 C.3   1 <1>   0.1200 
  3 C        1.2070    -2.1730     0.0910 C.3   1 <1>   0.0000 
  4 C        2.6380    -2.7400     0.2910 C.3   1 <1>   0.4230 
  5 C        1.2240    -0.6900     0.5540 C.3   1 <1>  -0.1600 
  6 C        0.2060    -2.9440     0.9980 C.3   1 <1>  -0.1600 
  7 N        2.7490    -4.2380    -0.0110 N.4   1 <1>  -0.9590 
  8 C        3.7000    -1.8320    -0.4160 C.3   1 <1>   0.3430 
  9 C        2.1920     0.1690    -0.2550 C.3   1 <1>   0.3430 
 10 C        0.6810    -4.3540     1.3920 C.3   1 <1>  -0.1600 
 11 C        1.4930    -5.0180     0.2830 C.3   1 <1>   0.3430 
 12 C        3.2390    -4.6210    -1.3790 C.3   1 <1>   0.2630 
 13 N        3.5830    -0.3650    -0.0800 N.4   1 <1>  -0.9590 
 14 C        4.5760     0.4650    -0.8290 C.3   1 <1>   0.4810 
 15 C        4.9110     1.6860     0.0100 C.2   1 <1>  -0.1670 
 16 C        3.9130     2.7310    -0.0300 C.ar  1 <1>   0.0280 
 17 C        6.0410     1.8060     0.7320 C.2   1 <1>  -0.2880 
 18 C        3.4410     3.2470    -1.2350 C.ar  1 <1>  -0.1500 
 19 C        3.3760     3.2350     1.1510 C.ar  1 <1>  -0.1500 
 20 C        7.2260     0.8650     0.9230 C.3   1 <1>   0.0580 
 21 C        2.4430     4.2050    -1.2590 C.ar  1 <1>  -0.1500 
 22 C        2.3790     4.1930     1.1320 C.ar  1 <1>  -0.1500 
 23 C        8.0690     0.7870    -0.3520 C.3   1 <1>  -0.2400 
 24 C        6.8150    -0.5250     1.4140 C.3   1 <1>  -0.2400 
 25 C        1.9070     4.6760    -0.0740 C.ar  1 <1>  -0.1500 
 26 H       -0.7170    -1.6410    -2.5230 H     1 <1>   0.4000 
 27 H        0.4510    -3.2950    -1.6340 H     1 <1>   0.0800 
 28 H        1.5690    -2.0270    -2.0790 H     1 <1>   0.0800 
 29 H        2.8320    -2.6380     1.3460 H     1 <1>   0.0800 
 30 H        1.4880    -0.6170     1.5950 H     1 <1>   0.0800 
 31 H        0.2400    -0.2620     0.4650 H     1 <1>   0.0800 
 32 H        0.0150    -2.4030     1.9100 H     1 <1>   0.0800 
 33 H       -0.7470    -3.0160     0.4980 H     1 <1>   0.0800 
 34 H        3.4380    -4.6140     0.6620 H     1 <1>   0.4500 
 35 H        3.5880    -1.9440    -1.4810 H     1 <1>   0.0800 
 36 H        4.6830    -2.1770    -0.1440 H     1 <1>   0.0800 
 37 H        2.1280     1.1870     0.0930 H     1 <1>   0.0800 
 38 H        1.9070     0.1560    -1.2960 H     1 <1>   0.0800 
 39 H       -0.1790    -4.9640     1.6120 H     1 <1>   0.0800 
 40 H        1.2720    -4.3140     2.2910 H     1 <1>   0.0800 
 41 H        0.8780    -5.0730    -0.6010 H     1 <1>   0.0800 
 42 H        1.7450    -6.0270     0.5710 H     1 <1>   0.0800 
 43 H        2.5580    -4.2730    -2.1390 H     1 <1>   0.0800 
 44 H        3.3130    -5.6940    -1.4600 H     1 <1>   0.0800 
 45 H        4.2160    -4.2060    -1.5680 H     1 <1>   0.0800 
 46 H        3.8400    -0.1950     0.9050 H     1 <1>   0.4500 
 47 H        5.4790    -0.0970    -0.9890 H     1 <1>   0.0800 
 48 H        4.1870     0.7600    -1.7900 H     1 <1>   0.0800 
 49 H        6.2140     2.7160     1.2870 H     1 <1>   0.1500 
 50 H        3.8580     2.9170    -2.1690 H     1 <1>   0.1500 
 51 H        3.7400     2.8780     2.0990 H     1 <1>   0.1500 
 52 H        7.8480     1.2960     1.6920 H     1 <1>   0.0800 
 53 H        2.0860     4.5950    -2.1970 H     1 <1>   0.1500 
 54 H        1.9730     4.5710     2.0560 H     1 <1>   0.1500 
 55 H        7.5240     0.3470    -1.1640 H     1 <1>   0.0800 
 56 H        8.9540     0.2020    -0.1740 H     1 <1>   0.0800 
 57 H        8.3770     1.7760    -0.6450 H     1 <1>   0.0800 
 58 H        6.3570    -1.0990     0.6360 H     1 <1>   0.0800 
 59 H        6.1470    -0.4380     2.2520 H     1 <1>   0.0800 
 60 H        7.6910    -1.0570     1.7430 H     1 <1>   0.0800 
 61 H        1.1320     5.4240    -0.0910 H     1 <1>   0.1500 
@<TRIPOS>BOND
  1   1   2  1   
  2   1  26  1   
  3   2   3  1   
  4   2  27  1   
  5   2  28  1   
  6   3   4  1   
  7   3   5  1   
  8   3   6  1   
  9   4   7  1   
 10   4   8  1   
 11   4  29  1   
 12   5   9  1   
 13   5  30  1   
 14   5  31  1   
 15   6  10  1   
 16   6  32  1   
 17   6  33  1   
 18   7  11  1   
 19   7  12  1   
 20   7  34  1   
 21   8  13  1   
 22   8  35  1   
 23   8  36  1   
 24   9  13  1   
 25   9  37  1   
 26   9  38  1   
 27  10  11  1   
 28  10  39  1   
 29  10  40  1   
 30  11  41  1   
 31  11  42  1   
 32  12  43  1   
 33  12  44  1   
 34  12  45  1   
 35  13  14  1   
 36  13  46  1   
 37  14  15  1   
 38  14  47  1   
 39  14  48  1   
 40  15  16  1   
 41  15  17  2   
 42  16  18  ar  
 43  16  19  ar  
 44  17  20  1   
 45  17  49  1   
 46  18  21  ar  
 47  18  50  1   
 48  19  22  ar  
 49  19  51  1   
 50  20  23  1   
 51  20  24  1   
 52  20  52  1   
 53  21  25  ar  
 54  21  53  1   
 55  22  25  ar  
 56  22  54  1   
 57  23  55  1   
 58  23  56  1   
 59  23  57  1   
 60  24  58  1   
 61  24  59  1   
 62  24  60  1   
 63  25  61  1   
@<TRIPOS>SUBSTRUCTURE
  1 ****  13 GROUP 4 **** **** 0

# MOE 2024.06 (io_trps.svl 2023.06)
