@<TRIPOS>MOLECULE
NONAME
53 54 1 0 0 
SMALL
USER_CHARGES


@<TRIPOS>ATOM
  1 O       -1.4390    -0.0280    -0.2360 O.2   1 <1>  -0.5700 
  2 C       -2.0410     0.8260     0.3880 C.2   1 <1>   0.5440 
  3 N       -3.0690     0.4200     1.2100 N.am  1 <1>  -0.6600 
  4 C       -1.7520     2.2340     0.1820 C.ar  1 <1>   0.0860 
  5 C       -3.0680    -0.9620     1.7630 C.3   1 <1>   0.3200 
  6 C       -4.4080     1.0840     1.1480 C.3   1 <1>   0.1400 
  7 C       -1.4030     2.7190    -1.0750 C.ar  1 <1>  -0.1500 
  8 C       -1.8250     3.1600     1.2190 C.ar  1 <1>  -0.1500 
  9 C       -3.8980    -1.8160     0.8320 C.2   1 <1>  -0.3320 
 10 C       -4.9340     1.0820    -0.3040 C.3   1 <1>   0.3430 
 11 C       -1.1710     4.0650    -1.2900 C.ar  1 <1>  -0.1500 
 12 C       -1.5930     4.5070     1.0070 C.ar  1 <1>  -0.1500 
 13 N       -3.4850    -2.1190    -0.4120 N.pl3 1 <1>   0.0330 
 14 C       -5.1120    -2.3860     0.9870 C.2   1 <1>   0.0770 
 15 N       -6.4260     1.2090    -0.4090 N.4   1 <1>  -0.9590 
 16 C       -1.2670     4.9900    -0.2570 C.ar  1 <1>  -0.1430 
 17 C       -4.5020    -2.8210    -0.9540 C.2   1 <1>   0.0360 
 18 N       -5.5070    -2.9830    -0.1520 N.2   1 <1>  -0.5650 
 19 C       -7.0980    -0.0910    -0.0790 C.3   1 <1>   0.2630 
 20 C       -6.8060     1.6250    -1.7930 C.3   1 <1>   0.2630 
 21 C       -0.9970     6.4840    -0.5460 C.3   1 <1>   0.1430 
 22 C       -1.1510     7.3790     0.6960 C.3   1 <1>  -0.2400 
 23 C        0.4390     6.6540    -1.0640 C.3   1 <1>  -0.2400 
 24 C       -1.9850     6.9910    -1.6070 C.3   1 <1>  -0.2400 
 25 H       -3.4880    -0.9590     2.7540 H     1 <1>   0.0800 
 26 H       -2.0610    -1.3430     1.8250 H     1 <1>   0.0800 
 27 H       -4.3280     2.0950     1.5060 H     1 <1>   0.0800 
 28 H       -5.0900     0.5530     1.7880 H     1 <1>   0.0800 
 29 H       -1.3060     2.0290    -1.8960 H     1 <1>   0.1500 
 30 H       -2.0580     2.8200     2.2130 H     1 <1>   0.1500 
 31 H       -4.6320     0.1620    -0.7760 H     1 <1>   0.0800 
 32 H       -4.4620     1.8950    -0.8310 H     1 <1>   0.0800 
 33 H       -0.9050     4.3870    -2.2810 H     1 <1>   0.1500 
 34 H       -1.6670     5.1650     1.8530 H     1 <1>   0.1500 
 35 H       -2.5850    -1.8430    -0.8330 H     1 <1>   0.2700 
 36 H       -5.7390    -2.3900     1.8640 H     1 <1>   0.1500 
 37 H       -6.7520     1.9350     0.2470 H     1 <1>   0.4500 
 38 H       -4.4580    -3.2030    -1.9600 H     1 <1>   0.1500 
 39 H       -6.7560    -0.8710    -0.7420 H     1 <1>   0.0800 
 40 H       -8.1670    -0.0010    -0.1790 H     1 <1>   0.0800 
 41 H       -6.8740    -0.3880     0.9320 H     1 <1>   0.0800 
 42 H       -6.4840     0.8850    -2.5080 H     1 <1>   0.0800 
 43 H       -6.3470     2.5690    -2.0420 H     1 <1>   0.0800 
 44 H       -7.8760     1.7340    -1.8710 H     1 <1>   0.0800 
 45 H       -0.4530     7.0890     1.4610 H     1 <1>   0.0800 
 46 H       -2.1500     7.3150     1.0880 H     1 <1>   0.0800 
 47 H       -0.9580     8.4080     0.4460 H     1 <1>   0.0800 
 48 H        1.1390     6.2730    -0.3410 H     1 <1>   0.0800 
 49 H        0.6600     7.6920    -1.2370 H     1 <1>   0.0800 
 50 H        0.5860     6.1250    -1.9870 H     1 <1>   0.0800 
 51 H       -2.9960     6.8490    -1.2680 H     1 <1>   0.0800 
 52 H       -1.8620     6.4660    -2.5360 H     1 <1>   0.0800 
 53 H       -1.8330     8.0380    -1.7960 H     1 <1>   0.0800 
@<TRIPOS>BOND
  1   1   2  2   
  2   2   3  am  
  3   2   4  1   
  4   3   5  1   
  5   3   6  1   
  6   4   7  ar  
  7   4   8  ar  
  8   5   9  1   
  9   5  25  1   
 10   5  26  1   
 11   6  10  1   
 12   6  27  1   
 13   6  28  1   
 14   7  11  ar  
 15   7  29  1   
 16   8  12  ar  
 17   8  30  1   
 18   9  13  1   
 19   9  14  2   
 20  10  15  1   
 21  10  31  1   
 22  10  32  1   
 23  11  16  ar  
 24  11  33  1   
 25  12  16  ar  
 26  12  34  1   
 27  13  17  1   
 28  13  35  1   
 29  14  18  1   
 30  14  36  1   
 31  15  19  1   
 32  15  20  1   
 33  15  37  1   
 34  16  21  1   
 35  17  18  2   
 36  17  38  1   
 37  19  39  1   
 38  19  40  1   
 39  19  41  1   
 40  20  42  1   
 41  20  43  1   
 42  20  44  1   
 43  21  22  1   
 44  21  23  1   
 45  21  24  1   
 46  22  45  1   
 47  22  46  1   
 48  22  47  1   
 49  23  48  1   
 50  23  49  1   
 51  23  50  1   
 52  24  51  1   
 53  24  52  1   
 54  24  53  1   
@<TRIPOS>SUBSTRUCTURE
  1 ****   4 GROUP 4 **** **** 0

# MOE 2024.06 (io_trps.svl 2023.06)
