@<TRIPOS>MOLECULE
NONAME
42 44 1 0 0 
SMALL
USER_CHARGES


@<TRIPOS>ATOM
  1 CL      -2.5020     1.0510     2.2280 Cl    1 <1>  -0.1230 
  2 C       -2.6720     1.0450     0.4810 C.2   1 <1>   0.1230 
  3 C       -2.9780    -0.0680    -0.2850 C.2   1 <1>   0.1080 
  4 C       -2.5410     2.0790    -0.3720 C.2   1 <1>  -0.3320 
  5 N       -3.0440     0.2340    -1.5550 N.2   1 <1>  -0.7070 
  6 C       -3.2090    -1.4640     0.2750 C.3   1 <1>   0.5240 
  7 N       -2.7670     1.5640    -1.6030 N.pl3 1 <1>   0.3000 
  8 C       -2.2090     3.5370    -0.0990 C.3   1 <1>  -0.0600 
  9 N       -4.0340    -2.2190    -0.7100 N.4   1 <1>  -0.9590 
 10 C       -5.4760    -1.8780    -0.5520 C.3   1 <1>   0.3430 
 11 C       -3.9030    -3.6930    -0.5310 C.3   1 <1>   0.3430 
 12 C       -6.0510    -2.9780     0.3440 C.3   1 <1>   0.2000 
 13 C       -5.2870    -4.2180    -0.1260 C.3   1 <1>  -0.0800 
 14 O       -5.7180    -2.6830     1.6650 O.3   1 <1>  -0.6800 
 15 C       -5.2080    -5.3860     0.8760 C.3   1 <1>   0.0210 
 16 C       -4.4600    -6.5660     0.2840 C.2   1 <1>   0.1080 
 17 N       -3.2260    -6.4910    -0.1120 N.2   1 <1>  -0.7070 
 18 C       -4.9940    -7.8360     0.1040 C.2   1 <1>  -0.1500 
 19 N       -2.9340    -7.7340    -0.5510 N.pl3 1 <1>   0.3000 
 20 C       -3.9930    -8.5620    -0.4340 C.2   1 <1>  -0.3320 
 21 C       -3.9790   -10.0230    -0.8450 C.3   1 <1>  -0.0600 
 22 H       -3.7030    -1.4130     1.2310 H     1 <1>   0.0800 
 23 H       -2.2540    -1.9450     0.4010 H     1 <1>   0.0800 
 24 H       -2.7370     2.0910    -2.4870 H     1 <1>   0.2700 
 25 H       -2.0740     3.6990     0.9560 H     1 <1>   0.0800 
 26 H       -3.0070     4.1730    -0.4410 H     1 <1>   0.0800 
 27 H       -1.3000     3.8150    -0.6030 H     1 <1>   0.0800 
 28 H       -3.6930    -1.8730    -1.6250 H     1 <1>   0.4500 
 29 H       -5.6220    -0.8990    -0.1250 H     1 <1>   0.0800 
 30 H       -5.9580    -1.9180    -1.5150 H     1 <1>   0.0800 
 31 H       -3.5740    -4.1730    -1.4390 H     1 <1>   0.0800 
 32 H       -3.1900    -3.9150     0.2470 H     1 <1>   0.0800 
 33 H       -7.1210    -3.0630     0.2600 H     1 <1>   0.0800 
 34 H       -5.7590    -4.5830    -1.0220 H     1 <1>   0.0800 
 35 H       -6.2370    -3.2300     2.2930 H     1 <1>   0.4000 
 36 H       -6.1990    -5.7000     1.1500 H     1 <1>   0.0800 
 37 H       -4.6920    -5.0850     1.7710 H     1 <1>   0.0800 
 38 H       -5.9920    -8.1540     0.3510 H     1 <1>   0.1500 
 39 H       -2.0090    -7.9890    -0.9190 H     1 <1>   0.2700 
 40 H       -4.9380   -10.4710    -0.6510 H     1 <1>   0.0800 
 41 H       -3.2330   -10.5600    -0.2870 H     1 <1>   0.0800 
 42 H       -3.7660   -10.1150    -1.8950 H     1 <1>   0.0800 
@<TRIPOS>BOND
  1   1   2  1   
  2   2   3  1   
  3   2   4  2   
  4   3   5  2   
  5   3   6  1   
  6   4   7  1   
  7   4   8  1   
  8   5   7  1   
  9   6   9  1   
 10   6  22  1   
 11   6  23  1   
 12   7  24  1   
 13   8  25  1   
 14   8  26  1   
 15   8  27  1   
 16   9  10  1   
 17   9  11  1   
 18   9  28  1   
 19  10  12  1   
 20  10  29  1   
 21  10  30  1   
 22  11  13  1   
 23  11  31  1   
 24  11  32  1   
 25  12  13  1   
 26  12  14  1   
 27  12  33  1   
 28  13  15  1   
 29  13  34  1   
 30  14  35  1   
 31  15  16  1   
 32  15  36  1   
 33  15  37  1   
 34  16  17  2   
 35  16  18  1   
 36  17  19  1   
 37  18  20  2   
 38  18  38  1   
 39  19  20  1   
 40  19  39  1   
 41  20  21  1   
 42  21  40  1   
 43  21  41  1   
 44  21  42  1   
@<TRIPOS>SUBSTRUCTURE
  1 ****  11 GROUP 4 **** **** 0

# MOE 2024.06 (io_trps.svl 2023.06)
