@<TRIPOS>MOLECULE
NONAME
53 55 1 0 0 
SMALL
USER_CHARGES


@<TRIPOS>ATOM
  1 O       -2.5040    -0.4200     0.0490 O.2   1 <1>  -0.5700 
  2 C       -1.8310    -1.4210     0.1290 C.2   1 <1>   0.5690 
  3 N       -2.1020    -2.5440    -0.6120 N.am  1 <1>  -0.6600 
  4 C       -0.6520    -1.3960     1.0890 C.3   1 <1>  -0.0990 
  5 C       -1.4090    -3.8490    -0.4250 C.3   1 <1>   0.1400 
  6 C       -3.2350    -2.5550    -1.5700 C.3   1 <1>   0.1400 
  7 C       -0.1790    -2.7930     1.5130 C.3   1 <1>  -0.1600 
  8 C       -0.0560    -3.6860     0.2760 C.3   1 <1>  -0.1600 
  9 C       -4.5110    -2.9810    -0.8420 C.3   1 <1>  -0.1600 
 10 C       -5.7530    -2.7680    -1.7220 C.3   1 <1>  -0.0990 
 11 C       -7.0430    -3.0800    -0.9790 C.2   1 <1>   0.5690 
 12 O       -7.5900    -4.1220    -1.2540 O.2   1 <1>  -0.5700 
 13 N       -7.5530    -2.2150    -0.0410 N.am  1 <1>  -0.6600 
 14 C       -8.8100    -2.5430     0.6920 C.3   1 <1>   0.1400 
 15 C       -6.9630    -0.8820     0.3080 C.3   1 <1>   0.1400 
 16 C       -9.9280    -1.5410     0.3260 C.3   1 <1>   0.0000 
 17 C       -8.0190     0.0830     0.8760 C.3   1 <1>  -0.1600 
 18 C      -11.0690    -1.6390     1.3560 C.3   1 <1>   0.2000 
 19 C       -9.3680    -0.0920     0.1600 C.3   1 <1>  -0.1600 
 20 C      -10.6660    -1.9500    -0.9600 C.3   1 <1>  -0.1600 
 21 O      -10.8270    -0.8910     2.4930 O.3   1 <1>  -0.6800 
 22 C      -12.3330    -1.1500     0.6460 C.3   1 <1>  -0.1600 
 23 C      -12.0480    -1.2950    -0.8560 C.3   1 <1>  -0.1600 
 24 H        0.1510    -0.8800     0.5970 H     1 <1>   0.0800 
 25 H       -0.9250    -0.8280     1.9590 H     1 <1>   0.0800 
 26 H       -2.0420    -4.4890     0.1660 H     1 <1>   0.0800 
 27 H       -1.2560    -4.3170    -1.3820 H     1 <1>   0.0800 
 28 H       -3.3620    -1.5650    -1.9750 H     1 <1>   0.0800 
 29 H       -3.0250    -3.2230    -2.3880 H     1 <1>   0.0800 
 30 H        0.7690    -2.7200     2.0170 H     1 <1>   0.0800 
 31 H       -0.8930    -3.2210     2.1960 H     1 <1>   0.0800 
 32 H        0.3110    -4.6550     0.5610 H     1 <1>   0.0800 
 33 H        0.6500    -3.2590    -0.4150 H     1 <1>   0.0800 
 34 H       -4.4460    -4.0180    -0.5640 H     1 <1>   0.0800 
 35 H       -4.6070    -2.3970     0.0550 H     1 <1>   0.0800 
 36 H       -5.6930    -3.4170    -2.5770 H     1 <1>   0.0800 
 37 H       -5.7890    -1.7620    -2.0920 H     1 <1>   0.0800 
 38 H       -9.1270    -3.5510     0.4870 H     1 <1>   0.0800 
 39 H       -8.6080    -2.4850     1.7480 H     1 <1>   0.0800 
 40 H       -6.1740    -1.0140     1.0270 H     1 <1>   0.0800 
 41 H       -6.5420    -0.4350    -0.5740 H     1 <1>   0.0800 
 42 H       -8.1370    -0.1010     1.9300 H     1 <1>   0.0800 
 43 H       -7.6680     1.0930     0.7640 H     1 <1>   0.0800 
 44 H      -11.2080    -2.6640     1.6580 H     1 <1>   0.0800 
 45 H       -9.1950     0.1110    -0.8830 H     1 <1>   0.0800 
 46 H      -10.0720     0.6450     0.5000 H     1 <1>   0.0800 
 47 H      -10.1410    -1.6680    -1.8560 H     1 <1>   0.0800 
 48 H      -10.7930    -3.0200    -0.9780 H     1 <1>   0.0800 
 49 H      -10.6130     0.0250     2.2350 H     1 <1>   0.4000 
 50 H      -13.1720    -1.7570     0.9340 H     1 <1>   0.0800 
 51 H      -12.5400    -0.1200     0.8790 H     1 <1>   0.0800 
 52 H      -12.7970    -1.8920    -1.3480 H     1 <1>   0.0800 
 53 H      -12.0230    -0.3210    -1.3150 H     1 <1>   0.0800 
@<TRIPOS>BOND
  1   1   2  2   
  2   2   3  am  
  3   2   4  1   
  4   3   5  1   
  5   3   6  1   
  6   4   7  1   
  7   4  24  1   
  8   4  25  1   
  9   5   8  1   
 10   5  26  1   
 11   5  27  1   
 12   6   9  1   
 13   6  28  1   
 14   6  29  1   
 15   7   8  1   
 16   7  30  1   
 17   7  31  1   
 18   8  32  1   
 19   8  33  1   
 20   9  10  1   
 21   9  34  1   
 22   9  35  1   
 23  10  11  1   
 24  10  36  1   
 25  10  37  1   
 26  11  12  2   
 27  11  13  am  
 28  13  14  1   
 29  13  15  1   
 30  14  16  1   
 31  14  38  1   
 32  14  39  1   
 33  15  17  1   
 34  15  40  1   
 35  15  41  1   
 36  16  18  1   
 37  16  19  1   
 38  16  20  1   
 39  17  19  1   
 40  17  42  1   
 41  17  43  1   
 42  18  21  1   
 43  18  22  1   
 44  18  44  1   
 45  19  45  1   
 46  19  46  1   
 47  20  23  1   
 48  20  47  1   
 49  20  48  1   
 50  21  49  1   
 51  22  23  1   
 52  22  50  1   
 53  22  51  1   
 54  23  52  1   
 55  23  53  1   
@<TRIPOS>SUBSTRUCTURE
  1 ****  13 GROUP 4 **** **** 0

# MOE 2024.06 (io_trps.svl 2023.06)
