@<TRIPOS>MOLECULE
NONAME
45 46 1 0 0 
SMALL
USER_CHARGES


@<TRIPOS>ATOM
  1 CL      -1.0250    -2.6170    -3.8640 Cl    1 <1>  -0.1770 
  2 C       -1.8910    -2.5540    -2.3460 C.ar  1 <1>   0.1770 
  3 C       -2.1540    -1.3450    -1.7240 C.ar  1 <1>   0.1900 
  4 C       -2.3190    -3.7310    -1.7630 C.ar  1 <1>  -0.1500 
  5 F       -1.7530    -0.2250    -2.2710 F     1 <1>  -0.1900 
  6 C       -2.8390    -1.2850    -0.5240 C.ar  1 <1>  -0.1500 
  7 C       -3.0100    -3.6930    -0.5600 C.ar  1 <1>   0.0830 
  8 C       -3.2680    -2.4680     0.0600 C.ar  1 <1>  -0.1500 
  9 O       -3.4010    -4.8880    -0.0540 O.3   1 <1>  -0.3630 
 10 C       -4.1220    -4.9760     1.1690 C.3   1 <1>   0.1810 
 11 C       -4.4620    -6.4210     1.5270 C.2   1 <1>   0.5690 
 12 O       -4.1690    -6.8060     2.6340 O.2   1 <1>  -0.5700 
 13 N       -5.1100    -7.2430     0.6410 N.am  1 <1>  -0.6600 
 14 C       -5.5150    -6.9020    -0.7450 C.3   1 <1>   0.1400 
 15 C       -5.4060    -8.6680     0.9320 C.3   1 <1>   0.1400 
 16 C       -6.4960    -8.0070    -1.1290 C.3   1 <1>   0.2000 
 17 C       -5.9740    -9.2350    -0.3780 C.3   1 <1>  -0.0800 
 18 O       -7.7460    -7.6670    -0.6330 O.3   1 <1>  -0.6800 
 19 C       -7.0220   -10.3550    -0.1920 C.3   1 <1>  -0.0550 
 20 S       -6.3670   -11.8720     0.5080 S.o2  1 <1>   1.3330 
 21 O       -7.3730   -12.9060     0.4200 O.2   1 <1>  -0.6500 
 22 O       -5.7760   -11.5560     1.7880 O.2   1 <1>  -0.6500 
 23 N       -5.1120   -12.2820    -0.5630 N.am  1 <1>  -0.8490 
 24 C       -5.5770   -13.0040    -1.7520 C.3   1 <1>   0.1160 
 25 C       -4.0490   -13.0450     0.0980 C.3   1 <1>   0.1160 
 26 H       -2.1160    -4.6730    -2.2390 H     1 <1>   0.1500 
 27 H       -3.0280    -0.3330    -0.0610 H     1 <1>   0.1500 
 28 H       -3.7970    -2.4110     0.9940 H     1 <1>   0.1500 
 29 H       -3.5130    -4.5550     1.9480 H     1 <1>   0.0800 
 30 H       -5.0310    -4.4140     1.0700 H     1 <1>   0.0800 
 31 H       -5.9650    -5.9270    -0.8110 H     1 <1>   0.0800 
 32 H       -4.6480    -6.9450    -1.3810 H     1 <1>   0.0800 
 33 H       -4.5120    -9.1890     1.2340 H     1 <1>   0.0800 
 34 H       -6.1290    -8.7230     1.7290 H     1 <1>   0.0800 
 35 H       -6.5760    -8.1520    -2.1930 H     1 <1>   0.0800 
 36 H       -5.1450    -9.6270    -0.9420 H     1 <1>   0.0800 
 37 H       -7.6490    -7.3960     0.3030 H     1 <1>   0.4000 
 38 H       -7.4530   -10.5760    -1.1480 H     1 <1>   0.0800 
 39 H       -7.8140   -10.0010     0.4380 H     1 <1>   0.0800 
 40 H       -4.7590   -13.1580    -2.4340 H     1 <1>   0.0800 
 41 H       -6.3390   -12.4360    -2.2570 H     1 <1>   0.0800 
 42 H       -5.9870   -13.9620    -1.4750 H     1 <1>   0.0800 
 43 H       -3.2660   -13.2800    -0.6020 H     1 <1>   0.0800 
 44 H       -4.4440   -13.9590     0.5090 H     1 <1>   0.0800 
 45 H       -3.6200   -12.4640     0.8980 H     1 <1>   0.0800 
@<TRIPOS>BOND
  1   1   2  1   
  2   2   3  ar  
  3   2   4  ar  
  4   3   5  1   
  5   3   6  ar  
  6   4   7  ar  
  7   4  26  1   
  8   6   8  ar  
  9   6  27  1   
 10   7   8  ar  
 11   7   9  1   
 12   8  28  1   
 13   9  10  1   
 14  10  11  1   
 15  10  29  1   
 16  10  30  1   
 17  11  12  2   
 18  11  13  am  
 19  13  14  1   
 20  13  15  1   
 21  14  16  1   
 22  14  31  1   
 23  14  32  1   
 24  15  17  1   
 25  15  33  1   
 26  15  34  1   
 27  16  17  1   
 28  16  18  1   
 29  16  35  1   
 30  17  19  1   
 31  17  36  1   
 32  18  37  1   
 33  19  20  1   
 34  19  38  1   
 35  19  39  1   
 36  20  21  2   
 37  20  22  2   
 38  20  23  am  
 39  23  24  1   
 40  23  25  1   
 41  24  40  1   
 42  24  41  1   
 43  24  42  1   
 44  25  43  1   
 45  25  44  1   
 46  25  45  1   
@<TRIPOS>SUBSTRUCTURE
  1 ****  14 GROUP 4 **** **** 0

# MOE 2024.06 (io_trps.svl 2023.06)
