@<TRIPOS>MOLECULE
NONAME
44 46 1 0 0 
SMALL
USER_CHARGES


@<TRIPOS>ATOM
  1 O        0.0750     0.2620    -0.3350 O.3   1 <1>  -0.6800 
  2 C        1.3570     0.0140    -0.8170 C.3   1 <1>   0.2000 
  3 C        1.9430    -1.1730    -0.0540 C.3   1 <1>  -0.0800 
  4 C        2.2800     1.1970    -0.4800 C.3   1 <1>   0.2090 
  5 C        2.5650    -0.5190     1.1820 C.3   1 <1>   0.2090 
  6 C        2.9930    -1.9030    -0.9150 C.3   1 <1>   0.0210 
  7 N        3.0860     0.7880     0.7150 N.pl3 1 <1>  -0.8380 
  8 C        3.7270    -2.9650    -0.1240 C.2   1 <1>   0.1080 
  9 C        4.4580     0.9840     0.7690 C.ar  1 <1>   0.4100 
 10 N        3.1700    -4.0660     0.2740 N.2   1 <1>  -0.7070 
 11 C        5.0560    -2.8710     0.2740 C.2   1 <1>  -0.1500 
 12 N        5.1150     0.8430    -0.3790 N.ar  1 <1>  -0.6200 
 13 C        5.0930     1.2840     1.9810 C.ar  1 <1>   0.0730 
 14 N        4.1440    -4.7160     0.9400 N.pl3 1 <1>   0.3000 
 15 C        5.2950    -4.0110     0.9560 C.2   1 <1>  -0.3320 
 16 C        6.4260     0.9920    -0.3510 C.ar  1 <1>   0.1670 
 17 C        4.3490     1.4220     3.1940 C.1   1 <1>   0.4840 
 18 C        6.4650     1.4410     1.9860 C.ar  1 <1>  -0.1500 
 19 C        6.5720    -4.4730     1.6330 C.3   1 <1>  -0.0600 
 20 C        7.1500     1.2940     0.7970 C.ar  1 <1>  -0.1430 
 21 C        7.1130     0.8120    -1.6930 C.3   1 <1>  -0.0970 
 22 N        3.8150     1.5220     4.1990 N.1   1 <1>  -0.5570 
 23 C        8.6640     1.4720     0.7890 C.3   1 <1>  -0.0970 
 24 H       -0.4850    -0.5320    -0.4340 H     1 <1>   0.4000 
 25 H        1.2870    -0.1530    -1.8780 H     1 <1>   0.0800 
 26 H        1.1900    -1.8840     0.2360 H     1 <1>   0.0800 
 27 H        1.7040     2.0780    -0.2540 H     1 <1>   0.0800 
 28 H        2.9200     1.4060    -1.3180 H     1 <1>   0.0800 
 29 H        3.3360    -1.1230     1.6280 H     1 <1>   0.0800 
 30 H        1.8010    -0.3380     1.9200 H     1 <1>   0.0800 
 31 H        3.7090    -1.2070    -1.3090 H     1 <1>   0.0800 
 32 H        2.5070    -2.3790    -1.7470 H     1 <1>   0.0800 
 33 H        5.7160    -2.0470     0.0660 H     1 <1>   0.1500 
 34 H        3.9910    -5.6350     1.3710 H     1 <1>   0.2700 
 35 H        6.9820     1.6730     2.9020 H     1 <1>   0.1500 
 36 H        7.3440    -3.7350     1.5060 H     1 <1>   0.0800 
 37 H        6.9080    -5.3990     1.2000 H     1 <1>   0.0800 
 38 H        6.4040    -4.6160     2.6850 H     1 <1>   0.0800 
 39 H        8.0300     0.2640    -1.5850 H     1 <1>   0.0800 
 40 H        7.3190     1.7740    -2.1230 H     1 <1>   0.0800 
 41 H        6.4760     0.2660    -2.3660 H     1 <1>   0.0800 
 42 H        9.0120     1.8590     1.7300 H     1 <1>   0.0800 
 43 H        8.9540     2.1630     0.0170 H     1 <1>   0.0800 
 44 H        9.1450     0.5270     0.6130 H     1 <1>   0.0800 
@<TRIPOS>BOND
  1   1   2  1   
  2   1  24  1   
  3   2   3  1   
  4   2   4  1   
  5   2  25  1   
  6   3   5  1   
  7   3   6  1   
  8   3  26  1   
  9   4   7  1   
 10   4  27  1   
 11   4  28  1   
 12   5   7  1   
 13   5  29  1   
 14   5  30  1   
 15   6   8  1   
 16   6  31  1   
 17   6  32  1   
 18   7   9  1   
 19   8  10  2   
 20   8  11  1   
 21   9  12  ar  
 22   9  13  ar  
 23  10  14  1   
 24  11  15  2   
 25  11  33  1   
 26  12  16  ar  
 27  13  17  1   
 28  13  18  ar  
 29  14  15  1   
 30  14  34  1   
 31  15  19  1   
 32  16  20  ar  
 33  16  21  1   
 34  17  22  3   
 35  18  20  ar  
 36  18  35  1   
 37  19  36  1   
 38  19  37  1   
 39  19  38  1   
 40  20  23  1   
 41  21  39  1   
 42  21  40  1   
 43  21  41  1   
 44  23  42  1   
 45  23  43  1   
 46  23  44  1   
@<TRIPOS>SUBSTRUCTURE
  1 ****   9 GROUP 4 **** **** 0

# MOE 2024.06 (io_trps.svl 2023.06)
