@<TRIPOS>MOLECULE
NONAME
43 45 1 0 0 
SMALL
USER_CHARGES


@<TRIPOS>ATOM
  1 CL       1.0110    -0.2660     3.0880 Cl    1 <1>  -0.1770 
  2 C        1.9410    -1.0500     1.8370 C.ar  1 <1>   0.1770 
  3 C        1.9000    -2.4240     1.7290 C.ar  1 <1>  -0.1500 
  4 C        2.7020    -0.2800     0.9780 C.ar  1 <1>  -0.1500 
  5 C        2.6250    -3.0730     0.7310 C.ar  1 <1>   0.0860 
  6 C        3.4430    -0.9040    -0.0110 C.ar  1 <1>  -0.1440 
  7 C        2.5880    -4.5160     0.5800 C.2   1 <1>   0.5440 
  8 C        3.3990    -2.2850    -0.1230 C.ar  1 <1>  -0.1500 
  9 C        4.2930    -0.0780    -0.9610 C.3   1 <1>  -0.0960 
 10 O        3.6250    -5.1340     0.4370 O.2   1 <1>  -0.5700 
 11 N        1.4000    -5.2110     0.5770 N.am  1 <1>  -0.6600 
 12 C        0.0750    -4.6210     0.2560 C.3   1 <1>   0.1400 
 13 C        1.3540    -6.6900     0.4500 C.3   1 <1>   0.1400 
 14 C       -0.7230    -5.7700    -0.3550 C.3   1 <1>   0.2000 
 15 C       -0.1230    -7.0350     0.2500 C.3   1 <1>  -0.0800 
 16 O       -2.0700    -5.6780    -0.0450 O.3   1 <1>  -0.6800 
 17 C       -0.3490    -8.2870    -0.6090 C.3   1 <1>   0.0210 
 18 C        0.3490    -9.4900    -0.0060 C.2   1 <1>   0.1080 
 19 N        0.0500    -9.9620     1.1650 N.2   1 <1>  -0.7070 
 20 C        1.3760   -10.2030    -0.6140 C.2   1 <1>  -0.1500 
 21 N        0.8860   -11.0030     1.3350 N.pl3 1 <1>   0.3000 
 22 C        1.7010   -11.1680     0.2720 C.2   1 <1>  -0.3320 
 23 C        2.7570   -12.2530     0.1670 C.3   1 <1>  -0.0600 
 24 H        1.3080    -2.9940     2.4210 H     1 <1>   0.1500 
 25 H        2.7110     0.7890     1.0900 H     1 <1>   0.1500 
 26 H        3.9750    -2.7820    -0.8850 H     1 <1>   0.1500 
 27 H        5.0660    -0.6820    -1.4020 H     1 <1>   0.0800 
 28 H        4.7590     0.7350    -0.4340 H     1 <1>   0.0800 
 29 H        3.6780     0.3230    -1.7460 H     1 <1>   0.0800 
 30 H       -0.3880    -4.2800     1.1650 H     1 <1>   0.0800 
 31 H        0.1740    -3.8090    -0.4430 H     1 <1>   0.0800 
 32 H        1.9400    -6.9880    -0.4030 H     1 <1>   0.0800 
 33 H        1.7510    -7.1610     1.3330 H     1 <1>   0.0800 
 34 H       -0.6170    -5.7550    -1.4260 H     1 <1>   0.0800 
 35 H       -0.5410    -7.2010     1.2280 H     1 <1>   0.0800 
 36 H       -2.2150    -5.8790     0.9000 H     1 <1>   0.4000 
 37 H        0.0180    -8.1250    -1.6060 H     1 <1>   0.0800 
 38 H       -1.4020    -8.4960    -0.6700 H     1 <1>   0.0800 
 39 H        1.8020   -10.0060    -1.5810 H     1 <1>   0.1500 
 40 H        0.8770   -11.5780     2.1860 H     1 <1>   0.2700 
 41 H        3.2740   -12.1750    -0.7730 H     1 <1>   0.0800 
 42 H        2.3000   -13.2250     0.2280 H     1 <1>   0.0800 
 43 H        3.4750   -12.1510     0.9620 H     1 <1>   0.0800 
@<TRIPOS>BOND
  1   1   2  1   
  2   2   3  ar  
  3   2   4  ar  
  4   3   5  ar  
  5   3  24  1   
  6   4   6  ar  
  7   4  25  1   
  8   5   7  1   
  9   5   8  ar  
 10   6   8  ar  
 11   6   9  1   
 12   7  10  2   
 13   7  11  am  
 14   8  26  1   
 15   9  27  1   
 16   9  28  1   
 17   9  29  1   
 18  11  12  1   
 19  11  13  1   
 20  12  14  1   
 21  12  30  1   
 22  12  31  1   
 23  13  15  1   
 24  13  32  1   
 25  13  33  1   
 26  14  15  1   
 27  14  16  1   
 28  14  34  1   
 29  15  17  1   
 30  15  35  1   
 31  16  36  1   
 32  17  18  1   
 33  17  37  1   
 34  17  38  1   
 35  18  19  2   
 36  18  20  1   
 37  19  21  1   
 38  20  22  2   
 39  20  39  1   
 40  21  22  1   
 41  21  40  1   
 42  22  23  1   
 43  23  41  1   
 44  23  42  1   
 45  23  43  1   
@<TRIPOS>SUBSTRUCTURE
  1 ****  11 GROUP 4 **** **** 0

# MOE 2024.06 (io_trps.svl 2023.06)
