@<TRIPOS>MOLECULE
NONAME
44 46 1 0 0 
SMALL
USER_CHARGES


@<TRIPOS>ATOM
  1 O        0.2940     0.2290    -1.0710 O.3   1 <1>  -0.5600 
  2 C        1.5060    -0.4670    -1.2160 C.3   1 <1>   0.2000 
  3 C        0.4310     1.6100    -1.2470 C.3   1 <1>   0.1200 
  4 C        2.5250     0.0310    -0.1520 C.3   1 <1>   0.3340 
  5 C        1.1860    -1.9670    -1.1110 C.3   1 <1>   0.1200 
  6 C        1.4060     2.1900    -0.2090 C.3   1 <1>   0.1100 
  7 N        2.7110     1.5000    -0.2500 N.3   1 <1>  -0.8100 
  8 C        3.8620    -0.7000    -0.2900 C.ar  1 <1>  -0.1440 
  9 O        2.2320    -2.7450    -1.6020 O.3   1 <1>  -0.6800 
 10 C        3.6640     2.0140     0.7720 C.3   1 <1>   0.2530 
 11 C        4.2290    -1.6650     0.6380 C.ar  1 <1>  -0.1500 
 12 C        4.7130    -0.4240    -1.3500 C.ar  1 <1>  -0.1500 
 13 C        3.8010     3.5390     0.7980 C.ar  1 <1>   0.1670 
 14 C        5.4240    -2.3500     0.5010 C.ar  1 <1>  -0.1500 
 15 C        5.9080    -1.1070    -1.4880 C.ar  1 <1>  -0.1500 
 16 N        4.5580     4.1040    -0.1350 N.ar  1 <1>  -0.6200 
 17 C        3.1430     4.2570     1.7880 C.ar  1 <1>  -0.1500 
 18 C        6.2630    -2.0730    -0.5630 C.ar  1 <1>  -0.1500 
 19 C        4.6590     5.4200    -0.0920 C.ar  1 <1>   0.1670 
 20 C        3.2550     5.6290     1.8270 C.ar  1 <1>  -0.1500 
 21 C        4.0360     6.2160     0.8550 C.ar  1 <1>  -0.1500 
 22 C        5.5210     6.0460    -1.1670 C.3   1 <1>  -0.0970 
 23 H        1.8810    -0.2650    -2.2040 H     1 <1>   0.0800 
 24 H        0.7880     1.8000    -2.2450 H     1 <1>   0.0800 
 25 H       -0.5410     2.0550    -1.1350 H     1 <1>   0.0800 
 26 H        2.1130    -0.1960     0.8160 H     1 <1>   0.0800 
 27 H        0.3160    -2.1980    -1.7010 H     1 <1>   0.0800 
 28 H        1.0080    -2.2470    -0.0880 H     1 <1>   0.0800 
 29 H        0.9700     2.1040     0.7720 H     1 <1>   0.0800 
 30 H        1.5450     3.2350    -0.4270 H     1 <1>   0.0800 
 31 H        3.0940    -2.4510    -1.2260 H     1 <1>   0.4000 
 32 H        3.3570     1.6740     1.7450 H     1 <1>   0.0800 
 33 H        4.6420     1.6080     0.5810 H     1 <1>   0.0800 
 34 H        3.5880    -1.8930     1.4720 H     1 <1>   0.1500 
 35 H        4.4440     0.3330    -2.0680 H     1 <1>   0.1500 
 36 H        5.7020    -3.0990     1.2220 H     1 <1>   0.1500 
 37 H        6.5600    -0.8840    -2.3140 H     1 <1>   0.1500 
 38 H        2.5470     3.7470     2.5210 H     1 <1>   0.1500 
 39 H        7.1920    -2.6050    -0.6710 H     1 <1>   0.1500 
 40 H        2.7580     6.2160     2.5800 H     1 <1>   0.1500 
 41 H        4.1590     7.2830     0.8360 H     1 <1>   0.1500 
 42 H        5.5460     7.1150    -1.0720 H     1 <1>   0.0800 
 43 H        5.1280     5.7900    -2.1340 H     1 <1>   0.0800 
 44 H        6.5220     5.6640    -1.0890 H     1 <1>   0.0800 
@<TRIPOS>BOND
  1   1   2  1   
  2   1   3  1   
  3   2   4  1   
  4   2   5  1   
  5   2  23  1   
  6   3   6  1   
  7   3  24  1   
  8   3  25  1   
  9   4   7  1   
 10   4   8  1   
 11   4  26  1   
 12   5   9  1   
 13   5  27  1   
 14   5  28  1   
 15   6   7  1   
 16   6  29  1   
 17   6  30  1   
 18   7  10  1   
 19   8  11  ar  
 20   8  12  ar  
 21   9  31  1   
 22  10  13  1   
 23  10  32  1   
 24  10  33  1   
 25  11  14  ar  
 26  11  34  1   
 27  12  15  ar  
 28  12  35  1   
 29  13  16  ar  
 30  13  17  ar  
 31  14  18  ar  
 32  14  36  1   
 33  15  18  ar  
 34  15  37  1   
 35  16  19  ar  
 36  17  20  ar  
 37  17  38  1   
 38  18  39  1   
 39  19  21  ar  
 40  19  22  1   
 41  20  21  ar  
 42  20  40  1   
 43  21  41  1   
 44  22  42  1   
 45  22  43  1   
 46  22  44  1   
@<TRIPOS>SUBSTRUCTURE
  1 ****   7 GROUP 4 **** **** 0

# MOE 2024.06 (io_trps.svl 2023.06)
