@<TRIPOS>MOLECULE
NONAME
42 44 1 0 0 
SMALL
USER_CHARGES


@<TRIPOS>ATOM
  1 O       -0.5820     0.1680    -0.9520 O.2   1 <1>  -0.5700 
  2 C       -1.5550     0.8240    -0.6110 C.2   1 <1>   0.6300 
  3 N       -2.7420     0.1210    -0.4470 N.am  1 <1>  -0.6600 
  4 C       -1.4410     2.2800    -0.3920 C.2   1 <1>   0.6550 
  5 C       -4.0490     0.6920    -0.0270 C.3   1 <1>   0.1400 
  6 C       -2.8550    -1.3480    -0.6260 C.3   1 <1>   0.1400 
  7 O       -2.3910     3.0130    -0.6290 O.2   1 <1>  -0.5700 
  8 C       -0.2220     2.8680     0.1260 C.2   1 <1>  -0.2370 
  9 C       -4.9990    -0.5040     0.0750 C.3   1 <1>   0.2000 
 10 C       -4.1080    -1.7420     0.1560 C.3   1 <1>  -0.0800 
 11 N        0.0600     4.2190     0.1660 N.pl3 1 <1>   0.0480 
 12 C        0.8620     2.2200     0.6730 C.2   1 <1>  -0.1500 
 13 O       -5.8000    -0.4260     1.2040 O.3   1 <1>  -0.6800 
 14 C       -4.8030    -3.0100    -0.3680 C.3   1 <1>  -0.0170 
 15 C        1.2810     4.3810     0.7260 C.2   1 <1>  -0.3020 
 16 C       -0.7680     5.3430    -0.3170 C.3   1 <1>   0.0160 
 17 C        1.8020     3.1700     1.0490 C.2   1 <1>  -0.1500 
 18 C       -3.8960    -4.2250    -0.2670 C.ar  1 <1>   0.1670 
 19 N       -3.0430    -4.4060    -1.2630 N.ar  1 <1>  -0.6200 
 20 C       -3.9920    -5.0630     0.8340 C.ar  1 <1>  -0.1500 
 21 C       -2.2520    -5.4610    -1.1570 C.ar  1 <1>   0.1600 
 22 C       -3.1620    -6.1590     0.9310 C.ar  1 <1>  -0.1500 
 23 C       -2.2690    -6.3540    -0.1000 C.ar  1 <1>  -0.1500 
 24 H       -3.9390     1.1860     0.9230 H     1 <1>   0.0800 
 25 H       -4.4040     1.3890    -0.7660 H     1 <1>   0.0800 
 26 H       -2.9700    -1.5660    -1.6750 H     1 <1>   0.0800 
 27 H       -1.9820    -1.8590    -0.2540 H     1 <1>   0.0800 
 28 H       -5.6370    -0.5350    -0.7930 H     1 <1>   0.0800 
 29 H       -3.8050    -1.9000     1.1760 H     1 <1>   0.0800 
 30 H        0.9960     1.1580     0.8000 H     1 <1>   0.1500 
 31 H       -5.2500    -0.4010     2.0100 H     1 <1>   0.4000 
 32 H       -5.0920    -2.8750    -1.3960 H     1 <1>   0.0800 
 33 H       -5.6990    -3.1830     0.2000 H     1 <1>   0.0800 
 34 H        1.7310     5.3480     0.8700 H     1 <1>   0.1500 
 35 H       -0.2250     6.2650    -0.2170 H     1 <1>   0.0800 
 36 H       -1.6700     5.3950     0.2640 H     1 <1>   0.0800 
 37 H       -1.0160     5.1850    -1.3500 H     1 <1>   0.0800 
 38 H        2.7550     2.9630     1.5060 H     1 <1>   0.1500 
 39 H       -4.7080    -4.8620     1.6100 H     1 <1>   0.1500 
 40 H       -1.5500    -5.6230    -1.9580 H     1 <1>   0.1500 
 41 H       -3.2090    -6.8310     1.7710 H     1 <1>   0.1500 
 42 H       -1.5920    -7.1890    -0.0880 H     1 <1>   0.1500 
@<TRIPOS>BOND
  1   1   2  2   
  2   2   3  am  
  3   2   4  1   
  4   3   5  1   
  5   3   6  1   
  6   4   7  2   
  7   4   8  1   
  8   5   9  1   
  9   5  24  1   
 10   5  25  1   
 11   6  10  1   
 12   6  26  1   
 13   6  27  1   
 14   8  11  1   
 15   8  12  2   
 16   9  10  1   
 17   9  13  1   
 18   9  28  1   
 19  10  14  1   
 20  10  29  1   
 21  11  15  1   
 22  11  16  1   
 23  12  17  1   
 24  12  30  1   
 25  13  31  1   
 26  14  18  1   
 27  14  32  1   
 28  14  33  1   
 29  15  17  2   
 30  15  34  1   
 31  16  35  1   
 32  16  36  1   
 33  16  37  1   
 34  17  38  1   
 35  18  19  ar  
 36  18  20  ar  
 37  19  21  ar  
 38  20  22  ar  
 39  20  39  1   
 40  21  23  ar  
 41  21  40  1   
 42  22  23  ar  
 43  22  41  1   
 44  23  42  1   
@<TRIPOS>SUBSTRUCTURE
  1 ****   3 GROUP 4 **** **** 0

# MOE 2024.06 (io_trps.svl 2023.06)
