@<TRIPOS>MOLECULE
NONAME
56 59 1 0 0 
SMALL
USER_CHARGES


@<TRIPOS>ATOM
  1 O       -0.3100    -0.1120     0.3950 O.3   1 <1>  -0.6800 
  2 C        0.7160    -0.3450    -0.5120 C.3   1 <1>   0.2000 
  3 C        1.3560    -1.6850    -0.1700 C.3   1 <1>  -0.0800 
  4 C        1.8400     0.6650    -0.2390 C.3   1 <1>   0.3430 
  5 C        2.2040    -1.3240     1.0540 C.3   1 <1>   0.3430 
  6 C        2.1900    -2.2290    -1.3550 C.3   1 <1>  -0.0170 
  7 N        2.7000     0.0690     0.8390 N.4   1 <1>  -0.9590 
  8 C        3.2100    -3.2680    -0.9210 C.ar  1 <1>   0.1670 
  9 C        4.1500     0.0550     0.5060 C.3   1 <1>   0.3430 
 10 N        4.3820    -2.8300    -0.5710 N.ar  1 <1>  -0.6200 
 11 C        2.8470    -4.6230    -0.9080 C.ar  1 <1>  -0.1500 
 12 C        4.7260     1.4700     0.5080 C.3   1 <1>  -0.1600 
 13 C        5.3100    -3.7470    -0.1880 C.ar  1 <1>   0.3100 
 14 C        3.7510    -5.5600    -0.5110 C.ar  1 <1>  -0.1500 
 15 C        6.2430     1.4570     0.2520 C.3   1 <1>  -0.0800 
 16 C        5.0330    -5.1310    -0.1310 C.ar  1 <1>   0.0000 
 17 C        6.5940    -3.3070     0.1730 C.ar  1 <1>  -0.1500 
 18 C        6.8080     2.8820     0.3880 C.3   1 <1>  -0.1600 
 19 C        6.5890     0.8760    -1.1350 C.3   1 <1>  -0.1600 
 20 C        6.0440    -6.0140     0.2960 C.ar  1 <1>  -0.1500 
 21 C        7.5640    -4.1830     0.5830 C.ar  1 <1>  -0.1500 
 22 C        8.3200     2.9150     0.1290 C.3   1 <1>  -0.1600 
 23 C        8.1010     0.9090    -1.3940 C.3   1 <1>  -0.1600 
 24 C        7.2830    -5.5510     0.6470 C.ar  1 <1>  -0.1500 
 25 C        8.6600     2.3290    -1.2460 C.3   1 <1>  -0.1600 
 26 H       -1.1220    -0.6100     0.1570 H     1 <1>   0.4000 
 27 H        0.3220    -0.2740    -1.5120 H     1 <1>   0.0800 
 28 H        0.6210    -2.4250     0.0980 H     1 <1>   0.0800 
 29 H        1.4320     1.6180     0.0560 H     1 <1>   0.0800 
 30 H        2.4240     0.7920    -1.1350 H     1 <1>   0.0800 
 31 H        3.0110    -2.0200     1.2160 H     1 <1>   0.0800 
 32 H        1.5660    -1.3360     1.9240 H     1 <1>   0.0800 
 33 H        2.7230    -1.4330    -1.8450 H     1 <1>   0.0800 
 34 H        1.5320    -2.6590    -2.0900 H     1 <1>   0.0800 
 35 H        2.5510     0.5950     1.7100 H     1 <1>   0.4500 
 36 H        4.6810    -0.5420     1.2300 H     1 <1>   0.0800 
 37 H        4.2960    -0.3960    -0.4610 H     1 <1>   0.0800 
 38 H        1.8570    -4.9140    -1.2120 H     1 <1>   0.1500 
 39 H        4.2500     2.0680    -0.2490 H     1 <1>   0.0800 
 40 H        4.5440     1.9200     1.4680 H     1 <1>   0.0800 
 41 H        3.5120    -6.6090    -0.4860 H     1 <1>   0.1500 
 42 H        6.7140     0.8430     1.0030 H     1 <1>   0.0800 
 43 H        6.8020    -2.2550     0.1140 H     1 <1>   0.1500 
 44 H        6.3210     3.5360    -0.3150 H     1 <1>   0.0800 
 45 H        6.6170     3.2600     1.3770 H     1 <1>   0.0800 
 46 H        6.2580    -0.1440    -1.2180 H     1 <1>   0.0800 
 47 H        6.0950     1.4480    -1.9010 H     1 <1>   0.0800 
 48 H        5.8260    -7.0670     0.3390 H     1 <1>   0.1500 
 49 H        8.5460    -3.8360     0.8570 H     1 <1>   0.1500 
 50 H        8.6740     3.9310     0.1830 H     1 <1>   0.0800 
 51 H        8.8280     2.3500     0.8930 H     1 <1>   0.0800 
 52 H        8.6000     0.2570    -0.6980 H     1 <1>   0.0800 
 53 H        8.3060     0.5460    -2.3870 H     1 <1>   0.0800 
 54 H        8.0540    -6.2290     0.9720 H     1 <1>   0.1500 
 55 H        9.7290     2.3120    -1.3760 H     1 <1>   0.0800 
 56 H        8.2460     2.9590    -2.0150 H     1 <1>   0.0800 
@<TRIPOS>BOND
  1   1   2  1   
  2   1  26  1   
  3   2   3  1   
  4   2   4  1   
  5   2  27  1   
  6   3   5  1   
  7   3   6  1   
  8   3  28  1   
  9   4   7  1   
 10   4  29  1   
 11   4  30  1   
 12   5   7  1   
 13   5  31  1   
 14   5  32  1   
 15   6   8  1   
 16   6  33  1   
 17   6  34  1   
 18   7   9  1   
 19   7  35  1   
 20   8  10  ar  
 21   8  11  ar  
 22   9  12  1   
 23   9  36  1   
 24   9  37  1   
 25  10  13  ar  
 26  11  14  ar  
 27  11  38  1   
 28  12  15  1   
 29  12  39  1   
 30  12  40  1   
 31  13  16  ar  
 32  13  17  ar  
 33  14  16  ar  
 34  14  41  1   
 35  15  18  1   
 36  15  19  1   
 37  15  42  1   
 38  16  20  ar  
 39  17  21  ar  
 40  17  43  1   
 41  18  22  1   
 42  18  44  1   
 43  18  45  1   
 44  19  23  1   
 45  19  46  1   
 46  19  47  1   
 47  20  24  ar  
 48  20  48  1   
 49  21  24  ar  
 50  21  49  1   
 51  22  25  1   
 52  22  50  1   
 53  22  51  1   
 54  23  25  1   
 55  23  52  1   
 56  23  53  1   
 57  24  54  1   
 58  25  55  1   
 59  25  56  1   
@<TRIPOS>SUBSTRUCTURE
  1 ****  10 GROUP 4 **** **** 0

# MOE 2024.06 (io_trps.svl 2023.06)
