@<TRIPOS>MOLECULE
Untitled Document
57 61 1 0 0 
SMALL
USER_CHARGES


@<TRIPOS>ATOM
  1 F       -2.1200     0.6320     0.0690 F     1 <1>  -0.3400 
  2 C       -1.9360    -0.6380     0.4060 C.3   1 <1>   1.1640 
  3 F       -1.5320    -0.6360     1.6700 F     1 <1>  -0.3400 
  4 F       -0.9100    -1.0720    -0.3140 F     1 <1>  -0.3400 
  5 C       -3.2130    -1.4670     0.1820 C.ar  1 <1>  -0.1440 
  6 C       -4.1230    -1.6730     1.2140 C.ar  1 <1>  -0.1500 
  7 C       -3.4860    -2.0260    -1.0620 C.ar  1 <1>  -0.1500 
  8 C       -5.2730    -2.4140     1.0080 C.ar  1 <1>  -0.1500 
  9 C       -4.6350    -2.7680    -1.2700 C.ar  1 <1>  -0.1500 
 10 C       -5.5410    -2.9580    -0.2380 C.ar  1 <1>  -0.1430 
 11 C       -6.8250    -3.7360    -0.4760 C.3   1 <1>   0.3110 
 12 N       -8.0520    -2.8730    -0.3850 N.pl3 1 <1>  -0.7370 
 13 C       -9.2200    -3.4750     0.0380 C.2   1 <1>   0.8990 
 14 C       -8.1130    -1.5910    -0.7650 C.cat 1 <1>   1.2000 
 15 O       -9.2240    -4.6460     0.3450 O.2   1 <1>  -0.5700 
 16 C      -10.4330    -2.7360     0.1050 C.2   1 <1>  -0.1240 
 17 N       -7.1400    -0.8490    -1.2230 N.pl3 1 <1>  -0.8440 
 18 N       -9.2610    -0.8960    -0.7080 N.pl3 1 <1>  -0.6970 
 19 C      -10.4490    -1.4420    -0.2590 C.2   1 <1>   0.1650 
 20 C      -11.6540    -3.4860     0.5970 C.3   1 <1>   0.4810 
 21 C       -7.5450     0.5320    -1.5400 C.3   1 <1>   0.1680 
 22 C       -9.0410     0.5050    -1.1900 C.3   1 <1>   0.1680 
 23 C      -11.7080    -0.5870    -0.2010 C.3   1 <1>  -0.0220 
 24 N      -12.9050    -2.7350     0.2610 N.4   1 <1>  -0.9590 
 25 C      -12.8230    -1.2750     0.5990 C.3   1 <1>   0.3430 
 26 C      -14.1030    -3.3740     0.8870 C.3   1 <1>   0.4860 
 27 C      -15.3360    -2.7170     0.3040 C.ar  1 <1>  -0.1430 
 28 C      -15.7320    -2.9970    -0.9970 C.ar  1 <1>  -0.1500 
 29 C      -16.0740    -1.8200     1.0650 C.ar  1 <1>  -0.1500 
 30 C      -16.8400    -2.3700    -1.5370 C.ar  1 <1>  -0.1500 
 31 C      -17.1820    -1.1940     0.5220 C.ar  1 <1>  -0.1500 
 32 C      -17.5630    -1.4660    -0.7790 C.ar  1 <1>  -0.1500 
 33 H       -3.9380    -1.2590     2.1930 H     1 <1>   0.1500 
 34 H       -2.7950    -1.8900    -1.8800 H     1 <1>   0.1500 
 35 H       -5.9520    -2.5640     1.8300 H     1 <1>   0.1500 
 36 H       -4.8080    -3.1970    -2.2450 H     1 <1>   0.1500 
 37 H       -6.8580    -4.5230     0.2600 H     1 <1>   0.0800 
 38 H       -6.7960    -4.2080    -1.4450 H     1 <1>   0.0800 
 39 H       -6.1600    -1.1560    -1.2340 H     1 <1>   0.4500 
 40 H      -11.5780    -3.6210     1.6650 H     1 <1>   0.0800 
 41 H      -11.6850    -4.4650     0.1420 H     1 <1>   0.0800 
 42 H       -7.3870     0.7550    -2.5840 H     1 <1>   0.0800 
 43 H       -7.0120     1.2430    -0.9290 H     1 <1>   0.0800 
 44 H       -9.2610     1.2220    -0.4170 H     1 <1>   0.0800 
 45 H       -9.6390     0.7130    -2.0620 H     1 <1>   0.0800 
 46 H      -12.0540    -0.3870    -1.2000 H     1 <1>   0.0800 
 47 H      -11.4950     0.3580     0.2660 H     1 <1>   0.0800 
 48 H      -13.0790    -2.8020    -0.7520 H     1 <1>   0.4500 
 49 H      -13.7610    -0.7860     0.3830 H     1 <1>   0.0800 
 50 H      -12.6260    -1.1620     1.6530 H     1 <1>   0.0800 
 51 H      -14.0880    -3.2480     1.9580 H     1 <1>   0.0800 
 52 H      -14.1290    -4.4300     0.6660 H     1 <1>   0.0800 
 53 H      -15.1970    -3.7050    -1.6070 H     1 <1>   0.1500 
 54 H      -15.8050    -1.5960     2.0840 H     1 <1>   0.1500 
 55 H      -17.1500    -2.5850    -2.5460 H     1 <1>   0.1500 
 56 H      -17.7550    -0.4970     1.1100 H     1 <1>   0.1500 
 57 H      -18.4270    -0.9800    -1.2000 H     1 <1>   0.1500 
@<TRIPOS>BOND
  1   1   2  1   
  2   2   3  1   
  3   2   4  1   
  4   2   5  1   
  5   5   6  ar  
  6   5   7  ar  
  7   6   8  ar  
  8   6  33  1   
  9   7   9  ar  
 10   7  34  1   
 11   8  10  ar  
 12   8  35  1   
 13   9  10  ar  
 14   9  36  1   
 15  10  11  1   
 16  11  12  1   
 17  11  37  1   
 18  11  38  1   
 19  12  13  1   
 20  12  14  ar  
 21  13  15  2   
 22  13  16  1   
 23  14  17  ar  
 24  14  18  ar  
 25  16  19  2   
 26  16  20  1   
 27  17  21  1   
 28  17  39  1   
 29  18  19  1   
 30  18  22  1   
 31  19  23  1   
 32  20  24  1   
 33  20  40  1   
 34  20  41  1   
 35  21  22  1   
 36  21  42  1   
 37  21  43  1   
 38  22  44  1   
 39  22  45  1   
 40  23  25  1   
 41  23  46  1   
 42  23  47  1   
 43  24  25  1   
 44  24  26  1   
 45  24  48  1   
 46  25  49  1   
 47  25  50  1   
 48  26  27  1   
 49  26  51  1   
 50  26  52  1   
 51  27  28  ar  
 52  27  29  ar  
 53  28  30  ar  
 54  28  53  1   
 55  29  31  ar  
 56  29  54  1   
 57  30  32  ar  
 58  30  55  1   
 59  31  32  ar  
 60  31  56  1   
 61  32  57  1   
@<TRIPOS>SUBSTRUCTURE
  1 ****  18 GROUP 4 **** **** 0

# MOE 2024.06 (io_trps.svl 2023.06)
