@<TRIPOS>MOLECULE
NONAME
54 56 1 0 0 
SMALL
USER_CHARGES


@<TRIPOS>ATOM
  1 O        3.1080    -0.4580    -1.5980 O.2   1 <1>  -0.5700 
  2 C        2.9640    -0.7590    -0.4150 C.2   1 <1>   0.6160 
  3 N        2.0600    -1.7640    -0.0690 N.am  1 <1>  -0.4690 
  4 C        3.7320    -0.1250     0.6130 C.2   1 <1>   0.0290 
  5 C        1.9830    -2.2130     1.2370 C.2   1 <1>  -0.0290 
  6 C        1.2190    -2.3830    -1.1410 C.3   1 <1>   0.0600 
  7 C        4.5940     0.9690     0.2640 C.2   1 <1>   0.6160 
  8 C        3.6320    -0.5890     1.8980 C.2   1 <1>  -0.1500 
  9 C        2.7540    -1.6430     2.2050 C.2   1 <1>  -0.1500 
 10 C        1.0390    -3.3540     1.5900 C.3   1 <1>  -0.1020 
 11 O        5.7430     1.0270     0.6740 O.2   1 <1>  -0.5700 
 12 N        4.1640     2.0500    -0.4660 N.am  1 <1>  -0.6600 
 13 C        4.6430     2.2640    -1.8700 C.3   1 <1>   0.1400 
 14 C        3.5550     3.2230     0.2040 C.3   1 <1>   0.1400 
 15 C        6.0690     2.8520    -1.9380 C.3   1 <1>   0.3430 
 16 C        4.6370     4.1360     0.8010 C.3   1 <1>  -0.1600 
 17 N        6.5220     3.3880    -0.6160 N.4   1 <1>  -0.9590 
 18 C        5.7340     4.5720    -0.1760 C.3   1 <1>   0.3430 
 19 C        8.0000     3.5960    -0.5740 C.3   1 <1>   0.3430 
 20 C        8.5420     3.5380     0.8560 C.3   1 <1>   0.0960 
 21 N        9.9580     3.9130     0.8240 N.pl3 1 <1>   0.3140 
 22 N       10.3970     4.8920     0.0140 N.2   1 <1>  -0.7070 
 23 C       10.9640     3.3780     1.5400 C.2   1 <1>  -0.3020 
 24 C       11.6730     4.9600     0.2370 C.2   1 <1>   0.1080 
 25 C       12.0890     4.0320     1.1840 C.2   1 <1>  -0.1500 
 26 C       12.5720     5.9470    -0.4710 C.3   1 <1>  -0.0590 
 27 H        1.1910    -1.7650    -2.0210 H     1 <1>   0.0800 
 28 H        0.2080    -2.5030    -0.7980 H     1 <1>   0.0800 
 29 H        1.6260    -3.3420    -1.4060 H     1 <1>   0.0800 
 30 H        4.2190    -0.1600     2.6920 H     1 <1>   0.1500 
 31 H        2.7100    -1.9830     3.2260 H     1 <1>   0.1500 
 32 H        1.2640    -4.2210     0.9960 H     1 <1>   0.0800 
 33 H        0.0190    -3.0600     1.4200 H     1 <1>   0.0800 
 34 H        1.1380    -3.6250     2.6260 H     1 <1>   0.0800 
 35 H        3.9600     2.9160    -2.3850 H     1 <1>   0.0800 
 36 H        4.6350     1.3270    -2.4000 H     1 <1>   0.0800 
 37 H        2.9000     2.8820     0.9890 H     1 <1>   0.0800 
 38 H        2.9540     3.7690    -0.5050 H     1 <1>   0.0800 
 39 H        6.1150     3.6170    -2.6950 H     1 <1>   0.0800 
 40 H        6.7340     2.0580    -2.2390 H     1 <1>   0.0800 
 41 H        5.0840     3.6530     1.6520 H     1 <1>   0.0800 
 42 H        4.1500     5.0210     1.1720 H     1 <1>   0.0800 
 43 H        6.2780     2.6100     0.0380 H     1 <1>   0.4500 
 44 H        6.3820     5.2750     0.3230 H     1 <1>   0.0800 
 45 H        5.2980     5.0690    -1.0280 H     1 <1>   0.0800 
 46 H        8.2420     4.5520    -1.0120 H     1 <1>   0.0800 
 47 H        8.4920     2.8290    -1.1490 H     1 <1>   0.0800 
 48 H        8.4500     2.5450     1.2550 H     1 <1>   0.0800 
 49 H        8.0320     4.2390     1.4900 H     1 <1>   0.0800 
 50 H       10.8360     2.5800     2.2490 H     1 <1>   0.1500 
 51 H       13.0950     3.8900     1.5390 H     1 <1>   0.1500 
 52 H       12.2340     6.9470    -0.2720 H     1 <1>   0.0800 
 53 H       12.5370     5.7700    -1.5300 H     1 <1>   0.0800 
 54 H       13.5850     5.8430    -0.1300 H     1 <1>   0.0800 
@<TRIPOS>BOND
  1   1   2  2   
  2   2   3  am  
  3   2   4  1   
  4   3   5  1   
  5   3   6  1   
  6   4   7  1   
  7   4   8  2   
  8   5   9  2   
  9   5  10  1   
 10   6  27  1   
 11   6  28  1   
 12   6  29  1   
 13   7  11  2   
 14   7  12  am  
 15   8   9  1   
 16   8  30  1   
 17   9  31  1   
 18  10  32  1   
 19  10  33  1   
 20  10  34  1   
 21  12  13  1   
 22  12  14  1   
 23  13  15  1   
 24  13  35  1   
 25  13  36  1   
 26  14  16  1   
 27  14  37  1   
 28  14  38  1   
 29  15  17  1   
 30  15  39  1   
 31  15  40  1   
 32  16  18  1   
 33  16  41  1   
 34  16  42  1   
 35  17  18  1   
 36  17  19  1   
 37  17  43  1   
 38  18  44  1   
 39  18  45  1   
 40  19  20  1   
 41  19  46  1   
 42  19  47  1   
 43  20  21  1   
 44  20  48  1   
 45  20  49  1   
 46  21  22  1   
 47  21  23  1   
 48  22  24  2   
 49  23  25  2   
 50  23  50  1   
 51  24  25  1   
 52  24  26  1   
 53  25  51  1   
 54  26  52  1   
 55  26  53  1   
 56  26  54  1   
@<TRIPOS>SUBSTRUCTURE
  1 ****  11 GROUP 4 **** **** 0

# MOE 2024.06 (io_trps.svl 2023.06)
