@<TRIPOS>MOLECULE
NONAME
53 55 1 0 0 
SMALL
USER_CHARGES


@<TRIPOS>ATOM
  1 S       -0.0520    -0.0630     0.7650 S.o2  1 <1>   1.3330 
  2 O        0.6270     0.4200     1.9480 O.2   1 <1>  -0.6500 
  3 O       -0.9580    -1.1820     0.8370 O.2   1 <1>  -0.6500 
  4 N        1.1380    -0.3990    -0.3970 N.am  1 <1>  -0.8490 
  5 C       -0.8970     1.3600     0.0690 C.3   1 <1>  -0.0550 
  6 C        2.2440    -1.1790     0.1770 C.3   1 <1>   0.1160 
  7 C        0.6090    -1.1280    -1.5590 C.3   1 <1>   0.1160 
  8 C        0.0520     2.5400    -0.2590 C.3   1 <1>  -0.0800 
  9 C       -0.6270     3.7860    -0.8230 C.3   1 <1>   0.2000 
 10 C        0.8750     3.0500     0.9340 C.3   1 <1>   0.3430 
 11 O       -1.8060     4.0450    -0.1320 O.3   1 <1>  -0.6800 
 12 C        0.3880     4.8940    -0.5420 C.3   1 <1>   0.3430 
 13 N        1.0180     4.5290     0.7680 N.4   1 <1>  -0.9590 
 14 C        2.4300     4.9880     0.8680 C.3   1 <1>   0.5230 
 15 C        2.4820     6.5010     0.8240 C.2   1 <1>  -0.1400 
 16 S        4.0320     7.1780     0.3600 S.3   1 <1>  -0.0800 
 17 C        1.5940     7.4880     1.0630 C.2   1 <1>  -0.1500 
 18 C        3.4210     8.8190     0.4960 C.2   1 <1>  -0.1400 
 19 C        2.1300     8.8010     0.8760 C.2   1 <1>  -0.1500 
 20 C        4.4000     9.9440     0.1880 C.3   1 <1>   0.1000 
 21 C        3.8150    11.3440     0.3580 C.3   1 <1>  -0.1600 
 22 C        4.8780     9.9390    -1.2630 C.3   1 <1>  -0.1600 
 23 C        4.7500    12.2510    -0.4430 C.3   1 <1>  -0.1600 
 24 C        5.3350    11.3730    -1.5560 C.3   1 <1>  -0.1600 
 25 H       -1.4060     1.0630    -0.8280 H     1 <1>   0.0800 
 26 H       -1.6490     1.6760     0.7670 H     1 <1>   0.0800 
 27 H        2.9930    -1.3750    -0.5720 H     1 <1>   0.0800 
 28 H        1.8810    -2.1170     0.5650 H     1 <1>   0.0800 
 29 H        2.7090    -0.6340     0.9810 H     1 <1>   0.0800 
 30 H        1.3840    -1.2700    -2.2930 H     1 <1>   0.0800 
 31 H       -0.1930    -0.5750    -2.0180 H     1 <1>   0.0800 
 32 H        0.2320    -2.0940    -1.2620 H     1 <1>   0.0800 
 33 H        0.7570     2.1980    -0.9970 H     1 <1>   0.0800 
 34 H       -0.8650     3.7050    -1.8710 H     1 <1>   0.0800 
 35 H        1.8350     2.5550     0.9590 H     1 <1>   0.0800 
 36 H        0.3620     2.8340     1.8590 H     1 <1>   0.0800 
 37 H       -1.7000     4.0360     0.8380 H     1 <1>   0.4000 
 38 H       -0.0820     5.8640    -0.5170 H     1 <1>   0.0800 
 39 H        1.1360     4.8870    -1.3180 H     1 <1>   0.0800 
 40 H        0.5040     5.0060     1.5190 H     1 <1>   0.4500 
 41 H        2.8740     4.6460     1.7890 H     1 <1>   0.0800 
 42 H        3.0020     4.5890     0.0460 H     1 <1>   0.0800 
 43 H        0.5690     7.3790     1.3720 H     1 <1>   0.1500 
 44 H        1.5170     9.6720     1.0390 H     1 <1>   0.1500 
 45 H        5.2570     9.8530     0.8350 H     1 <1>   0.0800 
 46 H        2.8340    11.3840    -0.0810 H     1 <1>   0.0800 
 47 H        3.7560    11.6330     1.3920 H     1 <1>   0.0800 
 48 H        5.6690     9.2260    -1.4170 H     1 <1>   0.0800 
 49 H        4.0530     9.6920    -1.9080 H     1 <1>   0.0800 
 50 H        4.2260    13.1030    -0.8400 H     1 <1>   0.0800 
 51 H        5.5470    12.5980     0.1940 H     1 <1>   0.0800 
 52 H        6.4100    11.4350    -1.5440 H     1 <1>   0.0800 
 53 H        4.9800    11.6880    -2.5220 H     1 <1>   0.0800 
@<TRIPOS>BOND
  1   1   2  2   
  2   1   3  2   
  3   1   4  am  
  4   1   5  1   
  5   4   6  1   
  6   4   7  1   
  7   5   8  1   
  8   5  25  1   
  9   5  26  1   
 10   6  27  1   
 11   6  28  1   
 12   6  29  1   
 13   7  30  1   
 14   7  31  1   
 15   7  32  1   
 16   8   9  1   
 17   8  10  1   
 18   8  33  1   
 19   9  11  1   
 20   9  12  1   
 21   9  34  1   
 22  10  13  1   
 23  10  35  1   
 24  10  36  1   
 25  11  37  1   
 26  12  13  1   
 27  12  38  1   
 28  12  39  1   
 29  13  14  1   
 30  13  40  1   
 31  14  15  1   
 32  14  41  1   
 33  14  42  1   
 34  15  16  1   
 35  15  17  2   
 36  16  18  1   
 37  17  19  1   
 38  17  43  1   
 39  18  19  2   
 40  18  20  1   
 41  19  44  1   
 42  20  21  1   
 43  20  22  1   
 44  20  45  1   
 45  21  23  1   
 46  21  46  1   
 47  21  47  1   
 48  22  24  1   
 49  22  48  1   
 50  22  49  1   
 51  23  24  1   
 52  23  50  1   
 53  23  51  1   
 54  24  52  1   
 55  24  53  1   
@<TRIPOS>SUBSTRUCTURE
  1 ****  14 GROUP 4 **** **** 0

# MOE 2024.06 (io_trps.svl 2023.06)
