@<TRIPOS>MOLECULE
NONAME
45 46 1 0 0 
SMALL
USER_CHARGES


@<TRIPOS>ATOM
  1 S        0.4680     0.1270    -0.8540 S.o2  1 <1>   1.3330 
  2 O        0.7530    -1.1180    -1.5330 O.2   1 <1>  -0.6500 
  3 O       -0.6970     0.8930    -1.2360 O.2   1 <1>  -0.6500 
  4 N        0.3100    -0.2190     0.8030 N.am  1 <1>  -0.8490 
  5 C        1.9320     1.1610    -0.9450 C.3   1 <1>  -0.0550 
  6 C       -0.2930     0.8790     1.5670 C.3   1 <1>   0.1160 
  7 C       -0.4420    -1.4550     1.0360 C.3   1 <1>   0.1160 
  8 C        3.2490     0.4210    -0.6250 C.3   1 <1>  -0.0800 
  9 C        4.5100     1.2370    -0.8540 C.3   1 <1>   0.2200 
 10 C        3.4100    -0.0390     0.8290 C.3   1 <1>   0.1200 
 11 N        4.3500     2.6120    -0.3270 N.am  1 <1>  -0.7300 
 12 C        5.4950     0.4830     0.0270 C.3   1 <1>   0.1200 
 13 O        4.7640     0.1040     1.1530 O.3   1 <1>  -0.5600 
 14 C        4.1330     3.7260    -1.0830 C.2   1 <1>   0.5440 
 15 O        3.9320     3.5800    -2.2730 O.2   1 <1>  -0.5700 
 16 C        4.1190     5.0340    -0.4740 C.ar  1 <1>   0.0860 
 17 C        3.0060     5.8660    -0.5840 C.ar  1 <1>   0.1900 
 18 C        5.2060     5.5330     0.2570 C.ar  1 <1>   0.0820 
 19 F        1.9430     5.4400    -1.2110 F     1 <1>  -0.1900 
 20 C        2.9450     7.1330    -0.0390 C.ar  1 <1>  -0.1500 
 21 O        6.2930     4.7340     0.3980 O.3   1 <1>  -0.3630 
 22 C        5.1570     6.8130     0.8140 C.ar  1 <1>  -0.1500 
 23 C        4.0350     7.6100     0.6650 C.ar  1 <1>  -0.1500 
 24 C        7.4910     5.1690     1.0060 C.3   1 <1>   0.0400 
 25 H        2.0070     1.5500    -1.9430 H     1 <1>   0.0800 
 26 H        1.8160     2.0000    -0.2900 H     1 <1>   0.0800 
 27 H       -0.2910     0.6430     2.6180 H     1 <1>   0.0800 
 28 H       -1.3090     1.0490     1.2480 H     1 <1>   0.0800 
 29 H        0.2680     1.7860     1.4240 H     1 <1>   0.0800 
 30 H       -0.5160    -1.6540     2.0920 H     1 <1>   0.0800 
 31 H        0.0610    -2.2870     0.5730 H     1 <1>   0.0800 
 32 H       -1.4330    -1.3750     0.6190 H     1 <1>   0.0800 
 33 H        3.3070    -0.4540    -1.2500 H     1 <1>   0.0800 
 34 H        4.8150     1.2560    -1.8870 H     1 <1>   0.0800 
 35 H        3.1220    -1.0680     0.9590 H     1 <1>   0.0800 
 36 H        2.8490     0.5830     1.5050 H     1 <1>   0.0800 
 37 H        4.6260     2.7200     0.6520 H     1 <1>   0.3700 
 38 H        6.3370     1.0850     0.3220 H     1 <1>   0.0800 
 39 H        5.8360    -0.4130    -0.4620 H     1 <1>   0.0800 
 40 H        2.0600     7.7310    -0.1620 H     1 <1>   0.1500 
 41 H        5.9850     7.2090     1.3710 H     1 <1>   0.1500 
 42 H        4.0090     8.5970     1.0970 H     1 <1>   0.1500 
 43 H        8.2060     4.3690     0.9450 H     1 <1>   0.0800 
 44 H        7.2960     5.4050     2.0370 H     1 <1>   0.0800 
 45 H        7.8610     6.0280     0.4750 H     1 <1>   0.0800 
@<TRIPOS>BOND
  1   1   2  2   
  2   1   3  2   
  3   1   4  am  
  4   1   5  1   
  5   4   6  1   
  6   4   7  1   
  7   5   8  1   
  8   5  25  1   
  9   5  26  1   
 10   6  27  1   
 11   6  28  1   
 12   6  29  1   
 13   7  30  1   
 14   7  31  1   
 15   7  32  1   
 16   8   9  1   
 17   8  10  1   
 18   8  33  1   
 19   9  11  1   
 20   9  12  1   
 21   9  34  1   
 22  10  13  1   
 23  10  35  1   
 24  10  36  1   
 25  11  14  am  
 26  11  37  1   
 27  12  13  1   
 28  12  38  1   
 29  12  39  1   
 30  14  15  2   
 31  14  16  1   
 32  16  17  ar  
 33  16  18  ar  
 34  17  19  1   
 35  17  20  ar  
 36  18  21  1   
 37  18  22  ar  
 38  20  23  ar  
 39  20  40  1   
 40  21  24  1   
 41  22  23  ar  
 42  22  41  1   
 43  23  42  1   
 44  24  43  1   
 45  24  44  1   
 46  24  45  1   
@<TRIPOS>SUBSTRUCTURE
  1 ****  11 GROUP 4 **** **** 0

# MOE 2024.06 (io_trps.svl 2023.06)
