@<TRIPOS>MOLECULE
NONAME
50 52 1 0 0 
SMALL
USER_CHARGES


@<TRIPOS>ATOM
  1 O        0.7280    -0.0120    -0.7560 O.3   1 <1>  -0.2800 
  2 C        0.7510    -1.3100    -0.9740 C.2   1 <1>   0.4250 
  3 C        1.7960     0.3500    -1.4060 C.2   1 <1>   0.2980 
  4 N        1.7610    -1.6800    -1.6840 N.2   1 <1>  -0.3380 
  5 C       -0.2800    -2.1580    -0.4230 C.ar  1 <1>   0.0530 
  6 N        2.4370    -0.5930    -1.9650 N.2   1 <1>  -0.3380 
  7 C        2.1980     1.8200    -1.4150 C.3   1 <1>   0.5230 
  8 C       -1.3910    -1.6250     0.2340 C.ar  1 <1>   0.1600 
  9 C       -0.2170    -3.5440    -0.5160 C.ar  1 <1>  -0.1500 
 10 N        2.3620     2.3700    -0.0190 N.4   1 <1>  -0.9590 
 11 N       -2.3760    -2.3140     0.7820 N.ar  1 <1>  -0.6200 
 12 C       -1.2350    -4.2820     0.0450 C.ar  1 <1>  -0.1500 
 13 C        3.7770     2.2540     0.4790 C.3   1 <1>   0.5610 
 14 C        1.8820     3.7970     0.0250 C.3   1 <1>   0.4230 
 15 C       -2.2790    -3.6290     0.6760 C.ar  1 <1>   0.1600 
 16 C        4.6400     3.2180    -0.3200 C.2   1 <1>  -0.2880 
 17 C        4.3260     0.8150     0.4480 C.3   1 <1>  -0.0220 
 18 C        2.7160     4.7030    -0.9140 C.3   1 <1>  -0.0220 
 19 C        1.8650     4.3250     1.4720 C.3   1 <1>  -0.0220 
 20 C        4.1860     4.3060    -0.9500 C.2   1 <1>  -0.2760 
 21 C        5.5530     0.6070     1.3290 C.2   1 <1>  -0.2880 
 22 C        1.0070     5.5740     1.5870 C.2   1 <1>  -0.2880 
 23 C        5.0760     5.2490    -1.7450 C.3   1 <1>  -0.1020 
 24 C        6.1540     1.4920     2.1320 C.2   1 <1>  -0.3000 
 25 C        1.4710     6.7850     1.9050 C.2   1 <1>  -0.3000 
 26 H        1.4250     2.3620    -1.9310 H     1 <1>   0.0800 
 27 H        3.1120     1.9380    -1.9720 H     1 <1>   0.0800 
 28 H       -1.4750    -0.5560     0.3130 H     1 <1>   0.1500 
 29 H        0.6070    -4.0300    -1.0120 H     1 <1>   0.1500 
 30 H        1.7680     1.8110     0.6030 H     1 <1>   0.4500 
 31 H       -1.2240    -5.3560    -0.0040 H     1 <1>   0.1500 
 32 H        3.8030     2.5670     1.5100 H     1 <1>   0.0800 
 33 H        0.8610     3.8240    -0.3200 H     1 <1>   0.0800 
 34 H       -3.0710    -4.2140     1.1130 H     1 <1>   0.1500 
 35 H        5.6840     2.9440    -0.3160 H     1 <1>   0.1500 
 36 H        3.5690     0.1350     0.7960 H     1 <1>   0.0800 
 37 H        4.5930     0.5480    -0.5590 H     1 <1>   0.0800 
 38 H        2.3120     4.6510    -1.9090 H     1 <1>   0.0800 
 39 H        2.6250     5.7300    -0.6030 H     1 <1>   0.0800 
 40 H        1.4550     3.5840     2.1340 H     1 <1>   0.0800 
 41 H        2.8660     4.5570     1.7950 H     1 <1>   0.0800 
 42 H        5.9290    -0.4020     1.2460 H     1 <1>   0.1500 
 43 H       -0.0410     5.4010     1.3930 H     1 <1>   0.1500 
 44 H        4.7520     5.3010    -2.7690 H     1 <1>   0.0800 
 45 H        6.0980     4.9120    -1.7310 H     1 <1>   0.0800 
 46 H        5.0440     6.2390    -1.3230 H     1 <1>   0.0800 
 47 H        7.0240     1.2470     2.7210 H     1 <1>   0.1500 
 48 H        5.8680     2.5170     2.2900 H     1 <1>   0.1500 
 49 H        0.8500     7.6630     1.9890 H     1 <1>   0.1500 
 50 H        2.5030     7.0150     2.1150 H     1 <1>   0.1500 
@<TRIPOS>BOND
  1   1   2  1   
  2   1   3  1   
  3   2   4  2   
  4   2   5  1   
  5   3   6  2   
  6   3   7  1   
  7   4   6  1   
  8   5   8  ar  
  9   5   9  ar  
 10   7  10  1   
 11   7  26  1   
 12   7  27  1   
 13   8  11  ar  
 14   8  28  1   
 15   9  12  ar  
 16   9  29  1   
 17  10  13  1   
 18  10  14  1   
 19  10  30  1   
 20  11  15  ar  
 21  12  15  ar  
 22  12  31  1   
 23  13  16  1   
 24  13  17  1   
 25  13  32  1   
 26  14  18  1   
 27  14  19  1   
 28  14  33  1   
 29  15  34  1   
 30  16  20  2   
 31  16  35  1   
 32  17  21  1   
 33  17  36  1   
 34  17  37  1   
 35  18  20  1   
 36  18  38  1   
 37  18  39  1   
 38  19  22  1   
 39  19  40  1   
 40  19  41  1   
 41  20  23  1   
 42  21  24  2   
 43  21  42  1   
 44  22  25  2   
 45  22  43  1   
 46  23  44  1   
 47  23  45  1   
 48  23  46  1   
 49  24  47  1   
 50  24  48  1   
 51  25  49  1   
 52  25  50  1   
@<TRIPOS>SUBSTRUCTURE
  1 ****  10 GROUP 4 **** **** 0

# MOE 2024.06 (io_trps.svl 2023.06)
