@<TRIPOS>MOLECULE
NONAME
53 54 1 0 0 
SMALL
USER_CHARGES


@<TRIPOS>ATOM
  1 S        1.2510    -0.2060    -0.7870 S.o2  1 <1>   1.3330 
  2 O        1.2760    -0.2250    -2.2330 O.2   1 <1>  -0.6500 
  3 O        1.3860    -1.4520    -0.0660 O.2   1 <1>  -0.6500 
  4 N       -0.2170     0.4970    -0.3050 N.am  1 <1>  -0.8490 
  5 C        2.4760     0.9800    -0.2360 C.3   1 <1>  -0.0550 
  6 C       -0.4640     0.3880     1.1370 C.3   1 <1>   0.1160 
  7 C       -1.3530    -0.0540    -1.0480 C.3   1 <1>   0.1160 
  8 C        3.9110     0.6890    -0.7280 C.3   1 <1>  -0.0800 
  9 C        4.9280     1.7580    -0.3480 C.3   1 <1>   0.2200 
 10 C        4.5140    -0.5160    -0.0040 C.3   1 <1>   0.1200 
 11 N        4.4620     3.1650    -0.4960 N.am  1 <1>  -0.7300 
 12 C        5.3670     1.3420     1.0590 C.3   1 <1>   0.1200 
 13 O        5.0700    -0.0200     1.1740 O.3   1 <1>  -0.5600 
 14 C        3.7280     3.9510     0.3420 C.2   1 <1>   0.5690 
 15 O        3.1770     3.5240     1.3280 O.2   1 <1>  -0.5700 
 16 C        3.5760     5.4190     0.0160 C.3   1 <1>   0.1570 
 17 N        4.8790     5.9540    -0.3990 N.pl3 1 <1>   0.3140 
 18 N        5.3050     5.8100    -1.6690 N.2   1 <1>  -0.7070 
 19 C        5.8180     6.5460     0.3730 C.2   1 <1>  -0.3320 
 20 C        6.4900     6.3310    -1.6840 C.2   1 <1>   0.1080 
 21 C        6.8710     6.8090    -0.4330 C.2   1 <1>  -0.1810 
 22 C        5.6530     6.8120     1.8620 C.3   1 <1>  -0.0600 
 23 C        7.3260     6.3890    -2.9430 C.3   1 <1>  -0.0590 
 24 C        8.1930     7.4700    -0.0810 C.3   1 <1>   0.0210 
 25 C        9.2170     6.4180     0.3490 C.3   1 <1>  -0.2400 
 26 H        2.1760     1.9370    -0.6110 H     1 <1>   0.0800 
 27 H        2.4730     1.0350     0.8350 H     1 <1>   0.0800 
 28 H       -1.3730     0.9030     1.3950 H     1 <1>   0.0800 
 29 H        0.3450     0.8360     1.6880 H     1 <1>   0.0800 
 30 H       -0.5510    -0.6460     1.4280 H     1 <1>   0.0800 
 31 H       -2.2670     0.4230    -0.7390 H     1 <1>   0.0800 
 32 H       -1.4310    -1.1160    -0.8800 H     1 <1>   0.0800 
 33 H       -1.2220     0.1200    -2.1030 H     1 <1>   0.0800 
 34 H        3.9070     0.5270    -1.7910 H     1 <1>   0.0800 
 35 H        5.7890     1.6390    -0.9850 H     1 <1>   0.0800 
 36 H        5.3140    -0.9460    -0.5830 H     1 <1>   0.0800 
 37 H        3.8050    -1.2860     0.2430 H     1 <1>   0.0800 
 38 H        4.9270     3.6790    -1.2630 H     1 <1>   0.3700 
 39 H        4.8230     1.8520     1.8310 H     1 <1>   0.0800 
 40 H        6.4240     1.4770     1.2000 H     1 <1>   0.0800 
 41 H        3.2230     5.9550     0.8750 H     1 <1>   0.0800 
 42 H        2.8780     5.5390    -0.7890 H     1 <1>   0.0800 
 43 H        6.5590     7.2090     2.2810 H     1 <1>   0.0800 
 44 H        5.4180     5.8980     2.3790 H     1 <1>   0.0800 
 45 H        4.8620     7.5220     2.0270 H     1 <1>   0.0800 
 46 H        8.2860     5.9420    -2.7670 H     1 <1>   0.0800 
 47 H        7.4570     7.4120    -3.2420 H     1 <1>   0.0800 
 48 H        6.8330     5.8560    -3.7350 H     1 <1>   0.0800 
 49 H        8.5640     8.0170    -0.9290 H     1 <1>   0.0800 
 50 H        8.0420     8.1740     0.7180 H     1 <1>   0.0800 
 51 H        9.3880     5.7170    -0.4480 H     1 <1>   0.0800 
 52 H        8.8530     5.8800     1.2070 H     1 <1>   0.0800 
 53 H       10.1490     6.8890     0.6040 H     1 <1>   0.0800 
@<TRIPOS>BOND
  1   1   2  2   
  2   1   3  2   
  3   1   4  am  
  4   1   5  1   
  5   4   6  1   
  6   4   7  1   
  7   5   8  1   
  8   5  26  1   
  9   5  27  1   
 10   6  28  1   
 11   6  29  1   
 12   6  30  1   
 13   7  31  1   
 14   7  32  1   
 15   7  33  1   
 16   8   9  1   
 17   8  10  1   
 18   8  34  1   
 19   9  11  1   
 20   9  12  1   
 21   9  35  1   
 22  10  13  1   
 23  10  36  1   
 24  10  37  1   
 25  11  14  am  
 26  11  38  1   
 27  12  13  1   
 28  12  39  1   
 29  12  40  1   
 30  14  15  2   
 31  14  16  1   
 32  16  17  1   
 33  16  41  1   
 34  16  42  1   
 35  17  18  1   
 36  17  19  1   
 37  18  20  2   
 38  19  21  2   
 39  19  22  1   
 40  20  21  1   
 41  20  23  1   
 42  21  24  1   
 43  22  43  1   
 44  22  44  1   
 45  22  45  1   
 46  23  46  1   
 47  23  47  1   
 48  23  48  1   
 49  24  25  1   
 50  24  49  1   
 51  24  50  1   
 52  25  51  1   
 53  25  52  1   
 54  25  53  1   
@<TRIPOS>SUBSTRUCTURE
  1 ****  11 GROUP 4 **** **** 0

# MOE 2024.06 (io_trps.svl 2023.06)
