@<TRIPOS>MOLECULE
NONAME
46 47 1 0 0 
SMALL
USER_CHARGES


@<TRIPOS>ATOM
  1 O       -0.7700    -0.8030     1.4440 O.co2 1 <1>  -0.9000 
  2 C       -1.7880    -1.0410     0.7650 C.2   1 <1>   0.9790 
  3 O       -1.9630    -2.1860     0.3130 O.co2 1 <1>  -0.9000 
  4 C       -2.7320     0.0300     0.4820 C.ar  1 <1>  -0.1790 
  5 C       -2.7120     1.2080     1.2250 C.ar  1 <1>  -0.1500 
  6 C       -3.6700    -0.0540    -0.5450 C.ar  1 <1>  -0.1500 
  7 C       -3.5270     2.2880     0.9320 C.ar  1 <1>  -0.1440 
  8 C       -4.5190     0.9980    -0.8350 C.ar  1 <1>  -0.1500 
  9 C       -4.4510     2.1820    -0.1050 C.ar  1 <1>   0.0830 
 10 C       -3.3850     3.5610     1.7630 C.3   1 <1>   0.2540 
 11 O       -5.2490     3.2510    -0.3640 O.3   1 <1>  -0.3630 
 12 N       -2.2860     4.4440     1.2920 N.3   1 <1>  -0.8100 
 13 C       -6.3560     3.1460    -1.2330 C.3   1 <1>   0.0400 
 14 C       -0.9530     3.7880     1.3570 C.3   1 <1>   0.1100 
 15 C       -2.5350     4.9380    -0.0850 C.3   1 <1>   0.1100 
 16 C        0.1910     4.7450     0.9510 C.3   1 <1>   0.3430 
 17 C       -1.3840     5.8280    -0.6110 C.3   1 <1>   0.3430 
 18 N       -0.3490     6.0520     0.4520 N.4   1 <1>  -0.9590 
 19 C        0.6770     7.0450     0.0850 C.3   1 <1>   0.4810 
 20 C        0.0680     8.4440     0.0720 C.2   1 <1>  -0.2760 
 21 C       -1.1170     8.8180     0.5770 C.2   1 <1>  -0.3000 
 22 C        0.9860     9.4630    -0.5910 C.3   1 <1>  -0.1020 
 23 H       -2.0150     1.2620     2.0440 H     1 <1>   0.1500 
 24 H       -3.7150    -0.9660    -1.1170 H     1 <1>   0.1500 
 25 H       -5.2180     0.8720    -1.6380 H     1 <1>   0.1500 
 26 H       -3.1970     3.2870     2.7870 H     1 <1>   0.0800 
 27 H       -4.3100     4.1100     1.7540 H     1 <1>   0.0800 
 28 H       -6.8920     4.0770    -1.2080 H     1 <1>   0.0800 
 29 H       -6.9920     2.3490    -0.8910 H     1 <1>   0.0800 
 30 H       -6.0010     2.9540    -2.2300 H     1 <1>   0.0800 
 31 H       -0.9240     2.9420     0.6920 H     1 <1>   0.0800 
 32 H       -0.7740     3.4220     2.3540 H     1 <1>   0.0800 
 33 H       -3.4550     5.4980    -0.1010 H     1 <1>   0.0800 
 34 H       -2.6550     4.1080    -0.7610 H     1 <1>   0.0800 
 35 H        0.7880     4.2700     0.1900 H     1 <1>   0.0800 
 36 H        0.8220     4.9130     1.8080 H     1 <1>   0.0800 
 37 H       -1.7920     6.7710    -0.9360 H     1 <1>   0.0800 
 38 H       -0.9360     5.3520    -1.4660 H     1 <1>   0.0800 
 39 H       -0.8870     6.4240     1.2450 H     1 <1>   0.4500 
 40 H        1.0750     6.8090    -0.8890 H     1 <1>   0.0800 
 41 H        1.4860     7.0220     0.7970 H     1 <1>   0.0800 
 42 H       -1.4860     9.8310     0.5380 H     1 <1>   0.1500 
 43 H       -1.8300     8.1830     1.0740 H     1 <1>   0.1500 
 44 H        1.1740     9.1930    -1.6160 H     1 <1>   0.0800 
 45 H        1.9260     9.5220    -0.0690 H     1 <1>   0.0800 
 46 H        0.5400    10.4430    -0.5820 H     1 <1>   0.0800 
@<TRIPOS>BOND
  1   1   2  ar  
  2   2   3  ar  
  3   2   4  1   
  4   4   5  ar  
  5   4   6  ar  
  6   5   7  ar  
  7   5  23  1   
  8   6   8  ar  
  9   6  24  1   
 10   7   9  ar  
 11   7  10  1   
 12   8   9  ar  
 13   8  25  1   
 14   9  11  1   
 15  10  12  1   
 16  10  26  1   
 17  10  27  1   
 18  11  13  1   
 19  12  14  1   
 20  12  15  1   
 21  13  28  1   
 22  13  29  1   
 23  13  30  1   
 24  14  16  1   
 25  14  31  1   
 26  14  32  1   
 27  15  17  1   
 28  15  33  1   
 29  15  34  1   
 30  16  18  1   
 31  16  35  1   
 32  16  36  1   
 33  17  18  1   
 34  17  37  1   
 35  17  38  1   
 36  18  19  1   
 37  18  39  1   
 38  19  20  1   
 39  19  40  1   
 40  19  41  1   
 41  20  21  2   
 42  20  22  1   
 43  21  42  1   
 44  21  43  1   
 45  22  44  1   
 46  22  45  1   
 47  22  46  1   
@<TRIPOS>SUBSTRUCTURE
  1 ****  12 GROUP 4 **** **** 0

# MOE 2024.06 (io_trps.svl 2023.06)
