@<TRIPOS>MOLECULE
NONAME
55 59 1 0 0 
SMALL
USER_CHARGES


@<TRIPOS>ATOM
  1 O       -0.9540    -2.0050     0.2950 O.3   1 <1>  -0.0190 
  2 N       -0.7630    -0.7330     0.1080 N.2   1 <1>  -0.4100 
  3 C       -2.1640    -2.2600     0.7070 C.2   1 <1>  -0.0400 
  4 C       -1.8640    -0.1510     0.4100 C.2   1 <1>   0.1080 
  5 C       -2.8230    -1.0920     0.7920 C.2   1 <1>  -0.1810 
  6 C       -2.5500    -3.7010     0.9810 C.3   1 <1>  -0.0600 
  7 C       -2.0310     1.3540     0.3480 C.3   1 <1>  -0.0590 
  8 C       -4.2530    -0.8240     1.1890 C.3   1 <1>   0.5240 
  9 N       -5.0240    -0.4740    -0.0340 N.4   1 <1>  -0.9590 
 10 C       -6.4100    -0.0080     0.3160 C.3   1 <1>   0.3430 
 11 C       -5.0580    -1.6120    -1.0030 C.3   1 <1>   0.3430 
 12 C       -7.2030     0.4460    -0.9230 C.3   1 <1>   0.1430 
 13 C       -5.7860    -1.1890    -2.2820 C.3   1 <1>  -0.1600 
 14 C       -8.6170     0.7570    -0.4950 C.ar  1 <1>   0.1670 
 15 C       -7.2040    -0.6640    -1.9950 C.3   1 <1>  -0.1600 
 16 C       -6.7220     1.8070    -1.4960 C.3   1 <1>  -0.1600 
 17 N       -9.3430    -0.0120     0.2770 N.ar  1 <1>  -0.6200 
 18 C       -9.0480     1.9470    -0.9900 C.ar  1 <1>  -0.1440 
 19 C       -7.9910     2.6160    -1.8320 C.3   1 <1>  -0.0170 
 20 C      -10.5760     0.4450     0.5490 C.ar  1 <1>   0.6200 
 21 C      -10.3180     2.3470    -0.6630 C.ar  1 <1>   0.1600 
 22 N      -11.0820     1.6040     0.1060 N.ar  1 <1>  -0.6200 
 23 C      -11.4230    -0.3780     1.3980 C.ar  1 <1>   0.0000 
 24 C      -11.3810    -1.7740     1.3400 C.ar  1 <1>  -0.1500 
 25 C      -12.3150     0.1910     2.3100 C.ar  1 <1>  -0.1500 
 26 C      -12.1810    -2.5590     2.1510 C.ar  1 <1>  -0.1500 
 27 C      -13.1170    -0.5870     3.1250 C.ar  1 <1>  -0.1500 
 28 C      -13.0510    -1.9660     3.0470 C.ar  1 <1>  -0.1500 
 29 H       -1.9040    -4.1070     1.7400 H     1 <1>   0.0800 
 30 H       -2.4320    -4.2870     0.0870 H     1 <1>   0.0800 
 31 H       -3.5660    -3.7750     1.3190 H     1 <1>   0.0800 
 32 H       -1.0640     1.8230     0.4050 H     1 <1>   0.0800 
 33 H       -2.6230     1.7070     1.1710 H     1 <1>   0.0800 
 34 H       -2.4880     1.6390    -0.5810 H     1 <1>   0.0800 
 35 H       -4.2820    -0.0130     1.8980 H     1 <1>   0.0800 
 36 H       -4.6740    -1.7000     1.6550 H     1 <1>   0.0800 
 37 H       -4.5200     0.2910    -0.4960 H     1 <1>   0.4500 
 38 H       -6.3660     0.8080     1.0180 H     1 <1>   0.0800 
 39 H       -6.9530    -0.8140     0.7840 H     1 <1>   0.0800 
 40 H       -5.5710    -2.4530    -0.5620 H     1 <1>   0.0800 
 41 H       -4.0540    -1.9210    -1.2510 H     1 <1>   0.0800 
 42 H       -5.8530    -2.0390    -2.9390 H     1 <1>   0.0800 
 43 H       -5.2020    -0.4440    -2.7940 H     1 <1>   0.0800 
 44 H       -7.6560    -0.3030    -2.9040 H     1 <1>   0.0800 
 45 H       -7.8110    -1.4840    -1.6460 H     1 <1>   0.0800 
 46 H       -6.0920     1.7040    -2.3620 H     1 <1>   0.0800 
 47 H       -6.1780     2.3480    -0.7400 H     1 <1>   0.0800 
 48 H       -8.2440     2.5180    -2.8740 H     1 <1>   0.0800 
 49 H       -7.8800     3.6580    -1.5810 H     1 <1>   0.0800 
 50 H      -10.7140     3.2790    -1.0290 H     1 <1>   0.1500 
 51 H      -10.7150    -2.2520     0.6440 H     1 <1>   0.1500 
 52 H      -12.3810     1.2630     2.3810 H     1 <1>   0.1500 
 53 H      -12.1290    -3.6320     2.0850 H     1 <1>   0.1500 
 54 H      -13.7950    -0.1200     3.8180 H     1 <1>   0.1500 
 55 H      -13.6750    -2.5740     3.6800 H     1 <1>   0.1500 
@<TRIPOS>BOND
  1   1   2  1   
  2   1   3  1   
  3   2   4  2   
  4   3   5  2   
  5   3   6  1   
  6   4   5  1   
  7   4   7  1   
  8   5   8  1   
  9   6  29  1   
 10   6  30  1   
 11   6  31  1   
 12   7  32  1   
 13   7  33  1   
 14   7  34  1   
 15   8   9  1   
 16   8  35  1   
 17   8  36  1   
 18   9  10  1   
 19   9  11  1   
 20   9  37  1   
 21  10  12  1   
 22  10  38  1   
 23  10  39  1   
 24  11  13  1   
 25  11  40  1   
 26  11  41  1   
 27  12  14  1   
 28  12  15  1   
 29  12  16  1   
 30  13  15  1   
 31  13  42  1   
 32  13  43  1   
 33  14  17  ar  
 34  14  18  ar  
 35  15  44  1   
 36  15  45  1   
 37  16  19  1   
 38  16  46  1   
 39  16  47  1   
 40  17  20  ar  
 41  18  19  1   
 42  18  21  ar  
 43  19  48  1   
 44  19  49  1   
 45  20  22  ar  
 46  20  23  1   
 47  21  22  ar  
 48  21  50  1   
 49  23  24  ar  
 50  23  25  ar  
 51  24  26  ar  
 52  24  51  1   
 53  25  27  ar  
 54  25  52  1   
 55  26  28  ar  
 56  26  53  1   
 57  27  28  ar  
 58  27  54  1   
 59  28  55  1   
@<TRIPOS>SUBSTRUCTURE
  1 ****  10 GROUP 4 **** **** 0

# MOE 2024.06 (io_trps.svl 2023.06)
