@<TRIPOS>MOLECULE
NONAME
35 36 1 0 0 
SMALL
USER_CHARGES


@<TRIPOS>ATOM
  1 S        1.2640     0.6310     0.5170 S.3   1 <1>  -0.3320 
  2 C        0.7110    -1.0570     0.7910 C.ar  1 <1>   0.1020 
  3 C        0.9610     0.9950    -1.2840 C.3   1 <1>   0.1310 
  4 C        0.1790    -1.8530    -0.2030 C.ar  1 <1>  -0.1500 
  5 C        0.8240    -1.5850     2.0560 C.ar  1 <1>  -0.1500 
  6 C        1.3860     2.4070    -1.6620 C.2   1 <1>   0.5690 
  7 C       -0.2120    -3.1380     0.1280 C.ar  1 <1>   0.1600 
  8 C        0.4000    -2.8830     2.2710 C.ar  1 <1>   0.1600 
  9 O        1.2310     2.7450    -2.8110 O.2   1 <1>  -0.5700 
 10 N        1.9160     3.2240    -0.7080 N.am  1 <1>  -0.4930 
 11 N       -0.1140    -3.6700     1.3370 N.ar  1 <1>  -0.6200 
 12 C        2.3760     4.5590    -0.8260 C.2   1 <1>   0.0630 
 13 C        2.4090     5.3910    -1.9450 C.2   1 <1>   0.1390 
 14 C        2.8920     5.3100     0.1680 C.2   1 <1>  -0.3020 
 15 N        2.9040     6.5630    -1.6750 N.2   1 <1>  -0.7070 
 16 N        3.2050     6.5160    -0.3620 N.pl3 1 <1>   0.3140 
 17 C        3.8020     7.6830     0.3430 C.3   1 <1>   0.1760 
 18 C        5.1900     7.3310     0.8970 C.3   1 <1>  -0.2400 
 19 C        2.8730     8.1790     1.4590 C.3   1 <1>  -0.2400 
 20 H       -0.0900     0.8720    -1.4650 H     1 <1>   0.0800 
 21 H        1.5230     0.2810    -1.8560 H     1 <1>   0.0800 
 22 H        0.0610    -1.5090    -1.2100 H     1 <1>   0.1500 
 23 H        1.2330    -1.0000     2.8580 H     1 <1>   0.1500 
 24 H       -0.6290    -3.7660    -0.6420 H     1 <1>   0.1500 
 25 H        0.4870    -3.2990     3.2610 H     1 <1>   0.1500 
 26 H        1.9940     2.8180     0.2260 H     1 <1>   0.3700 
 27 H        2.0660     5.1020    -2.9240 H     1 <1>   0.1500 
 28 H        3.0530     5.0660     1.2000 H     1 <1>   0.1500 
 29 H        3.9130     8.4670    -0.3850 H     1 <1>   0.0800 
 30 H        5.1220     6.5600     1.6430 H     1 <1>   0.0800 
 31 H        5.6380     8.2010     1.3430 H     1 <1>   0.0800 
 32 H        5.8280     6.9960     0.0980 H     1 <1>   0.0800 
 33 H        2.7500     7.4280     2.2180 H     1 <1>   0.0800 
 34 H        1.9100     8.4290     1.0480 H     1 <1>   0.0800 
 35 H        3.2850     9.0620     1.9140 H     1 <1>   0.0800 
@<TRIPOS>BOND
  1   1   2  1   
  2   1   3  1   
  3   2   4  ar  
  4   2   5  ar  
  5   3   6  1   
  6   3  20  1   
  7   3  21  1   
  8   4   7  ar  
  9   4  22  1   
 10   5   8  ar  
 11   5  23  1   
 12   6   9  2   
 13   6  10  am  
 14   7  11  ar  
 15   7  24  1   
 16   8  11  ar  
 17   8  25  1   
 18  10  12  1   
 19  10  26  1   
 20  12  13  1   
 21  12  14  2   
 22  13  15  2   
 23  13  27  1   
 24  14  16  1   
 25  14  28  1   
 26  15  16  1   
 27  16  17  1   
 28  17  18  1   
 29  17  19  1   
 30  17  29  1   
 31  18  30  1   
 32  18  31  1   
 33  18  32  1   
 34  19  33  1   
 35  19  34  1   
 36  19  35  1   
@<TRIPOS>SUBSTRUCTURE
  1 ****  10 GROUP 4 **** **** 0

# MOE 2024.06 (io_trps.svl 2023.06)
