@<TRIPOS>MOLECULE
NONAME
52 55 1 0 0 
SMALL
USER_CHARGES


@<TRIPOS>ATOM
  1 O        1.3350     1.0600    -0.9940 O.2   1 <1>  -0.5700 
  2 C        1.7330     0.0100    -0.5490 C.2   1 <1>   0.5690 
  3 N        2.7580    -0.0020     0.3700 N.am  1 <1>  -0.6600 
  4 C        1.1070    -1.2720    -1.0920 C.3   1 <1>   0.0820 
  5 C        3.0800     1.2350     1.1590 C.3   1 <1>   0.1400 
  6 C        3.6160    -1.1850     0.6780 C.3   1 <1>   0.1400 
  7 C        0.5990    -2.2260    -0.0170 C.2   1 <1>  -0.1810 
  8 C        4.4890     1.8420     0.9050 C.3   1 <1>   0.4230 
  9 C        5.0760    -0.9470     0.2330 C.3   1 <1>  -0.0800 
 10 C        0.2600    -3.5900    -0.2160 C.ar  1 <1>   0.0000 
 11 C        0.3880    -1.9700     1.2890 C.2   1 <1>  -0.0100 
 12 N        5.0920     1.5570    -0.4590 N.4   1 <1>  -0.9590 
 13 C        5.4740     1.4950     2.0420 C.3   1 <1>   0.1200 
 14 C        6.0450    -0.7220     1.4050 C.3   1 <1>   0.1200 
 15 C        5.1980     0.1120    -0.8770 C.3   1 <1>   0.3430 
 16 C        0.2150    -4.4970    -1.2850 C.ar  1 <1>  -0.1430 
 17 C       -0.1110    -4.0320     1.0460 C.ar  1 <1>   0.1400 
 18 O       -0.0300    -3.0460     1.9370 O.3   1 <1>  -0.2800 
 19 C        4.3400     2.3160    -1.5090 C.3   1 <1>   0.2630 
 20 O        5.4950     0.1360     2.3480 O.3   1 <1>  -0.5600 
 21 C       -0.1790    -5.7990    -1.0360 C.ar  1 <1>  -0.1500 
 22 C        0.5770    -4.0820    -2.7010 C.3   1 <1>  -0.0970 
 23 C       -0.5070    -5.3380     1.2960 C.ar  1 <1>  -0.1500 
 24 C       -0.5380    -6.2290     0.2440 C.ar  1 <1>  -0.1430 
 25 C       -0.9610    -7.6720     0.4560 C.3   1 <1>  -0.0970 
 26 H        0.2830    -1.0110    -1.7310 H     1 <1>   0.0800 
 27 H        1.8440    -1.7650    -1.6930 H     1 <1>   0.0800 
 28 H        2.3510     1.9970     0.9470 H     1 <1>   0.0800 
 29 H        2.9740     1.0100     2.2060 H     1 <1>   0.0800 
 30 H        3.5680    -1.4000     1.7340 H     1 <1>   0.0800 
 31 H        3.2420    -2.0560     0.1700 H     1 <1>   0.0800 
 32 H        4.3630     2.9090     0.9730 H     1 <1>   0.0800 
 33 H        5.3960    -1.8700    -0.2180 H     1 <1>   0.0800 
 34 H        0.5100    -1.0620     1.8550 H     1 <1>   0.1500 
 35 H        6.0500     1.9290    -0.4320 H     1 <1>   0.4500 
 36 H        5.1570     1.9980     2.9390 H     1 <1>   0.0800 
 37 H        6.4740     1.8220     1.8170 H     1 <1>   0.0800 
 38 H        7.0000    -0.3420     1.0830 H     1 <1>   0.0800 
 39 H        6.2120    -1.6590     1.9110 H     1 <1>   0.0800 
 40 H        4.4240    -0.0950    -1.5980 H     1 <1>   0.0800 
 41 H        6.1400    -0.0290    -1.3810 H     1 <1>   0.0800 
 42 H        3.3270     1.9580    -1.5770 H     1 <1>   0.0800 
 43 H        4.8110     2.1950    -2.4710 H     1 <1>   0.0800 
 44 H        4.3140     3.3670    -1.2700 H     1 <1>   0.0800 
 45 H       -0.2180    -6.5110    -1.8420 H     1 <1>   0.1500 
 46 H        0.3450    -4.8660    -3.4000 H     1 <1>   0.0800 
 47 H        1.6280    -3.8730    -2.7670 H     1 <1>   0.0800 
 48 H        0.0160    -3.2090    -2.9850 H     1 <1>   0.0800 
 49 H       -0.7780    -5.6200     2.2960 H     1 <1>   0.1500 
 50 H       -1.8280    -7.8900    -0.1420 H     1 <1>   0.0800 
 51 H       -1.2030    -7.8530     1.4880 H     1 <1>   0.0800 
 52 H       -0.1640    -8.3330     0.1700 H     1 <1>   0.0800 
@<TRIPOS>BOND
  1   1   2  2   
  2   2   3  am  
  3   2   4  1   
  4   3   5  1   
  5   3   6  1   
  6   4   7  1   
  7   4  26  1   
  8   4  27  1   
  9   5   8  1   
 10   5  28  1   
 11   5  29  1   
 12   6   9  1   
 13   6  30  1   
 14   6  31  1   
 15   7  10  1   
 16   7  11  2   
 17   8  12  1   
 18   8  13  1   
 19   8  32  1   
 20   9  14  1   
 21   9  15  1   
 22   9  33  1   
 23  10  16  ar  
 24  10  17  ar  
 25  11  18  1   
 26  11  34  1   
 27  12  15  1   
 28  12  19  1   
 29  12  35  1   
 30  13  20  1   
 31  13  36  1   
 32  13  37  1   
 33  14  20  1   
 34  14  38  1   
 35  14  39  1   
 36  15  40  1   
 37  15  41  1   
 38  16  21  ar  
 39  16  22  1   
 40  17  18  1   
 41  17  23  ar  
 42  19  42  1   
 43  19  43  1   
 44  19  44  1   
 45  21  24  ar  
 46  21  45  1   
 47  22  46  1   
 48  22  47  1   
 49  22  48  1   
 50  23  24  ar  
 51  23  49  1   
 52  24  25  1   
 53  25  50  1   
 54  25  51  1   
 55  25  52  1   
@<TRIPOS>SUBSTRUCTURE
  1 ****   6 GROUP 4 **** **** 0

# MOE 2024.06 (io_trps.svl 2023.06)
