@<TRIPOS>MOLECULE
NONAME
53 55 1 0 0 
SMALL
USER_CHARGES


@<TRIPOS>ATOM
  1 O       -1.3220     0.3380    -2.3020 O.2   1 <1>  -0.5700 
  2 C       -1.7680     0.9170    -1.3280 C.2   1 <1>   0.5440 
  3 N       -2.4880     0.1730    -0.4120 N.am  1 <1>  -0.6600 
  4 C       -1.5450     2.3390    -1.1800 C.ar  1 <1>   0.0860 
  5 C       -2.5940    -1.3080    -0.5990 C.3   1 <1>   0.1400 
  6 C       -3.1420     0.7870     0.7910 C.3   1 <1>   0.1400 
  7 C       -0.7740     2.8700    -0.1380 C.ar  1 <1>   0.0820 
  8 C       -2.1170     3.2310    -2.0850 C.ar  1 <1>  -0.1500 
  9 C       -3.7330    -1.9220     0.2400 C.3   1 <1>   0.4230 
 10 C       -4.5740     0.2650     1.0480 C.3   1 <1>  -0.1600 
 11 O       -0.1710     2.0450     0.7450 O.3   1 <1>  -0.3630 
 12 C       -0.6240     4.2450     0.0200 C.ar  1 <1>  -0.1430 
 13 C       -1.9590     4.5960    -1.9450 C.ar  1 <1>  -0.1500 
 14 N       -4.0340    -3.4000    -0.0050 N.4   1 <1>  -0.9590 
 15 C       -4.9790    -0.9920     0.2330 C.3   1 <1>   0.0000 
 16 C        1.0300     1.4380     0.3210 C.3   1 <1>   0.0400 
 17 C       -1.2180     5.1020    -0.8910 C.ar  1 <1>  -0.1500 
 18 C        0.1860     4.8170     1.1750 C.3   1 <1>  -0.0970 
 19 C       -5.3610    -3.6670    -0.6280 C.3   1 <1>   0.3430 
 20 C       -2.9540    -4.1470    -0.7290 C.3   1 <1>   0.2630 
 21 C       -6.1240    -1.7490     0.9460 C.3   1 <1>  -0.1600 
 22 C       -5.4060    -0.5370    -1.2000 C.3   1 <1>   0.1200 
 23 C       -6.4920    -3.0590     0.2170 C.3   1 <1>  -0.1600 
 24 O       -6.5900     0.1830    -1.1640 O.3   1 <1>  -0.6800 
 25 H       -2.7730    -1.5080    -1.6410 H     1 <1>   0.0800 
 26 H       -1.6520    -1.7470    -0.3190 H     1 <1>   0.0800 
 27 H       -2.5240     0.5780     1.6490 H     1 <1>   0.0800 
 28 H       -3.1850     1.8590     0.6910 H     1 <1>   0.0800 
 29 H       -2.6940     2.8410    -2.9060 H     1 <1>   0.1500 
 30 H       -3.3620    -1.8780     1.2500 H     1 <1>   0.0800 
 31 H       -4.6500     0.0620     2.1020 H     1 <1>   0.0800 
 32 H       -5.2680     1.0660     0.8580 H     1 <1>   0.0800 
 33 H       -2.4120     5.2680    -2.6540 H     1 <1>   0.1500 
 34 H       -4.1020    -3.8120     0.9360 H     1 <1>   0.4500 
 35 H        1.4260     0.8650     1.1400 H     1 <1>   0.0800 
 36 H        1.7270     2.2070     0.0380 H     1 <1>   0.0800 
 37 H        0.8280     0.7930    -0.5160 H     1 <1>   0.0800 
 38 H       -1.1080     6.1680    -0.7890 H     1 <1>   0.1500 
 39 H        0.0730     5.8840     1.2380 H     1 <1>   0.0800 
 40 H        1.2270     4.5880     1.0390 H     1 <1>   0.0800 
 41 H       -0.1450     4.3850     2.1030 H     1 <1>   0.0800 
 42 H       -5.3810    -3.2460    -1.6190 H     1 <1>   0.0800 
 43 H       -5.5230    -4.7290    -0.7240 H     1 <1>   0.0800 
 44 H       -2.8500    -3.7760    -1.7360 H     1 <1>   0.0800 
 45 H       -3.1900    -5.1980    -0.7740 H     1 <1>   0.0800 
 46 H       -2.0100    -4.0320    -0.2200 H     1 <1>   0.0800 
 47 H       -5.8060    -1.9970     1.9450 H     1 <1>   0.0800 
 48 H       -6.9960    -1.1260     1.0520 H     1 <1>   0.0800 
 49 H       -5.5540    -1.3600    -1.8720 H     1 <1>   0.0800 
 50 H       -4.6720     0.1130    -1.6430 H     1 <1>   0.0800 
 51 H       -7.3270    -2.8790    -0.4380 H     1 <1>   0.0800 
 52 H       -6.8240    -3.7840     0.9410 H     1 <1>   0.0800 
 53 H       -7.3360    -0.3500    -0.8280 H     1 <1>   0.4000 
@<TRIPOS>BOND
  1   1   2  2   
  2   2   3  am  
  3   2   4  1   
  4   3   5  1   
  5   3   6  1   
  6   4   7  ar  
  7   4   8  ar  
  8   5   9  1   
  9   5  25  1   
 10   5  26  1   
 11   6  10  1   
 12   6  27  1   
 13   6  28  1   
 14   7  11  1   
 15   7  12  ar  
 16   8  13  ar  
 17   8  29  1   
 18   9  14  1   
 19   9  15  1   
 20   9  30  1   
 21  10  15  1   
 22  10  31  1   
 23  10  32  1   
 24  11  16  1   
 25  12  17  ar  
 26  12  18  1   
 27  13  17  ar  
 28  13  33  1   
 29  14  19  1   
 30  14  20  1   
 31  14  34  1   
 32  15  21  1   
 33  15  22  1   
 34  16  35  1   
 35  16  36  1   
 36  16  37  1   
 37  17  38  1   
 38  18  39  1   
 39  18  40  1   
 40  18  41  1   
 41  19  23  1   
 42  19  42  1   
 43  19  43  1   
 44  20  44  1   
 45  20  45  1   
 46  20  46  1   
 47  21  23  1   
 48  21  47  1   
 49  21  48  1   
 50  22  24  1   
 51  22  49  1   
 52  22  50  1   
 53  23  51  1   
 54  23  52  1   
 55  24  53  1   
@<TRIPOS>SUBSTRUCTURE
  1 ****   3 GROUP 4 **** **** 0

# MOE 2024.06 (io_trps.svl 2023.06)
