@<TRIPOS>MOLECULE
NONAME
43 45 1 0 0 
SMALL
USER_CHARGES


@<TRIPOS>ATOM
  1 F        1.5170    -2.5060    -2.2150 F     1 <1>  -0.1900 
  2 C        1.9820    -2.0350    -1.0800 C.ar  1 <1>   0.1900 
  3 C        1.2550    -2.1980     0.1010 C.ar  1 <1>   0.1000 
  4 C        3.1960    -1.3760    -1.0980 C.ar  1 <1>   0.1600 
  5 N        0.0200    -2.8460     0.2380 N.pl3 1 <1>  -0.8380 
  6 C        1.8680    -1.6420     1.2130 C.ar  1 <1>  -0.1500 
  7 N        3.7740    -0.8490    -0.0240 N.ar  1 <1>  -0.6200 
  8 C       -0.2970    -4.0360    -0.5950 C.3   1 <1>   0.2090 
  9 C       -1.1580    -2.0370     0.6530 C.3   1 <1>   0.2090 
 10 C        3.0890    -0.9990     1.1020 C.ar  1 <1>   0.1600 
 11 C       -1.3120    -4.9530     0.1320 C.3   1 <1>   0.4230 
 12 C       -2.1300    -2.9460     1.4110 C.3   1 <1>  -0.1600 
 13 N       -1.6090    -6.2600    -0.6020 N.4   1 <1>  -0.9590 
 14 C       -2.5880    -4.1830     0.5870 C.3   1 <1>   0.0000 
 15 C       -2.8640    -6.9460    -0.1500 C.3   1 <1>   0.3430 
 16 C       -1.5910    -6.1740    -2.1010 C.3   1 <1>   0.2630 
 17 C       -3.4420    -5.1040     1.5090 C.3   1 <1>  -0.1600 
 18 C       -3.4150    -3.7310    -0.6510 C.3   1 <1>   0.1200 
 19 C       -3.1780    -6.6080     1.3060 C.3   1 <1>  -0.1600 
 20 O       -4.4410    -2.8710    -0.2960 O.3   1 <1>  -0.6800 
 21 H        3.7140    -1.2750    -2.0360 H     1 <1>   0.1500 
 22 H        1.3920    -1.7190     2.1710 H     1 <1>   0.1500 
 23 H       -0.6900    -3.6970    -1.5360 H     1 <1>   0.0800 
 24 H        0.6120    -4.5830    -0.7730 H     1 <1>   0.0800 
 25 H       -0.8450    -1.2270     1.2910 H     1 <1>   0.0800 
 26 H       -1.6320    -1.6080    -0.2140 H     1 <1>   0.0800 
 27 H        3.5320    -0.5820     1.9920 H     1 <1>   0.1500 
 28 H       -0.8170    -5.2300     1.0480 H     1 <1>   0.0800 
 29 H       -1.6320    -3.2650     2.3110 H     1 <1>   0.0800 
 30 H       -2.9780    -2.3600     1.7190 H     1 <1>   0.0800 
 31 H       -0.8370    -6.8880    -0.3340 H     1 <1>   0.4500 
 32 H       -3.6940    -6.6290    -0.7600 H     1 <1>   0.0800 
 33 H       -2.7600    -8.0140    -0.2630 H     1 <1>   0.0800 
 34 H       -2.3540    -5.4980    -2.4500 H     1 <1>   0.0800 
 35 H       -1.7700    -7.1450    -2.5330 H     1 <1>   0.0800 
 36 H       -0.6330    -5.8230    -2.4490 H     1 <1>   0.0800 
 37 H       -3.2500    -4.8830     2.5460 H     1 <1>   0.0800 
 38 H       -4.4900    -4.9100     1.3560 H     1 <1>   0.0800 
 39 H       -3.8600    -4.5680    -1.1580 H     1 <1>   0.0800 
 40 H       -2.8030    -3.1960    -1.3550 H     1 <1>   0.0800 
 41 H       -4.0460    -7.1630     1.6200 H     1 <1>   0.0800 
 42 H       -2.3590    -6.9290     1.9270 H     1 <1>   0.0800 
 43 H       -5.1010    -3.2990     0.2850 H     1 <1>   0.4000 
@<TRIPOS>BOND
  1   1   2  1   
  2   2   3  ar  
  3   2   4  ar  
  4   3   5  1   
  5   3   6  ar  
  6   4   7  ar  
  7   4  21  1   
  8   5   8  1   
  9   5   9  1   
 10   6  10  ar  
 11   6  22  1   
 12   7  10  ar  
 13   8  11  1   
 14   8  23  1   
 15   8  24  1   
 16   9  12  1   
 17   9  25  1   
 18   9  26  1   
 19  10  27  1   
 20  11  13  1   
 21  11  14  1   
 22  11  28  1   
 23  12  14  1   
 24  12  29  1   
 25  12  30  1   
 26  13  15  1   
 27  13  16  1   
 28  13  31  1   
 29  14  17  1   
 30  14  18  1   
 31  15  19  1   
 32  15  32  1   
 33  15  33  1   
 34  16  34  1   
 35  16  35  1   
 36  16  36  1   
 37  17  19  1   
 38  17  37  1   
 39  17  38  1   
 40  18  20  1   
 41  18  39  1   
 42  18  40  1   
 43  19  41  1   
 44  19  42  1   
 45  20  43  1   
@<TRIPOS>SUBSTRUCTURE
  1 ****   8 GROUP 4 **** **** 0

# MOE 2024.06 (io_trps.svl 2023.06)
