@<TRIPOS>MOLECULE
NONAME
52 55 1 0 0 
SMALL
USER_CHARGES


@<TRIPOS>ATOM
  1 F       -1.7110    -1.0310     2.1240 F     1 <1>  -0.1900 
  2 C       -2.6300    -1.4830     1.3170 C.ar  1 <1>   0.1900 
  3 C       -3.5280    -0.6020     0.7650 C.ar  1 <1>  -0.1500 
  4 C       -2.6610    -2.8390     1.0410 C.ar  1 <1>  -0.1500 
  5 C       -4.5080    -1.0880    -0.0940 C.ar  1 <1>   0.1170 
  6 C       -3.6380    -3.3210     0.1950 C.ar  1 <1>  -0.1500 
  7 N       -5.4040    -0.2140    -0.6940 N.am  1 <1>  -0.5470 
  8 C       -4.5970    -2.4690    -0.3750 C.ar  1 <1>   0.0280 
  9 C       -6.3560    -0.6150    -1.5740 C.2   1 <1>   0.6160 
 10 C       -5.6600    -2.9280    -1.2450 C.2   1 <1>  -0.0140 
 11 O       -7.0880     0.2190    -2.0680 O.2   1 <1>  -0.5700 
 12 C       -6.4660    -2.0020    -1.8390 C.2   1 <1>  -0.1360 
 13 C       -5.8890    -4.3380    -1.4690 C.2   1 <1>   0.6160 
 14 O       -5.9880    -4.7620    -2.6010 O.2   1 <1>  -0.5700 
 15 N       -6.1120    -5.2190    -0.4310 N.am  1 <1>  -0.6600 
 16 C       -6.7800    -4.8040     0.8400 C.3   1 <1>   0.1400 
 17 C       -6.1860    -6.6890    -0.6830 C.3   1 <1>   0.1400 
 18 C       -8.2580    -5.2650     0.8600 C.3   1 <1>   0.4230 
 19 C       -7.6580    -7.1380    -0.7110 C.3   1 <1>   0.3430 
 20 N       -8.4020    -6.7480     0.5520 N.4   1 <1>  -0.9590 
 21 C       -9.1040    -4.4150    -0.1170 C.3   1 <1>   0.1200 
 22 C       -9.8650    -7.1030     0.5120 C.3   1 <1>   0.4230 
 23 O      -10.4390    -4.8290    -0.0860 O.3   1 <1>  -0.5600 
 24 C      -10.6510    -6.1660    -0.4390 C.3   1 <1>   0.1200 
 25 C      -10.0550    -8.5920     0.1760 C.3   1 <1>  -0.1600 
 26 C      -11.4740    -9.0880     0.4960 C.3   1 <1>  -0.1600 
 27 C      -11.5990   -10.5900     0.2280 C.3   1 <1>  -0.2400 
 28 H       -3.4640     0.4460     0.9940 H     1 <1>   0.1500 
 29 H       -1.9260    -3.4880     1.4840 H     1 <1>   0.1500 
 30 H       -3.6440    -4.3730    -0.0290 H     1 <1>   0.1500 
 31 H       -5.3530     0.7940    -0.5430 H     1 <1>   0.3700 
 32 H       -7.2380    -2.2800    -2.5320 H     1 <1>   0.1500 
 33 H       -6.2550    -5.2410     1.6720 H     1 <1>   0.0800 
 34 H       -6.7380    -3.7360     0.9640 H     1 <1>   0.0800 
 35 H       -5.7190    -6.9360    -1.6220 H     1 <1>   0.0800 
 36 H       -5.6530    -7.2150     0.0890 H     1 <1>   0.0800 
 37 H       -8.6440    -5.0750     1.8480 H     1 <1>   0.0800 
 38 H       -7.6900    -8.2070    -0.8440 H     1 <1>   0.0800 
 39 H       -8.1290    -6.6850    -1.5690 H     1 <1>   0.0800 
 40 H       -7.9850    -7.2690     1.3320 H     1 <1>   0.4500 
 41 H       -8.7430    -4.4910    -1.1280 H     1 <1>   0.0800 
 42 H       -9.0820    -3.3790     0.1740 H     1 <1>   0.0800 
 43 H      -10.2720    -6.9480     1.4980 H     1 <1>   0.0800 
 44 H      -11.7080    -6.3500    -0.3580 H     1 <1>   0.0800 
 45 H      -10.3590    -6.3070    -1.4650 H     1 <1>   0.0800 
 46 H       -9.8600    -8.7680    -0.8680 H     1 <1>   0.0800 
 47 H       -9.3630    -9.1750     0.7590 H     1 <1>   0.0800 
 48 H      -11.7080    -8.9000     1.5310 H     1 <1>   0.0800 
 49 H      -12.2020    -8.5730    -0.1090 H     1 <1>   0.0800 
 50 H      -10.9130   -11.1480     0.8420 H     1 <1>   0.0800 
 51 H      -11.3990   -10.8130    -0.8060 H     1 <1>   0.0800 
 52 H      -12.5980   -10.9210     0.4550 H     1 <1>   0.0800 
@<TRIPOS>BOND
  1   1   2  1   
  2   2   3  ar  
  3   2   4  ar  
  4   3   5  ar  
  5   3  28  1   
  6   4   6  ar  
  7   4  29  1   
  8   5   7  1   
  9   5   8  ar  
 10   6   8  ar  
 11   6  30  1   
 12   7   9  am  
 13   7  31  1   
 14   8  10  1   
 15   9  11  2   
 16   9  12  1   
 17  10  12  2   
 18  10  13  1   
 19  12  32  1   
 20  13  14  2   
 21  13  15  am  
 22  15  16  1   
 23  15  17  1   
 24  16  18  1   
 25  16  33  1   
 26  16  34  1   
 27  17  19  1   
 28  17  35  1   
 29  17  36  1   
 30  18  20  1   
 31  18  21  1   
 32  18  37  1   
 33  19  20  1   
 34  19  38  1   
 35  19  39  1   
 36  20  22  1   
 37  20  40  1   
 38  21  23  1   
 39  21  41  1   
 40  21  42  1   
 41  22  24  1   
 42  22  25  1   
 43  22  43  1   
 44  23  24  1   
 45  24  44  1   
 46  24  45  1   
 47  25  26  1   
 48  25  46  1   
 49  25  47  1   
 50  26  27  1   
 51  26  48  1   
 52  26  49  1   
 53  27  50  1   
 54  27  51  1   
 55  27  52  1   
@<TRIPOS>SUBSTRUCTURE
  1 ****  16 GROUP 4 **** **** 0

# MOE 2024.06 (io_trps.svl 2023.06)
