@<TRIPOS>MOLECULE
NONAME
46 48 1 0 0 
SMALL
USER_CHARGES


@<TRIPOS>ATOM
  1 O       -0.2300     0.3640    -0.0960 O.2   1 <1>  -0.5700 
  2 C       -0.2430     1.5730    -0.2280 C.2   1 <1>   0.5440 
  3 N       -1.4550     2.2210    -0.3340 N.am  1 <1>  -0.6600 
  4 C        1.0060     2.3020    -0.2760 C.ar  1 <1>   0.0860 
  5 C       -1.5910     3.7060    -0.2560 C.3   1 <1>   0.1400 
  6 C       -2.7180     1.4360    -0.4620 C.3   1 <1>   0.1400 
  7 C        1.8670     2.4220     0.8120 C.ar  1 <1>  -0.1440 
  8 C        1.3780     2.9300    -1.4620 C.ar  1 <1>   0.1600 
  9 C       -2.8940     4.0620     0.4610 C.3   1 <1>  -0.1600 
 10 C       -3.8080     2.2860    -1.1170 C.3   1 <1>  -0.1600 
 11 C        3.0170     3.1610     0.6270 C.ar  1 <1>  -0.1500 
 12 C        1.5620     1.7660     2.1520 C.3   1 <1>  -0.0970 
 13 N        2.4710     3.6510    -1.6520 N.ar  1 <1>  -0.6200 
 14 C       -4.1440     3.5630    -0.3100 C.3   1 <1>   0.2800 
 15 C        3.2690     3.7470    -0.6010 C.ar  1 <1>   0.1600 
 16 O       -4.4980     4.5100    -1.2840 O.3   1 <1>  -0.5600 
 17 C       -5.3540     3.2990     0.6190 C.3   1 <1>  -0.1600 
 18 C       -5.0770     5.7270    -0.9040 C.3   1 <1>   0.1200 
 19 C       -6.0800     4.5570     1.1000 C.3   1 <1>   0.2800 
 20 C       -6.3440     5.4840    -0.0840 C.3   1 <1>  -0.1600 
 21 O       -5.2790     5.2180     1.9970 O.3   1 <1>  -0.6800 
 22 C       -7.3670     4.2180     1.8480 C.3   1 <1>  -0.2400 
 23 H       -1.5980     4.1190    -1.2510 H     1 <1>   0.0800 
 24 H       -0.7610     4.1280     0.2850 H     1 <1>   0.0800 
 25 H       -3.0320     1.1130     0.5160 H     1 <1>   0.0800 
 26 H       -2.5360     0.5600    -1.0620 H     1 <1>   0.0800 
 27 H        0.7170     2.8260    -2.3060 H     1 <1>   0.1500 
 28 H       -2.9180     5.1200     0.6220 H     1 <1>   0.0800 
 29 H       -2.8600     3.5980     1.4310 H     1 <1>   0.0800 
 30 H       -4.6820     1.6790    -1.2600 H     1 <1>   0.0800 
 31 H       -3.4550     2.5580    -2.0960 H     1 <1>   0.0800 
 32 H        3.7240     3.2890     1.4270 H     1 <1>   0.1500 
 33 H        0.5950     2.0770     2.5060 H     1 <1>   0.0800 
 34 H        2.2980     2.0300     2.8890 H     1 <1>   0.0800 
 35 H        1.5580     0.6960     2.0410 H     1 <1>   0.0800 
 36 H        4.1710     4.3220    -0.7260 H     1 <1>   0.1500 
 37 H       -5.0570     2.7010     1.4610 H     1 <1>   0.0800 
 38 H       -6.0740     2.7180     0.0710 H     1 <1>   0.0800 
 39 H       -5.3220     6.2600    -1.8070 H     1 <1>   0.0800 
 40 H       -4.3610     6.3120    -0.3580 H     1 <1>   0.0800 
 41 H       -7.0790     5.0370    -0.7300 H     1 <1>   0.0800 
 42 H       -6.7460     6.4190     0.2620 H     1 <1>   0.0800 
 43 H       -4.4310     5.4270     1.5700 H     1 <1>   0.4000 
 44 H       -8.0510     3.7020     1.2000 H     1 <1>   0.0800 
 45 H       -7.8420     5.1160     2.1980 H     1 <1>   0.0800 
 46 H       -7.1520     3.5840     2.6900 H     1 <1>   0.0800 
@<TRIPOS>BOND
  1   1   2  2   
  2   2   3  am  
  3   2   4  1   
  4   3   5  1   
  5   3   6  1   
  6   4   7  ar  
  7   4   8  ar  
  8   5   9  1   
  9   5  23  1   
 10   5  24  1   
 11   6  10  1   
 12   6  25  1   
 13   6  26  1   
 14   7  11  ar  
 15   7  12  1   
 16   8  13  ar  
 17   8  27  1   
 18   9  14  1   
 19   9  28  1   
 20   9  29  1   
 21  10  14  1   
 22  10  30  1   
 23  10  31  1   
 24  11  15  ar  
 25  11  32  1   
 26  12  33  1   
 27  12  34  1   
 28  12  35  1   
 29  13  15  ar  
 30  14  16  1   
 31  14  17  1   
 32  15  36  1   
 33  16  18  1   
 34  17  19  1   
 35  17  37  1   
 36  17  38  1   
 37  18  20  1   
 38  18  39  1   
 39  18  40  1   
 40  19  20  1   
 41  19  21  1   
 42  19  22  1   
 43  20  41  1   
 44  20  42  1   
 45  21  43  1   
 46  22  44  1   
 47  22  45  1   
 48  22  46  1   
@<TRIPOS>SUBSTRUCTURE
  1 ****   5 GROUP 4 **** **** 0

# MOE 2024.06 (io_trps.svl 2023.06)
