@<TRIPOS>MOLECULE
NONAME
55 58 1 0 0 
SMALL
USER_CHARGES


@<TRIPOS>ATOM
  1 O        3.6920    -2.7480     0.8700 O.2   1 <1>  -0.5700 
  2 C        2.8230    -2.1730     0.2450 C.2   1 <1>   0.7160 
  3 N        2.8420    -0.7980     0.2480 N.am  1 <1>  -0.6600 
  4 C        1.8840    -2.9210    -0.5530 C.2   1 <1>  -0.0860 
  5 C        3.5140    -0.0820     1.3980 C.3   1 <1>   0.2200 
  6 C        2.6180    -0.0590    -1.0310 C.3   1 <1>   0.1400 
  7 C        0.5540    -2.7660    -0.8340 C.2   1 <1>  -0.3320 
  8 C        2.2290    -4.0770    -1.2570 C.2   1 <1>   0.1390 
  9 C        2.8940     1.2960     1.6740 C.3   1 <1>   0.1200 
 10 C        5.0460     0.0190     1.1960 C.3   1 <1>   0.3430 
 11 C        3.5480     1.1500    -1.2510 C.3   1 <1>  -0.0800 
 12 N        0.2050    -3.7710    -1.6570 N.pl3 1 <1>   0.3000 
 13 C       -0.4310    -1.7210    -0.3300 C.3   1 <1>   0.1000 
 14 N        1.2440    -4.5760    -1.9290 N.2   1 <1>  -0.7070 
 15 O        3.4930     2.2860     0.8940 O.3   1 <1>  -0.5600 
 16 N        5.4500    -0.2450    -0.2260 N.4   1 <1>  -0.9590 
 17 C        3.0980     2.3720    -0.4330 C.3   1 <1>   0.1200 
 18 C        5.0660     0.8870    -1.1310 C.3   1 <1>   0.3430 
 19 C       -1.4950    -2.3720     0.5650 C.3   1 <1>  -0.1600 
 20 C       -1.0890    -0.9710    -1.5000 C.3   1 <1>  -0.1600 
 21 C        6.9600    -0.4250    -0.2710 C.3   1 <1>   0.2370 
 22 C       -2.5060    -1.3330     1.0740 C.3   1 <1>  -0.1600 
 23 C       -2.0900     0.0770    -0.9940 C.3   1 <1>  -0.1600 
 24 C        7.7600     0.8150     0.1380 C.2   1 <1>   0.9060 
 25 C       -3.1500    -0.5650    -0.0880 C.3   1 <1>  -0.1600 
 26 O        8.0080     0.9720     1.3360 O.co2 1 <1>  -0.9000 
 27 O        7.9980     1.6560    -0.7330 O.co2 1 <1>  -0.9000 
 28 H        3.3470    -0.6660     2.2870 H     1 <1>   0.0800 
 29 H        2.7470    -0.7410    -1.8560 H     1 <1>   0.0800 
 30 H        1.5980     0.2800    -1.0570 H     1 <1>   0.0800 
 31 H        3.2160    -4.5110    -1.2450 H     1 <1>   0.1500 
 32 H        3.0860     1.5650     2.6980 H     1 <1>   0.0800 
 33 H        1.8290     1.2970     1.5180 H     1 <1>   0.0800 
 34 H        5.5170    -0.7100     1.8340 H     1 <1>   0.0800 
 35 H        5.4020     0.9890     1.5100 H     1 <1>   0.0800 
 36 H        3.3920     1.4490    -2.2710 H     1 <1>   0.0800 
 37 H       -0.7330    -3.9460    -2.0410 H     1 <1>   0.2700 
 38 H        0.1020    -1.0060     0.2730 H     1 <1>   0.0800 
 39 H        4.9740    -1.1120    -0.5000 H     1 <1>   0.4500 
 40 H        2.0300     2.5060    -0.4690 H     1 <1>   0.0800 
 41 H        3.5600     3.2600    -0.8310 H     1 <1>   0.0800 
 42 H        5.5520     1.7910    -0.7940 H     1 <1>   0.0800 
 43 H        5.4540     0.6770    -2.1140 H     1 <1>   0.0800 
 44 H       -2.0220    -3.1310     0.0140 H     1 <1>   0.0800 
 45 H       -1.0160    -2.8470     1.4030 H     1 <1>   0.0800 
 46 H       -0.3360    -0.4920    -2.0980 H     1 <1>   0.0800 
 47 H       -1.6110    -1.6700    -2.1300 H     1 <1>   0.0800 
 48 H        7.2510    -1.2220     0.3880 H     1 <1>   0.0800 
 49 H        7.2670    -0.6810    -1.2680 H     1 <1>   0.0800 
 50 H       -3.2720    -1.8270     1.6470 H     1 <1>   0.0800 
 51 H       -2.0060    -0.6380     1.7270 H     1 <1>   0.0800 
 52 H       -1.5670     0.8400    -0.4420 H     1 <1>   0.0800 
 53 H       -2.5740     0.5500    -1.8320 H     1 <1>   0.0800 
 54 H       -3.8020     0.1980     0.3020 H     1 <1>   0.0800 
 55 H       -3.7520    -1.2420    -0.6700 H     1 <1>   0.0800 
@<TRIPOS>BOND
  1   1   2  2   
  2   2   3  am  
  3   2   4  1   
  4   3   5  1   
  5   3   6  1   
  6   4   7  2   
  7   4   8  1   
  8   5   9  1   
  9   5  10  1   
 10   5  28  1   
 11   6  11  1   
 12   6  29  1   
 13   6  30  1   
 14   7  12  1   
 15   7  13  1   
 16   8  14  2   
 17   8  31  1   
 18   9  15  1   
 19   9  32  1   
 20   9  33  1   
 21  10  16  1   
 22  10  34  1   
 23  10  35  1   
 24  11  17  1   
 25  11  18  1   
 26  11  36  1   
 27  12  14  1   
 28  12  37  1   
 29  13  19  1   
 30  13  20  1   
 31  13  38  1   
 32  15  17  1   
 33  16  18  1   
 34  16  21  1   
 35  16  39  1   
 36  17  40  1   
 37  17  41  1   
 38  18  42  1   
 39  18  43  1   
 40  19  22  1   
 41  19  44  1   
 42  19  45  1   
 43  20  23  1   
 44  20  46  1   
 45  20  47  1   
 46  21  24  1   
 47  21  48  1   
 48  21  49  1   
 49  22  25  1   
 50  22  50  1   
 51  22  51  1   
 52  23  25  1   
 53  23  52  1   
 54  23  53  1   
 55  24  26  ar  
 56  24  27  ar  
 57  25  54  1   
 58  25  55  1   
@<TRIPOS>SUBSTRUCTURE
  1 ****   3 GROUP 4 **** **** 0

# MOE 2024.06 (io_trps.svl 2023.06)
