@<TRIPOS>MOLECULE
NONAME
47 50 1 0 0 
SMALL
USER_CHARGES


@<TRIPOS>ATOM
  1 O       -0.5650     0.2080     0.2230 O.2   1 <1>  -0.5700 
  2 C       -1.4770     0.9130    -0.1770 C.2   1 <1>   0.5440 
  3 N       -2.6840     0.3460    -0.5200 N.am  1 <1>  -0.4200 
  4 C       -1.3390     2.3360    -0.3050 C.ar  1 <1>   0.0860 
  5 C       -3.7080     1.1510    -0.9620 C.2   1 <1>   0.4500 
  6 C       -2.8750    -1.1240    -0.4100 C.3   1 <1>   0.0600 
  7 C       -2.4460     3.0550    -0.7670 C.ar  1 <1>   0.1790 
  8 C       -0.1710     3.0380     0.0010 C.ar  1 <1>  -0.1500 
  9 N       -3.6300     2.4210    -1.0870 N.2   1 <1>  -0.6290 
 10 C       -2.3610     4.4330    -0.9050 C.ar  1 <1>  -0.1500 
 11 C       -0.1070     4.4070    -0.1410 C.ar  1 <1>  -0.1500 
 12 C       -1.2090     5.1430    -0.5910 C.ar  1 <1>   0.0860 
 13 C       -1.1650     6.5860    -0.7270 C.2   1 <1>   0.5440 
 14 O       -1.7600     7.1340    -1.6340 O.2   1 <1>  -0.5700 
 15 N       -0.4550     7.3350     0.1810 N.am  1 <1>  -0.4940 
 16 C       -0.3620     8.7430     0.2790 C.2   1 <1>  -0.0880 
 17 N        0.8020     9.4470     0.3540 N.pl3 1 <1>   0.3140 
 18 C       -1.3630     9.6540     0.3290 C.2   1 <1>  -0.1810 
 19 N        0.5630    10.7770     0.4740 N.2   1 <1>  -0.7070 
 20 C        2.1790     8.8830     0.2600 C.3   1 <1>   0.1760 
 21 C       -0.7280    10.8840     0.4490 C.2   1 <1>   0.1390 
 22 C       -2.8630     9.4360     0.2690 C.3   1 <1>  -0.0590 
 23 C        3.0260     9.1470     1.5070 C.3   1 <1>  -0.1600 
 24 C        3.0060     9.4830    -0.8770 C.3   1 <1>  -0.1600 
 25 C        4.4800     9.0440     1.0350 C.3   1 <1>  -0.1600 
 26 C        4.4590     9.1980    -0.4920 C.3   1 <1>  -0.1600 
 27 H       -4.6290     0.6550    -1.2130 H     1 <1>   0.0600 
 28 H       -2.1550    -1.6260    -1.0330 H     1 <1>   0.0800 
 29 H       -3.8660    -1.4050    -0.7180 H     1 <1>   0.0800 
 30 H       -2.7220    -1.4300     0.6110 H     1 <1>   0.0800 
 31 H        0.6870     2.4850     0.3490 H     1 <1>   0.1500 
 32 H       -3.2240     4.9630    -1.2700 H     1 <1>   0.1500 
 33 H        0.8140     4.9140     0.0900 H     1 <1>   0.1500 
 34 H       -0.0370     6.8120     0.9500 H     1 <1>   0.3700 
 35 H        2.1130     7.8230     0.1050 H     1 <1>   0.0800 
 36 H       -1.2420    11.8280     0.5140 H     1 <1>   0.1500 
 37 H       -3.1030     8.4130     0.4950 H     1 <1>   0.0800 
 38 H       -3.2200     9.6600    -0.7200 H     1 <1>   0.0800 
 39 H       -3.3610    10.0720     0.9780 H     1 <1>   0.0800 
 40 H        2.8090     8.4480     2.2940 H     1 <1>   0.0800 
 41 H        2.8440    10.1500     1.8570 H     1 <1>   0.0800 
 42 H        2.8560    10.5490    -0.9130 H     1 <1>   0.0800 
 43 H        2.7480     9.0530    -1.8290 H     1 <1>   0.0800 
 44 H        4.8920     8.0840     1.2980 H     1 <1>   0.0800 
 45 H        5.0790     9.8140     1.4920 H     1 <1>   0.0800 
 46 H        5.1060     9.9960    -0.8170 H     1 <1>   0.0800 
 47 H        4.7850     8.2800    -0.9520 H     1 <1>   0.0800 
@<TRIPOS>BOND
  1   1   2  2   
  2   2   3  am  
  3   2   4  1   
  4   3   5  1   
  5   3   6  1   
  6   4   7  ar  
  7   4   8  ar  
  8   5   9  2   
  9   5  27  1   
 10   6  28  1   
 11   6  29  1   
 12   6  30  1   
 13   7   9  1   
 14   7  10  ar  
 15   8  11  ar  
 16   8  31  1   
 17  10  12  ar  
 18  10  32  1   
 19  11  12  ar  
 20  11  33  1   
 21  12  13  1   
 22  13  14  2   
 23  13  15  am  
 24  15  16  1   
 25  15  34  1   
 26  16  17  1   
 27  16  18  2   
 28  17  19  1   
 29  17  20  1   
 30  18  21  1   
 31  18  22  1   
 32  19  21  2   
 33  20  23  1   
 34  20  24  1   
 35  20  35  1   
 36  21  36  1   
 37  22  37  1   
 38  22  38  1   
 39  22  39  1   
 40  23  25  1   
 41  23  40  1   
 42  23  41  1   
 43  24  26  1   
 44  24  42  1   
 45  24  43  1   
 46  25  26  1   
 47  25  44  1   
 48  25  45  1   
 49  26  46  1   
 50  26  47  1   
@<TRIPOS>SUBSTRUCTURE
  1 ****  12 GROUP 4 **** **** 0

# MOE 2024.06 (io_trps.svl 2023.06)
