@<TRIPOS>MOLECULE
NONAME
47 50 1 0 0 
SMALL
USER_CHARGES


@<TRIPOS>ATOM
  1 S       -0.3910    -0.4360     0.3310 S.3   1 <1>  -0.0800 
  2 C       -1.5670    -1.1530    -0.7180 C.2   1 <1>   0.4420 
  3 C       -0.7600     1.0830    -0.4140 C.2   1 <1>   0.1980 
  4 N       -2.1250    -0.2890    -1.4840 N.2   1 <1>  -0.3380 
  5 N       -1.7460    -2.5160    -0.5980 N.am  1 <1>  -0.4940 
  6 N       -1.6590     0.9850    -1.3060 N.2   1 <1>  -0.3380 
  7 C       -0.0080     2.3160     0.0490 C.3   1 <1>   0.1640 
  8 C       -2.5840    -3.3420    -1.2930 C.2   1 <1>   0.5690 
  9 C        1.4950     2.1400    -0.1140 C.ar  1 <1>  -0.1440 
 10 O       -3.3340    -2.9580    -2.1510 O.2   1 <1>  -0.5700 
 11 C       -2.6010    -4.8280    -0.9610 C.3   1 <1>  -0.0190 
 12 C        2.3310     2.0990     0.9930 C.ar  1 <1>  -0.1500 
 13 C        2.0400     2.0150    -1.3830 C.ar  1 <1>  -0.1500 
 14 C       -3.6820    -5.0860     0.1040 C.3   1 <1>   0.1400 
 15 C       -1.2220    -5.4020    -0.5490 C.3   1 <1>  -0.1600 
 16 C        3.6980     1.9310     0.8400 C.ar  1 <1>  -0.1430 
 17 C        3.4050     1.8500    -1.5410 C.ar  1 <1>  -0.1500 
 18 N       -3.5590    -6.4440     0.6720 N.am  1 <1>  -0.4200 
 19 C       -1.3150    -6.9230    -0.3340 C.3   1 <1>  -0.0990 
 20 C        4.2310     1.8090    -0.4330 C.ar  1 <1>  -0.1500 
 21 C        4.6090     1.8870     2.0520 C.3   1 <1>  -0.0970 
 22 C       -4.3780    -7.0310     1.5640 C.2   1 <1>   0.6900 
 23 C       -2.4720    -7.2820     0.5770 C.2   1 <1>   0.4490 
 24 O       -5.4470    -6.5760     1.9620 O.2   1 <1>  -0.5700 
 25 N       -3.7750    -8.1880     1.9460 N.am  1 <1>  -0.2980 
 26 N       -2.5620    -8.3230     1.3120 N.2   1 <1>  -0.5120 
 27 C       -4.2750    -9.1850     2.9100 C.3   1 <1>   0.0600 
 28 H       -1.1480    -2.9560     0.0930 H     1 <1>   0.3700 
 29 H       -0.2560     2.5090     1.0770 H     1 <1>   0.0800 
 30 H       -0.3310     3.1610    -0.5310 H     1 <1>   0.0800 
 31 H       -2.9110    -5.3370    -1.8580 H     1 <1>   0.0800 
 32 H        1.9200     2.1960     1.9820 H     1 <1>   0.1500 
 33 H        1.4050     2.0420    -2.2520 H     1 <1>   0.1500 
 34 H       -4.6620    -4.9690    -0.3280 H     1 <1>   0.0800 
 35 H       -3.5870    -4.3770     0.9090 H     1 <1>   0.0800 
 36 H       -0.8900    -4.9490     0.3700 H     1 <1>   0.0800 
 37 H       -0.4920    -5.1950    -1.3140 H     1 <1>   0.0800 
 38 H        3.8230     1.7530    -2.5280 H     1 <1>   0.1500 
 39 H       -0.4010    -7.3000     0.0880 H     1 <1>   0.0800 
 40 H       -1.4720    -7.4140    -1.2780 H     1 <1>   0.0800 
 41 H        5.2910     1.6810    -0.5650 H     1 <1>   0.1500 
 42 H        4.0650     1.5800     2.9270 H     1 <1>   0.0800 
 43 H        5.0270     2.8620     2.2280 H     1 <1>   0.0800 
 44 H        5.4110     1.1890     1.8910 H     1 <1>   0.0800 
 45 H       -5.2350    -8.8810     3.2860 H     1 <1>   0.0800 
 46 H       -3.5800    -9.2690     3.7260 H     1 <1>   0.0800 
 47 H       -4.3660   -10.1370     2.4200 H     1 <1>   0.0800 
@<TRIPOS>BOND
  1   1   2  1   
  2   1   3  1   
  3   2   4  2   
  4   2   5  1   
  5   3   6  2   
  6   3   7  1   
  7   4   6  1   
  8   5   8  am  
  9   5  28  1   
 10   7   9  1   
 11   7  29  1   
 12   7  30  1   
 13   8  10  2   
 14   8  11  1   
 15   9  12  ar  
 16   9  13  ar  
 17  11  14  1   
 18  11  15  1   
 19  11  31  1   
 20  12  16  ar  
 21  12  32  1   
 22  13  17  ar  
 23  13  33  1   
 24  14  18  1   
 25  14  34  1   
 26  14  35  1   
 27  15  19  1   
 28  15  36  1   
 29  15  37  1   
 30  16  20  ar  
 31  16  21  1   
 32  17  20  ar  
 33  17  38  1   
 34  18  22  am  
 35  18  23  1   
 36  19  23  1   
 37  19  39  1   
 38  19  40  1   
 39  20  41  1   
 40  21  42  1   
 41  21  43  1   
 42  21  44  1   
 43  22  24  2   
 44  22  25  am  
 45  23  26  2   
 46  25  26  1   
 47  25  27  1   
 48  27  45  1   
 49  27  46  1   
 50  27  47  1   
@<TRIPOS>SUBSTRUCTURE
  1 ****   5 GROUP 4 **** **** 0

# MOE 2024.06 (io_trps.svl 2023.06)
