@<TRIPOS>MOLECULE
NONAME
42 44 1 0 0 
SMALL
USER_CHARGES


@<TRIPOS>ATOM
  1 O       -0.2220    -0.4050     0.6910 O.2   1 <1>  -0.5700 
  2 C       -0.3380    -1.5730     0.4210 C.2   1 <1>   0.4230 
  3 C       -1.5940    -2.2770     0.5080 C.ar  1 <1>   0.0860 
  4 C        0.9240    -2.2880    -0.0250 C.3   1 <1>  -0.1790 
  5 C       -1.7450    -3.6230     0.1610 C.ar  1 <1>   0.1600 
  6 C       -2.7460    -1.6330     0.9550 C.ar  1 <1>  -0.1500 
  7 N       -2.8600    -4.3240     0.2120 N.ar  1 <1>  -0.6200 
  8 C       -3.9160    -2.3480     1.0180 C.ar  1 <1>  -0.1500 
  9 C       -3.9490    -3.6890     0.6360 C.ar  1 <1>   0.4100 
 10 N       -5.1220    -4.4100     0.6890 N.pl3 1 <1>  -0.8380 
 11 C       -6.4490    -3.8050     0.4020 C.3   1 <1>   0.2090 
 12 C       -5.1630    -5.8750     0.4290 C.3   1 <1>   0.2090 
 13 C       -7.2720    -4.9270    -0.2320 C.3   1 <1>   0.2000 
 14 C       -6.6440    -6.2190     0.2780 C.3   1 <1>  -0.0800 
 15 O       -8.6080    -4.8620     0.1360 O.3   1 <1>  -0.6800 
 16 C       -6.9080    -7.4230    -0.6380 C.3   1 <1>   0.0210 
 17 C       -6.1900    -8.6590    -0.1320 C.2   1 <1>   0.1080 
 18 N       -6.4790    -9.2250     0.9980 N.2   1 <1>  -0.7070 
 19 C       -5.1550    -9.3080    -0.7970 C.2   1 <1>  -0.1500 
 20 N       -5.6260   -10.2640     1.0850 N.pl3 1 <1>   0.3000 
 21 C       -4.8140   -10.3340     0.0100 C.2   1 <1>  -0.3320 
 22 C       -3.7440   -11.3930    -0.1820 C.3   1 <1>  -0.0600 
 23 H        1.1360    -3.1100     0.6340 H     1 <1>   0.0800 
 24 H        1.7560    -1.6080     0.0020 H     1 <1>   0.0800 
 25 H        0.8110    -2.6460    -1.0310 H     1 <1>   0.0800 
 26 H       -0.8830    -4.1620    -0.1860 H     1 <1>   0.1500 
 27 H       -2.7080    -0.5970     1.2460 H     1 <1>   0.1500 
 28 H       -4.8140    -1.8810     1.3720 H     1 <1>   0.1500 
 29 H       -6.8940    -3.4820     1.3260 H     1 <1>   0.0800 
 30 H       -6.3530    -2.9760    -0.2780 H     1 <1>   0.0800 
 31 H       -4.6300    -6.0930    -0.4810 H     1 <1>   0.0800 
 32 H       -4.7140    -6.4210     1.2420 H     1 <1>   0.0800 
 33 H       -7.2090    -4.8550    -1.3040 H     1 <1>   0.0800 
 34 H       -7.0160    -6.4380     1.2640 H     1 <1>   0.0800 
 35 H       -8.7080    -5.1110     1.0760 H     1 <1>   0.4000 
 36 H       -6.5820    -7.2060    -1.6390 H     1 <1>   0.0800 
 37 H       -7.9630    -7.6270    -0.6670 H     1 <1>   0.0800 
 38 H       -4.7370    -9.0300    -1.7470 H     1 <1>   0.1500 
 39 H       -5.6250   -10.9020     1.8890 H     1 <1>   0.2700 
 40 H       -3.2320   -11.2360    -1.1150 H     1 <1>   0.0800 
 41 H       -4.1880   -12.3730    -0.1970 H     1 <1>   0.0800 
 42 H       -3.0240   -11.3440     0.6160 H     1 <1>   0.0800 
@<TRIPOS>BOND
  1   1   2  2   
  2   2   3  1   
  3   2   4  1   
  4   3   5  ar  
  5   3   6  ar  
  6   4  23  1   
  7   4  24  1   
  8   4  25  1   
  9   5   7  ar  
 10   5  26  1   
 11   6   8  ar  
 12   6  27  1   
 13   7   9  ar  
 14   8   9  ar  
 15   8  28  1   
 16   9  10  1   
 17  10  11  1   
 18  10  12  1   
 19  11  13  1   
 20  11  29  1   
 21  11  30  1   
 22  12  14  1   
 23  12  31  1   
 24  12  32  1   
 25  13  14  1   
 26  13  15  1   
 27  13  33  1   
 28  14  16  1   
 29  14  34  1   
 30  15  35  1   
 31  16  17  1   
 32  16  36  1   
 33  16  37  1   
 34  17  18  2   
 35  17  19  1   
 36  18  20  1   
 37  19  21  2   
 38  19  38  1   
 39  20  21  1   
 40  20  39  1   
 41  21  22  1   
 42  22  40  1   
 43  22  41  1   
 44  22  42  1   
@<TRIPOS>SUBSTRUCTURE
  1 ****  12 GROUP 4 **** **** 0

# MOE 2024.06 (io_trps.svl 2023.06)
