@<TRIPOS>MOLECULE
NONAME
51 53 1 0 0 
SMALL
USER_CHARGES


@<TRIPOS>ATOM
  1 O        0.4100     1.8750     2.9600 O.2   1 <1>  -0.5700 
  2 C        0.2960     3.0010     2.5460 C.2   1 <1>   0.5690 
  3 N       -0.7130     3.3220     1.7040 N.am  1 <1>  -0.7300 
  4 C        1.3140     4.0770     2.9480 C.3   1 <1>   0.1810 
  5 C       -0.9410     4.7030     1.2140 C.3   1 <1>   0.3640 
  6 O        0.8560     5.3880     2.6970 O.3   1 <1>  -0.5600 
  7 C       -1.3370     4.6650    -0.2550 C.ar  1 <1>  -0.1440 
  8 C        0.3200     5.5740     1.3980 C.3   1 <1>   0.2610 
  9 C       -0.6500     3.8700    -1.1620 C.ar  1 <1>   0.1600 
 10 C       -2.3700     5.4570    -0.7180 C.ar  1 <1>  -0.1500 
 11 C       -0.0370     7.0440     1.1160 C.2   1 <1>   0.5690 
 12 N       -0.8900     3.8240    -2.4620 N.ar  1 <1>  -0.6200 
 13 C       -2.6480     5.4030    -2.0670 C.ar  1 <1>  -0.1500 
 14 O       -0.8480     7.5600     1.8550 O.2   1 <1>  -0.5700 
 15 N        0.4750     7.7490     0.0460 N.am  1 <1>  -0.6600 
 16 C       -1.8890     4.5830    -2.8830 C.ar  1 <1>   0.1600 
 17 C        1.0370     7.1450    -1.2140 C.3   1 <1>   0.2840 
 18 C        0.4000     9.2380     0.0290 C.3   1 <1>   0.1400 
 19 C        2.3150     6.3170    -1.0480 C.ar  1 <1>   0.1670 
 20 C        1.7800     9.8290     0.3270 C.3   1 <1>  -0.1600 
 21 N        3.2270     6.7360    -0.1800 N.ar  1 <1>  -0.6200 
 22 C        2.4550     5.1610    -1.8050 C.ar  1 <1>  -0.1500 
 23 C        1.7340    11.3620     0.3680 C.3   1 <1>  -0.1600 
 24 C        4.3050     5.9800    -0.0560 C.ar  1 <1>   0.1600 
 25 C        3.5820     4.3790    -1.6640 C.ar  1 <1>  -0.1500 
 26 C        3.1180    11.9440     0.6670 C.3   1 <1>  -0.2400 
 27 C        4.5270     4.8100    -0.7600 C.ar  1 <1>  -0.1500 
 28 H       -1.4230     2.6170     1.4990 H     1 <1>   0.3700 
 29 H        2.2280     3.9300     2.4020 H     1 <1>   0.0800 
 30 H        1.5210     4.0000     3.9990 H     1 <1>   0.0800 
 31 H       -1.7430     5.1350     1.7880 H     1 <1>   0.0800 
 32 H        1.0670     5.2420     0.7130 H     1 <1>   0.0800 
 33 H        0.1510     3.2430    -0.8040 H     1 <1>   0.1500 
 34 H       -2.9360     6.0980    -0.0600 H     1 <1>   0.1500 
 35 H       -3.4440     5.9930    -2.4840 H     1 <1>   0.1500 
 36 H       -2.1160     4.5490    -3.9360 H     1 <1>   0.1500 
 37 H        0.2750     6.5370    -1.6680 H     1 <1>   0.0800 
 38 H        1.2610     7.9330    -1.9110 H     1 <1>   0.0800 
 39 H        0.0480     9.5750    -0.9310 H     1 <1>   0.0800 
 40 H       -0.2970     9.5880     0.7710 H     1 <1>   0.0800 
 41 H        2.1180     9.4560     1.2790 H     1 <1>   0.0800 
 42 H        2.4810     9.5150    -0.4270 H     1 <1>   0.0800 
 43 H        1.6920     4.8670    -2.5050 H     1 <1>   0.1500 
 44 H        1.3870    11.7410    -0.5790 H     1 <1>   0.0800 
 45 H        1.0440    11.6810     1.1310 H     1 <1>   0.0800 
 46 H        5.0510     6.3120     0.6470 H     1 <1>   0.1500 
 47 H        3.7160     3.4770    -2.2370 H     1 <1>   0.1500 
 48 H        3.8210    11.6540    -0.0940 H     1 <1>   0.0800 
 49 H        3.4740    11.5920     1.6200 H     1 <1>   0.0800 
 50 H        3.0680    13.0180     0.6960 H     1 <1>   0.0800 
 51 H        5.4300     4.2480    -0.6020 H     1 <1>   0.1500 
@<TRIPOS>BOND
  1   1   2  2   
  2   2   3  am  
  3   2   4  1   
  4   3   5  1   
  5   3  28  1   
  6   4   6  1   
  7   4  29  1   
  8   4  30  1   
  9   5   7  1   
 10   5   8  1   
 11   5  31  1   
 12   6   8  1   
 13   7   9  ar  
 14   7  10  ar  
 15   8  11  1   
 16   8  32  1   
 17   9  12  ar  
 18   9  33  1   
 19  10  13  ar  
 20  10  34  1   
 21  11  14  2   
 22  11  15  am  
 23  12  16  ar  
 24  13  16  ar  
 25  13  35  1   
 26  15  17  1   
 27  15  18  1   
 28  16  36  1   
 29  17  19  1   
 30  17  37  1   
 31  17  38  1   
 32  18  20  1   
 33  18  39  1   
 34  18  40  1   
 35  19  21  ar  
 36  19  22  ar  
 37  20  23  1   
 38  20  41  1   
 39  20  42  1   
 40  21  24  ar  
 41  22  25  ar  
 42  22  43  1   
 43  23  26  1   
 44  23  44  1   
 45  23  45  1   
 46  24  27  ar  
 47  24  46  1   
 48  25  27  ar  
 49  25  47  1   
 50  26  48  1   
 51  26  49  1   
 52  26  50  1   
 53  27  51  1   
@<TRIPOS>SUBSTRUCTURE
  1 ****   8 GROUP 4 **** **** 0

# MOE 2024.06 (io_trps.svl 2023.06)
