@<TRIPOS>MOLECULE
NONAME
51 53 1 0 0 
SMALL
USER_CHARGES


@<TRIPOS>ATOM
  1 O       -2.2400     0.5400    -2.2110 O.2   1 <1>  -0.5700 
  2 C       -2.1510     0.9370    -1.0660 C.2   1 <1>   0.5440 
  3 N       -2.2400     0.0180    -0.0600 N.am  1 <1>  -0.7300 
  4 C       -1.9500     2.3460    -0.7720 C.ar  1 <1>   0.0860 
  5 C       -2.4540    -1.4340    -0.2470 C.3   1 <1>   0.2200 
  6 C       -1.3430     3.1910    -1.7010 C.ar  1 <1>  -0.1500 
  7 C       -2.3490     2.9170     0.4390 C.ar  1 <1>  -0.1500 
  8 C       -3.9100    -1.7590     0.0360 C.3   1 <1>  -0.0800 
  9 C       -1.7440    -2.2010     0.8620 C.3   1 <1>   0.1200 
 10 C       -1.1310     4.5310    -1.4340 C.ar  1 <1>  -0.1500 
 11 C       -2.1390     4.2560     0.7110 C.ar  1 <1>  -0.1500 
 12 C       -3.9200    -1.9150     1.5610 C.3   1 <1>   0.1200 
 13 C       -4.3530    -3.0440    -0.6890 C.3   1 <1>  -0.0160 
 14 O       -2.6030    -2.1690     1.9620 O.3   1 <1>  -0.5600 
 15 C       -1.5260     5.0750    -0.2220 C.ar  1 <1>  -0.1430 
 16 C       -5.8220    -3.3440    -0.4350 C.ar  1 <1>  -0.1430 
 17 C       -1.2950     6.5500     0.0800 C.3   1 <1>  -0.0170 
 18 C       -6.2310    -4.3560     0.4110 C.ar  1 <1>  -0.1500 
 19 C       -6.8240    -2.6160    -1.0430 C.ar  1 <1>  -0.1500 
 20 C       -0.1230     6.7770     1.0540 C.3   1 <1>  -0.0800 
 21 C       -7.5840    -4.5790     0.6060 C.ar  1 <1>   0.1600 
 22 C       -8.1490    -2.9200    -0.7790 C.ar  1 <1>   0.1600 
 23 C        0.0000     8.2660     1.4000 C.3   1 <1>  -0.2400 
 24 C        1.2060     6.2700     0.4760 C.3   1 <1>  -0.2400 
 25 N       -8.5530    -3.8830     0.0330 N.ar  1 <1>  -0.6200 
 26 H       -2.1310     0.3060     0.9140 H     1 <1>   0.3700 
 27 H       -2.1290    -1.7390    -1.2280 H     1 <1>   0.0800 
 28 H       -1.0320     2.7840    -2.6480 H     1 <1>   0.1500 
 29 H       -2.8380     2.3100     1.1790 H     1 <1>   0.1500 
 30 H       -4.5520    -0.9520    -0.2730 H     1 <1>   0.0800 
 31 H       -0.7960    -1.7670     1.1270 H     1 <1>   0.0800 
 32 H       -1.6070    -3.2310     0.5840 H     1 <1>   0.0800 
 33 H       -0.6550     5.1500    -2.1740 H     1 <1>   0.1500 
 34 H       -2.4570     4.6660     1.6550 H     1 <1>   0.1500 
 35 H       -4.5490    -2.7200     1.8990 H     1 <1>   0.0800 
 36 H       -4.2310    -0.9990     2.0340 H     1 <1>   0.0800 
 37 H       -3.7520    -3.8790    -0.3710 H     1 <1>   0.0800 
 38 H       -4.2060    -2.9230    -1.7480 H     1 <1>   0.0800 
 39 H       -1.1090     7.0830    -0.8360 H     1 <1>   0.0800 
 40 H       -2.1960     6.9550     0.5060 H     1 <1>   0.0800 
 41 H       -5.5140    -4.9720     0.9200 H     1 <1>   0.1500 
 42 H       -6.5870    -1.8140    -1.7190 H     1 <1>   0.1500 
 43 H       -0.3250     6.2360     1.9630 H     1 <1>   0.0800 
 44 H       -7.8850    -5.3710     1.2700 H     1 <1>   0.1500 
 45 H       -8.9170    -2.3400    -1.2620 H     1 <1>   0.1500 
 46 H        0.2100     8.8460     0.5180 H     1 <1>   0.0800 
 47 H        0.7960     8.4200     2.1070 H     1 <1>   0.0800 
 48 H       -0.9130     8.6270     1.8400 H     1 <1>   0.0800 
 49 H        1.4300     6.7640    -0.4530 H     1 <1>   0.0800 
 50 H        1.1610     5.2100     0.2990 H     1 <1>   0.0800 
 51 H        2.0090     6.4570     1.1670 H     1 <1>   0.0800 
@<TRIPOS>BOND
  1   1   2  2   
  2   2   3  am  
  3   2   4  1   
  4   3   5  1   
  5   3  26  1   
  6   4   6  ar  
  7   4   7  ar  
  8   5   8  1   
  9   5   9  1   
 10   5  27  1   
 11   6  10  ar  
 12   6  28  1   
 13   7  11  ar  
 14   7  29  1   
 15   8  12  1   
 16   8  13  1   
 17   8  30  1   
 18   9  14  1   
 19   9  31  1   
 20   9  32  1   
 21  10  15  ar  
 22  10  33  1   
 23  11  15  ar  
 24  11  34  1   
 25  12  14  1   
 26  12  35  1   
 27  12  36  1   
 28  13  16  1   
 29  13  37  1   
 30  13  38  1   
 31  15  17  1   
 32  16  18  ar  
 33  16  19  ar  
 34  17  20  1   
 35  17  39  1   
 36  17  40  1   
 37  18  21  ar  
 38  18  41  1   
 39  19  22  ar  
 40  19  42  1   
 41  20  23  1   
 42  20  24  1   
 43  20  43  1   
 44  21  25  ar  
 45  21  44  1   
 46  22  25  ar  
 47  22  45  1   
 48  23  46  1   
 49  23  47  1   
 50  23  48  1   
 51  24  49  1   
 52  24  50  1   
 53  24  51  1   
@<TRIPOS>SUBSTRUCTURE
  1 ****   3 GROUP 4 **** **** 0

# MOE 2024.06 (io_trps.svl 2023.06)
