@<TRIPOS>MOLECULE
NONAME
53 55 1 0 0 
SMALL
USER_CHARGES


@<TRIPOS>ATOM
  1 O       -0.7840    -1.1300    -0.4000 O.3   1 <1>  -0.6800 
  2 C        0.3870    -1.7310    -0.8370 C.3   1 <1>   0.1200 
  3 C        1.4230    -1.8250     0.3230 C.3   1 <1>   0.0000 
  4 C        2.7720    -2.4090    -0.1900 C.3   1 <1>   0.4230 
  5 C        1.7020    -0.4090     0.9020 C.3   1 <1>  -0.1600 
  6 C        0.8850    -2.7260     1.4750 C.3   1 <1>  -0.1600 
  7 N        2.6740    -3.8510    -0.6850 N.4   1 <1>  -0.9590 
  8 C        3.4880    -1.4440    -1.1680 C.3   1 <1>   0.2090 
  9 C        2.4010     0.5400    -0.0780 C.3   1 <1>   0.2090 
 10 C        1.4200    -4.1690     1.4450 C.3   1 <1>  -0.1600 
 11 C        1.6290    -4.6670     0.0180 C.3   1 <1>   0.3430 
 12 C        2.5340    -4.0230    -2.1690 C.3   1 <1>   0.2630 
 13 N        3.6690    -0.0990    -0.5400 N.pl3 1 <1>  -0.8380 
 14 C        4.9020     0.3940    -0.2240 C.ar  1 <1>   0.4100 
 15 N        5.8310    -0.4940     0.1250 N.ar  1 <1>  -0.6200 
 16 C        5.1720     1.7550    -0.2670 C.ar  1 <1>  -0.1500 
 17 C        7.0270    -0.0330     0.4240 C.ar  1 <1>   0.7710 
 18 C        6.4210     2.2100     0.0630 C.ar  1 <1>   0.4610 
 19 N        7.3240     1.2790     0.4060 N.ar  1 <1>  -0.1790 
 20 N        8.0170    -0.8980     0.7850 N.pl3 1 <1>  -0.8380 
 21 N        6.7720     3.5210     0.0560 N.pl3 1 <1>  -0.9000 
 22 C        7.7060    -2.2190     1.4130 C.3   1 <1>   0.1290 
 23 C        9.4610    -0.7520     0.4160 C.3   1 <1>   0.1290 
 24 H       -1.4570    -1.0700    -1.1100 H     1 <1>   0.4000 
 25 H        0.1240    -2.7060    -1.2030 H     1 <1>   0.0800 
 26 H        0.7600    -1.1420    -1.6560 H     1 <1>   0.0800 
 27 H        3.4090    -2.4340     0.6780 H     1 <1>   0.0800 
 28 H        2.3310    -0.4870     1.7730 H     1 <1>   0.0800 
 29 H        0.7830     0.0470     1.2280 H     1 <1>   0.0800 
 30 H        1.1390    -2.3100     2.4350 H     1 <1>   0.0800 
 31 H       -0.1920    -2.7520     1.4470 H     1 <1>   0.0800 
 32 H        3.5760    -4.2750    -0.4230 H     1 <1>   0.4500 
 33 H        2.9150    -1.3190    -2.0680 H     1 <1>   0.0800 
 34 H        4.4460    -1.8530    -1.4380 H     1 <1>   0.0800 
 35 H        2.6040     1.4700     0.4250 H     1 <1>   0.0800 
 36 H        1.7670     0.7510    -0.9220 H     1 <1>   0.0800 
 37 H        0.7170    -4.8130     1.9470 H     1 <1>   0.0800 
 38 H        2.3490    -4.2350     1.9850 H     1 <1>   0.0800 
 39 H        0.6900    -4.5930    -0.5070 H     1 <1>   0.0800 
 40 H        1.9200    -5.7050     0.0320 H     1 <1>   0.0800 
 41 H        1.6200    -3.5690    -2.5170 H     1 <1>   0.0800 
 42 H        2.5130    -5.0710    -2.4230 H     1 <1>   0.0800 
 43 H        3.3650    -3.5690    -2.6840 H     1 <1>   0.0800 
 44 H        4.4070     2.4440    -0.5680 H     1 <1>   0.1500 
 45 H        8.2450     1.5300     0.7280 H     1 <1>   0.4570 
 46 H        7.6930     3.9140     0.2840 H     1 <1>   0.4000 
 47 H        6.1000     4.2540    -0.2070 H     1 <1>   0.4000 
 48 H        8.4030    -2.4240     2.2080 H     1 <1>   0.0800 
 49 H        7.7770    -3.0010     0.6760 H     1 <1>   0.0800 
 50 H        6.7120    -2.2230     1.8290 H     1 <1>   0.0800 
 51 H        9.8120    -1.6600    -0.0470 H     1 <1>   0.0800 
 52 H       10.0510    -0.5720     1.2990 H     1 <1>   0.0800 
 53 H        9.6100     0.0520    -0.2840 H     1 <1>   0.0800 
@<TRIPOS>BOND
  1   1   2  1   
  2   1  24  1   
  3   2   3  1   
  4   2  25  1   
  5   2  26  1   
  6   3   4  1   
  7   3   5  1   
  8   3   6  1   
  9   4   7  1   
 10   4   8  1   
 11   4  27  1   
 12   5   9  1   
 13   5  28  1   
 14   5  29  1   
 15   6  10  1   
 16   6  30  1   
 17   6  31  1   
 18   7  11  1   
 19   7  12  1   
 20   7  32  1   
 21   8  13  1   
 22   8  33  1   
 23   8  34  1   
 24   9  13  1   
 25   9  35  1   
 26   9  36  1   
 27  10  11  1   
 28  10  37  1   
 29  10  38  1   
 30  11  39  1   
 31  11  40  1   
 32  12  41  1   
 33  12  42  1   
 34  12  43  1   
 35  13  14  1   
 36  14  15  ar  
 37  14  16  ar  
 38  15  17  ar  
 39  16  18  ar  
 40  16  44  1   
 41  17  19  ar  
 42  17  20  1   
 43  18  19  ar  
 44  18  21  1   
 45  19  45  1   
 46  20  22  1   
 47  20  23  1   
 48  21  46  1   
 49  21  47  1   
 50  22  48  1   
 51  22  49  1   
 52  22  50  1   
 53  23  51  1   
 54  23  52  1   
 55  23  53  1   
@<TRIPOS>SUBSTRUCTURE
  1 ****  13 GROUP 4 **** **** 0

# MOE 2024.06 (io_trps.svl 2023.06)
