@<TRIPOS>MOLECULE
NONAME
46 49 1 0 0 
SMALL
USER_CHARGES


@<TRIPOS>ATOM
  1 S       -0.5310     0.0230     0.9020 S.o2  1 <1>   1.5000 
  2 O       -0.0960    -0.9720     1.8600 O.2   1 <1>  -0.6500 
  3 O       -1.5400     0.9840     1.2920 O.2   1 <1>  -0.6500 
  4 N       -1.0850    -0.8050    -0.4800 N.am  1 <1>  -0.8490 
  5 C        0.9170     0.8990     0.2640 C.2   1 <1>  -0.0220 
  6 C       -1.1690    -2.2680    -0.3430 C.3   1 <1>   0.1960 
  7 C       -2.2690    -0.2390    -1.1430 C.3   1 <1>   0.1960 
  8 S        1.5780     2.2130     1.2310 S.3   1 <1>  -0.0800 
  9 C        1.6680     0.7540    -0.8480 C.2   1 <1>  -0.1500 
 10 C       -2.4130    -2.6960     0.4580 C.3   1 <1>   0.1000 
 11 C       -3.5800    -0.6590    -0.4530 C.3   1 <1>  -0.1600 
 12 C        2.8680     2.5410     0.0760 C.2   1 <1>   0.0410 
 13 C        2.7550     1.6710    -0.9540 C.2   1 <1>  -0.1500 
 14 C       -2.4290    -4.2070     0.6310 C.2   1 <1>  -0.3320 
 15 C       -3.6730    -2.1790    -0.2480 C.3   1 <1>  -0.1600 
 16 C        3.8160     3.5930     0.3520 C.2   1 <1>  -0.0010 
 17 N       -1.6380    -4.8360     1.5280 N.pl3 1 <1>   0.3000 
 18 C       -3.1450    -5.1720     0.0110 C.2   1 <1>  -0.1500 
 19 C        5.1540     3.6160     0.1770 C.2   1 <1>  -0.0400 
 20 C        3.5960     4.8680     0.8600 C.2   1 <1>   0.1080 
 21 N       -1.8140    -6.1700     1.5000 N.2   1 <1>  -0.7070 
 22 C       -2.7200    -6.3620     0.5910 C.2   1 <1>   0.1390 
 23 O        5.6870     4.7640     0.5310 O.3   1 <1>  -0.0190 
 24 C        6.0900     2.5380    -0.3340 C.3   1 <1>  -0.0600 
 25 N        4.6950     5.5160     0.9500 N.2   1 <1>  -0.4100 
 26 C        2.2590     5.4640     1.2500 C.3   1 <1>  -0.0590 
 27 H       -0.2760    -2.6520     0.1200 H     1 <1>   0.0800 
 28 H       -1.2270    -2.7070    -1.3250 H     1 <1>   0.0800 
 29 H       -2.2890    -0.5910    -2.1600 H     1 <1>   0.0800 
 30 H       -2.1970     0.8360    -1.1760 H     1 <1>   0.0800 
 31 H        1.4890     0.0160    -1.6120 H     1 <1>   0.1500 
 32 H       -2.3710    -2.2560     1.4400 H     1 <1>   0.0800 
 33 H       -4.4110    -0.3280    -1.0510 H     1 <1>   0.0800 
 34 H       -3.6630    -0.1630     0.4980 H     1 <1>   0.0800 
 35 H        3.4130     1.6480    -1.8050 H     1 <1>   0.1500 
 36 H       -4.5430    -2.4180     0.3390 H     1 <1>   0.0800 
 37 H       -3.7720    -2.6580    -1.2060 H     1 <1>   0.0800 
 38 H       -0.9750    -4.3850     2.1740 H     1 <1>   0.2700 
 39 H       -3.8870    -5.0860    -0.7620 H     1 <1>   0.1500 
 40 H       -3.0930    -7.3370     0.3250 H     1 <1>   0.1500 
 41 H        5.5610     1.6200    -0.5050 H     1 <1>   0.0800 
 42 H        6.8620     2.3580     0.3920 H     1 <1>   0.0800 
 43 H        6.5450     2.8590    -1.2530 H     1 <1>   0.0800 
 44 H        1.5190     5.2340     0.5050 H     1 <1>   0.0800 
 45 H        2.3440     6.5330     1.3330 H     1 <1>   0.0800 
 46 H        1.9460     5.0690     2.1980 H     1 <1>   0.0800 
@<TRIPOS>BOND
  1   1   2  2   
  2   1   3  2   
  3   1   4  am  
  4   1   5  1   
  5   4   6  1   
  6   4   7  1   
  7   5   8  1   
  8   5   9  2   
  9   6  10  1   
 10   6  27  1   
 11   6  28  1   
 12   7  11  1   
 13   7  29  1   
 14   7  30  1   
 15   8  12  1   
 16   9  13  1   
 17   9  31  1   
 18  10  14  1   
 19  10  15  1   
 20  10  32  1   
 21  11  15  1   
 22  11  33  1   
 23  11  34  1   
 24  12  13  2   
 25  12  16  1   
 26  13  35  1   
 27  14  17  1   
 28  14  18  2   
 29  15  36  1   
 30  15  37  1   
 31  16  19  2   
 32  16  20  1   
 33  17  21  1   
 34  17  38  1   
 35  18  22  1   
 36  18  39  1   
 37  19  23  1   
 38  19  24  1   
 39  20  25  2   
 40  20  26  1   
 41  21  22  2   
 42  22  40  1   
 43  23  25  1   
 44  24  41  1   
 45  24  42  1   
 46  24  43  1   
 47  26  44  1   
 48  26  45  1   
 49  26  46  1   
@<TRIPOS>SUBSTRUCTURE
  1 ****   5 GROUP 4 **** **** 0

# MOE 2024.06 (io_trps.svl 2023.06)
