@<TRIPOS>MOLECULE
NONAME
61 64 1 0 0 
SMALL
USER_CHARGES


@<TRIPOS>ATOM
  1 O        0.5640    -1.6100     1.3360 O.2   1 <1>  -0.5700 
  2 C        1.5520    -0.9640     1.0130 C.2   1 <1>   0.5440 
  3 N        1.7540     0.2590     1.6070 N.am  1 <1>  -0.6600 
  4 C        2.4520    -1.4900     0.0140 C.ar  1 <1>   0.0860 
  5 C        2.6170     1.3320     1.0610 C.3   1 <1>   0.1400 
  6 C        0.8600     0.7910     2.6620 C.3   1 <1>   0.1400 
  7 C        1.9460    -2.0390    -1.1800 C.ar  1 <1>   0.4100 
  8 C        3.8260    -1.5230     0.2060 C.ar  1 <1>  -0.1500 
  9 C        2.0090     2.6240     1.5900 C.3   1 <1>  -0.1600 
 10 C        1.3330     2.2210     2.8970 C.3   1 <1>  -0.1600 
 11 N        2.6940    -2.6350    -2.1030 N.ar  1 <1>  -0.6200 
 12 N        0.5970    -2.0110    -1.4480 N.pl3 1 <1>  -0.8690 
 13 C        4.6070    -2.0930    -0.7740 C.ar  1 <1>  -0.1500 
 14 C        3.9970    -2.6280    -1.8950 C.ar  1 <1>   0.1600 
 15 C       -0.1670    -3.1820    -1.9860 C.3   1 <1>   0.2090 
 16 C       -0.7550    -4.0710    -0.8400 C.3   1 <1>   0.5030 
 17 N        0.3080    -4.3330     0.1850 N.4   1 <1>  -0.9590 
 18 C       -1.3380    -5.3740    -1.3980 C.3   1 <1>  -0.1600 
 19 C       -1.9970    -3.3800    -0.2530 C.3   1 <1>  -0.1600 
 20 C        1.4650    -5.1420    -0.3360 C.3   1 <1>   0.3430 
 21 C       -0.0630    -4.7550     1.5730 C.3   1 <1>   0.3430 
 22 C       -2.7480    -5.0300    -1.8970 C.3   1 <1>  -0.1600 
 23 C       -3.1440    -3.7180    -1.2110 C.3   1 <1>  -0.1600 
 24 C        2.6420    -5.2100     0.6640 C.3   1 <1>   0.1100 
 25 C        1.1570    -4.7010     2.5280 C.3   1 <1>   0.1100 
 26 N        2.4250    -4.3520     1.8450 N.3   1 <1>  -0.8100 
 27 C        3.5640    -4.3910     2.7670 C.3   1 <1>   0.0300 
 28 H        2.6330     1.3170    -0.0160 H     1 <1>   0.0800 
 29 H        3.6170     1.2120     1.4440 H     1 <1>   0.0800 
 30 H        0.9290     0.1960     3.5560 H     1 <1>   0.0800 
 31 H       -0.1550     0.7850     2.3010 H     1 <1>   0.0800 
 32 H        4.2620    -1.1220     1.1040 H     1 <1>   0.1500 
 33 H        1.2710     2.9760     0.8910 H     1 <1>   0.0800 
 34 H        2.7520     3.3900     1.7310 H     1 <1>   0.0800 
 35 H        2.0530     2.2240     3.6980 H     1 <1>   0.0800 
 36 H        0.5190     2.8740     3.1570 H     1 <1>   0.0800 
 37 H        0.0470    -1.4290    -0.7990 H     1 <1>   0.4000 
 38 H        5.6770    -2.1290    -0.6730 H     1 <1>   0.1500 
 39 H        4.6170    -3.0740    -2.6550 H     1 <1>   0.1500 
 40 H        0.4760    -3.7750    -2.6120 H     1 <1>   0.0800 
 41 H       -0.9580    -2.8190    -2.6170 H     1 <1>   0.0800 
 42 H        0.7220    -3.3950     0.3590 H     1 <1>   0.4500 
 43 H       -1.4300    -6.0980    -0.6080 H     1 <1>   0.0800 
 44 H       -0.7390    -5.7890    -2.1890 H     1 <1>   0.0800 
 45 H       -1.8700    -2.3170    -0.1470 H     1 <1>   0.0800 
 46 H       -2.2690    -3.7910     0.6990 H     1 <1>   0.0800 
 47 H        1.8270    -4.7100    -1.2530 H     1 <1>   0.0800 
 48 H        1.1400    -6.1440    -0.5590 H     1 <1>   0.0800 
 49 H       -0.4690    -5.7510     1.5610 H     1 <1>   0.0800 
 50 H       -0.8120    -4.0930     1.9720 H     1 <1>   0.0800 
 51 H       -3.4410    -5.8190    -1.6550 H     1 <1>   0.0800 
 52 H       -2.7470    -4.8950    -2.9670 H     1 <1>   0.0800 
 53 H       -3.2550    -2.9390    -1.9480 H     1 <1>   0.0800 
 54 H       -4.0780    -3.8160    -0.6810 H     1 <1>   0.0800 
 55 H        3.5390    -4.8980     0.1570 H     1 <1>   0.0800 
 56 H        2.7820    -6.2310     0.9760 H     1 <1>   0.0800 
 57 H        1.2560    -5.6530     3.0230 H     1 <1>   0.0800 
 58 H        0.9600    -3.9620     3.2870 H     1 <1>   0.0800 
 59 H        4.4600    -4.0810     2.2570 H     1 <1>   0.0800 
 60 H        3.7070    -5.3850     3.1560 H     1 <1>   0.0800 
 61 H        3.3930    -3.7140     3.5870 H     1 <1>   0.0800 
@<TRIPOS>BOND
  1   1   2  2   
  2   2   3  am  
  3   2   4  1   
  4   3   5  1   
  5   3   6  1   
  6   4   7  ar  
  7   4   8  ar  
  8   5   9  1   
  9   5  28  1   
 10   5  29  1   
 11   6  10  1   
 12   6  30  1   
 13   6  31  1   
 14   7  11  ar  
 15   7  12  1   
 16   8  13  ar  
 17   8  32  1   
 18   9  10  1   
 19   9  33  1   
 20   9  34  1   
 21  10  35  1   
 22  10  36  1   
 23  11  14  ar  
 24  12  15  1   
 25  12  37  1   
 26  13  14  ar  
 27  13  38  1   
 28  14  39  1   
 29  15  16  1   
 30  15  40  1   
 31  15  41  1   
 32  16  17  1   
 33  16  18  1   
 34  16  19  1   
 35  17  20  1   
 36  17  21  1   
 37  17  42  1   
 38  18  22  1   
 39  18  43  1   
 40  18  44  1   
 41  19  23  1   
 42  19  45  1   
 43  19  46  1   
 44  20  24  1   
 45  20  47  1   
 46  20  48  1   
 47  21  25  1   
 48  21  49  1   
 49  21  50  1   
 50  22  23  1   
 51  22  51  1   
 52  22  52  1   
 53  23  53  1   
 54  23  54  1   
 55  24  26  1   
 56  24  55  1   
 57  24  56  1   
 58  25  26  1   
 59  25  57  1   
 60  25  58  1   
 61  26  27  1   
 62  27  59  1   
 63  27  60  1   
 64  27  61  1   
@<TRIPOS>SUBSTRUCTURE
  1 ****   1 GROUP 4 **** **** 0

# MOE 2024.06 (io_trps.svl 2023.06)
