@<TRIPOS>MOLECULE
NONAME
58 61 1 0 0 
SMALL
USER_CHARGES


@<TRIPOS>ATOM
  1 O        0.2770    -2.8100    -2.0420 O.3   1 <1>  -0.3630 
  2 C       -0.0530    -3.7130    -1.0820 C.ar  1 <1>   0.0820 
  3 C        0.0390    -1.4300    -1.8890 C.3   1 <1>   0.1200 
  4 C        0.2830    -5.0450    -1.3060 C.ar  1 <1>  -0.1440 
  5 C       -0.7070    -3.3540     0.0930 C.ar  1 <1>  -0.1500 
  6 C        0.5650    -0.7210    -3.1330 C.3   1 <1>  -0.2400 
  7 C       -0.0550    -5.9990    -0.3570 C.ar  1 <1>  -0.1500 
  8 C        1.0020    -5.4480    -2.5920 C.3   1 <1>   0.2630 
  9 C       -1.0350    -4.3140     1.0320 C.ar  1 <1>  -0.1500 
 10 C       -0.7160    -5.6450     0.8100 C.ar  1 <1>  -0.1440 
 11 O        1.9360    -6.4320    -2.3120 O.3   1 <1>  -0.6800 
 12 C       -1.0930    -6.7060     1.8260 C.3   1 <1>   0.4860 
 13 N       -2.2050    -7.5130     1.2670 N.4   1 <1>  -0.9590 
 14 C       -3.4470    -6.7080     1.0160 C.3   1 <1>   0.3430 
 15 C       -2.6040    -8.6430     2.1460 C.3   1 <1>   0.3430 
 16 C       -4.6010    -7.4500     1.7090 C.3   1 <1>   0.2000 
 17 C       -4.0910    -8.8830     1.8560 C.3   1 <1>  -0.0800 
 18 O       -4.7390    -6.9190     2.9850 O.3   1 <1>  -0.6800 
 19 C       -4.3780    -9.7450     0.5950 C.3   1 <1>  -0.0170 
 20 C       -3.1390   -10.4960     0.1130 C.ar  1 <1>  -0.1440 
 21 C       -2.2530    -9.9770    -0.8640 C.ar  1 <1>   0.0000 
 22 C       -2.8230   -11.6950     0.6820 C.ar  1 <1>  -0.1500 
 23 C       -1.0460   -10.6830    -1.0890 C.ar  1 <1>   0.3100 
 24 C       -2.4790    -8.8020    -1.6210 C.ar  1 <1>  -0.1500 
 25 C       -1.6280   -12.3410     0.3440 C.ar  1 <1>   0.1600 
 26 N       -0.7550   -11.8580    -0.4800 N.ar  1 <1>  -0.6200 
 27 C       -0.0960   -10.1430    -1.9690 C.ar  1 <1>  -0.1500 
 28 C       -1.5370    -8.3090    -2.4810 C.ar  1 <1>  -0.1500 
 29 C       -0.3230    -8.9790    -2.6470 C.ar  1 <1>  -0.1500 
 30 H       -1.0210    -1.2750    -1.7840 H     1 <1>   0.0800 
 31 H        0.5570    -1.0880    -1.0100 H     1 <1>   0.0800 
 32 H       -0.9690    -2.3320     0.2940 H     1 <1>   0.1500 
 33 H        0.0530    -1.0790    -4.0080 H     1 <1>   0.0800 
 34 H        1.6210    -0.8930    -3.2390 H     1 <1>   0.0800 
 35 H        0.3970     0.3380    -3.0480 H     1 <1>   0.0800 
 36 H        0.2080    -7.0290    -0.5370 H     1 <1>   0.1500 
 37 H        1.5260    -4.6190    -3.0360 H     1 <1>   0.0800 
 38 H        0.3020    -5.8420    -3.3080 H     1 <1>   0.0800 
 39 H       -1.5380    -4.0100     1.9350 H     1 <1>   0.1500 
 40 H        2.5810    -6.0790    -1.6690 H     1 <1>   0.4000 
 41 H       -1.3980    -6.2420     2.7490 H     1 <1>   0.0800 
 42 H       -0.2390    -7.3350     2.0200 H     1 <1>   0.0800 
 43 H       -1.8810    -7.8960     0.3660 H     1 <1>   0.4500 
 44 H       -3.3630    -5.7090     1.4120 H     1 <1>   0.0800 
 45 H       -3.6280    -6.6490    -0.0440 H     1 <1>   0.0800 
 46 H       -1.9970    -9.5180     1.9760 H     1 <1>   0.0800 
 47 H       -2.5030    -8.3450     3.1780 H     1 <1>   0.0800 
 48 H       -5.5390    -7.3510     1.1890 H     1 <1>   0.0800 
 49 H       -4.5450    -9.3710     2.7020 H     1 <1>   0.0800 
 50 H       -5.5800    -7.2030     3.4040 H     1 <1>   0.4000 
 51 H       -4.8000    -9.1600    -0.2000 H     1 <1>   0.0800 
 52 H       -5.1370   -10.4680     0.8470 H     1 <1>   0.0800 
 53 H       -3.4600   -12.1680     1.4070 H     1 <1>   0.1500 
 54 H       -3.4120    -8.2810    -1.5440 H     1 <1>   0.1500 
 55 H       -1.4150   -13.2900     0.8080 H     1 <1>   0.1500 
 56 H        0.8260   -10.6830    -2.0980 H     1 <1>   0.1500 
 57 H       -1.7130    -7.4100    -3.0490 H     1 <1>   0.1500 
 58 H        0.4200    -8.5760    -3.3170 H     1 <1>   0.1500 
@<TRIPOS>BOND
  1   1   2  1   
  2   1   3  1   
  3   2   4  ar  
  4   2   5  ar  
  5   3   6  1   
  6   3  30  1   
  7   3  31  1   
  8   4   7  ar  
  9   4   8  1   
 10   5   9  ar  
 11   5  32  1   
 12   6  33  1   
 13   6  34  1   
 14   6  35  1   
 15   7  10  ar  
 16   7  36  1   
 17   8  11  1   
 18   8  37  1   
 19   8  38  1   
 20   9  10  ar  
 21   9  39  1   
 22  10  12  1   
 23  11  40  1   
 24  12  13  1   
 25  12  41  1   
 26  12  42  1   
 27  13  14  1   
 28  13  15  1   
 29  13  43  1   
 30  14  16  1   
 31  14  44  1   
 32  14  45  1   
 33  15  17  1   
 34  15  46  1   
 35  15  47  1   
 36  16  17  1   
 37  16  18  1   
 38  16  48  1   
 39  17  19  1   
 40  17  49  1   
 41  18  50  1   
 42  19  20  1   
 43  19  51  1   
 44  19  52  1   
 45  20  21  ar  
 46  20  22  ar  
 47  21  23  ar  
 48  21  24  ar  
 49  22  25  ar  
 50  22  53  1   
 51  23  26  ar  
 52  23  27  ar  
 53  24  28  ar  
 54  24  54  1   
 55  25  26  ar  
 56  25  55  1   
 57  27  29  ar  
 58  27  56  1   
 59  28  29  ar  
 60  28  57  1   
 61  29  58  1   
@<TRIPOS>SUBSTRUCTURE
  1 ****  13 GROUP 4 **** **** 0

# MOE 2024.06 (io_trps.svl 2023.06)
