@<TRIPOS>MOLECULE
NONAME
51 53 1 0 0 
SMALL
USER_CHARGES


@<TRIPOS>ATOM
  1 S       -0.2870     0.3080    -0.7170 S.o2  1 <1>   1.3330 
  2 O       -0.2830     1.1700    -1.8780 O.2   1 <1>  -0.6500 
  3 O       -1.0490    -0.9200    -0.7370 O.2   1 <1>  -0.6500 
  4 N        1.3240    -0.1110    -0.3750 N.am  1 <1>  -0.8490 
  5 C       -0.7690     1.2690     0.7260 C.3   1 <1>  -0.0550 
  6 C        1.4510    -1.2950     0.4840 C.3   1 <1>   0.1160 
  7 C        2.1200    -0.3000    -1.5930 C.3   1 <1>   0.1160 
  8 C       -0.2620     2.7270     0.8150 C.3   1 <1>  -0.0800 
  9 C       -0.9910     3.7000    -0.1160 C.3   1 <1>   0.2000 
 10 C        1.2200     2.9750     0.5290 C.3   1 <1>   0.1400 
 11 O       -2.1730     4.1030     0.4870 O.3   1 <1>  -0.6800 
 12 C       -0.0330     4.8800    -0.3160 C.3   1 <1>   0.1400 
 13 N        1.2840     4.4170     0.1980 N.am  1 <1>  -0.6600 
 14 C        2.4290     5.1820     0.3100 C.2   1 <1>   0.7160 
 15 O        3.4300     4.6280     0.7440 O.2   1 <1>  -0.5700 
 16 C        2.5190     6.6000    -0.0560 C.2   1 <1>   0.2030 
 17 N        1.5560     7.3850    -0.5170 N.2   1 <1>  -0.7070 
 18 C        3.7040     7.3490     0.0400 C.2   1 <1>  -0.1810 
 19 N        2.1050     8.5940    -0.7080 N.pl3 1 <1>   0.3000 
 20 C        3.4080     8.5930    -0.3710 C.2   1 <1>  -0.3320 
 21 C        5.0740     6.9030     0.5090 C.3   1 <1>   0.5240 
 22 C        4.4110     9.7300    -0.4200 C.3   1 <1>   0.0200 
 23 N        6.0880     7.8850    -0.0030 N.4   1 <1>  -0.9590 
 24 C        5.7050     9.3090     0.3100 C.3   1 <1>   0.3430 
 25 C        7.4540     7.5450     0.4910 C.3   1 <1>   0.2630 
 26 H       -1.8420     1.3010     0.7630 H     1 <1>   0.0800 
 27 H       -0.4470     0.7450     1.6030 H     1 <1>   0.0800 
 28 H        2.4840    -1.4560     0.7420 H     1 <1>   0.0800 
 29 H        1.0770    -2.1700    -0.0230 H     1 <1>   0.0800 
 30 H        0.8920    -1.1590     1.3930 H     1 <1>   0.0800 
 31 H        3.1350    -0.5560    -1.3420 H     1 <1>   0.0800 
 32 H        2.1370     0.6110    -2.1680 H     1 <1>   0.0800 
 33 H        1.6950    -1.0830    -2.1990 H     1 <1>   0.0800 
 34 H       -0.4240     3.0580     1.8260 H     1 <1>   0.0800 
 35 H       -1.2320     3.2600    -1.0680 H     1 <1>   0.0800 
 36 H        1.5630     2.4250    -0.3280 H     1 <1>   0.0800 
 37 H        1.8360     2.7380     1.3800 H     1 <1>   0.0800 
 38 H       -1.9830     4.6240     1.2910 H     1 <1>   0.4000 
 39 H       -0.3590     5.7420     0.2390 H     1 <1>   0.0800 
 40 H        0.0470     5.1250    -1.3610 H     1 <1>   0.0800 
 41 H        1.5600     9.3910    -1.0660 H     1 <1>   0.2700 
 42 H        5.2870     5.9160     0.1290 H     1 <1>   0.0800 
 43 H        5.0890     6.8660     1.5860 H     1 <1>   0.0800 
 44 H        4.6350     9.9760    -1.4430 H     1 <1>   0.0800 
 45 H        4.0070    10.6080     0.0540 H     1 <1>   0.0800 
 46 H        6.0560     7.7840    -1.0270 H     1 <1>   0.4500 
 47 H        5.5490     9.4040     1.3730 H     1 <1>   0.0800 
 48 H        6.5020     9.9790     0.0300 H     1 <1>   0.0800 
 49 H        7.4970     7.6280     1.5650 H     1 <1>   0.0800 
 50 H        8.1840     8.2130     0.0630 H     1 <1>   0.0800 
 51 H        7.7120     6.5350     0.2140 H     1 <1>   0.0800 
@<TRIPOS>BOND
  1   1   2  2   
  2   1   3  2   
  3   1   4  am  
  4   1   5  1   
  5   4   6  1   
  6   4   7  1   
  7   5   8  1   
  8   5  26  1   
  9   5  27  1   
 10   6  28  1   
 11   6  29  1   
 12   6  30  1   
 13   7  31  1   
 14   7  32  1   
 15   7  33  1   
 16   8   9  1   
 17   8  10  1   
 18   8  34  1   
 19   9  11  1   
 20   9  12  1   
 21   9  35  1   
 22  10  13  1   
 23  10  36  1   
 24  10  37  1   
 25  11  38  1   
 26  12  13  1   
 27  12  39  1   
 28  12  40  1   
 29  13  14  am  
 30  14  15  2   
 31  14  16  1   
 32  16  17  2   
 33  16  18  1   
 34  17  19  1   
 35  18  20  2   
 36  18  21  1   
 37  19  20  1   
 38  19  41  1   
 39  20  22  1   
 40  21  23  1   
 41  21  42  1   
 42  21  43  1   
 43  22  24  1   
 44  22  44  1   
 45  22  45  1   
 46  23  24  1   
 47  23  25  1   
 48  23  46  1   
 49  24  47  1   
 50  24  48  1   
 51  25  49  1   
 52  25  50  1   
 53  25  51  1   
@<TRIPOS>SUBSTRUCTURE
  1 ****  13 GROUP 4 **** **** 0

# MOE 2024.06 (io_trps.svl 2023.06)
