@<TRIPOS>MOLECULE
NONAME
29 29 1 0 0 
SMALL
USER_CHARGES


@<TRIPOS>ATOM
  1 BR       0.3490     0.3000     2.0450 Br    1 <1>  -0.1110 
  2 C        0.1250     1.9530     1.0740 C.ar  1 <1>   0.1110 
  3 C        1.1900     2.4800     0.3560 C.ar  1 <1>   0.0830 
  4 C       -1.1110     2.5660     1.1280 C.ar  1 <1>  -0.1500 
  5 O        2.3740     1.8100     0.3580 O.3   1 <1>  -0.3630 
  6 C        0.9820     3.6740    -0.3290 C.ar  1 <1>  -0.1500 
  7 C       -1.3100     3.7570     0.4420 C.ar  1 <1>  -0.1430 
  8 C        3.4970     2.2920    -0.3450 C.3   1 <1>   0.0400 
  9 C       -0.2560     4.3000    -0.2830 C.ar  1 <1>  -0.1500 
 10 C       -2.6590     4.4680     0.4720 C.3   1 <1>   0.3440 
 11 O       -3.0520     4.5770     1.7900 O.3   1 <1>  -0.6800 
 12 C       -3.7260     3.7020    -0.3010 C.3   1 <1>  -0.0990 
 13 C       -4.9840     4.5240    -0.3980 C.2   1 <1>   0.6590 
 14 O       -4.9970     5.5720    -0.9920 O.2   1 <1>  -0.5700 
 15 O       -6.0680     4.0190     0.1770 O.3   1 <1>  -0.4300 
 16 C       -7.3030     4.7030     0.1570 C.3   1 <1>   0.0400 
 17 H       -1.9040     2.1170     1.7010 H     1 <1>   0.1500 
 18 H        1.7670     4.1300    -0.9030 H     1 <1>   0.1500 
 19 H        4.3060     1.6000    -0.1940 H     1 <1>   0.0800 
 20 H        3.7650     3.2580     0.0440 H     1 <1>   0.0800 
 21 H        3.2560     2.3480    -1.3920 H     1 <1>   0.0800 
 22 H       -0.3920     5.2220    -0.8230 H     1 <1>   0.1500 
 23 H       -2.5600     5.4660     0.0770 H     1 <1>   0.0800 
 24 H       -2.2940     4.8910     2.3190 H     1 <1>   0.4000 
 25 H       -3.9290     2.7600     0.1730 H     1 <1>   0.0800 
 26 H       -3.3740     3.5140    -1.2970 H     1 <1>   0.0800 
 27 H       -8.0300     4.1090     0.6820 H     1 <1>   0.0800 
 28 H       -7.6060     4.8450    -0.8660 H     1 <1>   0.0800 
 29 H       -7.1790     5.6550     0.6440 H     1 <1>   0.0800 
@<TRIPOS>BOND
  1   1   2  1   
  2   2   3  ar  
  3   2   4  ar  
  4   3   5  1   
  5   3   6  ar  
  6   4   7  ar  
  7   4  17  1   
  8   5   8  1   
  9   6   9  ar  
 10   6  18  1   
 11   7   9  ar  
 12   7  10  1   
 13   8  19  1   
 14   8  20  1   
 15   8  21  1   
 16   9  22  1   
 17  10  11  1   
 18  10  12  1   
 19  10  23  1   
 20  11  24  1   
 21  12  13  1   
 22  12  25  1   
 23  12  26  1   
 24  13  14  2   
 25  13  15  1   
 26  15  16  1   
 27  16  27  1   
 28  16  28  1   
 29  16  29  1   
@<TRIPOS>SUBSTRUCTURE
  1 ****   7 GROUP 4 **** **** 0

# MOE 2024.06 (io_trps.svl 2023.06)
