@<TRIPOS>MOLECULE
NONAME
53 56 1 0 0 
SMALL
USER_CHARGES


@<TRIPOS>ATOM
  1 CL      -0.7020    -1.1070     0.6090 Cl    1 <1>  -0.1770 
  2 C       -1.5230     0.4320     0.7370 C.ar  1 <1>   0.1770 
  3 C       -2.8130     0.5990     0.2310 C.ar  1 <1>   0.0540 
  4 C       -0.8460     1.4560     1.3730 C.ar  1 <1>  -0.1500 
  5 C       -3.5310    -0.4540    -0.4510 C.2   1 <1>   0.4620 
  6 C       -3.4050     1.8500     0.4140 C.ar  1 <1>  -0.1500 
  7 C       -1.4540     2.6890     1.5300 C.ar  1 <1>  -0.1500 
  8 N       -3.0940    -1.1680    -1.4260 N.2   1 <1>  -0.4100 
  9 N       -4.7880    -0.7690    -0.1280 N.2   1 <1>  -0.5650 
 10 C       -2.7380     2.8820     1.0510 C.ar  1 <1>  -0.1500 
 11 O       -4.0340    -1.9920    -1.7660 O.3   1 <1>  -0.0190 
 12 C       -5.0170    -1.7040    -0.9530 C.2   1 <1>   0.2980 
 13 C       -6.3130    -2.4830    -1.0650 C.3   1 <1>   0.0200 
 14 C       -6.1330    -3.9420    -0.6200 C.3   1 <1>  -0.1600 
 15 C       -7.4560    -4.7290    -0.6800 C.3   1 <1>  -0.0990 
 16 C       -7.3380    -6.1840    -0.2420 C.2   1 <1>   0.5690 
 17 O       -6.2780    -6.6020     0.1570 O.2   1 <1>  -0.5700 
 18 N       -8.4350    -6.9960    -0.3030 N.am  1 <1>  -0.6600 
 19 C       -9.8130    -6.6230    -0.7130 C.3   1 <1>   0.1400 
 20 C       -8.3950    -8.4130     0.1390 C.3   1 <1>   0.1400 
 21 C      -10.6950    -7.6830    -0.0570 C.3   1 <1>   0.2000 
 22 C       -9.8200    -8.9420    -0.0720 C.3   1 <1>  -0.0800 
 23 O      -10.9250    -7.2930     1.2540 O.3   1 <1>  -0.6800 
 24 C      -10.2360   -10.0340     0.9320 C.3   1 <1>   0.0200 
 25 C       -9.4390   -11.3190     0.7830 C.2   1 <1>  -0.0400 
 26 O       -9.6220   -12.2730     1.6580 O.3   1 <1>  -0.0190 
 27 C       -8.5230   -11.7490    -0.1000 C.2   1 <1>  -0.1500 
 28 N       -8.8780   -13.3110     1.4110 N.2   1 <1>  -0.4100 
 29 C       -8.2040   -13.0240     0.3570 C.2   1 <1>   0.1080 
 30 C       -7.2020   -13.9530    -0.2910 C.3   1 <1>  -0.0590 
 31 H        0.1490     1.2860     1.7440 H     1 <1>   0.1500 
 32 H       -4.4050     2.0120     0.0470 H     1 <1>   0.1500 
 33 H       -0.9330     3.4920     2.0240 H     1 <1>   0.1500 
 34 H       -3.2180     3.8380     1.1750 H     1 <1>   0.1500 
 35 H       -7.0530    -2.0060    -0.4480 H     1 <1>   0.0800 
 36 H       -6.6510    -2.4460    -2.0850 H     1 <1>   0.0800 
 37 H       -5.7550    -3.9590     0.3890 H     1 <1>   0.0800 
 38 H       -5.4030    -4.4230    -1.2500 H     1 <1>   0.0800 
 39 H       -7.8300    -4.7130    -1.6870 H     1 <1>   0.0800 
 40 H       -8.1750    -4.2490    -0.0420 H     1 <1>   0.0800 
 41 H      -10.0840    -5.6320    -0.3930 H     1 <1>   0.0800 
 42 H       -9.8900    -6.6940    -1.7840 H     1 <1>   0.0800 
 43 H       -7.6720    -8.9640    -0.4370 H     1 <1>   0.0800 
 44 H       -8.1170    -8.4480     1.1790 H     1 <1>   0.0800 
 45 H      -11.6440    -7.8120    -0.5490 H     1 <1>   0.0800 
 46 H       -9.8710    -9.3560    -1.0640 H     1 <1>   0.0800 
 47 H      -10.0700    -7.0580     1.6690 H     1 <1>   0.4000 
 48 H      -11.2780   -10.2640     0.7960 H     1 <1>   0.0800 
 49 H      -10.1140    -9.6750     1.9390 H     1 <1>   0.0800 
 50 H       -8.1060   -11.2690    -0.9650 H     1 <1>   0.1500 
 51 H       -6.2350   -13.4840    -0.3180 H     1 <1>   0.0800 
 52 H       -7.5140   -14.1850    -1.2920 H     1 <1>   0.0800 
 53 H       -7.1300   -14.8660     0.2730 H     1 <1>   0.0800 
@<TRIPOS>BOND
  1   1   2  1   
  2   2   3  ar  
  3   2   4  ar  
  4   3   5  1   
  5   3   6  ar  
  6   4   7  ar  
  7   4  31  1   
  8   5   8  2   
  9   5   9  1   
 10   6  10  ar  
 11   6  32  1   
 12   7  10  ar  
 13   7  33  1   
 14   8  11  1   
 15   9  12  2   
 16  10  34  1   
 17  11  12  1   
 18  12  13  1   
 19  13  14  1   
 20  13  35  1   
 21  13  36  1   
 22  14  15  1   
 23  14  37  1   
 24  14  38  1   
 25  15  16  1   
 26  15  39  1   
 27  15  40  1   
 28  16  17  2   
 29  16  18  am  
 30  18  19  1   
 31  18  20  1   
 32  19  21  1   
 33  19  41  1   
 34  19  42  1   
 35  20  22  1   
 36  20  43  1   
 37  20  44  1   
 38  21  22  1   
 39  21  23  1   
 40  21  45  1   
 41  22  24  1   
 42  22  46  1   
 43  23  47  1   
 44  24  25  1   
 45  24  48  1   
 46  24  49  1   
 47  25  26  1   
 48  25  27  2   
 49  26  28  1   
 50  27  29  1   
 51  27  50  1   
 52  28  29  2   
 53  29  30  1   
 54  30  51  1   
 55  30  52  1   
 56  30  53  1   
@<TRIPOS>SUBSTRUCTURE
  1 ****  14 GROUP 4 **** **** 0

# MOE 2024.06 (io_trps.svl 2023.06)
