@<TRIPOS>MOLECULE
NONAME
41 43 1 0 0 
SMALL
USER_CHARGES


@<TRIPOS>ATOM
  1 O        2.1250    -2.3330     2.3500 O.2   1 <1>  -0.5700 
  2 C        1.5810    -1.3550     1.8970 C.2   1 <1>   0.5690 
  3 N        2.2940    -0.1960     1.6750 N.am  1 <1>  -0.6600 
  4 C        0.1330    -1.5110     1.4700 C.3   1 <1>   0.1570 
  5 C        3.8010    -0.2830     1.7270 C.3   1 <1>   0.2200 
  6 C        1.7050     1.0650     1.1220 C.3   1 <1>   0.1400 
  7 N        0.1000    -1.6160    -0.0060 N.pl3 1 <1>   0.0480 
  8 C        4.4990     1.0230     2.1410 C.3   1 <1>   0.1200 
  9 C        4.3370    -0.7910     0.3660 C.3   1 <1>   0.3430 
 10 C        2.5500     1.7320     0.0170 C.3   1 <1>  -0.0800 
 11 C       -0.4860    -0.7540    -0.8810 C.2   1 <1>  -0.3020 
 12 C        0.7440    -2.5560    -0.7520 C.2   1 <1>  -0.3020 
 13 O        4.7380     1.8320     1.0280 O.3   1 <1>  -0.5600 
 14 N        3.3660    -0.6000    -0.7780 N.4   1 <1>  -0.9590 
 15 C        3.6690     2.6050     0.6040 C.3   1 <1>   0.1200 
 16 C        3.0640     0.8270    -1.1280 C.3   1 <1>   0.3430 
 17 C       -0.2180    -1.1410    -2.1550 C.2   1 <1>  -0.1500 
 18 C        0.5640    -2.2960    -2.0730 C.2   1 <1>  -0.1500 
 19 C        3.8070    -1.3580    -1.9810 C.3   1 <1>   0.2630 
 20 H       -0.4560    -0.6770     1.7980 H     1 <1>   0.0800 
 21 H       -0.2730    -2.4130     1.8910 H     1 <1>   0.0800 
 22 H        4.0780    -1.0030     2.4790 H     1 <1>   0.0800 
 23 H        0.7270     0.8800     0.7250 H     1 <1>   0.0800 
 24 H        1.5740     1.7610     1.9340 H     1 <1>   0.0800 
 25 H        5.4640     0.7870     2.5550 H     1 <1>   0.0800 
 26 H        3.9400     1.5620     2.8880 H     1 <1>   0.0800 
 27 H        4.5430    -1.8420     0.4750 H     1 <1>   0.0800 
 28 H        5.2710    -0.3010     0.1450 H     1 <1>   0.0800 
 29 H        1.8910     2.4400    -0.4530 H     1 <1>   0.0800 
 30 H       -1.0800     0.0860    -0.5620 H     1 <1>   0.1500 
 31 H        1.2820    -3.3740    -0.3010 H     1 <1>   0.1500 
 32 H        2.4710    -1.0120    -0.4590 H     1 <1>   0.4500 
 33 H        3.3210     3.2050     1.4290 H     1 <1>   0.0800 
 34 H        4.0490     3.2720    -0.1520 H     1 <1>   0.0800 
 35 H        3.9470     1.2810    -1.5470 H     1 <1>   0.0800 
 36 H        2.3110     0.8220    -1.9000 H     1 <1>   0.0800 
 37 H       -0.5490    -0.6800    -3.0720 H     1 <1>   0.1500 
 38 H        0.9230    -2.8610    -2.9170 H     1 <1>   0.1500 
 39 H        4.7430    -0.9690    -2.3480 H     1 <1>   0.0800 
 40 H        3.0670    -1.2800    -2.7600 H     1 <1>   0.0800 
 41 H        3.9350    -2.4010    -1.7370 H     1 <1>   0.0800 
@<TRIPOS>BOND
  1   1   2  2   
  2   2   3  am  
  3   2   4  1   
  4   3   5  1   
  5   3   6  1   
  6   4   7  1   
  7   4  20  1   
  8   4  21  1   
  9   5   8  1   
 10   5   9  1   
 11   5  22  1   
 12   6  10  1   
 13   6  23  1   
 14   6  24  1   
 15   7  11  1   
 16   7  12  1   
 17   8  13  1   
 18   8  25  1   
 19   8  26  1   
 20   9  14  1   
 21   9  27  1   
 22   9  28  1   
 23  10  15  1   
 24  10  16  1   
 25  10  29  1   
 26  11  17  2   
 27  11  30  1   
 28  12  18  2   
 29  12  31  1   
 30  13  15  1   
 31  14  16  1   
 32  14  19  1   
 33  14  32  1   
 34  15  33  1   
 35  15  34  1   
 36  16  35  1   
 37  16  36  1   
 38  17  18  1   
 39  17  37  1   
 40  18  38  1   
 41  19  39  1   
 42  19  40  1   
 43  19  41  1   
@<TRIPOS>SUBSTRUCTURE
  1 ****   3 GROUP 4 **** **** 0

# MOE 2024.06 (io_trps.svl 2023.06)
