@<TRIPOS>MOLECULE
NONAME
34 35 1 0 0 
SMALL
USER_CHARGES


@<TRIPOS>ATOM
  1 S        0.2380     0.0430    -0.4430 S.o2  1 <1>   1.0900 
  2 O       -1.1460    -0.2750    -0.7000 O.2   1 <1>  -0.6500 
  3 O        1.3210    -0.7720    -0.9400 O.2   1 <1>  -0.6500 
  4 C        0.5480     1.7260    -0.9080 C.3   1 <1>  -0.0550 
  5 C        0.4900     0.3030     1.3090 C.3   1 <1>  -0.0550 
  6 C        1.4240     2.2830     0.2020 C.3   1 <1>   0.2890 
  7 C        0.8420     1.7830     1.5250 C.3   1 <1>  -0.1600 
  8 N        1.4350     3.7610     0.1720 N.pl3 1 <1>  -0.8690 
  9 C        2.2810     4.5320    -0.5480 C.ar  1 <1>   0.4100 
 10 N        3.1020     3.9070    -1.3680 N.ar  1 <1>  -0.6200 
 11 C        2.2670     5.9440    -0.4170 C.ar  1 <1>  -0.1430 
 12 C        3.9320     4.6370    -2.0760 C.ar  1 <1>   0.7710 
 13 C        3.1480     6.6530    -1.1740 C.ar  1 <1>   0.2110 
 14 C        1.2790     6.5990     0.5570 C.3   1 <1>  -0.0160 
 15 N        3.9790     5.9770    -2.0030 N.ar  1 <1>  -0.1790 
 16 N        4.7480     3.9790    -2.8940 N.pl3 1 <1>  -0.9000 
 17 C        1.3580     8.1290     0.6350 C.3   1 <1>  -0.2400 
 18 H       -0.3760     2.2680    -0.9420 H     1 <1>   0.0800 
 19 H        1.0410     1.7850    -1.8580 H     1 <1>   0.0800 
 20 H        1.3050    -0.3130     1.6420 H     1 <1>   0.0800 
 21 H       -0.3870     0.0370     1.8680 H     1 <1>   0.0800 
 22 H        2.4270     1.8980     0.0890 H     1 <1>   0.0800 
 23 H        1.5450     1.9000     2.3310 H     1 <1>   0.0800 
 24 H       -0.0610     2.3230     1.7530 H     1 <1>   0.0800 
 25 H        0.7520     4.1980     0.7940 H     1 <1>   0.4000 
 26 H        3.2210     7.7280    -1.1500 H     1 <1>   0.1500 
 27 H        1.4530     6.2050     1.5450 H     1 <1>   0.0800 
 28 H        0.2770     6.3290     0.2710 H     1 <1>   0.0800 
 29 H        4.6590     6.4490    -2.5910 H     1 <1>   0.4570 
 30 H        5.4620     4.3440    -3.5260 H     1 <1>   0.4000 
 31 H        4.6720     2.9560    -2.9100 H     1 <1>   0.4000 
 32 H        2.3300     8.4500     0.9680 H     1 <1>   0.0800 
 33 H        0.6320     8.4910     1.3430 H     1 <1>   0.0800 
 34 H        1.1370     8.5770    -0.3190 H     1 <1>   0.0800 
@<TRIPOS>BOND
  1   1   2  2   
  2   1   3  2   
  3   1   4  1   
  4   1   5  1   
  5   4   6  1   
  6   4  18  1   
  7   4  19  1   
  8   5   7  1   
  9   5  20  1   
 10   5  21  1   
 11   6   7  1   
 12   6   8  1   
 13   6  22  1   
 14   7  23  1   
 15   7  24  1   
 16   8   9  1   
 17   8  25  1   
 18   9  10  ar  
 19   9  11  ar  
 20  10  12  ar  
 21  11  13  ar  
 22  11  14  1   
 23  12  15  ar  
 24  12  16  1   
 25  13  15  ar  
 26  13  26  1   
 27  14  17  1   
 28  14  27  1   
 29  14  28  1   
 30  15  29  1   
 31  16  30  1   
 32  16  31  1   
 33  17  32  1   
 34  17  33  1   
 35  17  34  1   
@<TRIPOS>SUBSTRUCTURE
  1 ****   8 GROUP 4 **** **** 0

# MOE 2024.06 (io_trps.svl 2023.06)
