@<TRIPOS>MOLECULE
NONAME
50 52 1 0 0 
SMALL
USER_CHARGES


@<TRIPOS>ATOM
  1 O        3.9020    -3.4800    -2.5780 O.2   1 <1>  -0.5700 
  2 C        3.5990    -2.9620    -1.5200 C.2   1 <1>   0.5440 
  3 N        4.1950    -1.7670    -1.1580 N.am  1 <1>  -0.6600 
  4 C        2.6330    -3.6270    -0.6680 C.ar  1 <1>   0.0860 
  5 C        5.1020    -1.0400    -2.1050 C.3   1 <1>   0.1400 
  6 C        4.1360    -1.2250     0.2290 C.3   1 <1>   0.1400 
  7 C        1.4490    -3.0030    -0.2840 C.ar  1 <1>  -0.1500 
  8 C        2.8640    -4.9190    -0.1970 C.ar  1 <1>  -0.1500 
  9 C        4.7330     0.4430    -2.2590 C.3   1 <1>   0.1400 
 10 C        3.2570     0.0300     0.2650 C.3   1 <1>  -0.1600 
 11 C        0.5430    -3.6170     0.5610 C.ar  1 <1>   0.0830 
 12 C        1.9630    -5.5500     0.6420 C.ar  1 <1>  -0.1500 
 13 N        5.0730     1.2280    -1.0310 N.am  1 <1>  -0.6600 
 14 C        4.0250     1.3360     0.0240 C.3   1 <1>   0.1400 
 15 O       -0.5630    -2.9040     0.8840 O.3   1 <1>  -0.3630 
 16 C        0.8030    -4.9020     1.0270 C.ar  1 <1>  -0.1500 
 17 C        6.3500     1.7190    -0.8630 C.2   1 <1>   0.7150 
 18 C       -1.5760    -3.4490     1.6970 C.3   1 <1>   0.1200 
 19 O        7.2390     1.2930    -1.5800 O.2   1 <1>  -0.5700 
 20 C        6.6590     2.7030     0.1360 C.2   1 <1>  -0.2370 
 21 C       -2.6760    -2.4020     1.8430 C.3   1 <1>  -0.2400 
 22 N        7.7960     2.7000     0.8790 N.pl3 1 <1>   0.3140 
 23 C        5.9630     3.7980     0.5550 C.2   1 <1>  -0.1500 
 24 N        7.8330     3.7160     1.7540 N.2   1 <1>  -0.7070 
 25 C        8.9090     1.7390     0.8100 C.3   1 <1>   0.0160 
 26 C        6.7330     4.3730     1.5470 C.2   1 <1>   0.1390 
 27 H        5.0500    -1.4910    -3.0800 H     1 <1>   0.0800 
 28 H        6.1190    -1.1280    -1.7670 H     1 <1>   0.0800 
 29 H        5.1310    -1.0010     0.5740 H     1 <1>   0.0800 
 30 H        3.7270    -1.9640     0.8960 H     1 <1>   0.0800 
 31 H        1.2260    -2.0200    -0.6530 H     1 <1>   0.1500 
 32 H        3.7640    -5.4250    -0.5010 H     1 <1>   0.1500 
 33 H        3.6870     0.5400    -2.4920 H     1 <1>   0.0800 
 34 H        5.2870     0.8440    -3.0900 H     1 <1>   0.0800 
 35 H        2.8010     0.0990     1.2360 H     1 <1>   0.0800 
 36 H        2.4570    -0.0570    -0.4470 H     1 <1>   0.0800 
 37 H        2.1660    -6.5470     0.9930 H     1 <1>   0.1500 
 38 H        4.4880     1.6150     0.9550 H     1 <1>   0.0800 
 39 H        3.3330     2.1150    -0.2450 H     1 <1>   0.0800 
 40 H        0.1210    -5.4100     1.6820 H     1 <1>   0.1500 
 41 H       -1.1510    -3.6910     2.6560 H     1 <1>   0.0800 
 42 H       -1.9560    -4.3360     1.2200 H     1 <1>   0.0800 
 43 H       -2.2820    -1.5140     2.3040 H     1 <1>   0.0800 
 44 H       -3.4660    -2.7880     2.4610 H     1 <1>   0.0800 
 45 H       -3.0830    -2.1570     0.8790 H     1 <1>   0.0800 
 46 H        5.0160     4.1610     0.1990 H     1 <1>   0.1500 
 47 H        8.5230     0.7400     0.8840 H     1 <1>   0.0800 
 48 H        9.5900     1.9250     1.6200 H     1 <1>   0.0800 
 49 H        9.4210     1.8620    -0.1260 H     1 <1>   0.0800 
 50 H        6.4690     5.2620     2.0950 H     1 <1>   0.1500 
@<TRIPOS>BOND
  1   1   2  2   
  2   2   3  am  
  3   2   4  1   
  4   3   5  1   
  5   3   6  1   
  6   4   7  ar  
  7   4   8  ar  
  8   5   9  1   
  9   5  27  1   
 10   5  28  1   
 11   6  10  1   
 12   6  29  1   
 13   6  30  1   
 14   7  11  ar  
 15   7  31  1   
 16   8  12  ar  
 17   8  32  1   
 18   9  13  1   
 19   9  33  1   
 20   9  34  1   
 21  10  14  1   
 22  10  35  1   
 23  10  36  1   
 24  11  15  1   
 25  11  16  ar  
 26  12  16  ar  
 27  12  37  1   
 28  13  14  1   
 29  13  17  am  
 30  14  38  1   
 31  14  39  1   
 32  15  18  1   
 33  16  40  1   
 34  17  19  2   
 35  17  20  1   
 36  18  21  1   
 37  18  41  1   
 38  18  42  1   
 39  20  22  1   
 40  20  23  2   
 41  21  43  1   
 42  21  44  1   
 43  21  45  1   
 44  22  24  1   
 45  22  25  1   
 46  23  26  1   
 47  23  46  1   
 48  24  26  2   
 49  25  47  1   
 50  25  48  1   
 51  25  49  1   
 52  26  50  1   
@<TRIPOS>SUBSTRUCTURE
  1 ****   6 GROUP 4 **** **** 0

# MOE 2024.06 (io_trps.svl 2023.06)
