@<TRIPOS>MOLECULE
NONAME
43 45 1 0 0 
SMALL
USER_CHARGES


@<TRIPOS>ATOM
  1 O        0.4200    -0.2600     0.5630 O.3   1 <1>  -0.6800 
  2 C        1.6980    -0.2060     0.0200 C.3   1 <1>   0.2000 
  3 C        2.4630    -1.4940     0.3200 C.3   1 <1>  -0.0800 
  4 C        2.5390     0.9000     0.6570 C.3   1 <1>   0.2090 
  5 C        3.9320    -1.0640     0.2630 C.3   1 <1>   0.2090 
  6 C        2.1140    -2.6510    -0.6310 C.3   1 <1>  -0.0170 
  7 N        3.9260     0.3700     0.6340 N.pl3 1 <1>  -0.8380 
  8 C        2.9310    -3.8960    -0.3270 C.ar  1 <1>   0.1660 
  9 C        5.0430     1.1670     0.5570 C.ar  1 <1>   0.7200 
 10 N        4.0880    -4.0110    -0.9580 N.ar  1 <1>  -0.6200 
 11 C        2.4520    -4.8430     0.5780 C.ar  1 <1>   0.1600 
 12 N        6.2000     0.5560     0.3110 N.ar  1 <1>  -0.6200 
 13 N        4.8650     2.4740     0.7370 N.ar  1 <1>  -0.6200 
 14 C        4.7280    -5.1190    -0.6270 C.ar  1 <1>   0.1600 
 15 N        3.0890    -5.9540     0.9080 N.ar  1 <1>  -0.6200 
 16 C        7.2560     1.3270     0.2440 C.ar  1 <1>   0.1600 
 17 C        5.9420     3.2170     0.6640 C.ar  1 <1>   0.1600 
 18 C        4.2450    -6.0600     0.2750 C.ar  1 <1>   0.1600 
 19 C        7.1890     2.6900     0.4170 C.ar  1 <1>  -0.1430 
 20 C        8.4270     3.5690     0.3340 C.3   1 <1>  -0.0170 
 21 C        8.6550     4.0390    -1.1070 C.3   1 <1>  -0.1600 
 22 C        9.8980     4.9270    -1.2180 C.3   1 <1>  -0.2400 
 23 H       -0.1380    -0.8910     0.0720 H     1 <1>   0.4000 
 24 H        1.6220    -0.0290    -1.0390 H     1 <1>   0.0800 
 25 H        2.2630    -1.7880     1.3370 H     1 <1>   0.0800 
 26 H        2.2430     1.0630     1.6780 H     1 <1>   0.0800 
 27 H        2.4600     1.8130     0.0940 H     1 <1>   0.0800 
 28 H        4.3280    -1.1700    -0.7340 H     1 <1>   0.0800 
 29 H        4.5390    -1.6340     0.9470 H     1 <1>   0.0800 
 30 H        2.2960    -2.3550    -1.6500 H     1 <1>   0.0800 
 31 H        1.0690    -2.8850    -0.5430 H     1 <1>   0.0800 
 32 H        1.5020    -4.6720     1.0510 H     1 <1>   0.1500 
 33 H        5.6820    -5.2930    -1.0920 H     1 <1>   0.1500 
 34 H        8.2040     0.8570     0.0450 H     1 <1>   0.1500 
 35 H        5.8250     4.2770     0.8060 H     1 <1>   0.1500 
 36 H        4.8390    -6.9330     0.4790 H     1 <1>   0.1500 
 37 H        8.3080     4.4220     0.9800 H     1 <1>   0.0800 
 38 H        9.2840     3.0160     0.6760 H     1 <1>   0.0800 
 39 H        8.7710     3.1830    -1.7500 H     1 <1>   0.0800 
 40 H        7.7930     4.5900    -1.4450 H     1 <1>   0.0800 
 41 H       10.7770     4.3880    -0.9090 H     1 <1>   0.0800 
 42 H        9.7940     5.8030    -0.6030 H     1 <1>   0.0800 
 43 H       10.0340     5.2420    -2.2380 H     1 <1>   0.0800 
@<TRIPOS>BOND
  1   1   2  1   
  2   1  23  1   
  3   2   3  1   
  4   2   4  1   
  5   2  24  1   
  6   3   5  1   
  7   3   6  1   
  8   3  25  1   
  9   4   7  1   
 10   4  26  1   
 11   4  27  1   
 12   5   7  1   
 13   5  28  1   
 14   5  29  1   
 15   6   8  1   
 16   6  30  1   
 17   6  31  1   
 18   7   9  1   
 19   8  10  ar  
 20   8  11  ar  
 21   9  12  ar  
 22   9  13  ar  
 23  10  14  ar  
 24  11  15  ar  
 25  11  32  1   
 26  12  16  ar  
 27  13  17  ar  
 28  14  18  ar  
 29  14  33  1   
 30  15  18  ar  
 31  16  19  ar  
 32  16  34  1   
 33  17  19  ar  
 34  17  35  1   
 35  18  36  1   
 36  19  20  1   
 37  20  21  1   
 38  20  37  1   
 39  20  38  1   
 40  21  22  1   
 41  21  39  1   
 42  21  40  1   
 43  22  41  1   
 44  22  42  1   
 45  22  43  1   
@<TRIPOS>SUBSTRUCTURE
  1 ****   5 GROUP 4 **** **** 0

# MOE 2024.06 (io_trps.svl 2023.06)
