@<TRIPOS>MOLECULE
NONAME
46 49 1 0 0 
SMALL
USER_CHARGES


@<TRIPOS>ATOM
  1 O       -0.9540     0.4960     2.3540 O.2   1 <1>  -0.5700 
  2 C       -1.4910     1.1010     1.4410 C.2   1 <1>   0.5440 
  3 N       -2.3800     0.3830     0.6600 N.am  1 <1>  -0.6600 
  4 C       -1.1770     2.5190     1.2390 C.ar  1 <1>   0.3960 
  5 C       -3.2130     0.9050    -0.4540 C.3   1 <1>   0.1400 
  6 C       -2.7110    -1.0380     0.9080 C.3   1 <1>   0.1400 
  7 N       -1.3040     3.1140     0.0690 N.ar  1 <1>  -0.6200 
  8 C       -0.7140     3.2440     2.3720 C.ar  1 <1>   0.1600 
  9 C       -4.1810    -0.2280    -0.8210 C.3   1 <1>   0.2000 
 10 C       -3.4570    -1.4920    -0.3480 C.3   1 <1>  -0.0800 
 11 C       -0.9660     4.4260     0.0410 C.ar  1 <1>   0.3100 
 12 N       -0.3880     4.4990     2.3900 N.ar  1 <1>  -0.6200 
 13 O       -5.3740    -0.0950    -0.0990 O.3   1 <1>  -0.5600 
 14 C       -4.3740    -2.7070    -0.1140 C.3   1 <1>   0.0200 
 15 C       -0.5130     5.1180     1.1910 C.ar  1 <1>   0.3100 
 16 C       -1.0680     5.1310    -1.1690 C.ar  1 <1>  -0.1500 
 17 C       -6.3210     0.7560    -0.6640 C.3   1 <1>   0.0400 
 18 C       -3.6080    -3.9870     0.1810 C.2   1 <1>  -0.0400 
 19 C       -0.1870     6.4780     1.0800 C.ar  1 <1>  -0.1500 
 20 C       -0.7430     6.4610    -1.2510 C.ar  1 <1>  -0.1500 
 21 O       -4.2820    -5.0670     0.4740 O.3   1 <1>  -0.0190 
 22 C       -2.3030    -4.3010     0.2100 C.2   1 <1>  -0.1500 
 23 C       -0.2980     7.1420    -0.1150 C.ar  1 <1>  -0.1500 
 24 N       -3.5010    -6.0840     0.7000 N.2   1 <1>  -0.4100 
 25 C       -2.3020    -5.6510     0.5490 C.2   1 <1>   0.1080 
 26 C       -1.0630    -6.5010     0.7200 C.3   1 <1>  -0.0590 
 27 H       -3.7350     1.7990    -0.1600 H     1 <1>   0.0800 
 28 H       -2.5730     1.1190    -1.2910 H     1 <1>   0.0800 
 29 H       -1.8190    -1.6140     1.0830 H     1 <1>   0.0800 
 30 H       -3.3510    -1.0970     1.7730 H     1 <1>   0.0800 
 31 H       -0.6300     2.6980     3.2960 H     1 <1>   0.1500 
 32 H       -4.4050    -0.2610    -1.8730 H     1 <1>   0.0800 
 33 H       -2.7250    -1.7470    -1.0930 H     1 <1>   0.0800 
 34 H       -4.9790    -2.8690    -0.9870 H     1 <1>   0.0800 
 35 H       -5.0380    -2.5090     0.7090 H     1 <1>   0.0800 
 36 H       -1.4090     4.5940    -2.0350 H     1 <1>   0.1500 
 37 H       -7.1790     0.7770    -0.0160 H     1 <1>   0.0800 
 38 H       -6.6080     0.3760    -1.6300 H     1 <1>   0.0800 
 39 H       -5.9120     1.7470    -0.7520 H     1 <1>   0.0800 
 40 H        0.1540     6.9840     1.9650 H     1 <1>   0.1500 
 41 H       -0.8240     6.9920    -2.1850 H     1 <1>   0.1500 
 42 H       -1.4350    -3.6980     0.0250 H     1 <1>   0.1500 
 43 H       -0.0450     8.1860    -0.1910 H     1 <1>   0.1500 
 44 H       -0.4830    -6.4880    -0.1840 H     1 <1>   0.0800 
 45 H       -1.3430    -7.5160     0.9400 H     1 <1>   0.0800 
 46 H       -0.4690    -6.1200     1.5300 H     1 <1>   0.0800 
@<TRIPOS>BOND
  1   1   2  2   
  2   2   3  am  
  3   2   4  1   
  4   3   5  1   
  5   3   6  1   
  6   4   7  ar  
  7   4   8  ar  
  8   5   9  1   
  9   5  27  1   
 10   5  28  1   
 11   6  10  1   
 12   6  29  1   
 13   6  30  1   
 14   7  11  ar  
 15   8  12  ar  
 16   8  31  1   
 17   9  10  1   
 18   9  13  1   
 19   9  32  1   
 20  10  14  1   
 21  10  33  1   
 22  11  15  ar  
 23  11  16  ar  
 24  12  15  ar  
 25  13  17  1   
 26  14  18  1   
 27  14  34  1   
 28  14  35  1   
 29  15  19  ar  
 30  16  20  ar  
 31  16  36  1   
 32  17  37  1   
 33  17  38  1   
 34  17  39  1   
 35  18  21  1   
 36  18  22  2   
 37  19  23  ar  
 38  19  40  1   
 39  20  23  ar  
 40  20  41  1   
 41  21  24  1   
 42  22  25  1   
 43  22  42  1   
 44  23  43  1   
 45  24  25  2   
 46  25  26  1   
 47  26  44  1   
 48  26  45  1   
 49  26  46  1   
@<TRIPOS>SUBSTRUCTURE
  1 ****   3 GROUP 4 **** **** 0

# MOE 2024.06 (io_trps.svl 2023.06)
