@<TRIPOS>MOLECULE
NONAME
49 51 1 0 0 
SMALL
USER_CHARGES


@<TRIPOS>ATOM
  1 O       -0.8720     1.3210     1.1870 O.2   1 <1>  -0.5700 
  2 C       -1.7880     1.3020     0.3930 C.2   1 <1>   0.5690 
  3 N       -2.9470     0.6100     0.6680 N.am  1 <1>  -0.6600 
  4 C       -1.6190     2.0810    -0.9370 C.3   1 <1>   0.2610 
  5 C       -4.1850     0.6540    -0.1590 C.3   1 <1>   0.1400 
  6 C       -3.0960    -0.2100     1.9030 C.3   1 <1>   0.1400 
  7 O       -2.3690     3.2560    -0.9350 O.3   1 <1>  -0.6800 
  8 C       -0.1780     2.4890    -1.2650 C.3   1 <1>  -0.2400 
  9 C       -4.5570    -0.7700    -0.5790 C.3   1 <1>  -0.1600 
 10 C       -3.4670    -1.6440     1.5160 C.3   1 <1>  -0.1600 
 11 C       -4.7270    -1.6960     0.6390 C.3   1 <1>   0.4240 
 12 O       -5.7590    -1.1750     1.4440 O.3   1 <1>  -0.5600 
 13 C       -5.0230    -3.1460     0.2000 C.ar  1 <1>  -0.1430 
 14 C       -7.0710    -1.5010     1.1050 C.3   1 <1>   0.1200 
 15 C       -6.2250    -3.7650     0.5130 C.ar  1 <1>  -0.1430 
 16 C       -4.0860    -3.8660    -0.5310 C.ar  1 <1>  -0.1500 
 17 C       -7.2710    -3.0010     1.3010 C.3   1 <1>  -0.0170 
 18 C       -6.4760    -5.0660     0.1090 C.ar  1 <1>  -0.1500 
 19 C       -4.3160    -5.1680    -0.9390 C.ar  1 <1>   0.0830 
 20 C       -5.5370    -5.7850    -0.6260 C.ar  1 <1>   0.0830 
 21 O       -3.2890    -5.7350    -1.6360 O.3   1 <1>  -0.3630 
 22 O       -5.7930    -7.0560    -1.0560 O.3   1 <1>  -0.3620 
 23 C       -3.0390    -7.1220    -1.5760 C.3   1 <1>   0.0400 
 24 C       -7.0590    -7.6600    -0.9080 C.3   1 <1>   0.0400 
 25 H       -1.9880     1.4690    -1.7390 H     1 <1>   0.0800 
 26 H       -4.9810     1.0820     0.4280 H     1 <1>   0.0800 
 27 H       -4.0590     1.2680    -1.0320 H     1 <1>   0.0800 
 28 H       -2.1820    -0.2170     2.4720 H     1 <1>   0.0800 
 29 H       -3.8680     0.2180     2.5200 H     1 <1>   0.0800 
 30 H       -2.1000     3.7990    -0.1680 H     1 <1>   0.4000 
 31 H        0.2180     3.1290    -0.4970 H     1 <1>   0.0800 
 32 H       -0.1390     2.9920    -2.2140 H     1 <1>   0.0800 
 33 H        0.4390     1.6100    -1.3190 H     1 <1>   0.0800 
 34 H       -3.7770    -1.1480    -1.2120 H     1 <1>   0.0800 
 35 H       -5.4580    -0.7590    -1.1620 H     1 <1>   0.0800 
 36 H       -3.6310    -2.2300     2.4010 H     1 <1>   0.0800 
 37 H       -2.6320    -2.0730     0.9950 H     1 <1>   0.0800 
 38 H       -7.7270    -0.9460     1.7520 H     1 <1>   0.0800 
 39 H       -7.2570    -1.2150     0.0850 H     1 <1>   0.0800 
 40 H       -3.1450    -3.4220    -0.7990 H     1 <1>   0.1500 
 41 H       -7.1830    -3.2390     2.3460 H     1 <1>   0.0800 
 42 H       -8.2580    -3.2710     0.9730 H     1 <1>   0.0800 
 43 H       -7.4170    -5.5050     0.3780 H     1 <1>   0.1500 
 44 H       -2.0250    -7.2930    -1.8870 H     1 <1>   0.0800 
 45 H       -3.7140    -7.6250    -2.2460 H     1 <1>   0.0800 
 46 H       -3.1790    -7.4620    -0.5660 H     1 <1>   0.0800 
 47 H       -7.0260    -8.6250    -1.3820 H     1 <1>   0.0800 
 48 H       -7.7990    -7.0440    -1.3880 H     1 <1>   0.0800 
 49 H       -7.2710    -7.7770     0.1400 H     1 <1>   0.0800 
@<TRIPOS>BOND
  1   1   2  2   
  2   2   3  am  
  3   2   4  1   
  4   3   5  1   
  5   3   6  1   
  6   4   7  1   
  7   4   8  1   
  8   4  25  1   
  9   5   9  1   
 10   5  26  1   
 11   5  27  1   
 12   6  10  1   
 13   6  28  1   
 14   6  29  1   
 15   7  30  1   
 16   8  31  1   
 17   8  32  1   
 18   8  33  1   
 19   9  11  1   
 20   9  34  1   
 21   9  35  1   
 22  10  11  1   
 23  10  36  1   
 24  10  37  1   
 25  11  12  1   
 26  11  13  1   
 27  12  14  1   
 28  13  15  ar  
 29  13  16  ar  
 30  14  17  1   
 31  14  38  1   
 32  14  39  1   
 33  15  17  1   
 34  15  18  ar  
 35  16  19  ar  
 36  16  40  1   
 37  17  41  1   
 38  17  42  1   
 39  18  20  ar  
 40  18  43  1   
 41  19  20  ar  
 42  19  21  1   
 43  20  22  1   
 44  21  23  1   
 45  22  24  1   
 46  23  44  1   
 47  23  45  1   
 48  23  46  1   
 49  24  47  1   
 50  24  48  1   
 51  24  49  1   
@<TRIPOS>SUBSTRUCTURE
  1 ****  11 GROUP 4 **** **** 0

# MOE 2024.06 (io_trps.svl 2023.06)
