@<TRIPOS>MOLECULE
NONAME
61 63 1 0 0 
SMALL
USER_CHARGES


@<TRIPOS>ATOM
  1 O       -0.1730     0.7770     0.2430 O.co2 1 <1>  -0.9000 
  2 C       -1.2720     1.3280     0.3350 C.2   1 <1>   0.9060 
  3 O       -2.3410     0.7340     0.4660 O.co2 1 <1>  -0.9000 
  4 C       -1.3140     2.8210     0.2780 C.3   1 <1>  -0.1860 
  5 C       -2.2660     3.2640    -0.8340 C.3   1 <1>   0.2000 
  6 C        0.0850     3.3440     0.0240 C.3   1 <1>   0.3430 
  7 O       -3.5000     3.4070    -0.2480 O.3   1 <1>  -0.6800 
  8 C       -1.8750     4.6060    -1.4610 C.3   1 <1>  -0.1600 
  9 N        0.0930     4.8490     0.0460 N.4   1 <1>  -0.9590 
 10 C       -1.1920     5.4810    -0.4180 C.3   1 <1>   0.3430 
 11 C        0.4520     5.3270     1.4040 C.3   1 <1>   0.4860 
 12 C        0.8140     6.7990     1.3190 C.ar  1 <1>  -0.1430 
 13 C        2.0650     7.1880     0.8620 C.ar  1 <1>  -0.1500 
 14 C       -0.1030     7.7660     1.6950 C.ar  1 <1>  -0.1500 
 15 C        2.4120     8.5340     0.7640 C.ar  1 <1>   0.0830 
 16 C        0.2260     9.1050     1.5950 C.ar  1 <1>  -0.1500 
 17 O        3.6500     8.9000     0.3180 O.3   1 <1>  -0.3630 
 18 C        1.4660     9.5100     1.1300 C.ar  1 <1>   0.0830 
 19 C        4.7510     8.0140     0.3540 C.3   1 <1>   0.0400 
 20 O        1.6230    10.8650     1.0840 O.3   1 <1>  -0.3630 
 21 C        2.7860    11.4940     0.6070 C.3   1 <1>   0.1200 
 22 C        2.5560    13.0050     0.6680 C.3   1 <1>   0.3430 
 23 N        3.7600    13.7910     0.2420 N.4   1 <1>  -0.9590 
 24 C        3.5680    15.2360     0.5640 C.3   1 <1>   0.3430 
 25 C        4.0840    13.5940    -1.2050 C.3   1 <1>   0.3430 
 26 C        4.8530    16.0080     0.2590 C.3   1 <1>  -0.1600 
 27 C        5.3790    14.3320    -1.5490 C.3   1 <1>  -0.1600 
 28 C        5.2950    15.8230    -1.1980 C.3   1 <1>  -0.1600 
 29 H       -1.6440     3.1620     1.2410 H     1 <1>   0.0800 
 30 H       -2.3550     2.5090    -1.6010 H     1 <1>   0.0800 
 31 H        0.4050     2.9840    -0.9410 H     1 <1>   0.0800 
 32 H        0.7620     2.9400     0.7600 H     1 <1>   0.0800 
 33 H       -3.7430     2.5190     0.1180 H     1 <1>   0.4000 
 34 H       -1.2020     4.4430    -2.2830 H     1 <1>   0.0800 
 35 H       -2.7510     5.0960    -1.8500 H     1 <1>   0.0800 
 36 H        0.8380     5.1600    -0.5850 H     1 <1>   0.4500 
 37 H       -1.8680     5.5850     0.4160 H     1 <1>   0.0800 
 38 H       -0.9980     6.4620    -0.8200 H     1 <1>   0.0800 
 39 H       -0.3760     5.1820     2.0790 H     1 <1>   0.0800 
 40 H        1.2960     4.7730     1.7800 H     1 <1>   0.0800 
 41 H        2.7690     6.4270     0.5790 H     1 <1>   0.1500 
 42 H       -1.0770     7.4940     2.0670 H     1 <1>   0.1500 
 43 H       -0.4910     9.8540     1.8860 H     1 <1>   0.1500 
 44 H        5.6420     8.5760     0.1380 H     1 <1>   0.0800 
 45 H        4.6170     7.2530    -0.3950 H     1 <1>   0.0800 
 46 H        4.8250     7.5820     1.3360 H     1 <1>   0.0800 
 47 H        3.6040    11.2060     1.2440 H     1 <1>   0.0800 
 48 H        2.9460    11.1660    -0.4050 H     1 <1>   0.0800 
 49 H        2.3050    13.2620     1.6840 H     1 <1>   0.0800 
 50 H        1.7180    13.2560     0.0380 H     1 <1>   0.0800 
 51 H        4.5720    13.4700     0.7870 H     1 <1>   0.4500 
 52 H        2.7590    15.6370    -0.0260 H     1 <1>   0.0800 
 53 H        3.3180    15.3540     1.6070 H     1 <1>   0.0800 
 54 H        4.2060    12.5460    -1.4220 H     1 <1>   0.0800 
 55 H        3.2800    13.9760    -1.8140 H     1 <1>   0.0800 
 56 H        4.6870    17.0550     0.4490 H     1 <1>   0.0800 
 57 H        5.6330    15.6820     0.9250 H     1 <1>   0.0800 
 58 H        6.2010    13.8770    -1.0230 H     1 <1>   0.0800 
 59 H        5.5750    14.2260    -2.6020 H     1 <1>   0.0800 
 60 H        6.2540    16.2910    -1.3520 H     1 <1>   0.0800 
 61 H        4.5880    16.3060    -1.8520 H     1 <1>   0.0800 
@<TRIPOS>BOND
  1   1   2  ar  
  2   2   3  ar  
  3   2   4  1   
  4   4   5  1   
  5   4   6  1   
  6   4  29  1   
  7   5   7  1   
  8   5   8  1   
  9   5  30  1   
 10   6   9  1   
 11   6  31  1   
 12   6  32  1   
 13   7  33  1   
 14   8  10  1   
 15   8  34  1   
 16   8  35  1   
 17   9  10  1   
 18   9  11  1   
 19   9  36  1   
 20  10  37  1   
 21  10  38  1   
 22  11  12  1   
 23  11  39  1   
 24  11  40  1   
 25  12  13  ar  
 26  12  14  ar  
 27  13  15  ar  
 28  13  41  1   
 29  14  16  ar  
 30  14  42  1   
 31  15  17  1   
 32  15  18  ar  
 33  16  18  ar  
 34  16  43  1   
 35  17  19  1   
 36  18  20  1   
 37  19  44  1   
 38  19  45  1   
 39  19  46  1   
 40  20  21  1   
 41  21  22  1   
 42  21  47  1   
 43  21  48  1   
 44  22  23  1   
 45  22  49  1   
 46  22  50  1   
 47  23  24  1   
 48  23  25  1   
 49  23  51  1   
 50  24  26  1   
 51  24  52  1   
 52  24  53  1   
 53  25  27  1   
 54  25  54  1   
 55  25  55  1   
 56  26  28  1   
 57  26  56  1   
 58  26  57  1   
 59  27  28  1   
 60  27  58  1   
 61  27  59  1   
 62  28  60  1   
 63  28  61  1   
@<TRIPOS>SUBSTRUCTURE
  1 ****  15 GROUP 4 **** **** 0

# MOE 2024.06 (io_trps.svl 2023.06)
