@<TRIPOS>MOLECULE
NONAME
47 50 1 0 0 
SMALL
USER_CHARGES


@<TRIPOS>ATOM
  1 S       -0.0560     0.6300    -0.2510 S.3   1 <1>  -0.0800 
  2 C        0.8810    -0.8010     0.1190 C.2   1 <1>  -0.1400 
  3 C        1.3950     1.6180    -0.2190 C.2   1 <1>  -0.1100 
  4 C        2.1870    -0.5160     0.2360 C.2   1 <1>  -0.1810 
  5 C        0.2030    -2.1450     0.2670 C.3   1 <1>   0.0200 
  6 C        2.4920     0.8770     0.0490 C.2   1 <1>  -0.1810 
  7 C        3.2080    -1.6000     0.5480 C.3   1 <1>   0.0210 
  8 C        1.1870    -3.1380     0.9120 C.3   1 <1>  -0.1600 
  9 C        3.9250     1.3810     0.1620 C.3   1 <1>   0.3900 
 10 C        2.6080    -3.0050     0.3260 C.3   1 <1>  -0.1600 
 11 N        3.9910     2.8300    -0.1040 N.pl3 1 <1>  -0.8690 
 12 C        5.1700     3.5220    -0.2150 C.ar  1 <1>   0.4100 
 13 N        6.2610     2.8850     0.2070 N.ar  1 <1>  -0.6200 
 14 C        5.1780     4.8250    -0.7450 C.ar  1 <1>   0.0860 
 15 C        7.4020     3.5340     0.0900 C.ar  1 <1>   0.1600 
 16 C        3.9490     5.4620    -1.1480 C.2   1 <1>   0.5440 
 17 C        6.4010     5.4710    -0.8600 C.ar  1 <1>  -0.1500 
 18 C        7.5290     4.8090    -0.4330 C.ar  1 <1>  -0.1500 
 19 O        3.2310     4.9350    -1.9810 O.2   1 <1>  -0.5700 
 20 N        3.5550     6.6650    -0.6040 N.am  1 <1>  -0.6600 
 21 C        2.2840     7.3310    -0.9740 C.3   1 <1>   0.1400 
 22 C        4.0750     7.2010     0.6750 C.3   1 <1>   0.1400 
 23 C        1.8700     8.1020     0.2730 C.3   1 <1>  -0.1600 
 24 C        3.1810     8.3920     0.9980 C.3   1 <1>  -0.1600 
 25 H        1.2690     2.6700    -0.4040 H     1 <1>   0.1500 
 26 H       -0.0910    -2.4920    -0.7080 H     1 <1>   0.0800 
 27 H       -0.6770    -2.0490     0.8780 H     1 <1>   0.0800 
 28 H        3.5160    -1.4960     1.5740 H     1 <1>   0.0800 
 29 H        4.0730    -1.4870    -0.0800 H     1 <1>   0.0800 
 30 H        0.8230    -4.1410     0.7760 H     1 <1>   0.0800 
 31 H        1.2300    -2.9420     1.9700 H     1 <1>   0.0800 
 32 H        4.5470     0.8650    -0.5490 H     1 <1>   0.0800 
 33 H        4.3010     1.1880     1.1520 H     1 <1>   0.0800 
 34 H        3.2550    -3.7420     0.7680 H     1 <1>   0.0800 
 35 H        2.5630    -3.1980    -0.7320 H     1 <1>   0.0800 
 36 H        3.2490     3.1440    -0.7440 H     1 <1>   0.4000 
 37 H        8.2890     3.0240     0.4250 H     1 <1>   0.1500 
 38 H        6.4550     6.4620    -1.2760 H     1 <1>   0.1500 
 39 H        8.4980     5.2700    -0.5010 H     1 <1>   0.1500 
 40 H        1.5330     6.6130    -1.2600 H     1 <1>   0.0800 
 41 H        2.4690     8.0040    -1.7940 H     1 <1>   0.0800 
 42 H        5.1040     7.5030     0.5800 H     1 <1>   0.0800 
 43 H        3.9850     6.4450     1.4370 H     1 <1>   0.0800 
 44 H        1.2480     7.4680     0.8810 H     1 <1>   0.0800 
 45 H        1.3270     8.9970     0.0280 H     1 <1>   0.0800 
 46 H        3.6290     9.2850     0.5980 H     1 <1>   0.0800 
 47 H        3.0450     8.5140     2.0580 H     1 <1>   0.0800 
@<TRIPOS>BOND
  1   1   2  1   
  2   1   3  1   
  3   2   4  2   
  4   2   5  1   
  5   3   6  2   
  6   3  25  1   
  7   4   6  1   
  8   4   7  1   
  9   5   8  1   
 10   5  26  1   
 11   5  27  1   
 12   6   9  1   
 13   7  10  1   
 14   7  28  1   
 15   7  29  1   
 16   8  10  1   
 17   8  30  1   
 18   8  31  1   
 19   9  11  1   
 20   9  32  1   
 21   9  33  1   
 22  10  34  1   
 23  10  35  1   
 24  11  12  1   
 25  11  36  1   
 26  12  13  ar  
 27  12  14  ar  
 28  13  15  ar  
 29  14  16  1   
 30  14  17  ar  
 31  15  18  ar  
 32  15  37  1   
 33  16  19  2   
 34  16  20  am  
 35  17  18  ar  
 36  17  38  1   
 37  18  39  1   
 38  20  21  1   
 39  20  22  1   
 40  21  23  1   
 41  21  40  1   
 42  21  41  1   
 43  22  24  1   
 44  22  42  1   
 45  22  43  1   
 46  23  24  1   
 47  23  44  1   
 48  23  45  1   
 49  24  46  1   
 50  24  47  1   
@<TRIPOS>SUBSTRUCTURE
  1 ****  11 GROUP 4 **** **** 0

# MOE 2024.06 (io_trps.svl 2023.06)
