@<TRIPOS>MOLECULE
NONAME
45 46 1 0 0 
SMALL
USER_CHARGES


@<TRIPOS>ATOM
  1 S        0.1990    -0.0890     0.5940 S.o2  1 <1>   1.3330 
  2 O       -0.5690     1.1060     0.8610 O.2   1 <1>  -0.6500 
  3 O        0.7100    -0.8690     1.7000 O.2   1 <1>  -0.6500 
  4 N       -0.7420    -1.1200    -0.3710 N.am  1 <1>  -0.8490 
  5 C        1.5400     0.3590    -0.5100 C.3   1 <1>  -0.0550 
  6 C       -0.2680    -2.5080    -0.3750 C.3   1 <1>   0.1160 
  7 C       -2.1620    -1.0800    -0.0070 C.3   1 <1>   0.1160 
  8 C        2.5350     1.3650     0.1010 C.3   1 <1>  -0.0800 
  9 C        3.4990     1.8860    -0.9500 C.3   1 <1>   0.2200 
 10 C        3.4930     0.6960     1.0910 C.3   1 <1>   0.1200 
 11 N        4.0500     3.1840    -0.5010 N.am  1 <1>  -0.7300 
 12 C        4.5970     0.8260    -0.9340 C.3   1 <1>   0.1200 
 13 O        4.5920     0.2610     0.3450 O.3   1 <1>  -0.5600 
 14 C        3.8870     4.3820    -1.1350 C.2   1 <1>   0.5440 
 15 O        3.2180     4.3960    -2.1500 O.2   1 <1>  -0.5700 
 16 C        4.4550     5.6150    -0.6160 C.ar  1 <1>   0.0860 
 17 C        5.6300     5.6820     0.1390 C.ar  1 <1>   0.1900 
 18 C        3.8090     6.8280    -0.8690 C.ar  1 <1>  -0.1500 
 19 F        6.2590     4.5600     0.3870 F     1 <1>  -0.1900 
 20 C        6.1490     6.8860     0.6330 C.ar  1 <1>   0.0820 
 21 C        4.2980     8.0280    -0.3910 C.ar  1 <1>  -0.1500 
 22 O        7.2830     7.0540     1.3730 O.3   1 <1>  -0.3620 
 23 C        5.4600     8.0550     0.3580 C.ar  1 <1>  -0.1500 
 24 C        8.2440     6.0410     1.5760 C.3   1 <1>   0.0400 
 25 H        2.0640    -0.5260    -0.8150 H     1 <1>   0.0800 
 26 H        1.1060     0.8000    -1.3860 H     1 <1>   0.0800 
 27 H       -0.8410    -3.0930    -1.0740 H     1 <1>   0.0800 
 28 H       -0.3630    -2.9420     0.6070 H     1 <1>   0.0800 
 29 H        0.7670    -2.5470    -0.6690 H     1 <1>   0.0800 
 30 H       -2.7310    -1.7320    -0.6470 H     1 <1>   0.0800 
 31 H       -2.5440    -0.0790    -0.1240 H     1 <1>   0.0800 
 32 H       -2.2940    -1.3830     1.0180 H     1 <1>   0.0800 
 33 H        1.9860     2.1700     0.5600 H     1 <1>   0.0800 
 34 H        3.0510     1.9830    -1.9250 H     1 <1>   0.0800 
 35 H        3.0690    -0.1450     1.6100 H     1 <1>   0.0800 
 36 H        3.8530     1.4110     1.8110 H     1 <1>   0.0800 
 37 H        4.6950     3.1250     0.2920 H     1 <1>   0.3700 
 38 H        5.5690     1.2350    -1.1450 H     1 <1>   0.0800 
 39 H        4.3740     0.0400    -1.6340 H     1 <1>   0.0800 
 40 H        2.9030     6.8230    -1.4530 H     1 <1>   0.1500 
 41 H        3.7740     8.9460    -0.6010 H     1 <1>   0.1500 
 42 H        5.8420     8.9890     0.7320 H     1 <1>   0.1500 
 43 H        9.0850     6.4760     2.0850 H     1 <1>   0.0800 
 44 H        8.5560     5.6550     0.6220 H     1 <1>   0.0800 
 45 H        7.8140     5.2660     2.1860 H     1 <1>   0.0800 
@<TRIPOS>BOND
  1   1   2  2   
  2   1   3  2   
  3   1   4  am  
  4   1   5  1   
  5   4   6  1   
  6   4   7  1   
  7   5   8  1   
  8   5  25  1   
  9   5  26  1   
 10   6  27  1   
 11   6  28  1   
 12   6  29  1   
 13   7  30  1   
 14   7  31  1   
 15   7  32  1   
 16   8   9  1   
 17   8  10  1   
 18   8  33  1   
 19   9  11  1   
 20   9  12  1   
 21   9  34  1   
 22  10  13  1   
 23  10  35  1   
 24  10  36  1   
 25  11  14  am  
 26  11  37  1   
 27  12  13  1   
 28  12  38  1   
 29  12  39  1   
 30  14  15  2   
 31  14  16  1   
 32  16  17  ar  
 33  16  18  ar  
 34  17  19  1   
 35  17  20  ar  
 36  18  21  ar  
 37  18  40  1   
 38  20  22  1   
 39  20  23  ar  
 40  21  23  ar  
 41  21  41  1   
 42  22  24  1   
 43  23  42  1   
 44  24  43  1   
 45  24  44  1   
 46  24  45  1   
@<TRIPOS>SUBSTRUCTURE
  1 ****  11 GROUP 4 **** **** 0

# MOE 2024.06 (io_trps.svl 2023.06)
