@<TRIPOS>MOLECULE
NONAME
47 50 1 0 0 
SMALL
USER_CHARGES


@<TRIPOS>ATOM
  1 O        2.1030     1.6690    -2.4700 O.2   1 <1>  -0.5700 
  2 C        2.0670     2.4890    -1.5900 C.2   1 <1>   0.5690 
  3 N        3.1350     3.0930    -1.0630 N.am  1 <1>  -0.7300 
  4 C        0.8160     2.9050    -0.8690 C.3   1 <1>  -0.0990 
  5 C        2.8600     3.8340     0.1690 C.3   1 <1>   0.2200 
  6 C        1.3210     3.8910     0.2070 C.3   1 <1>  -0.1600 
  7 C        3.4800     3.0810     1.3650 C.3   1 <1>   0.1100 
  8 N        4.8820     2.6720     1.0860 N.3   1 <1>  -0.8100 
  9 C        5.1620     1.2960     1.5500 C.3   1 <1>   0.2530 
 10 C        5.8570     3.6260     1.6690 C.3   1 <1>   0.2900 
 11 C        6.4580     0.7510     0.9550 C.ar  1 <1>   0.1670 
 12 C        5.7520     4.9930     1.0150 C.2   1 <1>   0.0060 
 13 N        7.5140     0.6790     1.7570 N.ar  1 <1>  -0.6200 
 14 C        6.4710     0.3650    -0.3770 C.ar  1 <1>  -0.1500 
 15 N        5.2430     6.0420     1.5890 N.2   1 <1>  -0.5650 
 16 N        6.1830     5.2130    -0.2510 N.pl3 1 <1>   0.2940 
 17 C        8.6190     0.2010     1.2070 C.ar  1 <1>   0.1600 
 18 C        7.6290    -0.1320    -0.9360 C.ar  1 <1>  -0.1500 
 19 C        5.3450     6.9970     0.6470 C.2   1 <1>   0.0770 
 20 C        5.9100     6.5100    -0.4790 C.2   1 <1>  -0.3020 
 21 C        6.7930     4.2510    -1.2000 C.3   1 <1>  -0.0910 
 22 C        8.7290    -0.2120    -0.1100 C.ar  1 <1>  -0.1500 
 23 C        8.1810     3.7470    -0.9380 C.3   1 <1>  -0.2000 
 24 C        7.9290     4.6730    -2.0850 C.3   1 <1>  -0.2000 
 25 H        4.0790     2.7190    -1.1780 H     1 <1>   0.3700 
 26 H        0.1330     3.3740    -1.5530 H     1 <1>   0.0800 
 27 H        0.3600     2.0400    -0.4250 H     1 <1>   0.0800 
 28 H        3.2660     4.8280     0.0990 H     1 <1>   0.0800 
 29 H        0.9330     3.6530     1.1810 H     1 <1>   0.0800 
 30 H        1.0090     4.8890    -0.0450 H     1 <1>   0.0800 
 31 H        2.8750     2.2090     1.5480 H     1 <1>   0.0800 
 32 H        3.4290     3.6990     2.2460 H     1 <1>   0.0800 
 33 H        5.2140     1.2670     2.6250 H     1 <1>   0.0800 
 34 H        4.3640     0.6450     1.2380 H     1 <1>   0.0800 
 35 H        5.6880     3.7230     2.7270 H     1 <1>   0.0800 
 36 H        6.8610     3.2640     1.5320 H     1 <1>   0.0800 
 37 H        5.5780     0.4560    -0.9720 H     1 <1>   0.1500 
 38 H        9.4860     0.1330     1.8420 H     1 <1>   0.1500 
 39 H        7.6700    -0.4410    -1.9660 H     1 <1>   0.1500 
 40 H        5.0010     8.0020     0.8300 H     1 <1>   0.1500 
 41 H        6.1290     6.9960    -1.4100 H     1 <1>   0.1500 
 42 H        6.0660     3.5570    -1.5830 H     1 <1>   0.1000 
 43 H        9.6640    -0.5900    -0.4800 H     1 <1>   0.1500 
 44 H        8.7200     4.1170    -0.0830 H     1 <1>   0.1000 
 45 H        8.4030     2.7160    -1.1500 H     1 <1>   0.1000 
 46 H        7.9890     4.2710    -3.0820 H     1 <1>   0.1000 
 47 H        8.3050     5.6790    -2.0210 H     1 <1>   0.1000 
@<TRIPOS>BOND
  1   1   2  2   
  2   2   3  am  
  3   2   4  1   
  4   3   5  1   
  5   3  25  1   
  6   4   6  1   
  7   4  26  1   
  8   4  27  1   
  9   5   6  1   
 10   5   7  1   
 11   5  28  1   
 12   6  29  1   
 13   6  30  1   
 14   7   8  1   
 15   7  31  1   
 16   7  32  1   
 17   8   9  1   
 18   8  10  1   
 19   9  11  1   
 20   9  33  1   
 21   9  34  1   
 22  10  12  1   
 23  10  35  1   
 24  10  36  1   
 25  11  13  ar  
 26  11  14  ar  
 27  12  15  2   
 28  12  16  1   
 29  13  17  ar  
 30  14  18  ar  
 31  14  37  1   
 32  15  19  1   
 33  16  20  1   
 34  16  21  1   
 35  17  22  ar  
 36  17  38  1   
 37  18  22  ar  
 38  18  39  1   
 39  19  20  2   
 40  19  40  1   
 41  20  41  1   
 42  21  23  1   
 43  21  24  1   
 44  21  42  1   
 45  22  43  1   
 46  23  24  1   
 47  23  44  1   
 48  23  45  1   
 49  24  46  1   
 50  24  47  1   
@<TRIPOS>SUBSTRUCTURE
  1 ****   8 GROUP 4 **** **** 0

# MOE 2024.06 (io_trps.svl 2023.06)
