@<TRIPOS>MOLECULE
NONAME
44 46 1 0 0 
SMALL
USER_CHARGES


@<TRIPOS>ATOM
  1 F        0.3100    -0.6420    -0.0210 F     1 <1>  -0.3400 
  2 C        1.5980    -0.8720     0.1920 C.3   1 <1>   0.6800 
  3 F        1.6470    -2.1150     0.6500 F     1 <1>  -0.3400 
  4 C        2.0960     0.0670     1.2900 C.3   1 <1>  -0.1600 
  5 C        2.3310    -0.7990    -1.1470 C.3   1 <1>  -0.1600 
  6 C        2.6550     1.3360     0.6600 C.3   1 <1>   0.2090 
  7 C        3.7670    -0.3470    -0.9190 C.3   1 <1>   0.2090 
  8 N        3.7890     0.9980    -0.2580 N.pl3 1 <1>  -0.8380 
  9 C        4.9490     1.7070    -0.2270 C.ar  1 <1>   0.4100 
 10 N        6.0380     1.0040     0.0100 N.ar  1 <1>  -0.6200 
 11 C        4.9900     3.1150    -0.4260 C.ar  1 <1>  -0.1430 
 12 C        7.1850     1.6460     0.1350 C.ar  1 <1>   0.7710 
 13 C        6.1870     3.7470    -0.2610 C.ar  1 <1>   0.2180 
 14 C        3.7220     3.8650    -0.8520 C.3   1 <1>  -0.0970 
 15 N        7.2630     2.9780     0.0240 N.ar  1 <1>  -0.1790 
 16 N        8.3150     0.9430     0.3900 N.pl3 1 <1>  -0.8380 
 17 C        6.4370     5.2460    -0.3790 C.3   1 <1>  -0.0970 
 18 C        9.7160     1.4370     0.4980 C.3   1 <1>   0.2090 
 19 C        8.2840    -0.5360     0.5740 C.3   1 <1>   0.2090 
 20 C       10.5800     0.1840     0.4680 C.3   1 <1>  -0.1600 
 21 C        9.6850    -0.9120     1.0330 C.3   1 <1>  -0.1600 
 22 H        2.8860    -0.4050     1.8450 H     1 <1>   0.0800 
 23 H        1.2950     0.3040     1.9650 H     1 <1>   0.0800 
 24 H        1.8540    -0.0800    -1.7870 H     1 <1>   0.0800 
 25 H        2.3140    -1.7580    -1.6310 H     1 <1>   0.0800 
 26 H        2.9980     2.0000     1.4350 H     1 <1>   0.0800 
 27 H        1.8780     1.8330     0.1030 H     1 <1>   0.0800 
 28 H        4.2860    -0.2900    -1.8610 H     1 <1>   0.0800 
 29 H        4.2810    -1.0600    -0.2960 H     1 <1>   0.0800 
 30 H        3.1130     3.2410    -1.4830 H     1 <1>   0.0800 
 31 H        3.9480     4.7450    -1.4240 H     1 <1>   0.0800 
 32 H        3.1460     4.1490     0.0110 H     1 <1>   0.0800 
 33 H        8.1860     3.3660     0.1590 H     1 <1>   0.4570 
 34 H        5.5270     5.8100    -0.2820 H     1 <1>   0.0800 
 35 H        6.8790     5.4750    -1.3330 H     1 <1>   0.0800 
 36 H        7.0990     5.5820     0.4000 H     1 <1>   0.0800 
 37 H        9.8480     1.9410     1.4410 H     1 <1>   0.0800 
 38 H        9.9750     2.0920    -0.3170 H     1 <1>   0.0800 
 39 H        8.0600    -1.0080    -0.3690 H     1 <1>   0.0800 
 40 H        7.5430    -0.8250     1.3020 H     1 <1>   0.0800 
 41 H       11.4860     0.3050     1.0350 H     1 <1>   0.0800 
 42 H       10.8350    -0.0450    -0.5530 H     1 <1>   0.0800 
 43 H        9.9680    -1.8920     0.6900 H     1 <1>   0.0800 
 44 H        9.7180    -0.8980     2.1090 H     1 <1>   0.0800 
@<TRIPOS>BOND
  1   1   2  1   
  2   2   3  1   
  3   2   4  1   
  4   2   5  1   
  5   4   6  1   
  6   4  22  1   
  7   4  23  1   
  8   5   7  1   
  9   5  24  1   
 10   5  25  1   
 11   6   8  1   
 12   6  26  1   
 13   6  27  1   
 14   7   8  1   
 15   7  28  1   
 16   7  29  1   
 17   8   9  1   
 18   9  10  ar  
 19   9  11  ar  
 20  10  12  ar  
 21  11  13  ar  
 22  11  14  1   
 23  12  15  ar  
 24  12  16  1   
 25  13  15  ar  
 26  13  17  1   
 27  14  30  1   
 28  14  31  1   
 29  14  32  1   
 30  15  33  1   
 31  16  18  1   
 32  16  19  1   
 33  17  34  1   
 34  17  35  1   
 35  17  36  1   
 36  18  20  1   
 37  18  37  1   
 38  18  38  1   
 39  19  21  1   
 40  19  39  1   
 41  19  40  1   
 42  20  21  1   
 43  20  41  1   
 44  20  42  1   
 45  21  43  1   
 46  21  44  1   
@<TRIPOS>SUBSTRUCTURE
  1 ****  10 GROUP 4 **** **** 0

# MOE 2024.06 (io_trps.svl 2023.06)
