@<TRIPOS>MOLECULE
NONAME
59 62 1 0 0 
SMALL
USER_CHARGES


@<TRIPOS>ATOM
  1 O       -1.4320    -0.3720     2.1080 O.2   1 <1>  -0.5700 
  2 C       -1.8960     0.2690     1.1810 C.2   1 <1>   0.7150 
  3 N       -2.8280    -0.3470     0.3810 N.am  1 <1>  -0.6600 
  4 C       -1.4910     1.6450     0.9460 C.2   1 <1>   0.0550 
  5 C       -2.6750    -1.8050     0.0680 C.3   1 <1>   0.3640 
  6 C       -4.1780     0.2590     0.2200 C.3   1 <1>   0.1400 
  7 O       -1.8060     2.2290    -0.2250 O.3   1 <1>  -0.2800 
  8 C       -0.7960     2.5350     1.7100 C.2   1 <1>  -0.1810 
  9 C       -1.2800    -2.0120    -0.5340 C.ar  1 <1>  -0.1440 
 10 C       -3.7430    -2.3680    -0.9230 C.3   1 <1>   0.2000 
 11 C       -4.9060    -0.3260    -0.9880 C.3   1 <1>   0.1200 
 12 C       -1.3260     3.4680    -0.2220 C.ar  1 <1>   0.1400 
 13 C       -0.6790     3.7250     0.9700 C.ar  1 <1>   0.0000 
 14 C       -0.2090     2.3810     3.1030 C.3   1 <1>  -0.0590 
 15 C       -0.4110    -2.9420     0.0200 C.ar  1 <1>  -0.1500 
 16 C       -0.8620    -1.2740    -1.6360 C.ar  1 <1>  -0.1500 
 17 O       -4.9810    -1.7090    -0.8440 O.3   1 <1>  -0.5600 
 18 C       -4.0460    -3.8600    -0.7000 C.3   1 <1>   0.1200 
 19 C       -1.4250     4.4160    -1.2290 C.ar  1 <1>  -0.1500 
 20 C       -0.1020     4.9820     1.1730 C.ar  1 <1>  -0.1500 
 21 C        0.8460    -3.1490    -0.5200 C.ar  1 <1>   0.0830 
 22 C        0.3990    -1.4640    -2.1740 C.ar  1 <1>  -0.1500 
 23 O       -2.8950    -4.6410    -0.7240 O.3   1 <1>  -0.6800 
 24 C       -0.8570     5.6580    -1.0280 C.ar  1 <1>   0.0830 
 25 C       -0.1930     5.9370     0.1810 C.ar  1 <1>  -0.1500 
 26 O        1.6250    -4.1020     0.0470 O.3   1 <1>  -0.3620 
 27 C        1.2640    -2.3890    -1.6170 C.ar  1 <1>   0.0830 
 28 O       -0.9780     6.5560    -2.0360 O.3   1 <1>  -0.3630 
 29 C        1.8470    -5.2600    -0.7260 C.3   1 <1>   0.0400 
 30 O        2.4960    -2.5090    -2.1710 O.3   1 <1>  -0.3630 
 31 C       -0.4410     7.8570    -1.9380 C.3   1 <1>   0.0400 
 32 C        3.5810    -2.1150    -1.3600 C.3   1 <1>   0.0400 
 33 H       -2.7470    -2.3520     0.9920 H     1 <1>   0.0800 
 34 H       -4.7580     0.0650     1.1060 H     1 <1>   0.0800 
 35 H       -4.0980     1.3250     0.1030 H     1 <1>   0.0800 
 36 H       -3.3940    -2.2420    -1.9320 H     1 <1>   0.0800 
 37 H       -4.3950    -0.0870    -1.9050 H     1 <1>   0.0800 
 38 H       -5.9110     0.0550    -1.0370 H     1 <1>   0.0800 
 39 H       -0.5820     3.1570     3.7460 H     1 <1>   0.0800 
 40 H        0.8630     2.4520     3.0550 H     1 <1>   0.0800 
 41 H       -0.4660     1.4320     3.5360 H     1 <1>   0.0800 
 42 H       -0.7070    -3.5210     0.8770 H     1 <1>   0.1500 
 43 H       -1.5140    -0.5370    -2.0720 H     1 <1>   0.1500 
 44 H       -4.7060    -4.2200    -1.4710 H     1 <1>   0.0800 
 45 H       -4.5120    -4.0020     0.2590 H     1 <1>   0.0800 
 46 H       -1.9340     4.1830    -2.1440 H     1 <1>   0.1500 
 47 H        0.4040     5.1870     2.0990 H     1 <1>   0.1500 
 48 H        0.7220    -0.8870    -3.0220 H     1 <1>   0.1500 
 49 H       -2.3740    -4.4860    -1.5370 H     1 <1>   0.4000 
 50 H        0.2540     6.8980     0.3490 H     1 <1>   0.1500 
 51 H        2.4230    -5.9510    -0.1380 H     1 <1>   0.0800 
 52 H        2.3870    -4.9940    -1.6160 H     1 <1>   0.0800 
 53 H        0.8960    -5.6930    -0.9790 H     1 <1>   0.0800 
 54 H       -0.6640     8.3790    -2.8510 H     1 <1>   0.0800 
 55 H        0.6240     7.7870    -1.8080 H     1 <1>   0.0800 
 56 H       -0.9010     8.3630    -1.1070 H     1 <1>   0.0800 
 57 H        4.4740    -2.1400    -1.9580 H     1 <1>   0.0800 
 58 H        3.6740    -2.7950    -0.5330 H     1 <1>   0.0800 
 59 H        3.4020    -1.1160    -1.0030 H     1 <1>   0.0800 
@<TRIPOS>BOND
  1   1   2  2   
  2   2   3  am  
  3   2   4  1   
  4   3   5  1   
  5   3   6  1   
  6   4   7  1   
  7   4   8  2   
  8   5   9  1   
  9   5  10  1   
 10   5  33  1   
 11   6  11  1   
 12   6  34  1   
 13   6  35  1   
 14   7  12  1   
 15   8  13  1   
 16   8  14  1   
 17   9  15  ar  
 18   9  16  ar  
 19  10  17  1   
 20  10  18  1   
 21  10  36  1   
 22  11  17  1   
 23  11  37  1   
 24  11  38  1   
 25  12  13  ar  
 26  12  19  ar  
 27  13  20  ar  
 28  14  39  1   
 29  14  40  1   
 30  14  41  1   
 31  15  21  ar  
 32  15  42  1   
 33  16  22  ar  
 34  16  43  1   
 35  18  23  1   
 36  18  44  1   
 37  18  45  1   
 38  19  24  ar  
 39  19  46  1   
 40  20  25  ar  
 41  20  47  1   
 42  21  26  1   
 43  21  27  ar  
 44  22  27  ar  
 45  22  48  1   
 46  23  49  1   
 47  24  25  ar  
 48  24  28  1   
 49  25  50  1   
 50  26  29  1   
 51  27  30  1   
 52  28  31  1   
 53  29  51  1   
 54  29  52  1   
 55  29  53  1   
 56  30  32  1   
 57  31  54  1   
 58  31  55  1   
 59  31  56  1   
 60  32  57  1   
 61  32  58  1   
 62  32  59  1   
@<TRIPOS>SUBSTRUCTURE
  1 ****   2 GROUP 4 **** **** 0

# MOE 2024.06 (io_trps.svl 2023.06)
