@<TRIPOS>MOLECULE
NONAME
33 33 1 0 0 
SMALL
USER_CHARGES


@<TRIPOS>ATOM
  1 O       -1.2360    -0.8830    -0.1530 O.2   1 <1>  -0.5700 
  2 C       -1.9480     0.0930    -0.2600 C.2   1 <1>   0.5690 
  3 N       -3.2050     0.1010     0.2950 N.am  1 <1>  -0.6600 
  4 C       -1.3980     1.2670    -1.0830 C.3   1 <1>   0.1810 
  5 C       -3.6690    -1.0360     1.1420 C.3   1 <1>   0.3200 
  6 C       -4.2270     1.1590     0.0480 C.3   1 <1>   0.1400 
  7 O       -1.5960     2.5150    -0.4660 O.3   1 <1>  -0.5600 
  8 C       -4.1720    -2.1770     0.2740 C.2   1 <1>   0.0060 
  9 C       -4.2670     2.1490     1.2180 C.3   1 <1>   0.1200 
 10 C       -0.9910     3.5750    -1.1250 C.3   1 <1>   0.1200 
 11 N       -5.3880    -2.6230     0.2530 N.2   1 <1>  -0.5650 
 12 N       -3.3410    -2.8300    -0.5640 N.pl3 1 <1>   0.0330 
 13 O       -5.0040     3.2640     0.8500 O.3   1 <1>  -0.6800 
 14 C       -1.3350     4.8460    -0.3570 C.3   1 <1>  -0.2400 
 15 C       -5.3460    -3.6220    -0.6510 C.2   1 <1>   0.0770 
 16 C       -4.1030    -3.7640    -1.1610 C.2   1 <1>  -0.3020 
 17 H       -1.8810     1.2800    -2.0430 H     1 <1>   0.0800 
 18 H       -0.3410     1.1220    -1.2210 H     1 <1>   0.0800 
 19 H       -4.4590    -0.7130     1.7970 H     1 <1>   0.0800 
 20 H       -2.8560    -1.3870     1.7540 H     1 <1>   0.0800 
 21 H       -5.1950     0.7000    -0.0710 H     1 <1>   0.0800 
 22 H       -3.9940     1.6840    -0.8600 H     1 <1>   0.0800 
 23 H       -3.2760     2.4780     1.4810 H     1 <1>   0.0800 
 24 H       -4.7430     1.7050     2.0740 H     1 <1>   0.0800 
 25 H       -1.3680     3.6250    -2.1330 H     1 <1>   0.0800 
 26 H        0.0750     3.4170    -1.1360 H     1 <1>   0.0800 
 27 H       -2.3450    -2.6060    -0.6940 H     1 <1>   0.2700 
 28 H       -4.4960     3.8020     0.2110 H     1 <1>   0.4000 
 29 H       -2.3990     4.9990    -0.3480 H     1 <1>   0.0800 
 30 H       -0.8710     5.6930    -0.8290 H     1 <1>   0.0800 
 31 H       -0.9740     4.7750     0.6530 H     1 <1>   0.0800 
 32 H       -6.2270    -4.1950    -0.8900 H     1 <1>   0.1500 
 33 H       -3.7300    -4.4550    -1.8940 H     1 <1>   0.1500 
@<TRIPOS>BOND
  1   1   2  2   
  2   2   3  am  
  3   2   4  1   
  4   3   5  1   
  5   3   6  1   
  6   4   7  1   
  7   4  17  1   
  8   4  18  1   
  9   5   8  1   
 10   5  19  1   
 11   5  20  1   
 12   6   9  1   
 13   6  21  1   
 14   6  22  1   
 15   7  10  1   
 16   8  11  2   
 17   8  12  1   
 18   9  13  1   
 19   9  23  1   
 20   9  24  1   
 21  10  14  1   
 22  10  25  1   
 23  10  26  1   
 24  11  15  1   
 25  12  16  1   
 26  12  27  1   
 27  13  28  1   
 28  14  29  1   
 29  14  30  1   
 30  14  31  1   
 31  15  16  2   
 32  15  32  1   
 33  16  33  1   
@<TRIPOS>SUBSTRUCTURE
  1 ****   3 GROUP 4 **** **** 0

# MOE 2024.06 (io_trps.svl 2023.06)
