@<TRIPOS>MOLECULE
NONAME
53 56 1 0 0 
SMALL
USER_CHARGES


@<TRIPOS>ATOM
  1 O       -0.5750     0.3710    -3.3210 O.2   1 <1>  -0.5700 
  2 C       -1.1170     1.1060    -2.5300 C.2   1 <1>   0.5690 
  3 N       -2.3560     0.8090    -2.0200 N.am  1 <1>  -0.6600 
  4 C       -0.3340     2.3250    -2.0700 C.3   1 <1>   0.1570 
  5 C       -3.2820     1.7240    -1.2980 C.3   1 <1>   0.1400 
  6 C       -2.6250    -0.5690    -1.5510 C.3   1 <1>   0.1400 
  7 N       -0.1500     2.2870    -0.5960 N.pl3 1 <1>   0.0480 
  8 C       -3.7350     0.9580    -0.0490 C.3   1 <1>   0.2000 
  9 C       -2.9770    -0.3690    -0.0760 C.3   1 <1>  -0.0800 
 10 C        0.2300     1.1810     0.1080 C.ar  1 <1>  -0.1520 
 11 C       -0.6110     3.1710     0.3420 C.2   1 <1>   0.0060 
 12 O       -3.4340     1.6550     1.1120 O.3   1 <1>  -0.6800 
 13 C       -3.7390    -1.5380     0.5590 C.3   1 <1>  -0.0160 
 14 C       -0.0660     1.4560     1.4270 C.ar  1 <1>   0.2270 
 15 C        0.7720    -0.0570    -0.2560 C.ar  1 <1>  -0.1500 
 16 N       -0.5970     2.6990     1.5420 N.2   1 <1>  -0.5650 
 17 C       -1.0850     4.5900     0.0020 C.3   1 <1>   0.1000 
 18 C       -2.8810    -2.7910     0.5480 C.ar  1 <1>   0.1670 
 19 C        0.1600     0.5010     2.4160 C.ar  1 <1>  -0.1500 
 20 C        0.9870    -1.0000     0.7240 C.ar  1 <1>  -0.1500 
 21 C        0.1280     5.5020    -0.2130 C.3   1 <1>  -0.2400 
 22 C       -1.9900     5.1770     1.0940 C.3   1 <1>  -0.2400 
 23 N       -3.0550    -3.6200    -0.4690 N.ar  1 <1>  -0.6200 
 24 C       -1.9540    -3.0030     1.5670 C.ar  1 <1>   0.1600 
 25 C        0.6820    -0.7230     2.0610 C.ar  1 <1>  -0.1500 
 26 C       -2.2490    -4.6660    -0.3970 C.ar  1 <1>   0.1600 
 27 N       -1.1460    -4.0490     1.6410 N.ar  1 <1>  -0.6200 
 28 C       -1.3270    -4.8730     0.6230 C.ar  1 <1>   0.1600 
 29 H       -0.8490     3.2130    -2.3700 H     1 <1>   0.0800 
 30 H        0.6350     2.3160    -2.5330 H     1 <1>   0.0800 
 31 H       -2.8210     2.6550    -1.0420 H     1 <1>   0.0800 
 32 H       -4.1340     1.9150    -1.9260 H     1 <1>   0.0800 
 33 H       -3.4530    -0.9820    -2.1000 H     1 <1>   0.0800 
 34 H       -1.7640    -1.2080    -1.6670 H     1 <1>   0.0800 
 35 H       -4.8000     0.8070    -0.0790 H     1 <1>   0.0800 
 36 H       -2.0500    -0.2510     0.4520 H     1 <1>   0.0800 
 37 H       -2.4680     1.8570     1.1850 H     1 <1>   0.4000 
 38 H       -4.6570    -1.7210     0.0270 H     1 <1>   0.0800 
 39 H       -3.9920    -1.2870     1.5740 H     1 <1>   0.0800 
 40 H        1.0110    -0.2720    -1.2840 H     1 <1>   0.1500 
 41 H       -1.6610     4.5730    -0.9040 H     1 <1>   0.0800 
 42 H       -0.0810     0.7450     3.4340 H     1 <1>   0.1500 
 43 H        1.3910    -1.9650     0.4700 H     1 <1>   0.1500 
 44 H        0.7190     5.5420     0.6860 H     1 <1>   0.0800 
 45 H       -0.1890     6.4990    -0.4620 H     1 <1>   0.0800 
 46 H        0.7450     5.1290    -1.0090 H     1 <1>   0.0800 
 47 H       -1.4520     5.2640     2.0210 H     1 <1>   0.0800 
 48 H       -2.8380     4.5340     1.2550 H     1 <1>   0.0800 
 49 H       -2.3460     6.1510     0.8090 H     1 <1>   0.0800 
 50 H       -1.8750    -2.2710     2.3510 H     1 <1>   0.1500 
 51 H        0.8620    -1.4800     2.8060 H     1 <1>   0.1500 
 52 H       -2.3200    -5.3960    -1.1830 H     1 <1>   0.1500 
 53 H       -0.7150    -5.7560     0.5920 H     1 <1>   0.1500 
@<TRIPOS>BOND
  1   1   2  2   
  2   2   3  am  
  3   2   4  1   
  4   3   5  1   
  5   3   6  1   
  6   4   7  1   
  7   4  29  1   
  8   4  30  1   
  9   5   8  1   
 10   5  31  1   
 11   5  32  1   
 12   6   9  1   
 13   6  33  1   
 14   6  34  1   
 15   7  10  1   
 16   7  11  1   
 17   8   9  1   
 18   8  12  1   
 19   8  35  1   
 20   9  13  1   
 21   9  36  1   
 22  10  14  ar  
 23  10  15  ar  
 24  11  16  2   
 25  11  17  1   
 26  12  37  1   
 27  13  18  1   
 28  13  38  1   
 29  13  39  1   
 30  14  16  1   
 31  14  19  ar  
 32  15  20  ar  
 33  15  40  1   
 34  17  21  1   
 35  17  22  1   
 36  17  41  1   
 37  18  23  ar  
 38  18  24  ar  
 39  19  25  ar  
 40  19  42  1   
 41  20  25  ar  
 42  20  43  1   
 43  21  44  1   
 44  21  45  1   
 45  21  46  1   
 46  22  47  1   
 47  22  48  1   
 48  22  49  1   
 49  23  26  ar  
 50  24  27  ar  
 51  24  50  1   
 52  25  51  1   
 53  26  28  ar  
 54  26  52  1   
 55  27  28  ar  
 56  28  53  1   
@<TRIPOS>SUBSTRUCTURE
  1 ****   9 GROUP 4 **** **** 0

# MOE 2024.06 (io_trps.svl 2023.06)
