@<TRIPOS>MOLECULE
NONAME
46 48 1 0 0 
SMALL
USER_CHARGES


@<TRIPOS>ATOM
  1 S        0.1040    -0.1190     1.4790 S.o2  1 <1>   1.4470 
  2 O        0.2050    -1.5620     1.5840 O.2   1 <1>  -0.6500 
  3 O        0.0310     0.6820     2.6770 O.2   1 <1>  -0.6500 
  4 N       -1.3380     0.1410     0.6190 N.am  1 <1>  -0.8490 
  5 C        1.3710     0.5250     0.3750 C.ar  1 <1>  -0.0090 
  6 C       -1.5450    -0.8560    -0.4590 C.3   1 <1>   0.1960 
  7 C       -2.4910     0.3070     1.5380 C.3   1 <1>   0.1960 
  8 C        1.1670     1.7360    -0.2660 C.ar  1 <1>   0.1600 
  9 C        2.5610    -0.1420     0.1340 C.ar  1 <1>  -0.1500 
 10 C       -2.3940    -2.0230     0.0890 C.3   1 <1>   0.4230 
 11 C       -3.8280    -0.1020     0.8920 C.3   1 <1>  -0.1600 
 12 N        2.0080     2.3070    -1.1150 N.ar  1 <1>  -0.6200 
 13 C        3.4550     0.4390    -0.7400 C.ar  1 <1>  -0.1500 
 14 N       -2.2560    -3.3840    -0.5520 N.4   1 <1>  -0.9590 
 15 C       -3.8500    -1.5750     0.3790 C.3   1 <1>   0.0000 
 16 C        3.1330     1.6480    -1.3320 C.ar  1 <1>   0.1600 
 17 C       -3.2920    -4.3500    -0.0530 C.3   1 <1>   0.3430 
 18 C       -2.2220    -3.3540    -2.0480 C.3   1 <1>   0.2630 
 19 C       -4.3710    -2.5410     1.4750 C.3   1 <1>  -0.1600 
 20 C       -4.8230    -1.6370    -0.8310 C.3   1 <1>   0.1200 
 21 C       -3.7960    -3.9780     1.3540 C.3   1 <1>  -0.1600 
 22 O       -4.2660    -1.0550    -1.9600 O.3   1 <1>  -0.6800 
 23 H       -2.0460    -0.3760    -1.2790 H     1 <1>   0.0800 
 24 H       -0.5970    -1.2160    -0.8190 H     1 <1>   0.0800 
 25 H       -2.3460    -0.2940     2.4220 H     1 <1>   0.0800 
 26 H       -2.5360     1.3370     1.8570 H     1 <1>   0.0800 
 27 H        0.2500     2.2690    -0.0700 H     1 <1>   0.1500 
 28 H        2.7820    -1.0810     0.6140 H     1 <1>   0.1500 
 29 H       -1.9770    -2.1680     1.0710 H     1 <1>   0.0800 
 30 H       -4.6260     0.0590     1.5960 H     1 <1>   0.0800 
 31 H       -3.9990     0.5840     0.0800 H     1 <1>   0.0800 
 32 H        4.3940    -0.0360    -0.9630 H     1 <1>   0.1500 
 33 H       -1.3420    -3.7310    -0.2230 H     1 <1>   0.4500 
 34 H        3.8350     2.0950    -2.0160 H     1 <1>   0.1500 
 35 H       -4.1330    -4.3520    -0.7270 H     1 <1>   0.0800 
 36 H       -2.8840    -5.3480    -0.0410 H     1 <1>   0.0800 
 37 H       -3.1720    -3.0340    -2.4420 H     1 <1>   0.0800 
 38 H       -2.0060    -4.3370    -2.4360 H     1 <1>   0.0800 
 39 H       -1.4620    -2.6750    -2.3970 H     1 <1>   0.0800 
 40 H       -4.1040    -2.1670     2.4500 H     1 <1>   0.0800 
 41 H       -5.4480    -2.5770     1.4480 H     1 <1>   0.0800 
 42 H       -5.7300    -1.1030    -0.5980 H     1 <1>   0.0800 
 43 H       -5.0900    -2.6460    -1.0850 H     1 <1>   0.0800 
 44 H       -4.5510    -4.6850     1.6530 H     1 <1>   0.0800 
 45 H       -2.9770    -4.0930     2.0440 H     1 <1>   0.0800 
 46 H       -4.9670    -0.7820    -2.5920 H     1 <1>   0.4000 
@<TRIPOS>BOND
  1   1   2  2   
  2   1   3  2   
  3   1   4  am  
  4   1   5  1   
  5   4   6  1   
  6   4   7  1   
  7   5   8  ar  
  8   5   9  ar  
  9   6  10  1   
 10   6  23  1   
 11   6  24  1   
 12   7  11  1   
 13   7  25  1   
 14   7  26  1   
 15   8  12  ar  
 16   8  27  1   
 17   9  13  ar  
 18   9  28  1   
 19  10  14  1   
 20  10  15  1   
 21  10  29  1   
 22  11  15  1   
 23  11  30  1   
 24  11  31  1   
 25  12  16  ar  
 26  13  16  ar  
 27  13  32  1   
 28  14  17  1   
 29  14  18  1   
 30  14  33  1   
 31  15  19  1   
 32  15  20  1   
 33  16  34  1   
 34  17  21  1   
 35  17  35  1   
 36  17  36  1   
 37  18  37  1   
 38  18  38  1   
 39  18  39  1   
 40  19  21  1   
 41  19  40  1   
 42  19  41  1   
 43  20  22  1   
 44  20  42  1   
 45  20  43  1   
 46  21  44  1   
 47  21  45  1   
 48  22  46  1   
@<TRIPOS>SUBSTRUCTURE
  1 ****   6 GROUP 4 **** **** 0

# MOE 2024.06 (io_trps.svl 2023.06)
