@<TRIPOS>MOLECULE
NONAME
46 48 1 0 0 
SMALL
USER_CHARGES


@<TRIPOS>ATOM
  1 O       -1.3210    -0.9510     1.6620 O.2   1 <1>  -0.5700 
  2 C       -2.2420    -0.4810     1.0390 C.2   1 <1>   0.6900 
  3 N       -2.9860     0.5640     1.4540 N.am  1 <1>  -0.4900 
  4 N       -2.6930    -0.9510    -0.1410 N.am  1 <1>  -0.7300 
  5 C       -3.9980     0.8090     0.5940 C.2   1 <1>   0.5690 
  6 C       -3.9170    -0.2190    -0.5430 C.3   1 <1>   0.2810 
  7 O       -4.8050     1.6970     0.7030 O.2   1 <1>  -0.5700 
  8 C       -5.0920    -1.2040    -0.6240 C.3   1 <1>  -0.1600 
  9 C       -6.4310    -0.5120    -0.9570 C.3   1 <1>  -0.0990 
 10 C       -7.6040    -1.4680    -1.1440 C.2   1 <1>   0.5690 
 11 O       -7.3750    -2.6550    -1.1600 O.2   1 <1>  -0.5700 
 12 N       -8.8760    -0.9740    -1.2850 N.am  1 <1>  -0.6600 
 13 C      -10.0520    -1.8820    -1.4050 C.3   1 <1>   0.1400 
 14 C       -9.2540     0.4670    -1.2970 C.3   1 <1>   0.1400 
 15 C      -11.0020    -1.6290    -0.2320 C.3   1 <1>  -0.1600 
 16 C      -10.1750     0.7450    -0.1080 C.3   1 <1>  -0.1600 
 17 C      -11.4170    -0.1570    -0.1420 C.3   1 <1>   0.4180 
 18 O      -12.1530     0.1130    -1.3120 O.3   1 <1>  -0.5600 
 19 C      -12.2860     0.0560     1.0950 C.2   1 <1>  -0.2880 
 20 C      -13.0100     1.2200    -1.2960 C.3   1 <1>   0.1200 
 21 C      -13.5140     0.5790     1.0690 C.2   1 <1>  -0.2760 
 22 C      -14.1160     1.0330    -0.2480 C.3   1 <1>  -0.0220 
 23 C      -14.4010     0.7560     2.2880 C.3   1 <1>  -0.1020 
 24 H       -2.7980     1.0740     2.3100 H     1 <1>   0.3700 
 25 H       -2.4510    -1.8830    -0.4800 H     1 <1>   0.3700 
 26 H       -3.7580     0.2810    -1.4830 H     1 <1>   0.0800 
 27 H       -4.8790    -1.9290    -1.3900 H     1 <1>   0.0800 
 28 H       -5.1950    -1.7240     0.3130 H     1 <1>   0.0800 
 29 H       -6.3230     0.0590    -1.8610 H     1 <1>   0.0800 
 30 H       -6.6830     0.1590    -0.1570 H     1 <1>   0.0800 
 31 H      -10.5560    -1.6870    -2.3360 H     1 <1>   0.0800 
 32 H       -9.7430    -2.9140    -1.4040 H     1 <1>   0.0800 
 33 H       -8.3930     1.1070    -1.2460 H     1 <1>   0.0800 
 34 H       -9.7720     0.6850    -2.2160 H     1 <1>   0.0800 
 35 H      -10.5090    -1.9230     0.6760 H     1 <1>   0.0800 
 36 H      -11.8810    -2.2380    -0.3370 H     1 <1>   0.0800 
 37 H      -10.4670     1.7770    -0.0970 H     1 <1>   0.0800 
 38 H       -9.6300     0.5600     0.8000 H     1 <1>   0.0800 
 39 H      -11.8060    -0.2700     2.0000 H     1 <1>   0.1500 
 40 H      -12.4330     2.1010    -1.0810 H     1 <1>   0.0800 
 41 H      -13.4390     1.3180    -2.2770 H     1 <1>   0.0800 
 42 H      -14.6280     1.9700    -0.1210 H     1 <1>   0.0800 
 43 H      -14.8270     0.3040    -0.5950 H     1 <1>   0.0800 
 44 H      -15.3160     0.2050     2.1630 H     1 <1>   0.0800 
 45 H      -14.6360     1.7960     2.4300 H     1 <1>   0.0800 
 46 H      -13.9040     0.3960     3.1710 H     1 <1>   0.0800 
@<TRIPOS>BOND
  1   1   2  2   
  2   2   3  am  
  3   2   4  am  
  4   3   5  am  
  5   3  24  1   
  6   4   6  1   
  7   4  25  1   
  8   5   6  1   
  9   5   7  2   
 10   6   8  1   
 11   6  26  1   
 12   8   9  1   
 13   8  27  1   
 14   8  28  1   
 15   9  10  1   
 16   9  29  1   
 17   9  30  1   
 18  10  11  2   
 19  10  12  am  
 20  12  13  1   
 21  12  14  1   
 22  13  15  1   
 23  13  31  1   
 24  13  32  1   
 25  14  16  1   
 26  14  33  1   
 27  14  34  1   
 28  15  17  1   
 29  15  35  1   
 30  15  36  1   
 31  16  17  1   
 32  16  37  1   
 33  16  38  1   
 34  17  18  1   
 35  17  19  1   
 36  18  20  1   
 37  19  21  2   
 38  19  39  1   
 39  20  22  1   
 40  20  40  1   
 41  20  41  1   
 42  21  22  1   
 43  21  23  1   
 44  22  42  1   
 45  22  43  1   
 46  23  44  1   
 47  23  45  1   
 48  23  46  1   
@<TRIPOS>SUBSTRUCTURE
  1 ****  12 GROUP 4 **** **** 0

# MOE 2024.06 (io_trps.svl 2023.06)
