@<TRIPOS>MOLECULE
NONAME
61 64 1 0 0 
SMALL
USER_CHARGES


@<TRIPOS>ATOM
  1 O       -2.1580     1.4670    -0.6040 O.2   1 <1>  -0.5700 
  2 C       -2.0410     0.9950     0.5020 C.2   1 <1>   0.5690 
  3 N       -2.1660    -0.3300     0.7360 N.am  1 <1>  -0.7300 
  4 C       -1.7400     1.9230     1.6590 C.3   1 <1>  -0.0990 
  5 C       -2.4530    -1.3640    -0.2860 C.3   1 <1>   0.2200 
  6 C       -0.5570     2.8490     1.3520 C.3   1 <1>   0.3430 
  7 C       -3.8580    -1.9030    -0.0640 C.3   1 <1>  -0.0800 
  8 C       -1.6090    -2.5960     0.0130 C.3   1 <1>   0.1200 
  9 N       -0.8300     3.7140     0.1700 N.4   1 <1>  -0.9590 
 10 C       -3.6400    -2.9990     0.9920 C.3   1 <1>   0.1200 
 11 C       -4.4630    -2.4650    -1.3670 C.3   1 <1>  -0.0170 
 12 O       -2.2610    -3.2210     1.0720 O.3   1 <1>  -0.5600 
 13 C        0.4280     4.2590    -0.4460 C.3   1 <1>   0.3430 
 14 C       -1.8120     4.8210     0.4400 C.3   1 <1>   0.3430 
 15 C       -5.8880    -2.9690    -1.1570 C.ar  1 <1>  -0.1440 
 16 C        0.1270     5.1980    -1.6380 C.3   1 <1>   0.2000 
 17 C       -2.0070     5.7320    -0.7950 C.3   1 <1>   0.2000 
 18 C       -6.9940    -2.0930    -1.0330 C.ar  1 <1>   0.0000 
 19 C       -6.1350    -4.3090    -1.0800 C.ar  1 <1>  -0.1500 
 20 O       -0.7680     6.1930    -1.2420 O.3   1 <1>  -0.5600 
 21 C        1.3820     5.9060    -2.1400 C.3   1 <1>  -0.2400 
 22 C       -2.8450     6.9650    -0.4700 C.3   1 <1>  -0.2400 
 23 C       -8.2680    -2.6710    -0.8100 C.ar  1 <1>   0.3100 
 24 C       -6.9130    -0.6840    -1.1220 C.ar  1 <1>  -0.1500 
 25 C       -7.4380    -4.7760    -0.8670 C.ar  1 <1>   0.1600 
 26 N       -8.4720    -4.0100    -0.7300 N.ar  1 <1>  -0.6200 
 27 C       -9.3810    -1.8270    -0.6670 C.ar  1 <1>  -0.1500 
 28 C       -8.0190     0.1100    -0.9810 C.ar  1 <1>  -0.1500 
 29 C       -9.2690    -0.4660    -0.7480 C.ar  1 <1>  -0.1500 
 30 H       -2.0920    -0.7270     1.6780 H     1 <1>   0.3700 
 31 H       -2.6180     2.4950     1.8940 H     1 <1>   0.0800 
 32 H       -1.4950     1.3380     2.5260 H     1 <1>   0.0800 
 33 H       -2.2900    -0.9810    -1.2800 H     1 <1>   0.0800 
 34 H        0.3080     2.2370     1.1530 H     1 <1>   0.0800 
 35 H       -0.3390     3.4640     2.2110 H     1 <1>   0.0800 
 36 H       -4.5090    -1.1390     0.3210 H     1 <1>   0.0800 
 37 H       -0.6000    -2.3560     0.2970 H     1 <1>   0.0800 
 38 H       -1.6030    -3.2760    -0.8210 H     1 <1>   0.0800 
 39 H       -1.2750     3.0870    -0.5360 H     1 <1>   0.4500 
 40 H       -4.1190    -3.9270     0.7360 H     1 <1>   0.0800 
 41 H       -3.9790    -2.6800     1.9620 H     1 <1>   0.0800 
 42 H       -3.8510    -3.2710    -1.7330 H     1 <1>   0.0800 
 43 H       -4.4660    -1.7070    -2.1310 H     1 <1>   0.0800 
 44 H        0.9800     4.8190     0.2910 H     1 <1>   0.0800 
 45 H        1.0530     3.4500    -0.7850 H     1 <1>   0.0800 
 46 H       -2.7660     4.4080     0.7210 H     1 <1>   0.0800 
 47 H       -1.4590     5.4300     1.2550 H     1 <1>   0.0800 
 48 H       -0.3170     4.6430    -2.4480 H     1 <1>   0.0800 
 49 H       -2.4750     5.1830    -1.5950 H     1 <1>   0.0800 
 50 H       -5.3500    -5.0360    -1.1760 H     1 <1>   0.1500 
 51 H        1.8220     6.4990    -1.3570 H     1 <1>   0.0800 
 52 H        1.1300     6.5480    -2.9650 H     1 <1>   0.0800 
 53 H        2.1070     5.1900    -2.4820 H     1 <1>   0.0800 
 54 H       -2.3760     7.5520     0.3000 H     1 <1>   0.0800 
 55 H       -3.8260     6.6760    -0.1370 H     1 <1>   0.0800 
 56 H       -2.9560     7.5720    -1.3520 H     1 <1>   0.0800 
 57 H       -5.9640    -0.2190    -1.3080 H     1 <1>   0.1500 
 58 H       -7.5870    -5.8410    -0.8120 H     1 <1>   0.1500 
 59 H      -10.3330    -2.2930    -0.4910 H     1 <1>   0.1500 
 60 H       -7.9440     1.1820    -1.0510 H     1 <1>   0.1500 
 61 H      -10.1320     0.1680    -0.6370 H     1 <1>   0.1500 
@<TRIPOS>BOND
  1   1   2  2   
  2   2   3  am  
  3   2   4  1   
  4   3   5  1   
  5   3  30  1   
  6   4   6  1   
  7   4  31  1   
  8   4  32  1   
  9   5   7  1   
 10   5   8  1   
 11   5  33  1   
 12   6   9  1   
 13   6  34  1   
 14   6  35  1   
 15   7  10  1   
 16   7  11  1   
 17   7  36  1   
 18   8  12  1   
 19   8  37  1   
 20   8  38  1   
 21   9  13  1   
 22   9  14  1   
 23   9  39  1   
 24  10  12  1   
 25  10  40  1   
 26  10  41  1   
 27  11  15  1   
 28  11  42  1   
 29  11  43  1   
 30  13  16  1   
 31  13  44  1   
 32  13  45  1   
 33  14  17  1   
 34  14  46  1   
 35  14  47  1   
 36  15  18  ar  
 37  15  19  ar  
 38  16  20  1   
 39  16  21  1   
 40  16  48  1   
 41  17  20  1   
 42  17  22  1   
 43  17  49  1   
 44  18  23  ar  
 45  18  24  ar  
 46  19  25  ar  
 47  19  50  1   
 48  21  51  1   
 49  21  52  1   
 50  21  53  1   
 51  22  54  1   
 52  22  55  1   
 53  22  56  1   
 54  23  26  ar  
 55  23  27  ar  
 56  24  28  ar  
 57  24  57  1   
 58  25  26  ar  
 59  25  58  1   
 60  27  29  ar  
 61  27  59  1   
 62  28  29  ar  
 63  28  60  1   
 64  29  61  1   
@<TRIPOS>SUBSTRUCTURE
  1 ****   1 GROUP 4 **** **** 0

# MOE 2024.06 (io_trps.svl 2023.06)
