@<TRIPOS>MOLECULE
NONAME
44 45 1 0 0 
SMALL
USER_CHARGES


@<TRIPOS>ATOM
  1 S        0.5800     0.8690    -0.7520 S.o2  1 <1>   1.3330 
  2 O       -0.4530     1.8600    -0.9440 O.2   1 <1>  -0.6500 
  3 O        0.4220    -0.4480    -1.3290 O.2   1 <1>  -0.6500 
  4 N        0.7790     0.6770     0.9240 N.am  1 <1>  -0.8490 
  5 C        2.1500     1.5360    -1.3090 C.3   1 <1>  -0.0550 
  6 C        0.7470     1.9460     1.6630 C.3   1 <1>   0.1160 
  7 C       -0.2080    -0.2490     1.4850 C.3   1 <1>   0.1160 
  8 C        3.3340     0.5440    -1.2400 C.3   1 <1>  -0.0800 
  9 C        4.6540     1.0910    -1.7610 C.3   1 <1>   0.2200 
 10 C        3.7070     0.0720     0.1690 C.3   1 <1>   0.1200 
 11 N        4.8720     2.4660    -1.2550 N.am  1 <1>  -0.7300 
 12 C        5.6380     0.1510    -1.0790 C.3   1 <1>   0.1200 
 13 O        5.0930    -0.1160     0.1790 O.3   1 <1>  -0.5600 
 14 C        4.6800     3.6200    -1.9560 C.2   1 <1>   0.6160 
 15 O        4.5060     3.5280    -3.1570 O.2   1 <1>  -0.5700 
 16 C        4.6830     4.9110    -1.3180 C.2   1 <1>   0.0290 
 17 C        4.2350     5.0430     0.0400 C.2   1 <1>   0.6160 
 18 C        5.0950     6.0390    -1.9860 C.2   1 <1>  -0.1500 
 19 O        3.8010     4.0940     0.6920 O.2   1 <1>  -0.5700 
 20 N        4.2770     6.2960     0.6450 N.am  1 <1>  -0.4690 
 21 C        5.1060     7.2930    -1.3470 C.2   1 <1>  -0.1500 
 22 C        4.7030     7.4000    -0.0530 C.2   1 <1>  -0.0410 
 23 C        3.8420     6.4450     2.0600 C.3   1 <1>   0.0600 
 24 H        2.0400     1.8460    -2.3310 H     1 <1>   0.0800 
 25 H        2.3710     2.4130    -0.7370 H     1 <1>   0.0800 
 26 H        0.9330     1.7680     2.7090 H     1 <1>   0.0800 
 27 H       -0.2140     2.4220     1.5550 H     1 <1>   0.0800 
 28 H        1.5080     2.6140     1.2980 H     1 <1>   0.0800 
 29 H       -0.0450    -0.3720     2.5420 H     1 <1>   0.0800 
 30 H       -0.1150    -1.2140     1.0160 H     1 <1>   0.0800 
 31 H       -1.2060     0.1220     1.3190 H     1 <1>   0.0800 
 32 H        3.0810    -0.3280    -1.8180 H     1 <1>   0.0800 
 33 H        4.7330     1.0580    -2.8350 H     1 <1>   0.0800 
 34 H        3.2220    -0.8540     0.4270 H     1 <1>   0.0800 
 35 H        3.4820     0.8190     0.9100 H     1 <1>   0.0800 
 36 H        4.8770     2.5290    -0.2290 H     1 <1>   0.3700 
 37 H        6.6170     0.5820    -0.9670 H     1 <1>   0.0800 
 38 H        5.7050    -0.7810    -1.6120 H     1 <1>   0.0800 
 39 H        5.4200     5.9810    -3.0120 H     1 <1>   0.1500 
 40 H        5.4380     8.1540    -1.9020 H     1 <1>   0.1500 
 41 H        4.7070     8.3510     0.4550 H     1 <1>   0.1500 
 42 H        3.9940     7.4540     2.4010 H     1 <1>   0.0800 
 43 H        4.4090     5.7760     2.6840 H     1 <1>   0.0800 
 44 H        2.7980     6.1980     2.1420 H     1 <1>   0.0800 
@<TRIPOS>BOND
  1   1   2  2   
  2   1   3  2   
  3   1   4  am  
  4   1   5  1   
  5   4   6  1   
  6   4   7  1   
  7   5   8  1   
  8   5  24  1   
  9   5  25  1   
 10   6  26  1   
 11   6  27  1   
 12   6  28  1   
 13   7  29  1   
 14   7  30  1   
 15   7  31  1   
 16   8   9  1   
 17   8  10  1   
 18   8  32  1   
 19   9  11  1   
 20   9  12  1   
 21   9  33  1   
 22  10  13  1   
 23  10  34  1   
 24  10  35  1   
 25  11  14  am  
 26  11  36  1   
 27  12  13  1   
 28  12  37  1   
 29  12  38  1   
 30  14  15  2   
 31  14  16  1   
 32  16  17  1   
 33  16  18  2   
 34  17  19  2   
 35  17  20  am  
 36  18  21  1   
 37  18  39  1   
 38  20  22  1   
 39  20  23  1   
 40  21  22  2   
 41  21  40  1   
 42  22  41  1   
 43  23  42  1   
 44  23  43  1   
 45  23  44  1   
@<TRIPOS>SUBSTRUCTURE
  1 ****  11 GROUP 4 **** **** 0

# MOE 2024.06 (io_trps.svl 2023.06)
