@<TRIPOS>MOLECULE
NONAME
54 57 1 0 0 
SMALL
USER_CHARGES


@<TRIPOS>ATOM
  1 O       -0.8420     0.4590     2.9000 O.3   1 <1>  -0.5600 
  2 C       -0.0940     1.6160     2.6980 C.3   1 <1>   0.1200 
  3 C       -1.9830     0.4550     2.0950 C.3   1 <1>   0.1200 
  4 C       -0.3920     2.0350     1.2670 C.3   1 <1>   0.2890 
  5 C       -1.8450     1.6230     1.1120 C.3   1 <1>  -0.0800 
  6 N       -0.2200     3.4930     1.0470 N.pl3 1 <1>  -0.8690 
  7 C       -2.2220     1.2690    -0.3350 C.3   1 <1>  -0.0170 
  8 C        0.7800     4.1760     0.4700 C.ar  1 <1>   0.4100 
  9 C       -3.6690     0.8120    -0.4290 C.ar  1 <1>  -0.1430 
 10 N        0.5980     5.4740     0.4260 N.ar  1 <1>  -0.6200 
 11 C        1.9400     3.5650    -0.0410 C.ar  1 <1>  -0.1500 
 12 C       -4.0130    -0.5190    -0.5530 C.ar  1 <1>  -0.1500 
 13 C       -4.7170     1.7100    -0.3950 C.ar  1 <1>  -0.1500 
 14 C        1.5440     6.2250    -0.1250 C.ar  1 <1>   0.7710 
 15 C        2.8980     4.3440    -0.5960 C.ar  1 <1>   0.2180 
 16 C       -5.3490    -0.8780    -0.6270 C.ar  1 <1>   0.1600 
 17 C       -6.0200     1.2470    -0.4770 C.ar  1 <1>   0.1600 
 18 N        2.6690     5.6790    -0.6220 N.ar  1 <1>  -0.1790 
 19 N        1.3860     7.5750    -0.1850 N.pl3 1 <1>  -0.8380 
 20 C        4.1950     3.8070    -1.1760 C.3   1 <1>  -0.0970 
 21 N       -6.3610    -0.0260    -0.5890 N.ar  1 <1>  -0.6200 
 22 C        2.2660     8.5620    -0.8860 C.3   1 <1>   0.2090 
 23 C        0.2560     8.2690     0.5190 C.3   1 <1>   0.2090 
 24 C        2.8980     9.4950     0.1500 C.3   1 <1>  -0.1600 
 25 C        0.8320     9.2130     1.5800 C.3   1 <1>  -0.1600 
 26 C        1.8240    10.2180     0.9760 C.3   1 <1>  -0.1600 
 27 H       -0.4370     2.3560     3.4010 H     1 <1>   0.0800 
 28 H        0.9450     1.3940     2.8560 H     1 <1>   0.0800 
 29 H       -2.0220    -0.4960     1.5930 H     1 <1>   0.0800 
 30 H       -2.8510     0.5670     2.7230 H     1 <1>   0.0800 
 31 H        0.2290     1.4630     0.6010 H     1 <1>   0.0800 
 32 H       -2.4850     2.4130     1.4630 H     1 <1>   0.0800 
 33 H       -0.9820     4.0650     1.4240 H     1 <1>   0.4000 
 34 H       -1.5740     0.4920    -0.7050 H     1 <1>   0.0800 
 35 H       -2.0840     2.1330    -0.9620 H     1 <1>   0.0800 
 36 H        2.0460     2.4990     0.0230 H     1 <1>   0.1500 
 37 H       -3.2590    -1.2840    -0.5920 H     1 <1>   0.1500 
 38 H       -4.5340     2.7650    -0.3060 H     1 <1>   0.1500 
 39 H       -5.5990    -1.9210    -0.7220 H     1 <1>   0.1500 
 40 H       -6.8240     1.9630    -0.4480 H     1 <1>   0.1500 
 41 H        3.3410     6.3360    -0.9920 H     1 <1>   0.4570 
 42 H        4.2340     2.7350    -1.0820 H     1 <1>   0.0800 
 43 H        5.0400     4.2190    -0.6540 H     1 <1>   0.0800 
 44 H        4.2710     4.0540    -2.2210 H     1 <1>   0.0800 
 45 H        3.0360     8.0840    -1.4640 H     1 <1>   0.0800 
 46 H        1.6670     9.1440    -1.5680 H     1 <1>   0.0800 
 47 H       -0.3170     8.8340    -0.1980 H     1 <1>   0.0800 
 48 H       -0.4170     7.5770     0.9950 H     1 <1>   0.0800 
 49 H        3.5360     8.9270     0.8040 H     1 <1>   0.0800 
 50 H        3.5090    10.2260    -0.3510 H     1 <1>   0.0800 
 51 H        0.0260     9.7460     2.0540 H     1 <1>   0.0800 
 52 H        1.3210     8.6260     2.3370 H     1 <1>   0.0800 
 53 H        1.2900    10.9050     0.3430 H     1 <1>   0.0800 
 54 H        2.2880    10.7880     1.7630 H     1 <1>   0.0800 
@<TRIPOS>BOND
  1   1   2  1   
  2   1   3  1   
  3   2   4  1   
  4   2  27  1   
  5   2  28  1   
  6   3   5  1   
  7   3  29  1   
  8   3  30  1   
  9   4   5  1   
 10   4   6  1   
 11   4  31  1   
 12   5   7  1   
 13   5  32  1   
 14   6   8  1   
 15   6  33  1   
 16   7   9  1   
 17   7  34  1   
 18   7  35  1   
 19   8  10  ar  
 20   8  11  ar  
 21   9  12  ar  
 22   9  13  ar  
 23  10  14  ar  
 24  11  15  ar  
 25  11  36  1   
 26  12  16  ar  
 27  12  37  1   
 28  13  17  ar  
 29  13  38  1   
 30  14  18  ar  
 31  14  19  1   
 32  15  18  ar  
 33  15  20  1   
 34  16  21  ar  
 35  16  39  1   
 36  17  21  ar  
 37  17  40  1   
 38  18  41  1   
 39  19  22  1   
 40  19  23  1   
 41  20  42  1   
 42  20  43  1   
 43  20  44  1   
 44  22  24  1   
 45  22  45  1   
 46  22  46  1   
 47  23  25  1   
 48  23  47  1   
 49  23  48  1   
 50  24  26  1   
 51  24  49  1   
 52  24  50  1   
 53  25  26  1   
 54  25  51  1   
 55  25  52  1   
 56  26  53  1   
 57  26  54  1   
@<TRIPOS>SUBSTRUCTURE
  1 ****   6 GROUP 4 **** **** 0

# MOE 2024.06 (io_trps.svl 2023.06)
