@<TRIPOS>MOLECULE
NONAME
45 48 1 0 0 
SMALL
USER_CHARGES


@<TRIPOS>ATOM
  1 O       -0.4540     0.0710     2.0590 O.2   1 <1>  -0.5700 
  2 C       -0.9900     0.8010     1.2420 C.2   1 <1>   0.5440 
  3 N       -1.8070     0.1980     0.3010 N.am  1 <1>  -0.6600 
  4 C       -0.7560     2.2500     1.3240 C.ar  1 <1>   0.3960 
  5 C       -2.6260     0.8870    -0.7300 C.3   1 <1>   0.1400 
  6 C       -2.1010    -1.2580     0.3070 C.3   1 <1>   0.1400 
  7 N       -0.7210     3.0120     0.2150 N.ar  1 <1>  -0.6200 
  8 C       -0.5620     2.8190     2.5840 C.ar  1 <1>  -0.1500 
  9 C       -3.3940    -0.2250    -1.4440 C.3   1 <1>   0.2000 
 10 C       -3.4030    -1.4060    -0.4780 C.3   1 <1>  -0.0800 
 11 C       -0.4970     4.3150     0.3490 C.ar  1 <1>   0.2870 
 12 C       -0.3300     4.1670     2.7330 C.ar  1 <1>  -0.1500 
 13 O       -4.6910     0.1600    -1.7410 O.3   1 <1>  -0.6800 
 14 C       -3.5480    -2.7630    -1.1830 C.3   1 <1>   0.0210 
 15 N       -0.4600     5.0980    -0.8340 N.pl3 1 <1>   0.3260 
 16 C       -0.2970     4.9220     1.5860 C.ar  1 <1>  -0.1500 
 17 C       -3.4760    -3.9050    -0.1870 C.2   1 <1>   0.1080 
 18 C       -0.7880     6.3850    -1.0280 C.2   1 <1>   0.0360 
 19 C       -0.0750     4.7380    -2.0670 C.2   1 <1>   0.0360 
 20 N       -4.3880    -4.1120     0.7110 N.2   1 <1>  -0.7070 
 21 C       -2.4450    -4.8350    -0.1140 C.2   1 <1>  -0.1500 
 22 N       -0.6110     6.7640    -2.2450 N.2   1 <1>  -0.3380 
 23 N       -0.1520     5.7040    -2.9130 N.2   1 <1>  -0.3380 
 24 N       -3.9590    -5.1940     1.3880 N.pl3 1 <1>   0.3000 
 25 C       -2.7830    -5.6490     0.9070 C.2   1 <1>  -0.3320 
 26 C       -2.0430    -6.8510     1.4640 C.3   1 <1>  -0.0600 
 27 H       -3.2980     1.5770    -0.2510 H     1 <1>   0.0800 
 28 H       -1.9910     1.4060    -1.4270 H     1 <1>   0.0800 
 29 H       -1.2930    -1.7780    -0.1790 H     1 <1>   0.0800 
 30 H       -2.2080    -1.6310     1.3130 H     1 <1>   0.0800 
 31 H       -0.5910     2.1830     3.4520 H     1 <1>   0.1500 
 32 H       -2.8940    -0.4730    -2.3660 H     1 <1>   0.0800 
 33 H       -4.2090    -1.2910     0.2280 H     1 <1>   0.0800 
 34 H       -0.1770     4.6050     3.7060 H     1 <1>   0.1500 
 35 H       -5.2190     0.2230    -0.9220 H     1 <1>   0.4000 
 36 H       -2.7760    -2.8840    -1.9200 H     1 <1>   0.0800 
 37 H       -4.4990    -2.8060    -1.6850 H     1 <1>   0.0800 
 38 H       -0.1080     5.9790     1.6550 H     1 <1>   0.1500 
 39 H       -1.1620     7.0150    -0.2430 H     1 <1>   0.1500 
 40 H        0.2590     3.7410    -2.2910 H     1 <1>   0.1500 
 41 H       -1.5760    -4.8730    -0.7470 H     1 <1>   0.1500 
 42 H       -4.4910    -5.5950     2.1690 H     1 <1>   0.2700 
 43 H       -1.1320    -7.0120     0.9150 H     1 <1>   0.0800 
 44 H       -2.6520    -7.7340     1.3820 H     1 <1>   0.0800 
 45 H       -1.7950    -6.6900     2.4980 H     1 <1>   0.0800 
@<TRIPOS>BOND
  1   1   2  2   
  2   2   3  am  
  3   2   4  1   
  4   3   5  1   
  5   3   6  1   
  6   4   7  ar  
  7   4   8  ar  
  8   5   9  1   
  9   5  27  1   
 10   5  28  1   
 11   6  10  1   
 12   6  29  1   
 13   6  30  1   
 14   7  11  ar  
 15   8  12  ar  
 16   8  31  1   
 17   9  10  1   
 18   9  13  1   
 19   9  32  1   
 20  10  14  1   
 21  10  33  1   
 22  11  15  1   
 23  11  16  ar  
 24  12  16  ar  
 25  12  34  1   
 26  13  35  1   
 27  14  17  1   
 28  14  36  1   
 29  14  37  1   
 30  15  18  1   
 31  15  19  1   
 32  16  38  1   
 33  17  20  2   
 34  17  21  1   
 35  18  22  2   
 36  18  39  1   
 37  19  23  2   
 38  19  40  1   
 39  20  24  1   
 40  21  25  2   
 41  21  41  1   
 42  22  23  1   
 43  24  25  1   
 44  24  42  1   
 45  25  26  1   
 46  26  43  1   
 47  26  44  1   
 48  26  45  1   
@<TRIPOS>SUBSTRUCTURE
  1 ****   3 GROUP 4 **** **** 0

# MOE 2024.06 (io_trps.svl 2023.06)
