@<TRIPOS>MOLECULE
NONAME
52 53 1 0 0 
SMALL
USER_CHARGES


@<TRIPOS>ATOM
  1 O       -1.7970     0.3790     1.2570 O.2   1 <1>  -0.5700 
  2 C       -2.5300     0.9940     0.5090 C.2   1 <1>   0.5690 
  3 N       -3.8910     0.7740     0.5370 N.am  1 <1>  -0.6600 
  4 C       -1.8310     1.9770    -0.4560 C.3   1 <1>   0.2610 
  5 C       -4.4650    -0.1540     1.5470 C.3   1 <1>   0.3200 
  6 C       -4.8880     1.3270    -0.4370 C.3   1 <1>   0.1400 
  7 O       -2.5110     3.2260    -0.5520 O.3   1 <1>  -0.3630 
  8 C       -1.6440     1.4030    -1.8850 C.3   1 <1>  -0.0800 
  9 C       -4.3870    -1.5580     0.9940 C.2   1 <1>  -0.3320 
 10 C       -6.0170     2.1560     0.2080 C.3   1 <1>   0.1200 
 11 C       -2.7120     4.0470     0.5100 C.ar  1 <1>   0.0820 
 12 C       -0.8490     0.0860    -1.8740 C.3   1 <1>  -0.2400 
 13 C       -0.9340     2.4020    -2.8160 C.3   1 <1>  -0.2400 
 14 N       -3.2090    -2.1610     0.7630 N.pl3 1 <1>   0.0330 
 15 C       -5.3430    -2.4430     0.6380 C.2   1 <1>   0.0770 
 16 O       -5.5850     2.8660     1.3220 O.3   1 <1>  -0.6800 
 17 C       -3.5500     5.1420     0.3160 C.ar  1 <1>  -0.1440 
 18 C       -2.1400     3.8300     1.7620 C.ar  1 <1>  -0.1500 
 19 C       -3.5220    -3.3790     0.2720 C.2   1 <1>   0.0060 
 20 N       -4.7950    -3.5870     0.1830 N.2   1 <1>  -0.5650 
 21 C       -3.8260     5.9900     1.3770 C.ar  1 <1>  -0.1500 
 22 C       -4.1660     5.4210    -1.0480 C.3   1 <1>  -0.0970 
 23 C       -2.4220     4.6840     2.8120 C.ar  1 <1>  -0.1500 
 24 C       -2.4720    -4.3900    -0.1300 C.3   1 <1>  -0.0600 
 25 C       -3.2670     5.7610     2.6210 C.ar  1 <1>  -0.1500 
 26 H       -0.8550     2.1910    -0.0610 H     1 <1>   0.0800 
 27 H       -5.4850     0.1050     1.7680 H     1 <1>   0.0800 
 28 H       -3.9080    -0.0890     2.4670 H     1 <1>   0.0800 
 29 H       -5.3300     0.5060    -0.9760 H     1 <1>   0.0800 
 30 H       -4.4050     1.9400    -1.1720 H     1 <1>   0.0800 
 31 H       -2.6140     1.1880    -2.2980 H     1 <1>   0.0800 
 32 H       -6.8160     1.5100     0.5270 H     1 <1>   0.0800 
 33 H       -6.4170     2.8570    -0.5040 H     1 <1>   0.0800 
 34 H        0.1180     0.2300    -1.4240 H     1 <1>   0.0800 
 35 H       -0.7080    -0.2750    -2.8780 H     1 <1>   0.0800 
 36 H       -1.3750    -0.6740    -1.3240 H     1 <1>   0.0800 
 37 H        0.0380     2.6540    -2.4300 H     1 <1>   0.0800 
 38 H       -1.5080     3.3070    -2.9120 H     1 <1>   0.0800 
 39 H       -0.8140     1.9810    -3.7990 H     1 <1>   0.0800 
 40 H       -2.2850    -1.7420     0.9250 H     1 <1>   0.2700 
 41 H       -6.4120    -2.3200     0.6840 H     1 <1>   0.1500 
 42 H       -4.7490     3.3470     1.1320 H     1 <1>   0.4000 
 43 H       -1.4760     3.0070     1.9470 H     1 <1>   0.1500 
 44 H       -4.4770     6.8350     1.2420 H     1 <1>   0.1500 
 45 H       -3.3860     5.5670    -1.7740 H     1 <1>   0.0800 
 46 H       -4.7800     6.3030    -1.0240 H     1 <1>   0.0800 
 47 H       -4.7730     4.5900    -1.3560 H     1 <1>   0.0800 
 48 H       -1.9840     4.5100     3.7800 H     1 <1>   0.1500 
 49 H       -1.8500    -3.9860    -0.9070 H     1 <1>   0.0800 
 50 H       -2.9480    -5.2820    -0.4960 H     1 <1>   0.0800 
 51 H       -1.8640    -4.6470     0.7180 H     1 <1>   0.0800 
 52 H       -3.4900     6.4230     3.4400 H     1 <1>   0.1500 
@<TRIPOS>BOND
  1   1   2  2   
  2   2   3  am  
  3   2   4  1   
  4   3   5  1   
  5   3   6  1   
  6   4   7  1   
  7   4   8  1   
  8   4  26  1   
  9   5   9  1   
 10   5  27  1   
 11   5  28  1   
 12   6  10  1   
 13   6  29  1   
 14   6  30  1   
 15   7  11  1   
 16   8  12  1   
 17   8  13  1   
 18   8  31  1   
 19   9  14  1   
 20   9  15  2   
 21  10  16  1   
 22  10  32  1   
 23  10  33  1   
 24  11  17  ar  
 25  11  18  ar  
 26  12  34  1   
 27  12  35  1   
 28  12  36  1   
 29  13  37  1   
 30  13  38  1   
 31  13  39  1   
 32  14  19  1   
 33  14  40  1   
 34  15  20  1   
 35  15  41  1   
 36  16  42  1   
 37  17  21  ar  
 38  17  22  1   
 39  18  23  ar  
 40  18  43  1   
 41  19  20  2   
 42  19  24  1   
 43  21  25  ar  
 44  21  44  1   
 45  22  45  1   
 46  22  46  1   
 47  22  47  1   
 48  23  25  ar  
 49  23  48  1   
 50  24  49  1   
 51  24  50  1   
 52  24  51  1   
 53  25  52  1   
@<TRIPOS>SUBSTRUCTURE
  1 ****   3 GROUP 4 **** **** 0

# MOE 2024.06 (io_trps.svl 2023.06)
