@<TRIPOS>MOLECULE
NONAME
42 43 1 0 0 
SMALL
USER_CHARGES


@<TRIPOS>ATOM
  1 O        0.1570    -0.1280    -0.1770 O.3   1 <1>  -0.5600 
  2 C        1.3630    -0.7320    -0.5830 C.3   1 <1>   0.2000 
  3 C        0.1250     1.2660    -0.2520 C.3   1 <1>   0.1200 
  4 C        2.5760    -0.1550     0.1960 C.3   1 <1>   0.5660 
  5 C        1.2500    -2.2480    -0.3540 C.3   1 <1>   0.1200 
  6 C        1.2200     1.8680     0.6450 C.3   1 <1>   0.3430 
  7 N        2.5790     1.3450     0.2820 N.4   1 <1>  -0.9590 
  8 C        3.8900    -0.5920    -0.4410 C.ar  1 <1>  -0.1440 
  9 O        1.3630    -2.5380     1.0050 O.3   1 <1>  -0.6800 
 10 C        3.6430     1.8150     1.2140 C.3   1 <1>   0.3430 
 11 C        4.7290    -1.4430     0.2650 C.ar  1 <1>  -0.1500 
 12 C        4.2720    -0.1550    -1.7050 C.ar  1 <1>  -0.1500 
 13 C        3.9450     3.3110     1.0170 C.3   1 <1>  -0.0800 
 14 C        5.9370    -1.8430    -0.2770 C.ar  1 <1>  -0.1500 
 15 C        5.4810    -0.5570    -2.2450 C.ar  1 <1>  -0.1500 
 16 C        4.3240     3.6470    -0.4370 C.3   1 <1>  -0.2400 
 17 C        5.0940     3.7240     1.9460 C.3   1 <1>  -0.2400 
 18 C        6.3140    -1.3980    -1.5310 C.ar  1 <1>  -0.1500 
 19 H        1.4730    -0.5500    -1.6370 H     1 <1>   0.0800 
 20 H        0.2480     1.5650    -1.2790 H     1 <1>   0.0800 
 21 H       -0.8450     1.5860     0.0850 H     1 <1>   0.0800 
 22 H        2.5320    -0.5550     1.1960 H     1 <1>   0.0800 
 23 H        2.0390    -2.7690    -0.8680 H     1 <1>   0.0800 
 24 H        0.2990    -2.6070    -0.7090 H     1 <1>   0.0800 
 25 H        0.9940     1.6170     1.6690 H     1 <1>   0.0800 
 26 H        1.2030     2.9410     0.5540 H     1 <1>   0.0800 
 27 H        2.8370     1.6780    -0.6510 H     1 <1>   0.4500 
 28 H        1.0580    -3.4530     1.1880 H     1 <1>   0.4000 
 29 H        3.3480     1.6330     2.2350 H     1 <1>   0.0800 
 30 H        4.5530     1.2660     1.0310 H     1 <1>   0.0800 
 31 H        4.4510    -1.8080     1.2410 H     1 <1>   0.1500 
 32 H        3.6450     0.4940    -2.2900 H     1 <1>   0.1500 
 33 H        3.0820     3.8900     1.2980 H     1 <1>   0.0800 
 34 H        6.5860    -2.5030     0.2740 H     1 <1>   0.1500 
 35 H        5.7790    -0.2190    -3.2240 H     1 <1>   0.1500 
 36 H        5.1520     3.0410    -0.7660 H     1 <1>   0.0800 
 37 H        4.6190     4.6800    -0.5120 H     1 <1>   0.0800 
 38 H        3.4960     3.5010    -1.1060 H     1 <1>   0.0800 
 39 H        5.9970     3.1910     1.7030 H     1 <1>   0.0800 
 40 H        4.8440     3.5250     2.9740 H     1 <1>   0.0800 
 41 H        5.2910     4.7790     1.8530 H     1 <1>   0.0800 
 42 H        7.2550    -1.7110    -1.9520 H     1 <1>   0.1500 
@<TRIPOS>BOND
  1   1   2  1   
  2   1   3  1   
  3   2   4  1   
  4   2   5  1   
  5   2  19  1   
  6   3   6  1   
  7   3  20  1   
  8   3  21  1   
  9   4   7  1   
 10   4   8  1   
 11   4  22  1   
 12   5   9  1   
 13   5  23  1   
 14   5  24  1   
 15   6   7  1   
 16   6  25  1   
 17   6  26  1   
 18   7  10  1   
 19   7  27  1   
 20   8  11  ar  
 21   8  12  ar  
 22   9  28  1   
 23  10  13  1   
 24  10  29  1   
 25  10  30  1   
 26  11  14  ar  
 27  11  31  1   
 28  12  15  ar  
 29  12  32  1   
 30  13  16  1   
 31  13  17  1   
 32  13  33  1   
 33  14  18  ar  
 34  14  34  1   
 35  15  18  ar  
 36  15  35  1   
 37  16  36  1   
 38  16  37  1   
 39  16  38  1   
 40  17  39  1   
 41  17  40  1   
 42  17  41  1   
 43  18  42  1   
@<TRIPOS>SUBSTRUCTURE
  1 ****   4 GROUP 4 **** **** 0

# MOE 2024.06 (io_trps.svl 2023.06)
