@<TRIPOS>MOLECULE
NONAME
52 56 1 0 0 
SMALL
USER_CHARGES


@<TRIPOS>ATOM
  1 S        0.0790     0.1110     1.0190 S.3   1 <1>  -0.0800 
  2 C       -0.3330    -1.5730     1.3500 C.ar  1 <1>   0.2970 
  3 C       -1.0840     0.1740    -0.3020 C.2   1 <1>  -0.1400 
  4 N        0.2410    -2.2670     2.3100 N.ar  1 <1>  -0.5670 
  5 C       -1.3060    -2.0200     0.4860 C.ar  1 <1>   0.0000 
  6 C       -1.7080    -1.0030    -0.4600 C.2   1 <1>  -0.1810 
  7 C       -1.2680     1.4470    -1.0970 C.3   1 <1>   0.0200 
  8 C       -0.2210    -3.4990     2.3810 C.ar  1 <1>   0.4700 
  9 C       -1.7030    -3.3450     0.6930 C.ar  1 <1>   0.4100 
 10 C       -2.7420    -1.2020    -1.5580 C.3   1 <1>   0.0210 
 11 C       -2.5410     1.3240    -1.9550 C.3   1 <1>  -0.1600 
 12 N       -1.1520    -4.0850     1.6420 N.ar  1 <1>  -0.6200 
 13 N       -2.7000    -3.9320    -0.0500 N.pl3 1 <1>  -0.8380 
 14 C       -2.6680    -0.0710    -2.6040 C.3   1 <1>  -0.1600 
 15 C       -4.0880    -3.8120     0.4500 C.3   1 <1>   0.2090 
 16 C       -2.5030    -5.2770    -0.6480 C.3   1 <1>   0.2090 
 17 C       -4.5900    -5.2510     0.6050 C.3   1 <1>  -0.0800 
 18 C       -3.8270    -6.0280    -0.4810 C.3   1 <1>  -0.0800 
 19 C       -6.1370    -5.4430     0.5950 C.3   1 <1>   0.2800 
 20 C       -4.6400    -6.0970    -1.7840 C.3   1 <1>  -0.1600 
 21 O       -6.7450    -4.4220    -0.1130 O.3   1 <1>  -0.6800 
 22 C       -6.5040    -6.7530    -0.1280 C.3   1 <1>  -0.1600 
 23 C       -6.7490    -5.4340     2.0130 C.3   1 <1>  -0.1600 
 24 C       -5.9810    -6.8270    -1.5790 C.3   1 <1>  -0.1600 
 25 C       -6.5300    -4.1460     2.8250 C.3   1 <1>  -0.2400 
 26 H       -1.3530     2.2900    -0.4340 H     1 <1>   0.0800 
 27 H       -0.4080     1.5900    -1.7270 H     1 <1>   0.0800 
 28 H        0.2160    -4.1160     3.1480 H     1 <1>   0.1500 
 29 H       -2.5790    -2.1460    -2.0480 H     1 <1>   0.0800 
 30 H       -3.7200    -1.2200    -1.1100 H     1 <1>   0.0800 
 31 H       -3.3990     1.4890    -1.3270 H     1 <1>   0.0800 
 32 H       -2.5360     2.0850    -2.7150 H     1 <1>   0.0800 
 33 H       -1.8110    -0.2390    -3.2330 H     1 <1>   0.0800 
 34 H       -3.5450    -0.1060    -3.2260 H     1 <1>   0.0800 
 35 H       -4.1210    -3.2790     1.3840 H     1 <1>   0.0800 
 36 H       -4.6580    -3.2730    -0.2840 H     1 <1>   0.0800 
 37 H       -2.2330    -5.1790    -1.6860 H     1 <1>   0.0800 
 38 H       -1.7150    -5.8010    -0.1340 H     1 <1>   0.0800 
 39 H       -4.2130    -5.6100     1.5460 H     1 <1>   0.0800 
 40 H       -3.6220    -7.0320    -0.1520 H     1 <1>   0.0800 
 41 H       -4.8380    -5.0920    -2.1190 H     1 <1>   0.0800 
 42 H       -4.0750    -6.5910    -2.5540 H     1 <1>   0.0800 
 43 H       -7.7020    -4.5900    -0.1590 H     1 <1>   0.4000 
 44 H       -6.0700    -7.5660     0.4270 H     1 <1>   0.0800 
 45 H       -7.5690    -6.9050    -0.1190 H     1 <1>   0.0800 
 46 H       -7.8070    -5.6150     1.9370 H     1 <1>   0.0800 
 47 H       -6.3340    -6.2560     2.5700 H     1 <1>   0.0800 
 48 H       -5.8740    -7.8620    -1.8530 H     1 <1>   0.0800 
 49 H       -6.7080    -6.3920    -2.2440 H     1 <1>   0.0800 
 50 H       -6.8790    -3.2860     2.2810 H     1 <1>   0.0800 
 51 H       -5.4890    -4.0110     3.0570 H     1 <1>   0.0800 
 52 H       -7.0720    -4.2020     3.7520 H     1 <1>   0.0800 
@<TRIPOS>BOND
  1   1   2  1   
  2   1   3  1   
  3   2   4  ar  
  4   2   5  ar  
  5   3   6  2   
  6   3   7  1   
  7   4   8  ar  
  8   5   6  1   
  9   5   9  ar  
 10   6  10  1   
 11   7  11  1   
 12   7  26  1   
 13   7  27  1   
 14   8  12  ar  
 15   8  28  1   
 16   9  12  ar  
 17   9  13  1   
 18  10  14  1   
 19  10  29  1   
 20  10  30  1   
 21  11  14  1   
 22  11  31  1   
 23  11  32  1   
 24  13  15  1   
 25  13  16  1   
 26  14  33  1   
 27  14  34  1   
 28  15  17  1   
 29  15  35  1   
 30  15  36  1   
 31  16  18  1   
 32  16  37  1   
 33  16  38  1   
 34  17  18  1   
 35  17  19  1   
 36  17  39  1   
 37  18  20  1   
 38  18  40  1   
 39  19  21  1   
 40  19  22  1   
 41  19  23  1   
 42  20  24  1   
 43  20  41  1   
 44  20  42  1   
 45  21  43  1   
 46  22  24  1   
 47  22  44  1   
 48  22  45  1   
 49  23  25  1   
 50  23  46  1   
 51  23  47  1   
 52  24  48  1   
 53  24  49  1   
 54  25  50  1   
 55  25  51  1   
 56  25  52  1   
@<TRIPOS>SUBSTRUCTURE
  1 ****  13 GROUP 4 **** **** 0

# MOE 2024.06 (io_trps.svl 2023.06)
