@<TRIPOS>MOLECULE
NONAME
59 61 1 0 0 
SMALL
USER_CHARGES


@<TRIPOS>ATOM
  1 O       -0.4990     0.6510    -0.2220 O.2   1 <1>  -0.5700 
  2 C       -0.4840     1.8590    -0.1800 C.2   1 <1>   0.5690 
  3 N       -1.4800     2.6100     0.3970 N.am  1 <1>  -0.6600 
  4 C        0.7140     2.5560    -0.8290 C.3   1 <1>   0.1810 
  5 C       -1.3850     4.1110     0.4190 C.3   1 <1>   0.3640 
  6 C       -2.5690     2.0430     1.2450 C.3   1 <1>   0.2200 
  7 O        0.9360     3.8510    -0.3330 O.3   1 <1>  -0.5600 
  8 C       -2.6850     4.7270    -0.1070 C.ar  1 <1>  -0.1440 
  9 C       -0.2030     4.6850    -0.4040 C.3   1 <1>   0.2610 
 10 C       -1.9780     1.3520     2.4730 C.3   1 <1>  -0.2400 
 11 C       -3.4740     1.1070     0.4420 C.3   1 <1>  -0.2400 
 12 C       -3.2760     4.2700    -1.2780 C.ar  1 <1>  -0.1500 
 13 C       -3.2840     5.7700     0.5850 C.ar  1 <1>  -0.1500 
 14 C        0.1450     6.1250     0.0200 C.2   1 <1>   0.5690 
 15 C       -4.4460     4.8420    -1.7460 C.ar  1 <1>  -0.1500 
 16 C       -4.4540     6.3440     0.1190 C.ar  1 <1>  -0.1500 
 17 O       -0.1840     6.5060     1.1240 O.2   1 <1>  -0.5700 
 18 N        0.8040     6.9700    -0.8480 N.am  1 <1>  -0.6600 
 19 C       -5.0360     5.8800    -1.0470 C.ar  1 <1>  -0.1500 
 20 C        1.0850     8.3830    -0.4600 C.3   1 <1>   0.1400 
 21 C        1.2740     6.5720    -2.2050 C.3   1 <1>   0.0600 
 22 C        2.3150     8.5000     0.4610 C.3   1 <1>  -0.0800 
 23 C        2.5030     9.9680     0.8880 C.3   1 <1>  -0.1600 
 24 C        3.6060     7.9620    -0.1870 C.3   1 <1>  -0.1600 
 25 C        3.7160    10.1400     1.8120 C.3   1 <1>  -0.1600 
 26 C        4.8210     8.1410     0.7330 C.3   1 <1>  -0.1600 
 27 C        4.9930     9.6050     1.1520 C.3   1 <1>  -0.1600 
 28 H        0.5630     2.6150    -1.8910 H     1 <1>   0.0800 
 29 H        1.6010     1.9800    -0.6380 H     1 <1>   0.0800 
 30 H       -1.2550     4.3970     1.4480 H     1 <1>   0.0800 
 31 H       -3.1870     2.8510     1.6010 H     1 <1>   0.0800 
 32 H       -0.5050     4.7180    -1.4330 H     1 <1>   0.0800 
 33 H       -1.4130     0.4820     2.1910 H     1 <1>   0.0800 
 34 H       -2.7690     1.0390     3.1300 H     1 <1>   0.0800 
 35 H       -1.3400     2.0310     3.0090 H     1 <1>   0.0800 
 36 H       -2.9460     0.2240     0.1330 H     1 <1>   0.0800 
 37 H       -3.8600     1.6130    -0.4230 H     1 <1>   0.0800 
 38 H       -4.3050     0.8010     1.0510 H     1 <1>   0.0800 
 39 H       -2.8310     3.4590    -1.8290 H     1 <1>   0.1500 
 40 H       -2.8390     6.1480     1.4910 H     1 <1>   0.1500 
 41 H       -4.8990     4.4790    -2.6520 H     1 <1>   0.1500 
 42 H       -4.9090     7.1530     0.6630 H     1 <1>   0.1500 
 43 H       -5.9460     6.3260    -1.4090 H     1 <1>   0.1500 
 44 H        1.2310     8.9810    -1.3440 H     1 <1>   0.0800 
 45 H        0.2250     8.7750     0.0560 H     1 <1>   0.0800 
 46 H        2.1000     7.1900    -2.5100 H     1 <1>   0.0800 
 47 H        0.4720     6.6870    -2.9140 H     1 <1>   0.0800 
 48 H        1.6070     5.5490    -2.2040 H     1 <1>   0.0800 
 49 H        2.1160     7.9240     1.3490 H     1 <1>   0.0800 
 50 H        2.6370    10.5830     0.0150 H     1 <1>   0.0800 
 51 H        1.6210    10.3090     1.4020 H     1 <1>   0.0800 
 52 H        3.4930     6.9130    -0.4020 H     1 <1>   0.0800 
 53 H        3.7850     8.4770    -1.1150 H     1 <1>   0.0800 
 54 H        3.8430    11.1810     2.0520 H     1 <1>   0.0800 
 55 H        3.5410     9.6080     2.7310 H     1 <1>   0.0800 
 56 H        4.6910     7.5320     1.6120 H     1 <1>   0.0800 
 57 H        5.7100     7.8030     0.2280 H     1 <1>   0.0800 
 58 H        5.8160     9.6890     1.8400 H     1 <1>   0.0800 
 59 H        5.2240    10.2000     0.2850 H     1 <1>   0.0800 
@<TRIPOS>BOND
  1   1   2  2   
  2   2   3  am  
  3   2   4  1   
  4   3   5  1   
  5   3   6  1   
  6   4   7  1   
  7   4  28  1   
  8   4  29  1   
  9   5   8  1   
 10   5   9  1   
 11   5  30  1   
 12   6  10  1   
 13   6  11  1   
 14   6  31  1   
 15   7   9  1   
 16   8  12  ar  
 17   8  13  ar  
 18   9  14  1   
 19   9  32  1   
 20  10  33  1   
 21  10  34  1   
 22  10  35  1   
 23  11  36  1   
 24  11  37  1   
 25  11  38  1   
 26  12  15  ar  
 27  12  39  1   
 28  13  16  ar  
 29  13  40  1   
 30  14  17  2   
 31  14  18  am  
 32  15  19  ar  
 33  15  41  1   
 34  16  19  ar  
 35  16  42  1   
 36  18  20  1   
 37  18  21  1   
 38  19  43  1   
 39  20  22  1   
 40  20  44  1   
 41  20  45  1   
 42  21  46  1   
 43  21  47  1   
 44  21  48  1   
 45  22  23  1   
 46  22  24  1   
 47  22  49  1   
 48  23  25  1   
 49  23  50  1   
 50  23  51  1   
 51  24  26  1   
 52  24  52  1   
 53  24  53  1   
 54  25  27  1   
 55  25  54  1   
 56  25  55  1   
 57  26  27  1   
 58  26  56  1   
 59  26  57  1   
 60  27  58  1   
 61  27  59  1   
@<TRIPOS>SUBSTRUCTURE
  1 ****   9 GROUP 4 **** **** 0

# MOE 2024.06 (io_trps.svl 2023.06)
