@<TRIPOS>MOLECULE
NONAME
51 53 1 0 0 
SMALL
USER_CHARGES


@<TRIPOS>ATOM
  1 O        0.8580     0.6160     0.0530 O.3   1 <1>  -0.3620 
  2 C        0.4870     1.8870    -0.0800 C.ar  1 <1>   0.3930 
  3 C       -0.0560    -0.4410     0.2810 C.3   1 <1>   0.0400 
  4 N       -0.8030     2.1980     0.0040 N.ar  1 <1>  -0.6200 
  5 C        1.4760     2.8220    -0.2990 C.ar  1 <1>  -0.1500 
  6 C       -1.1000     3.4630    -0.1440 C.ar  1 <1>   0.7710 
  7 C        1.1340     4.1480    -0.4370 C.ar  1 <1>   0.4610 
  8 N       -0.1810     4.4280    -0.3580 N.ar  1 <1>  -0.1790 
  9 N       -2.3940     3.7810    -0.0760 N.pl3 1 <1>  -0.9000 
 10 N        2.0720     5.1150    -0.6570 N.pl3 1 <1>  -0.8690 
 11 C        1.9890     6.6140    -0.6390 C.3   1 <1>   0.2090 
 12 C        3.3230     7.2490    -0.1640 C.3   1 <1>   0.3430 
 13 N        3.3660     8.7500    -0.2680 N.4   1 <1>  -0.9590 
 14 C        4.7880     9.2280    -0.1150 C.3   1 <1>   0.3430 
 15 C        2.4780     9.4360     0.7260 C.3   1 <1>   0.3430 
 16 C        4.9030    10.7460    -0.3140 C.3   1 <1>   0.0630 
 17 C        2.5190    10.9510     0.5050 C.3   1 <1>  -0.1600 
 18 C        6.3490    11.1760    -0.1070 C.ar  1 <1>  -0.1430 
 19 C        3.9460    11.5060     0.6180 C.3   1 <1>  -0.1600 
 20 C        6.9870    11.0020     1.1150 C.ar  1 <1>  -0.1500 
 21 C        7.0550    11.7450    -1.1590 C.ar  1 <1>  -0.1500 
 22 C        8.3080    11.3830     1.2780 C.ar  1 <1>  -0.1500 
 23 C        8.3750    12.1260    -0.9950 C.ar  1 <1>  -0.1500 
 24 C        9.0030    11.9440     0.2230 C.ar  1 <1>  -0.1500 
 25 H        0.4990    -1.3600     0.3500 H     1 <1>   0.0800 
 26 H       -0.7470    -0.4910    -0.5420 H     1 <1>   0.0800 
 27 H       -0.5800    -0.2590     1.2030 H     1 <1>   0.0800 
 28 H        2.4990     2.4990    -0.3550 H     1 <1>   0.1500 
 29 H       -0.5230     5.3610    -0.5110 H     1 <1>   0.4570 
 30 H       -2.8490     4.6900    -0.1690 H     1 <1>   0.4000 
 31 H       -3.0540     3.0120     0.0880 H     1 <1>   0.4000 
 32 H        3.0100     4.7620    -0.9100 H     1 <1>   0.4000 
 33 H        1.1930     6.9230     0.0170 H     1 <1>   0.0800 
 34 H        1.7760     6.9560    -1.6380 H     1 <1>   0.0800 
 35 H        4.1150     6.8430    -0.7720 H     1 <1>   0.0800 
 36 H        3.5070     6.9570     0.8580 H     1 <1>   0.0800 
 37 H        3.0690     9.0450    -1.2100 H     1 <1>   0.4500 
 38 H        5.4260     8.7400    -0.8350 H     1 <1>   0.0800 
 39 H        5.1510     8.9810     0.8690 H     1 <1>   0.0800 
 40 H        2.8110     9.2150     1.7290 H     1 <1>   0.0800 
 41 H        1.4620     9.0930     0.6230 H     1 <1>   0.0800 
 42 H        4.6270    10.9660    -1.3310 H     1 <1>   0.0800 
 43 H        1.8980    11.4300     1.2430 H     1 <1>   0.0800 
 44 H        2.1060    11.1890    -0.4600 H     1 <1>   0.0800 
 45 H        3.9550    12.5540     0.3660 H     1 <1>   0.0800 
 46 H        4.2780    11.4190     1.6390 H     1 <1>   0.0800 
 47 H        6.4740    10.5740     1.9570 H     1 <1>   0.1500 
 48 H        6.5900    11.9020    -2.1170 H     1 <1>   0.1500 
 49 H        8.7980    11.2470     2.2270 H     1 <1>   0.1500 
 50 H        8.9150    12.5660    -1.8160 H     1 <1>   0.1500 
 51 H       10.0300    12.2410     0.3500 H     1 <1>   0.1500 
@<TRIPOS>BOND
  1   1   2  1   
  2   1   3  1   
  3   2   4  ar  
  4   2   5  ar  
  5   3  25  1   
  6   3  26  1   
  7   3  27  1   
  8   4   6  ar  
  9   5   7  ar  
 10   5  28  1   
 11   6   8  ar  
 12   6   9  1   
 13   7   8  ar  
 14   7  10  1   
 15   8  29  1   
 16   9  30  1   
 17   9  31  1   
 18  10  11  1   
 19  10  32  1   
 20  11  12  1   
 21  11  33  1   
 22  11  34  1   
 23  12  13  1   
 24  12  35  1   
 25  12  36  1   
 26  13  14  1   
 27  13  15  1   
 28  13  37  1   
 29  14  16  1   
 30  14  38  1   
 31  14  39  1   
 32  15  17  1   
 33  15  40  1   
 34  15  41  1   
 35  16  18  1   
 36  16  19  1   
 37  16  42  1   
 38  17  19  1   
 39  17  43  1   
 40  17  44  1   
 41  18  20  ar  
 42  18  21  ar  
 43  19  45  1   
 44  19  46  1   
 45  20  22  ar  
 46  20  47  1   
 47  21  23  ar  
 48  21  48  1   
 49  22  24  ar  
 50  22  49  1   
 51  23  24  ar  
 52  23  50  1   
 53  24  51  1   
@<TRIPOS>SUBSTRUCTURE
  1 ****  12 GROUP 4 **** **** 0

# MOE 2024.06 (io_trps.svl 2023.06)
