@<TRIPOS>MOLECULE
NONAME
54 57 1 0 0 
SMALL
USER_CHARGES


@<TRIPOS>ATOM
  1 O        2.4130     2.0820    -1.3730 O.3   1 <1>  -0.0190 
  2 N        3.4450     1.2970    -1.2970 N.2   1 <1>  -0.4100 
  3 C        1.8380     2.2440    -0.2110 C.2   1 <1>  -0.0400 
  4 C        3.5240     0.9270    -0.0690 C.2   1 <1>   0.1080 
  5 C        2.5120     1.5110     0.6880 C.2   1 <1>  -0.1500 
  6 C        0.6380     3.1620    -0.0850 C.3   1 <1>   0.0200 
  7 C        4.5780    -0.0170     0.4670 C.3   1 <1>  -0.0590 
  8 C        0.9160     4.5030    -0.7950 C.3   1 <1>  -0.0800 
  9 C       -0.1160     5.6120    -0.5960 C.3   1 <1>   0.2000 
 10 C        2.2470     5.1410    -0.3780 C.3   1 <1>   0.3430 
 11 O       -0.4500     5.7110     0.7530 O.3   1 <1>  -0.6800 
 12 C        0.6800     6.8580    -0.9910 C.3   1 <1>   0.3430 
 13 N        2.0750     6.6220    -0.4940 N.4   1 <1>  -0.9590 
 14 C        2.2820     7.2810     0.8250 C.3   1 <1>   0.4860 
 15 C        2.1970     8.7840     0.6420 C.ar  1 <1>  -0.1440 
 16 C        3.1950     9.4640    -0.0390 C.ar  1 <1>  -0.1500 
 17 C        1.1230     9.4920     1.1580 C.ar  1 <1>  -0.1500 
 18 C        3.1310    10.8390    -0.2110 C.ar  1 <1>  -0.1440 
 19 C        1.0460    10.8620     0.9890 C.ar  1 <1>  -0.1500 
 20 C        2.0480    11.5450     0.3040 C.ar  1 <1>   0.0820 
 21 C        4.2530    11.5590    -0.9610 C.3   1 <1>   0.2390 
 22 O        2.0230    12.8880     0.1110 O.3   1 <1>  -0.3620 
 23 N        5.5710    11.1850    -0.4130 N.pl3 1 <1>   0.3140 
 24 C        0.9840    13.6970     0.6210 C.3   1 <1>   0.0400 
 25 N        6.3630    10.2700    -0.9670 N.2   1 <1>  -0.7070 
 26 C        6.1620    11.6450     0.6930 C.2   1 <1>   0.0360 
 27 C        7.3770    10.2610    -0.1640 C.2   1 <1>   0.3660 
 28 N        7.3030    11.0890     0.8850 N.2   1 <1>  -0.5650 
 29 H        2.3500     1.3770     1.7420 H     1 <1>   0.1500 
 30 H       -0.2160     2.6850    -0.5330 H     1 <1>   0.0800 
 31 H        0.4330     3.3080     0.9600 H     1 <1>   0.0800 
 32 H        5.1140     0.4480     1.2740 H     1 <1>   0.0800 
 33 H        5.2750    -0.2720    -0.3110 H     1 <1>   0.0800 
 34 H        4.1140    -0.9180     0.8230 H     1 <1>   0.0800 
 35 H        0.9830     4.3050    -1.8510 H     1 <1>   0.0800 
 36 H       -1.0150     5.4900    -1.1780 H     1 <1>   0.0800 
 37 H        3.0480     4.7860    -1.0080 H     1 <1>   0.0800 
 38 H        2.4660     4.8740     0.6430 H     1 <1>   0.0800 
 39 H       -1.2110     5.1320     0.9740 H     1 <1>   0.4000 
 40 H        0.2380     7.7510    -0.5810 H     1 <1>   0.0800 
 41 H        0.6930     6.9370    -2.0660 H     1 <1>   0.0800 
 42 H        2.7510     7.0290    -1.1530 H     1 <1>   0.4500 
 43 H        1.5310     6.9520     1.5260 H     1 <1>   0.0800 
 44 H        3.2530     7.0260     1.2190 H     1 <1>   0.0800 
 45 H        4.0400     8.9230    -0.4350 H     1 <1>   0.1500 
 46 H        0.3380     8.9870     1.6970 H     1 <1>   0.1500 
 47 H        0.2010    11.3820     1.4010 H     1 <1>   0.1500 
 48 H        4.1580    12.6260    -0.8960 H     1 <1>   0.0800 
 49 H        4.2280    11.2840    -1.9990 H     1 <1>   0.0800 
 50 H        1.1910    14.7170     0.3500 H     1 <1>   0.0800 
 51 H        0.9600    13.6030     1.6920 H     1 <1>   0.0800 
 52 H        0.0510    13.3880     0.1840 H     1 <1>   0.0800 
 53 H        5.7170    12.3890     1.3290 H     1 <1>   0.1500 
 54 H        8.2420     9.6330    -0.3070 H     1 <1>   0.1500 
@<TRIPOS>BOND
  1   1   2  1   
  2   1   3  1   
  3   2   4  2   
  4   3   5  2   
  5   3   6  1   
  6   4   5  1   
  7   4   7  1   
  8   5  29  1   
  9   6   8  1   
 10   6  30  1   
 11   6  31  1   
 12   7  32  1   
 13   7  33  1   
 14   7  34  1   
 15   8   9  1   
 16   8  10  1   
 17   8  35  1   
 18   9  11  1   
 19   9  12  1   
 20   9  36  1   
 21  10  13  1   
 22  10  37  1   
 23  10  38  1   
 24  11  39  1   
 25  12  13  1   
 26  12  40  1   
 27  12  41  1   
 28  13  14  1   
 29  13  42  1   
 30  14  15  1   
 31  14  43  1   
 32  14  44  1   
 33  15  16  ar  
 34  15  17  ar  
 35  16  18  ar  
 36  16  45  1   
 37  17  19  ar  
 38  17  46  1   
 39  18  20  ar  
 40  18  21  1   
 41  19  20  ar  
 42  19  47  1   
 43  20  22  1   
 44  21  23  1   
 45  21  48  1   
 46  21  49  1   
 47  22  24  1   
 48  23  25  1   
 49  23  26  1   
 50  24  50  1   
 51  24  51  1   
 52  24  52  1   
 53  25  27  2   
 54  26  28  2   
 55  26  53  1   
 56  27  28  1   
 57  27  54  1   
@<TRIPOS>SUBSTRUCTURE
  1 ****  14 GROUP 4 **** **** 0

# MOE 2024.06 (io_trps.svl 2023.06)
