@<TRIPOS>MOLECULE
NONAME
50 51 1 0 0 
SMALL
USER_CHARGES


@<TRIPOS>ATOM
  1 O        1.5420     1.1900     2.4960 O.co2 1 <1>  -0.9000 
  2 C        1.4540     0.4440     1.5140 C.2   1 <1>   0.9060 
  3 O        0.9520    -0.6870     1.6000 O.co2 1 <1>  -0.9000 
  4 C        2.0700     0.8490     0.1730 C.3   1 <1>  -0.1060 
  5 C        3.2820    -0.1080     0.0490 C.3   1 <1>   0.2000 
  6 C        2.5660     2.3280     0.1490 C.3   1 <1>  -0.1600 
  7 C        1.0360     0.6560    -0.9770 C.3   1 <1>  -0.0160 
  8 O        2.8700    -1.3470    -0.4150 O.3   1 <1>  -0.6800 
  9 C        4.4130     0.4590    -0.8170 C.3   1 <1>   0.1400 
 10 C        3.9940     2.4770     0.6750 C.3   1 <1>   0.1400 
 11 C       -0.0450     1.7340    -1.0470 C.ar  1 <1>  -0.1440 
 12 N        4.9430     1.7420    -0.2300 N.am  1 <1>  -0.6600 
 13 C       -1.0280     1.8050    -0.0730 C.ar  1 <1>  -0.1500 
 14 C       -0.0600     2.6500    -2.0890 C.ar  1 <1>  -0.1500 
 15 C        6.2450     2.1130    -0.4740 C.2   1 <1>   0.5690 
 16 C       -2.0080     2.7810    -0.1330 C.ar  1 <1>  -0.1500 
 17 C       -1.0400     3.6260    -2.1530 C.ar  1 <1>  -0.1500 
 18 O        6.9450     1.4590    -1.2160 O.2   1 <1>  -0.5700 
 19 C        6.8600     3.3570     0.1990 C.3   1 <1>  -0.0190 
 20 C       -2.0150     3.6930    -1.1740 C.ar  1 <1>  -0.1500 
 21 C        8.1030     3.8710    -0.5740 C.3   1 <1>  -0.1600 
 22 C        7.1760     3.0590     1.6870 C.3   1 <1>  -0.1600 
 23 C        8.6730     5.2000    -0.0610 C.3   1 <1>  -0.2400 
 24 C        6.7930     4.2060     2.6340 C.3   1 <1>  -0.2400 
 25 H        3.6990    -0.2830     1.0280 H     1 <1>   0.0800 
 26 H        1.9010     2.9420     0.7320 H     1 <1>   0.0800 
 27 H        2.5530     2.7150    -0.8530 H     1 <1>   0.0800 
 28 H        1.5620     0.6310    -1.9130 H     1 <1>   0.0800 
 29 H        0.5450    -0.2970    -0.8770 H     1 <1>   0.0800 
 30 H        2.1190    -1.6130     0.1780 H     1 <1>   0.4000 
 31 H        4.0480     0.6520    -1.8090 H     1 <1>   0.0800 
 32 H        5.2060    -0.2670    -0.8730 H     1 <1>   0.0800 
 33 H        4.0540     2.0740     1.6730 H     1 <1>   0.0800 
 34 H        4.2290     3.5230     0.7190 H     1 <1>   0.0800 
 35 H       -1.0300     1.0990     0.7430 H     1 <1>   0.1500 
 36 H        0.6960     2.6070    -2.8530 H     1 <1>   0.1500 
 37 H       -2.7590     2.8250     0.6350 H     1 <1>   0.1500 
 38 H       -1.0410     4.3330    -2.9640 H     1 <1>   0.1500 
 39 H        6.1290     4.1400     0.1400 H     1 <1>   0.0800 
 40 H       -2.7760     4.4510    -1.2190 H     1 <1>   0.1500 
 41 H        8.8770     3.1220    -0.5470 H     1 <1>   0.0800 
 42 H        7.8260     4.0000    -1.6070 H     1 <1>   0.0800 
 43 H        6.6300     2.1850     2.0010 H     1 <1>   0.0800 
 44 H        8.2200     2.8230     1.8000 H     1 <1>   0.0800 
 45 H        9.1040     5.0780     0.9160 H     1 <1>   0.0800 
 46 H        7.9040     5.9510    -0.0190 H     1 <1>   0.0800 
 47 H        9.4480     5.5420    -0.7250 H     1 <1>   0.0800 
 48 H        5.7340     4.3920     2.5860 H     1 <1>   0.0800 
 49 H        7.3120     5.1120     2.3850 H     1 <1>   0.0800 
 50 H        7.0410     3.9400     3.6460 H     1 <1>   0.0800 
@<TRIPOS>BOND
  1   1   2  ar  
  2   2   3  ar  
  3   2   4  1   
  4   4   5  1   
  5   4   6  1   
  6   4   7  1   
  7   5   8  1   
  8   5   9  1   
  9   5  25  1   
 10   6  10  1   
 11   6  26  1   
 12   6  27  1   
 13   7  11  1   
 14   7  28  1   
 15   7  29  1   
 16   8  30  1   
 17   9  12  1   
 18   9  31  1   
 19   9  32  1   
 20  10  12  1   
 21  10  33  1   
 22  10  34  1   
 23  11  13  ar  
 24  11  14  ar  
 25  12  15  am  
 26  13  16  ar  
 27  13  35  1   
 28  14  17  ar  
 29  14  36  1   
 30  15  18  2   
 31  15  19  1   
 32  16  20  ar  
 33  16  37  1   
 34  17  20  ar  
 35  17  38  1   
 36  19  21  1   
 37  19  22  1   
 38  19  39  1   
 39  20  40  1   
 40  21  23  1   
 41  21  41  1   
 42  21  42  1   
 43  22  24  1   
 44  22  43  1   
 45  22  44  1   
 46  23  45  1   
 47  23  46  1   
 48  23  47  1   
 49  24  48  1   
 50  24  49  1   
 51  24  50  1   
@<TRIPOS>SUBSTRUCTURE
  1 ****   6 GROUP 4 **** **** 0

# MOE 2024.06 (io_trps.svl 2023.06)
