@<TRIPOS>MOLECULE
NONAME
44 46 1 0 0 
SMALL
USER_CHARGES


@<TRIPOS>ATOM
  1 S       -0.1890    -0.0780    -0.4310 S.3   1 <1>  -0.0800 
  2 C       -1.5010    -1.0120     0.2640 C.2   1 <1>  -0.1400 
  3 C       -0.8610     1.4240     0.1750 C.2   1 <1>  -0.1400 
  4 C       -2.3630    -0.1980     0.9070 C.2   1 <1>  -0.1500 
  5 C       -1.4270    -2.5050     0.0250 C.3   1 <1>   0.5230 
  6 C       -1.9990     1.1840     0.8540 C.2   1 <1>  -0.1500 
  7 C       -0.0860     2.6910    -0.1470 C.3   1 <1>   0.0200 
  8 N       -2.7670    -3.1120     0.2240 N.4   1 <1>  -0.9590 
  9 C       -0.7550     3.9420     0.4270 C.3   1 <1>  -0.2400 
 10 C       -3.8030    -2.6500    -0.7410 C.3   1 <1>   0.3430 
 11 C       -2.8030    -4.6020     0.1940 C.3   1 <1>   0.3430 
 12 C       -4.9200    -3.6790    -0.5760 C.3   1 <1>   0.2000 
 13 C       -4.1340    -4.9910    -0.4690 C.3   1 <1>  -0.0800 
 14 O       -5.5580    -3.4120     0.6320 O.3   1 <1>  -0.6800 
 15 C       -4.8400    -6.1610     0.2440 C.3   1 <1>  -0.0170 
 16 C       -3.8960    -7.3470     0.3580 C.ar  1 <1>  -0.1430 
 17 C       -3.3260    -7.7120     1.5620 C.ar  1 <1>  -0.1500 
 18 C       -3.5550    -8.1160    -0.7370 C.ar  1 <1>  -0.1500 
 19 C       -2.4500    -8.7840     1.6070 C.ar  1 <1>   0.1600 
 20 C       -2.6670    -9.1680    -0.5840 C.ar  1 <1>   0.1600 
 21 N       -2.1000    -9.5100     0.5600 N.ar  1 <1>  -0.6200 
 22 H       -3.2560    -0.4870     1.4340 H     1 <1>   0.1500 
 23 H       -0.7130    -2.9370     0.7080 H     1 <1>   0.0800 
 24 H       -1.0900    -2.6890    -0.9820 H     1 <1>   0.0800 
 25 H       -2.6090     1.9320     1.3310 H     1 <1>   0.1500 
 26 H        0.9090     2.6040     0.2550 H     1 <1>   0.0800 
 27 H       -0.0040     2.7890    -1.2150 H     1 <1>   0.0800 
 28 H       -3.1190    -2.8210     1.1480 H     1 <1>   0.4500 
 29 H       -0.8250     3.8700     1.4980 H     1 <1>   0.0800 
 30 H       -1.7430     4.0580     0.0190 H     1 <1>   0.0800 
 31 H       -0.1770     4.8150     0.1790 H     1 <1>   0.0800 
 32 H       -4.1510    -1.6530    -0.5210 H     1 <1>   0.0800 
 33 H       -3.4180    -2.6850    -1.7470 H     1 <1>   0.0800 
 34 H       -1.9810    -5.0020    -0.3780 H     1 <1>   0.0800 
 35 H       -2.7520    -4.9930     1.1970 H     1 <1>   0.0800 
 36 H       -5.6400    -3.6530    -1.3770 H     1 <1>   0.0800 
 37 H       -3.8990    -5.3110    -1.4690 H     1 <1>   0.0800 
 38 H       -6.4300    -3.8590     0.6810 H     1 <1>   0.4000 
 39 H       -5.7160    -6.4550    -0.3100 H     1 <1>   0.0800 
 40 H       -5.1590    -5.8720     1.2300 H     1 <1>   0.0800 
 41 H       -3.5530    -7.1840     2.4710 H     1 <1>   0.1500 
 42 H       -3.9690    -7.9160    -1.7080 H     1 <1>   0.1500 
 43 H       -2.0150    -9.0600     2.5530 H     1 <1>   0.1500 
 44 H       -2.4110    -9.7600    -1.4470 H     1 <1>   0.1500 
@<TRIPOS>BOND
  1   1   2  1   
  2   1   3  1   
  3   2   4  2   
  4   2   5  1   
  5   3   6  2   
  6   3   7  1   
  7   4   6  1   
  8   4  22  1   
  9   5   8  1   
 10   5  23  1   
 11   5  24  1   
 12   6  25  1   
 13   7   9  1   
 14   7  26  1   
 15   7  27  1   
 16   8  10  1   
 17   8  11  1   
 18   8  28  1   
 19   9  29  1   
 20   9  30  1   
 21   9  31  1   
 22  10  12  1   
 23  10  32  1   
 24  10  33  1   
 25  11  13  1   
 26  11  34  1   
 27  11  35  1   
 28  12  13  1   
 29  12  14  1   
 30  12  36  1   
 31  13  15  1   
 32  13  37  1   
 33  14  38  1   
 34  15  16  1   
 35  15  39  1   
 36  15  40  1   
 37  16  17  ar  
 38  16  18  ar  
 39  17  19  ar  
 40  17  41  1   
 41  18  20  ar  
 42  18  42  1   
 43  19  21  ar  
 44  19  43  1   
 45  20  21  ar  
 46  20  44  1   
@<TRIPOS>SUBSTRUCTURE
  1 ****   8 GROUP 4 **** **** 0

# MOE 2024.06 (io_trps.svl 2023.06)
