@<TRIPOS>MOLECULE
NONAME
57 59 1 0 0 
SMALL
USER_CHARGES


@<TRIPOS>ATOM
  1 O       -1.4340     6.4830     2.9010 O.2   1 <1>  -0.5700 
  2 C       -1.8130     5.9600     1.8780 C.2   1 <1>   0.5690 
  3 N       -2.9860     5.2310     1.8390 N.am  1 <1>  -0.6600 
  4 C       -0.9340     6.1730     0.6470 C.3   1 <1>   0.0440 
  5 C       -3.5020     4.5840     0.5930 C.3   1 <1>   0.2200 
  6 C       -3.7700     5.0470     3.1000 C.3   1 <1>   0.0600 
  7 C       -0.3640     4.8830     0.0630 C.ar  1 <1>  -0.1440 
  8 C       -4.9990     4.7570     0.3510 C.3   1 <1>  -0.1600 
  9 C       -3.3100     3.0720     0.5860 C.3   1 <1>  -0.1600 
 10 C        0.2530     3.9570     0.8880 C.ar  1 <1>  -0.1500 
 11 C       -0.4590     4.6200    -1.2930 C.ar  1 <1>  -0.1500 
 12 C       -5.3470     3.6540    -0.6610 C.3   1 <1>  -0.0800 
 13 C       -4.2620     2.5740    -0.5100 C.3   1 <1>  -0.0800 
 14 C        0.7580     2.7700     0.3780 C.ar  1 <1>  -0.1430 
 15 C        0.0420     3.4400    -1.8100 C.ar  1 <1>  -0.1500 
 16 C       -6.6910     2.9640    -0.3930 C.3   1 <1>  -0.1600 
 17 C       -4.9840     1.2690    -0.1550 C.3   1 <1>  -0.1600 
 18 C        0.6500     2.5080    -0.9830 C.ar  1 <1>  -0.1430 
 19 C        1.4220     1.7850     1.3290 C.3   1 <1>  -0.0970 
 20 C       -6.3260     1.7180     0.4140 C.3   1 <1>   0.4230 
 21 C        1.1900     1.2210    -1.5900 C.3   1 <1>  -0.0970 
 22 N       -7.3590     0.6350     0.3970 N.4   1 <1>  -0.9590 
 23 C       -7.7530     0.1420    -0.9650 C.3   1 <1>   0.2630 
 24 C       -8.5750     1.0520     1.1610 C.3   1 <1>   0.2630 
 25 H       -1.5050     6.7040    -0.0900 H     1 <1>   0.0800 
 26 H       -0.1100     6.8060     0.9230 H     1 <1>   0.0800 
 27 H       -3.0000     4.9850    -0.2690 H     1 <1>   0.0800 
 28 H       -4.1790     4.0550     3.1550 H     1 <1>   0.0800 
 29 H       -4.5680     5.7670     3.1350 H     1 <1>   0.0800 
 30 H       -3.1430     5.1940     3.9640 H     1 <1>   0.0800 
 31 H       -5.5520     4.6060     1.2590 H     1 <1>   0.0800 
 32 H       -5.2170     5.7350    -0.0400 H     1 <1>   0.0800 
 33 H       -2.2910     2.8080     0.3620 H     1 <1>   0.0800 
 34 H       -3.5770     2.6620     1.5410 H     1 <1>   0.0800 
 35 H        0.3360     4.1640     1.9410 H     1 <1>   0.1500 
 36 H       -0.9220     5.3290    -1.9570 H     1 <1>   0.1500 
 37 H       -5.3220     4.0650    -1.6590 H     1 <1>   0.0800 
 38 H       -3.7130     2.4680    -1.4320 H     1 <1>   0.0800 
 39 H       -0.0410     3.2530    -2.8660 H     1 <1>   0.1500 
 40 H       -7.1180     2.6990    -1.3420 H     1 <1>   0.0800 
 41 H       -7.3720     3.6060     0.1370 H     1 <1>   0.0800 
 42 H       -4.4230     0.6800     0.5500 H     1 <1>   0.0800 
 43 H       -5.1130     0.7080    -1.0610 H     1 <1>   0.0800 
 44 H        1.4160     2.1580     2.3370 H     1 <1>   0.0800 
 45 H        2.4440     1.6240     1.0370 H     1 <1>   0.0800 
 46 H        0.8990     0.8470     1.3130 H     1 <1>   0.0800 
 47 H       -6.1540     2.0280     1.4330 H     1 <1>   0.0800 
 48 H        1.0120     1.1880    -2.6490 H     1 <1>   0.0800 
 49 H        0.7110     0.3710    -1.1400 H     1 <1>   0.0800 
 50 H        2.2510     1.1550    -1.4250 H     1 <1>   0.0800 
 51 H       -6.9360    -0.1610     0.8980 H     1 <1>   0.4500 
 52 H       -8.2220     0.9300    -1.5310 H     1 <1>   0.0800 
 53 H       -8.4500    -0.6750    -0.8770 H     1 <1>   0.0800 
 54 H       -6.8900    -0.2060    -1.5080 H     1 <1>   0.0800 
 55 H       -9.0580     1.8820     0.6720 H     1 <1>   0.0800 
 56 H       -8.3060     1.3510     2.1620 H     1 <1>   0.0800 
 57 H       -9.2760     0.2350     1.2250 H     1 <1>   0.0800 
@<TRIPOS>BOND
  1   1   2  2   
  2   2   3  am  
  3   2   4  1   
  4   3   5  1   
  5   3   6  1   
  6   4   7  1   
  7   4  25  1   
  8   4  26  1   
  9   5   8  1   
 10   5   9  1   
 11   5  27  1   
 12   6  28  1   
 13   6  29  1   
 14   6  30  1   
 15   7  10  ar  
 16   7  11  ar  
 17   8  12  1   
 18   8  31  1   
 19   8  32  1   
 20   9  13  1   
 21   9  33  1   
 22   9  34  1   
 23  10  14  ar  
 24  10  35  1   
 25  11  15  ar  
 26  11  36  1   
 27  12  13  1   
 28  12  16  1   
 29  12  37  1   
 30  13  17  1   
 31  13  38  1   
 32  14  18  ar  
 33  14  19  1   
 34  15  18  ar  
 35  15  39  1   
 36  16  20  1   
 37  16  40  1   
 38  16  41  1   
 39  17  20  1   
 40  17  42  1   
 41  17  43  1   
 42  18  21  1   
 43  19  44  1   
 44  19  45  1   
 45  19  46  1   
 46  20  22  1   
 47  20  47  1   
 48  21  48  1   
 49  21  49  1   
 50  21  50  1   
 51  22  23  1   
 52  22  24  1   
 53  22  51  1   
 54  23  52  1   
 55  23  53  1   
 56  23  54  1   
 57  24  55  1   
 58  24  56  1   
 59  24  57  1   
@<TRIPOS>SUBSTRUCTURE
  1 ****   9 GROUP 4 **** **** 0

# MOE 2024.06 (io_trps.svl 2023.06)
