@<TRIPOS>MOLECULE
NONAME
24 25 1 0 0 
SMALL
USER_CHARGES


@<TRIPOS>ATOM
  1 BR       0.2330    -0.8110     0.8740 Br    1 <1>  -0.1110 
  2 C       -1.5850    -1.2000     0.3640 C.ar  1 <1>   0.1110 
  3 C       -2.5890    -0.3440     0.7840 C.ar  1 <1>  -0.1500 
  4 C       -1.8320    -2.3250    -0.4080 C.ar  1 <1>  -0.1500 
  5 C       -3.8820    -0.6500     0.4030 C.ar  1 <1>  -0.1440 
  6 C       -3.1380    -2.6090    -0.7780 C.ar  1 <1>  -0.1500 
  7 C       -4.1570    -1.7600    -0.3650 C.ar  1 <1>   0.1000 
  8 C       -5.1680     0.0740     0.7060 C.3   1 <1>  -0.0160 
  9 N       -5.5030    -1.9000    -0.6310 N.pl3 1 <1>  -0.8690 
 10 C       -6.2450    -0.8690     0.1140 C.3   1 <1>   0.3690 
 11 C       -7.0470    -1.5790     1.2030 C.3   1 <1>  -0.2400 
 12 C       -7.1690    -0.1540    -0.8680 C.3   1 <1>  -0.2400 
 13 H       -2.3640     0.5200     1.3820 H     1 <1>   0.1500 
 14 H       -1.0200    -2.9610    -0.7130 H     1 <1>   0.1500 
 15 H       -3.3730    -3.4670    -1.3790 H     1 <1>   0.1500 
 16 H       -5.1730     1.0290     0.2150 H     1 <1>   0.0800 
 17 H       -5.2960     0.2170     1.7630 H     1 <1>   0.0800 
 18 H       -5.8730    -2.8390    -0.4690 H     1 <1>   0.4000 
 19 H       -6.3860    -2.1130     1.8630 H     1 <1>   0.0800 
 20 H       -7.7460    -2.2690     0.7670 H     1 <1>   0.0800 
 21 H       -7.5970    -0.8600     1.7810 H     1 <1>   0.0800 
 22 H       -6.5910     0.2840    -1.6620 H     1 <1>   0.0800 
 23 H       -7.7150     0.6230    -0.3680 H     1 <1>   0.0800 
 24 H       -7.8690    -0.8490    -1.2940 H     1 <1>   0.0800 
@<TRIPOS>BOND
  1   1   2  1   
  2   2   3  ar  
  3   2   4  ar  
  4   3   5  ar  
  5   3  13  1   
  6   4   6  ar  
  7   4  14  1   
  8   5   7  ar  
  9   5   8  1   
 10   6   7  ar  
 11   6  15  1   
 12   7   9  1   
 13   8  10  1   
 14   8  16  1   
 15   8  17  1   
 16   9  10  1   
 17   9  18  1   
 18  10  11  1   
 19  10  12  1   
 20  11  19  1   
 21  11  20  1   
 22  11  21  1   
 23  12  22  1   
 24  12  23  1   
 25  12  24  1   
@<TRIPOS>SUBSTRUCTURE
  1 ****   5 GROUP 4 **** **** 0

# MOE 2024.06 (io_trps.svl 2023.06)
