@<TRIPOS>MOLECULE
NONAME
45 47 1 0 0 
SMALL
USER_CHARGES


@<TRIPOS>ATOM
  1 S        1.3600    -2.4250     1.3030 S.3   1 <1>  -0.1930 
  2 C       -0.1430    -2.3900     0.4270 C.cat 1 <1>   0.8920 
  3 C        0.6270    -3.4970     2.5170 C.2   1 <1>  -0.0490 
  4 N       -0.5690    -1.7740    -0.6540 N.pl3 1 <1>  -0.7000 
  5 N       -1.0690    -3.1400     0.9870 N.pl3 1 <1>  -0.6290 
  6 C       -0.6510    -3.7600     2.1900 C.2   1 <1>   0.2290 
  7 C       -1.8860    -2.1300    -0.7940 C.2   1 <1>   0.1820 
  8 C       -2.2230    -3.0010     0.2110 C.2   1 <1>   0.2770 
  9 C       -2.7120    -1.5310    -1.9200 C.3   1 <1>  -0.0720 
 10 C       -3.4880    -3.6640     0.5040 C.2   1 <1>   0.7030 
 11 O       -3.8170    -3.8330     1.6640 O.2   1 <1>  -0.5700 
 12 N       -4.3480    -4.1470    -0.4610 N.am  1 <1>  -0.6600 
 13 C       -3.8730    -4.7630    -1.7360 C.3   1 <1>   0.3200 
 14 C       -5.8220    -4.2620    -0.1700 C.3   1 <1>   0.1400 
 15 C       -4.4020    -6.1780    -1.8070 C.2   1 <1>  -0.3320 
 16 C       -6.1370    -5.4450     0.7750 C.3   1 <1>   0.3430 
 17 N       -3.8660    -7.2450    -1.1750 N.pl3 1 <1>   0.0330 
 18 C       -5.4860    -6.6350    -2.4710 C.2   1 <1>   0.0770 
 19 N       -7.5960    -5.7980     0.8260 N.4   1 <1>  -0.9590 
 20 C       -4.6950    -8.2700    -1.4630 C.2   1 <1>   0.0360 
 21 N       -5.6910    -7.9370    -2.2170 N.2   1 <1>  -0.5650 
 22 C       -7.8800    -6.6150     2.0470 C.3   1 <1>   0.2630 
 23 C       -8.0170    -6.5640    -0.3940 C.3   1 <1>   0.2630 
 24 H        1.2440    -3.8020     3.3450 H     1 <1>   0.1500 
 25 H       -0.0070    -1.1320    -1.2210 H     1 <1>   0.4500 
 26 H       -1.3500    -4.3690     2.7450 H     1 <1>   0.1500 
 27 H       -2.6310    -0.4580    -1.9000 H     1 <1>   0.0800 
 28 H       -3.7510    -1.7850    -1.8200 H     1 <1>   0.0800 
 29 H       -2.3560    -1.8830    -2.8720 H     1 <1>   0.0800 
 30 H       -2.7980    -4.7710    -1.7940 H     1 <1>   0.0800 
 31 H       -4.2550    -4.1950    -2.5690 H     1 <1>   0.0800 
 32 H       -6.3570    -4.3750    -1.0960 H     1 <1>   0.0800 
 33 H       -6.1550    -3.3510     0.2970 H     1 <1>   0.0800 
 34 H       -5.7980    -5.1810     1.7640 H     1 <1>   0.0800 
 35 H       -5.5840    -6.3110     0.4530 H     1 <1>   0.0800 
 36 H       -3.0100    -7.3040    -0.6130 H     1 <1>   0.2700 
 37 H       -6.1530    -6.0880    -3.1200 H     1 <1>   0.1500 
 38 H       -8.1530    -4.9320     0.8910 H     1 <1>   0.4500 
 39 H       -4.5230    -9.2690    -1.0940 H     1 <1>   0.1500 
 40 H       -7.3220    -7.5370     2.0180 H     1 <1>   0.0800 
 41 H       -8.9310    -6.8500     2.1030 H     1 <1>   0.0800 
 42 H       -7.6030    -6.0710     2.9360 H     1 <1>   0.0800 
 43 H       -7.4440    -7.4740    -0.4830 H     1 <1>   0.0800 
 44 H       -7.8620    -5.9790    -1.2840 H     1 <1>   0.0800 
 45 H       -9.0620    -6.8230    -0.3340 H     1 <1>   0.0800 
@<TRIPOS>BOND
  1   1   2  1   
  2   1   3  1   
  3   2   4  ar  
  4   2   5  ar  
  5   3   6  2   
  6   3  24  1   
  7   4   7  1   
  8   4  25  1   
  9   5   6  1   
 10   5   8  1   
 11   6  26  1   
 12   7   8  2   
 13   7   9  1   
 14   8  10  1   
 15   9  27  1   
 16   9  28  1   
 17   9  29  1   
 18  10  11  2   
 19  10  12  am  
 20  12  13  1   
 21  12  14  1   
 22  13  15  1   
 23  13  30  1   
 24  13  31  1   
 25  14  16  1   
 26  14  32  1   
 27  14  33  1   
 28  15  17  1   
 29  15  18  2   
 30  16  19  1   
 31  16  34  1   
 32  16  35  1   
 33  17  20  1   
 34  17  36  1   
 35  18  21  1   
 36  18  37  1   
 37  19  22  1   
 38  19  23  1   
 39  19  38  1   
 40  20  21  2   
 41  20  39  1   
 42  22  40  1   
 43  22  41  1   
 44  22  42  1   
 45  23  43  1   
 46  23  44  1   
 47  23  45  1   
@<TRIPOS>SUBSTRUCTURE
  1 ****  12 GROUP 4 **** **** 0

# MOE 2024.06 (io_trps.svl 2023.06)
