@<TRIPOS>MOLECULE
NONAME
46 48 1 0 0 
SMALL
USER_CHARGES


@<TRIPOS>ATOM
  1 CL      -3.0170    -0.3940     3.1060 Cl    1 <1>  -0.1770 
  2 C       -2.8110     0.5860     1.6720 C.ar  1 <1>   0.1770 
  3 C       -2.6520    -0.0060     0.4250 C.ar  1 <1>  -0.1440 
  4 C       -2.8200     1.9610     1.8230 C.ar  1 <1>  -0.1500 
  5 C       -2.5010     0.8190    -0.6810 C.ar  1 <1>  -0.1500 
  6 C       -2.6450    -1.5190     0.2410 C.3   1 <1>  -0.0160 
  7 C       -2.6690     2.7710     0.7120 C.ar  1 <1>  -0.1500 
  8 C       -2.5100     2.1970    -0.5390 C.ar  1 <1>  -0.1500 
  9 C       -4.0820    -2.0590     0.1850 C.3   1 <1>  -0.0990 
 10 C       -4.1780    -3.5540    -0.0950 C.2   1 <1>   0.5690 
 11 O       -3.1510    -4.1910    -0.1350 O.2   1 <1>  -0.5700 
 12 N       -5.4020    -4.1470    -0.3040 N.am  1 <1>  -0.6600 
 13 C       -6.7000    -3.4150    -0.1720 C.3   1 <1>   0.2200 
 14 C       -5.4590    -5.5940    -0.6840 C.3   1 <1>   0.0600 
 15 C       -7.8040    -4.1790     0.5600 C.3   1 <1>  -0.1600 
 16 C       -7.3130    -3.0690    -1.5250 C.3   1 <1>  -0.1600 
 17 C       -9.0990    -3.4850     0.1200 C.3   1 <1>  -0.0800 
 18 C       -8.7900    -2.7880    -1.2170 C.3   1 <1>  -0.0800 
 19 C       -9.5640    -2.3860     1.0860 C.3   1 <1>  -0.1600 
 20 C       -9.0960    -1.2970    -1.0100 C.3   1 <1>  -0.1600 
 21 C      -10.0400    -1.2600     0.1810 C.3   1 <1>   0.2000 
 22 O       -9.9390    -0.0510     0.8320 O.3   1 <1>  -0.6800 
 23 H       -2.9450     2.3880     2.8020 H     1 <1>   0.1500 
 24 H       -2.3760     0.3920    -1.6610 H     1 <1>   0.1500 
 25 H       -2.1330    -1.7710    -0.6720 H     1 <1>   0.0800 
 26 H       -2.1080    -1.9900     1.0460 H     1 <1>   0.0800 
 27 H       -2.6740     3.8420     0.8180 H     1 <1>   0.1500 
 28 H       -2.3910     2.8260    -1.4050 H     1 <1>   0.1500 
 29 H       -4.6130    -1.5340    -0.5870 H     1 <1>   0.0800 
 30 H       -4.5590    -1.8600     1.1260 H     1 <1>   0.0800 
 31 H       -6.5560    -2.4970     0.3670 H     1 <1>   0.0800 
 32 H       -6.2240    -5.7630    -1.4200 H     1 <1>   0.0800 
 33 H       -5.6660    -6.1870     0.1890 H     1 <1>   0.0800 
 34 H       -4.5200    -5.9160    -1.1000 H     1 <1>   0.0800 
 35 H       -7.8520    -5.2000     0.2310 H     1 <1>   0.0800 
 36 H       -7.6640    -4.1570     1.6260 H     1 <1>   0.0800 
 37 H       -6.8200    -2.2320    -1.9850 H     1 <1>   0.0800 
 38 H       -7.2530    -3.9160    -2.1840 H     1 <1>   0.0800 
 39 H       -9.8900    -4.2060    -0.0120 H     1 <1>   0.0800 
 40 H       -9.4210    -3.1820    -1.9970 H     1 <1>   0.0800 
 41 H       -8.7390    -2.0450     1.6880 H     1 <1>   0.0800 
 42 H      -10.3570    -2.7330     1.7240 H     1 <1>   0.0800 
 43 H       -9.5550    -0.8660    -1.8820 H     1 <1>   0.0800 
 44 H       -8.1940    -0.7590    -0.7750 H     1 <1>   0.0800 
 45 H      -11.0610    -1.4120    -0.1260 H     1 <1>   0.0800 
 46 H       -9.0200     0.0970     1.1220 H     1 <1>   0.4000 
@<TRIPOS>BOND
  1   1   2  1   
  2   2   3  ar  
  3   2   4  ar  
  4   3   5  ar  
  5   3   6  1   
  6   4   7  ar  
  7   4  23  1   
  8   5   8  ar  
  9   5  24  1   
 10   6   9  1   
 11   6  25  1   
 12   6  26  1   
 13   7   8  ar  
 14   7  27  1   
 15   8  28  1   
 16   9  10  1   
 17   9  29  1   
 18   9  30  1   
 19  10  11  2   
 20  10  12  am  
 21  12  13  1   
 22  12  14  1   
 23  13  15  1   
 24  13  16  1   
 25  13  31  1   
 26  14  32  1   
 27  14  33  1   
 28  14  34  1   
 29  15  17  1   
 30  15  35  1   
 31  15  36  1   
 32  16  18  1   
 33  16  37  1   
 34  16  38  1   
 35  17  18  1   
 36  17  19  1   
 37  17  39  1   
 38  18  20  1   
 39  18  40  1   
 40  19  21  1   
 41  19  41  1   
 42  19  42  1   
 43  20  21  1   
 44  20  43  1   
 45  20  44  1   
 46  21  22  1   
 47  21  45  1   
 48  22  46  1   
@<TRIPOS>SUBSTRUCTURE
  1 ****   9 GROUP 4 **** **** 0

# MOE 2024.06 (io_trps.svl 2023.06)
