@<TRIPOS>MOLECULE
NONAME
57 59 1 0 0 
SMALL
USER_CHARGES


@<TRIPOS>ATOM
  1 O       -0.1250     0.5980     0.7050 O.3   1 <1>  -0.0190 
  2 N       -0.3950    -0.6710     0.6760 N.2   1 <1>  -0.4100 
  3 C       -1.2300     1.1670     0.2940 C.2   1 <1>   0.2980 
  4 C       -1.5990    -0.7920     0.2730 C.2   1 <1>   0.3350 
  5 N       -2.1810     0.3720    -0.0020 N.2   1 <1>  -0.5650 
  6 C       -1.2840     2.6880     0.2140 C.3   1 <1>   0.2900 
  7 C       -2.3220    -2.1230     0.0850 C.3   1 <1>   0.3010 
  8 N       -0.3160     3.2590    -0.7650 N.3   1 <1>  -0.8100 
  9 O       -3.2520    -2.3460     1.1110 O.3   1 <1>  -0.5600 
 10 C       -0.1360     4.7220    -0.6380 C.3   1 <1>   0.1100 
 11 C       -0.6500     2.8400    -2.1390 C.3   1 <1>   0.0300 
 12 C       -3.9610    -3.5350     0.9900 C.3   1 <1>   0.0400 
 13 C        1.3190     5.2490    -0.3350 C.3   1 <1>   0.5030 
 14 N        1.3270     6.7510    -0.5960 N.4   1 <1>  -0.9590 
 15 C        2.3530     4.5920    -1.3000 C.3   1 <1>  -0.1600 
 16 C        1.6990     4.9940     1.1510 C.3   1 <1>  -0.1600 
 17 C        2.6350     7.4540    -0.3500 C.3   1 <1>   0.3430 
 18 C        0.2360     7.5000     0.1140 C.3   1 <1>   0.3430 
 19 C        2.8300     3.1770    -0.9180 C.3   1 <1>  -0.1600 
 20 C        2.1320     3.5540     1.4700 C.3   1 <1>  -0.1600 
 21 C        2.5880     8.8690    -0.9270 C.3   1 <1>  -0.1600 
 22 C        0.1230     8.9220    -0.4400 C.3   1 <1>  -0.1600 
 23 C        3.2640     3.1020     0.5470 C.3   1 <1>  -0.1600 
 24 C        1.4440     9.6870    -0.3200 C.3   1 <1>  -0.1600 
 25 H       -1.0700     3.0690     1.1960 H     1 <1>   0.0800 
 26 H       -2.2840     2.9850    -0.0490 H     1 <1>   0.0800 
 27 H       -1.6040    -2.9240     0.0970 H     1 <1>   0.0800 
 28 H       -2.8420    -2.1150    -0.8560 H     1 <1>   0.0800 
 29 H       -0.7910     5.0680     0.1420 H     1 <1>   0.0800 
 30 H       -0.4710     5.1800    -1.5530 H     1 <1>   0.0800 
 31 H       -0.6410     1.7640    -2.2130 H     1 <1>   0.0800 
 32 H        0.0770     3.2210    -2.8350 H     1 <1>   0.0800 
 33 H       -1.6270     3.1960    -2.4190 H     1 <1>   0.0800 
 34 H       -4.6390    -3.6050     1.8230 H     1 <1>   0.0800 
 35 H       -3.2750    -4.3640     1.0120 H     1 <1>   0.0800 
 36 H       -4.5200    -3.5260     0.0700 H     1 <1>   0.0800 
 37 H        1.1470     6.8510    -1.6000 H     1 <1>   0.4500 
 38 H        3.2520     5.1680    -1.3560 H     1 <1>   0.0800 
 39 H        1.9430     4.5550    -2.2930 H     1 <1>   0.0800 
 40 H        0.8730     5.2460     1.7900 H     1 <1>   0.0800 
 41 H        2.5280     5.6120     1.4360 H     1 <1>   0.0800 
 42 H        3.4560     6.9320    -0.8060 H     1 <1>   0.0800 
 43 H        2.8260     7.5130     0.7090 H     1 <1>   0.0800 
 44 H        0.4500     7.5400     1.1700 H     1 <1>   0.0800 
 45 H       -0.7140     7.0130    -0.0200 H     1 <1>   0.0800 
 46 H        3.6590     2.8970    -1.5460 H     1 <1>   0.0800 
 47 H        2.0560     2.4510    -1.0890 H     1 <1>   0.0800 
 48 H        1.3030     2.8780     1.3670 H     1 <1>   0.0800 
 49 H        2.4640     3.4950     2.4930 H     1 <1>   0.0800 
 50 H        2.4800     8.8180    -1.9970 H     1 <1>   0.0800 
 51 H        3.5220     9.3630    -0.7230 H     1 <1>   0.0800 
 52 H       -0.6420     9.4510     0.1020 H     1 <1>   0.0800 
 53 H       -0.1860     8.8820    -1.4710 H     1 <1>   0.0800 
 54 H        4.1350     3.7160     0.7040 H     1 <1>   0.0800 
 55 H        3.5330     2.0860     0.7850 H     1 <1>   0.0800 
 56 H        1.3660    10.6390    -0.8200 H     1 <1>   0.0800 
 57 H        1.6540     9.8810     0.7200 H     1 <1>   0.0800 
@<TRIPOS>BOND
  1   1   2  1   
  2   1   3  1   
  3   2   4  2   
  4   3   5  2   
  5   3   6  1   
  6   4   5  1   
  7   4   7  1   
  8   6   8  1   
  9   6  25  1   
 10   6  26  1   
 11   7   9  1   
 12   7  27  1   
 13   7  28  1   
 14   8  10  1   
 15   8  11  1   
 16   9  12  1   
 17  10  13  1   
 18  10  29  1   
 19  10  30  1   
 20  11  31  1   
 21  11  32  1   
 22  11  33  1   
 23  12  34  1   
 24  12  35  1   
 25  12  36  1   
 26  13  14  1   
 27  13  15  1   
 28  13  16  1   
 29  14  17  1   
 30  14  18  1   
 31  14  37  1   
 32  15  19  1   
 33  15  38  1   
 34  15  39  1   
 35  16  20  1   
 36  16  40  1   
 37  16  41  1   
 38  17  21  1   
 39  17  42  1   
 40  17  43  1   
 41  18  22  1   
 42  18  44  1   
 43  18  45  1   
 44  19  23  1   
 45  19  46  1   
 46  19  47  1   
 47  20  23  1   
 48  20  48  1   
 49  20  49  1   
 50  21  24  1   
 51  21  50  1   
 52  21  51  1   
 53  22  24  1   
 54  22  52  1   
 55  22  53  1   
 56  23  54  1   
 57  23  55  1   
 58  24  56  1   
 59  24  57  1   
@<TRIPOS>SUBSTRUCTURE
  1 ****   8 GROUP 4 **** **** 0

# MOE 2024.06 (io_trps.svl 2023.06)
