@<TRIPOS>MOLECULE
NONAME
40 43 1 0 0 
SMALL
USER_CHARGES


@<TRIPOS>ATOM
  1 S       -0.8250     0.7480    -2.6040 S.3   1 <1>  -0.0800 
  2 C       -1.2770     1.1440    -0.9530 C.2   1 <1>  -0.1400 
  3 C       -2.1900    -0.3540    -2.7470 C.2   1 <1>  -0.1100 
  4 C       -2.3840     0.4800    -0.5930 C.2   1 <1>  -0.1810 
  5 C       -0.4860     2.1220    -0.0880 C.3   1 <1>   0.4600 
  6 C       -2.9080    -0.3810    -1.6080 C.2   1 <1>  -0.1500 
  7 C       -2.9630     0.6840     0.7900 C.3   1 <1>   0.0210 
  8 O       -0.9950     2.0440     1.2310 O.3   1 <1>  -0.5600 
  9 C        0.9910     1.7230    -0.0030 C.3   1 <1>  -0.1600 
 10 C       -0.6150     3.5600    -0.6110 C.3   1 <1>  -0.1600 
 11 C       -2.3900     1.9800     1.3970 C.3   1 <1>   0.1200 
 12 C        1.7960     2.7230     0.8290 C.3   1 <1>   0.1400 
 13 C        0.2120     4.5460     0.2120 C.3   1 <1>   0.1400 
 14 N        1.6260     4.0890     0.2670 N.am  1 <1>  -0.6600 
 15 C        2.6910     4.9970     0.2020 C.2   1 <1>   0.5440 
 16 O        3.8190     4.5170     0.3490 O.2   1 <1>  -0.5700 
 17 C        2.5390     6.4110    -0.1060 C.ar  1 <1>   0.3960 
 18 N        3.1580     6.8880    -1.2170 N.ar  1 <1>  -0.6200 
 19 C        1.7550     7.2810     0.7200 C.ar  1 <1>  -0.1710 
 20 C        3.0320     8.1640    -1.4870 C.ar  1 <1>   0.1600 
 21 O        1.1290     6.9090     1.7440 O.3   1 <1>  -0.8290 
 22 C        1.6540     8.6330     0.3860 C.ar  1 <1>  -0.1500 
 23 C        2.3020     9.0730    -0.7280 C.ar  1 <1>  -0.1500 
 24 H       -2.3100    -0.8710    -3.6820 H     1 <1>   0.1500 
 25 H       -3.7890    -0.9750    -1.4370 H     1 <1>   0.1500 
 26 H       -2.7100    -0.1530     1.4160 H     1 <1>   0.0800 
 27 H       -4.0340     0.7600     0.7370 H     1 <1>   0.0800 
 28 H        1.4160     1.6890    -0.9890 H     1 <1>   0.0800 
 29 H        1.0700     0.7410     0.4250 H     1 <1>   0.0800 
 30 H       -1.6420     3.8670    -0.6260 H     1 <1>   0.0800 
 31 H       -0.2590     3.5960    -1.6240 H     1 <1>   0.0800 
 32 H       -2.5930     2.0200     2.4530 H     1 <1>   0.0800 
 33 H       -2.8300     2.8440     0.9320 H     1 <1>   0.0800 
 34 H        2.8320     2.4360     0.8280 H     1 <1>   0.0800 
 35 H        1.4500     2.7250     1.8480 H     1 <1>   0.0800 
 36 H       -0.1670     4.6220     1.2180 H     1 <1>   0.0800 
 37 H        0.1430     5.5200    -0.2370 H     1 <1>   0.0800 
 38 H        3.5350     8.5300    -2.3630 H     1 <1>   0.1500 
 39 H        1.0700     9.2700     1.0240 H     1 <1>   0.1500 
 40 H        2.2550    10.1030    -1.0230 H     1 <1>   0.1500 
@<TRIPOS>BOND
  1   1   2  1   
  2   1   3  1   
  3   2   4  2   
  4   2   5  1   
  5   3   6  2   
  6   3  24  1   
  7   4   6  1   
  8   4   7  1   
  9   5   8  1   
 10   5   9  1   
 11   5  10  1   
 12   6  25  1   
 13   7  11  1   
 14   7  26  1   
 15   7  27  1   
 16   8  11  1   
 17   9  12  1   
 18   9  28  1   
 19   9  29  1   
 20  10  13  1   
 21  10  30  1   
 22  10  31  1   
 23  11  32  1   
 24  11  33  1   
 25  12  14  1   
 26  12  34  1   
 27  12  35  1   
 28  13  14  1   
 29  13  36  1   
 30  13  37  1   
 31  14  15  am  
 32  15  16  2   
 33  15  17  1   
 34  17  18  ar  
 35  17  19  ar  
 36  18  20  ar  
 37  19  21  1   
 38  19  22  ar  
 39  20  23  ar  
 40  20  38  1   
 41  22  23  ar  
 42  22  39  1   
 43  23  40  1   
@<TRIPOS>SUBSTRUCTURE
  1 ****  13 GROUP 4 **** **** 0

# MOE 2024.06 (io_trps.svl 2023.06)
