@<TRIPOS>MOLECULE
NONAME
46 48 1 0 0 
SMALL
USER_CHARGES


@<TRIPOS>ATOM
  1 F        0.9430    -0.7200     0.6120 F     1 <1>  -0.1900 
  2 C        0.5660    -1.9080     0.2160 C.ar  1 <1>   0.1900 
  3 C        0.5270    -2.9430     1.1090 C.ar  1 <1>  -0.1500 
  4 C        0.2170    -2.0740    -1.1180 C.ar  1 <1>  -0.1500 
  5 C        0.1200    -4.2170     0.6840 C.ar  1 <1>  -0.1710 
  6 C       -0.1870    -3.3230    -1.5400 C.ar  1 <1>  -0.1500 
  7 O        0.1320    -5.1300     1.5420 O.3   1 <1>  -0.8290 
  8 C       -0.2680    -4.4270    -0.6760 C.ar  1 <1>   0.0860 
  9 C       -0.7290    -5.6880    -1.2130 C.2   1 <1>   0.5440 
 10 O       -0.4670    -5.9940    -2.3730 O.2   1 <1>  -0.5700 
 11 N       -1.5560    -6.5800    -0.5470 N.am  1 <1>  -0.6600 
 12 C       -2.2830    -6.2140     0.7000 C.3   1 <1>   0.1400 
 13 C       -1.4360    -8.0400    -0.7720 C.3   1 <1>   0.1400 
 14 C       -3.6750    -6.8540     0.7400 C.3   1 <1>   0.4230 
 15 C       -2.8270    -8.6890    -0.7420 C.3   1 <1>   0.3430 
 16 N       -3.6100    -8.3560     0.5130 N.4   1 <1>  -0.9590 
 17 C       -4.6190    -6.1810    -0.2810 C.3   1 <1>   0.1200 
 18 C       -5.0040    -8.9070     0.5200 C.3   1 <1>   0.4230 
 19 O       -5.8890    -6.7770    -0.2420 O.3   1 <1>  -0.5600 
 20 C       -5.9070    -8.1560    -0.4910 C.3   1 <1>   0.1200 
 21 C       -4.9840   -10.4270     0.2910 C.3   1 <1>  -0.1600 
 22 C       -6.3220   -11.0940     0.6490 C.3   1 <1>  -0.1600 
 23 C       -6.2340   -12.6130     0.4860 C.3   1 <1>  -0.2400 
 24 H        0.8060    -2.8150     2.1370 H     1 <1>   0.1500 
 25 H        0.2700    -1.2380    -1.7900 H     1 <1>   0.1500 
 26 H       -0.4540    -3.4650    -2.5710 H     1 <1>   0.1500 
 27 H       -1.7210    -6.5600     1.5490 H     1 <1>   0.0800 
 28 H       -2.3680    -5.1440     0.7830 H     1 <1>   0.0800 
 29 H       -0.9700    -8.2370    -1.7230 H     1 <1>   0.0800 
 30 H       -0.8080    -8.4610    -0.0060 H     1 <1>   0.0800 
 31 H       -4.0840    -6.6630     1.7180 H     1 <1>   0.0800 
 32 H       -2.7080    -9.7560    -0.8290 H     1 <1>   0.0800 
 33 H       -3.3680    -8.3450    -1.6080 H     1 <1>   0.0800 
 34 H       -3.0880    -8.7400     1.3090 H     1 <1>   0.4500 
 35 H       -4.2270    -6.2510    -1.2820 H     1 <1>   0.0800 
 36 H       -4.7390    -5.1390    -0.0390 H     1 <1>   0.0800 
 37 H       -5.4250    -8.7380     1.4980 H     1 <1>   0.0800 
 38 H       -6.9280    -8.4800    -0.3940 H     1 <1>   0.0800 
 39 H       -5.5910    -8.3270    -1.5050 H     1 <1>   0.0800 
 40 H       -4.7570   -10.6460    -0.7380 H     1 <1>   0.0800 
 41 H       -4.2200   -10.8640     0.9110 H     1 <1>   0.0800 
 42 H       -6.5860   -10.8690     1.6690 H     1 <1>   0.0800 
 43 H       -7.1100   -10.7280     0.0120 H     1 <1>   0.0800 
 44 H       -5.4820   -13.0260     1.1350 H     1 <1>   0.0800 
 45 H       -5.9980   -12.8760    -0.5310 H     1 <1>   0.0800 
 46 H       -7.1790   -13.0640     0.7380 H     1 <1>   0.0800 
@<TRIPOS>BOND
  1   1   2  1   
  2   2   3  ar  
  3   2   4  ar  
  4   3   5  ar  
  5   3  24  1   
  6   4   6  ar  
  7   4  25  1   
  8   5   7  1   
  9   5   8  ar  
 10   6   8  ar  
 11   6  26  1   
 12   8   9  1   
 13   9  10  2   
 14   9  11  am  
 15  11  12  1   
 16  11  13  1   
 17  12  14  1   
 18  12  27  1   
 19  12  28  1   
 20  13  15  1   
 21  13  29  1   
 22  13  30  1   
 23  14  16  1   
 24  14  17  1   
 25  14  31  1   
 26  15  16  1   
 27  15  32  1   
 28  15  33  1   
 29  16  18  1   
 30  16  34  1   
 31  17  19  1   
 32  17  35  1   
 33  17  36  1   
 34  18  20  1   
 35  18  21  1   
 36  18  37  1   
 37  19  20  1   
 38  20  38  1   
 39  20  39  1   
 40  21  22  1   
 41  21  40  1   
 42  21  41  1   
 43  22  23  1   
 44  22  42  1   
 45  22  43  1   
 46  23  44  1   
 47  23  45  1   
 48  23  46  1   
@<TRIPOS>SUBSTRUCTURE
  1 ****  12 GROUP 4 **** **** 0

# MOE 2024.06 (io_trps.svl 2023.06)
