@<TRIPOS>MOLECULE
NONAME
47 50 1 0 0 
SMALL
USER_CHARGES


@<TRIPOS>ATOM
  1 O        0.4300     3.3550    -2.7020 O.co2 1 <1>  -0.9000 
  2 C        1.2880     3.0010    -1.8680 C.2   1 <1>   1.0320 
  3 O        1.3100     1.8040    -1.5210 O.co2 1 <1>  -0.9000 
  4 C        2.2250     3.9810    -1.3360 C.2   1 <1>  -0.0920 
  5 O        3.1640     3.6740    -0.4380 O.3   1 <1>  -0.2800 
  6 C        2.3330     5.3080    -1.6210 C.2   1 <1>  -0.1500 
  7 C        3.8580     4.7550    -0.1520 C.2   1 <1>  -0.0400 
  8 C        3.3870     5.8090    -0.8560 C.2   1 <1>  -0.1500 
  9 C        4.9900     4.6260     0.8490 C.3   1 <1>   0.3200 
 10 N        5.8200     5.8460     0.8330 N.am  1 <1>  -0.7300 
 11 C        6.3520     6.4740     1.9070 C.2   1 <1>   0.5690 
 12 O        6.2960     6.0110     3.0210 O.2   1 <1>  -0.5700 
 13 C        7.0350     7.8260     1.6820 C.3   1 <1>   0.1710 
 14 N        7.5710     8.0080     0.2990 N.3   1 <1>  -0.8100 
 15 C        7.8830     9.4090    -0.0150 C.3   1 <1>   0.3700 
 16 C        8.8020     7.2560     0.0660 C.3   1 <1>   0.1100 
 17 C        6.6380    10.2680    -0.2550 C.2   1 <1>   0.2980 
 18 C        8.7940     9.3090    -1.2370 C.3   1 <1>  -0.1600 
 19 C        9.4570     7.9340    -1.1330 C.3   1 <1>  -0.1600 
 20 O        5.7390     9.8480    -1.1090 O.3   1 <1>  -0.0190 
 21 N        6.3720    11.3740     0.3130 N.2   1 <1>  -0.5650 
 22 N        4.8240    10.7640    -1.0820 N.2   1 <1>  -0.4100 
 23 C        5.1930    11.6670    -0.2450 C.2   1 <1>   0.4620 
 24 C        4.4510    12.8700     0.0800 C.ar  1 <1>   0.0540 
 25 C        3.2170    13.1610    -0.4870 C.ar  1 <1>  -0.1500 
 26 C        4.9100    13.8240     0.9790 C.ar  1 <1>  -0.1500 
 27 C        2.5430    14.3200    -0.1490 C.ar  1 <1>   0.1600 
 28 C        4.1610    14.9530     1.2510 C.ar  1 <1>   0.1600 
 29 N        2.9860    15.2240     0.7080 N.ar  1 <1>  -0.6200 
 30 H        1.7170     5.8600    -2.3090 H     1 <1>   0.1500 
 31 H        3.7220     6.8300    -0.8540 H     1 <1>   0.1500 
 32 H        5.6000     3.7810     0.5820 H     1 <1>   0.0800 
 33 H        4.5860     4.4600     1.8330 H     1 <1>   0.0800 
 34 H        5.9540     6.2830    -0.0830 H     1 <1>   0.3700 
 35 H        7.8230     7.9420     2.4050 H     1 <1>   0.0800 
 36 H        6.2950     8.5810     1.8790 H     1 <1>   0.0800 
 37 H        8.4470     9.8330     0.7990 H     1 <1>   0.0800 
 38 H        9.4530     7.3300     0.9220 H     1 <1>   0.0800 
 39 H        8.5880     6.2180    -0.1300 H     1 <1>   0.0800 
 40 H        8.2080     9.3620    -2.1380 H     1 <1>   0.0800 
 41 H        9.5130    10.1090    -1.2440 H     1 <1>   0.0800 
 42 H       10.5200     8.0110    -0.9860 H     1 <1>   0.0800 
 43 H        9.2710     7.3610    -2.0250 H     1 <1>   0.0800 
 44 H        2.7780    12.4810    -1.1950 H     1 <1>   0.1500 
 45 H        5.8570    13.6870     1.4700 H     1 <1>   0.1500 
 46 H        1.5890    14.5150    -0.6080 H     1 <1>   0.1500 
 47 H        4.5470    15.6730     1.9520 H     1 <1>   0.1500 
@<TRIPOS>BOND
  1   1   2  ar  
  2   2   3  ar  
  3   2   4  1   
  4   4   5  1   
  5   4   6  2   
  6   5   7  1   
  7   6   8  1   
  8   6  30  1   
  9   7   8  2   
 10   7   9  1   
 11   8  31  1   
 12   9  10  1   
 13   9  32  1   
 14   9  33  1   
 15  10  11  am  
 16  10  34  1   
 17  11  12  2   
 18  11  13  1   
 19  13  14  1   
 20  13  35  1   
 21  13  36  1   
 22  14  15  1   
 23  14  16  1   
 24  15  17  1   
 25  15  18  1   
 26  15  37  1   
 27  16  19  1   
 28  16  38  1   
 29  16  39  1   
 30  17  20  1   
 31  17  21  2   
 32  18  19  1   
 33  18  40  1   
 34  18  41  1   
 35  19  42  1   
 36  19  43  1   
 37  20  22  1   
 38  21  23  1   
 39  22  23  2   
 40  23  24  1   
 41  24  25  ar  
 42  24  26  ar  
 43  25  27  ar  
 44  25  44  1   
 45  26  28  ar  
 46  26  45  1   
 47  27  29  ar  
 48  27  46  1   
 49  28  29  ar  
 50  28  47  1   
@<TRIPOS>SUBSTRUCTURE
  1 ****  20 GROUP 4 **** **** 0

# MOE 2024.06 (io_trps.svl 2023.06)
