@<TRIPOS>MOLECULE
NONAME
44 47 1 0 0 
SMALL
USER_CHARGES


@<TRIPOS>ATOM
  1 CL       1.8830     1.0740    -4.0170 Cl    1 <1>  -0.1770 
  2 C        2.8360     1.9310    -2.8340 C.ar  1 <1>   0.1770 
  3 C        2.3070     3.0530    -2.2240 C.ar  1 <1>  -0.1500 
  4 C        4.1120     1.4670    -2.5270 C.ar  1 <1>  -0.1500 
  5 C        3.1100     3.6900    -1.2960 C.ar  1 <1>   0.0400 
  6 C        4.8870     2.1330    -1.5900 C.ar  1 <1>  -0.1500 
  7 S        2.7560     5.1160    -0.3500 S.3   1 <1>  -0.0800 
  8 C        4.3840     3.2670    -0.9590 C.ar  1 <1>   0.2270 
  9 C        4.3500     5.0010     0.4080 C.2   1 <1>   0.4620 
 10 N        5.0610     4.0190    -0.0110 N.2   1 <1>  -0.5650 
 11 N        4.7370     5.9250     1.3550 N.pl3 1 <1>  -0.8220 
 12 C        5.9350     5.6300     2.1880 C.3   1 <1>   0.2090 
 13 C        4.1140     7.2630     1.5170 C.3   1 <1>   0.2090 
 14 C        7.2220     5.9190     1.3920 C.3   1 <1>   0.3430 
 15 C        5.1640     8.3680     1.3510 C.3   1 <1>  -0.1600 
 16 N        7.4310     7.3690     1.0260 N.4   1 <1>  -0.9590 
 17 C        6.2630     8.0180     0.3420 C.3   1 <1>   0.3430 
 18 C        8.6700     7.5180     0.2100 C.3   1 <1>   0.5230 
 19 C        9.0420     8.9820     0.1380 C.2   1 <1>  -0.0400 
 20 O        9.1410     9.6570     1.2500 O.3   1 <1>  -0.0190 
 21 C        9.2980     9.8210    -0.8800 C.2   1 <1>  -0.1500 
 22 N        9.4380    10.9010     1.0350 N.2   1 <1>  -0.4100 
 23 C        9.5470    11.0320    -0.2390 C.2   1 <1>   0.1080 
 24 C        9.8970    12.3310    -0.9330 C.3   1 <1>  -0.0590 
 25 H        1.3210     3.4090    -2.4610 H     1 <1>   0.1500 
 26 H        4.4850     0.5890    -3.0240 H     1 <1>   0.1500 
 27 H        5.8730     1.7860    -1.3390 H     1 <1>   0.1500 
 28 H        5.9210     4.5870     2.4580 H     1 <1>   0.0800 
 29 H        5.9140     6.2000     3.1010 H     1 <1>   0.0800 
 30 H        3.6480     7.3320     2.4860 H     1 <1>   0.0800 
 31 H        3.3460     7.4080     0.7780 H     1 <1>   0.0800 
 32 H        7.1860     5.3220     0.4950 H     1 <1>   0.0800 
 33 H        8.0610     5.5760     1.9750 H     1 <1>   0.0800 
 34 H        5.5890     8.6270     2.3030 H     1 <1>   0.0800 
 35 H        4.6480     9.2440     0.9990 H     1 <1>   0.0800 
 36 H        7.6010     7.9100     1.8850 H     1 <1>   0.4500 
 37 H        6.5880     8.9360    -0.1220 H     1 <1>   0.0800 
 38 H        5.8700     7.3730    -0.4280 H     1 <1>   0.0800 
 39 H        8.5180     7.1230    -0.7810 H     1 <1>   0.0800 
 40 H        9.4810     6.9800     0.6740 H     1 <1>   0.0800 
 41 H        9.3200     9.6560    -1.9430 H     1 <1>   0.1500 
 42 H       10.8020    12.2110    -1.4990 H     1 <1>   0.0800 
 43 H       10.0460    13.1080    -0.2050 H     1 <1>   0.0800 
 44 H        9.1010    12.6220    -1.5930 H     1 <1>   0.0800 
@<TRIPOS>BOND
  1   1   2  1   
  2   2   3  ar  
  3   2   4  ar  
  4   3   5  ar  
  5   3  25  1   
  6   4   6  ar  
  7   4  26  1   
  8   5   7  1   
  9   5   8  ar  
 10   6   8  ar  
 11   6  27  1   
 12   7   9  1   
 13   8  10  1   
 14   9  10  2   
 15   9  11  1   
 16  11  12  1   
 17  11  13  1   
 18  12  14  1   
 19  12  28  1   
 20  12  29  1   
 21  13  15  1   
 22  13  30  1   
 23  13  31  1   
 24  14  16  1   
 25  14  32  1   
 26  14  33  1   
 27  15  17  1   
 28  15  34  1   
 29  15  35  1   
 30  16  17  1   
 31  16  18  1   
 32  16  36  1   
 33  17  37  1   
 34  17  38  1   
 35  18  19  1   
 36  18  39  1   
 37  18  40  1   
 38  19  20  1   
 39  19  21  2   
 40  20  22  1   
 41  21  23  1   
 42  21  41  1   
 43  22  23  2   
 44  23  24  1   
 45  24  42  1   
 46  24  43  1   
 47  24  44  1   
@<TRIPOS>SUBSTRUCTURE
  1 ****  17 GROUP 4 **** **** 0

# MOE 2024.06 (io_trps.svl 2023.06)
