@<TRIPOS>MOLECULE
NONAME
54 56 1 0 0 
SMALL
USER_CHARGES


@<TRIPOS>ATOM
  1 O        0.8880    -0.4880     1.6290 O.co2 1 <1>  -0.9000 
  2 C        1.9300     0.1580     1.5350 C.2   1 <1>   0.9060 
  3 O        2.7240     0.2490     2.4820 O.co2 1 <1>  -0.9000 
  4 C        2.3620     0.7720     0.1930 C.3   1 <1>  -0.1060 
  5 C        3.5850    -0.0600    -0.2760 C.3   1 <1>   0.2000 
  6 C        2.8180     2.2520     0.4020 C.3   1 <1>  -0.1600 
  7 C        1.2210     0.6700    -0.8810 C.3   1 <1>  -0.0160 
  8 O        4.5710    -0.0450     0.7110 O.3   1 <1>  -0.6800 
  9 C        4.2430     0.5670    -1.5150 C.3   1 <1>   0.3430 
 10 C        3.5440     2.8350    -0.8090 C.3   1 <1>   0.3430 
 11 C        0.2450     1.8430    -0.9120 C.ar  1 <1>  -0.1440 
 12 N        4.6880     1.9410    -1.1470 N.4   1 <1>  -0.9590 
 13 C        0.2180     2.7170    -1.9910 C.ar  1 <1>  -0.1500 
 14 C       -0.6320     2.0470     0.1420 C.ar  1 <1>  -0.1500 
 15 C        5.6880     2.5290    -2.0630 C.3   1 <1>   0.4860 
 16 C       -0.6590     3.7870    -2.0060 C.ar  1 <1>  -0.1500 
 17 C       -1.5100     3.1170     0.1290 C.ar  1 <1>  -0.1500 
 18 C        6.2670     3.7750    -1.4180 C.ar  1 <1>  -0.1430 
 19 C       -1.5220     3.9900    -0.9440 C.ar  1 <1>  -0.1500 
 20 C        7.0850     3.7150    -0.2900 C.ar  1 <1>  -0.1430 
 21 C        5.9530     5.0070    -1.9750 C.ar  1 <1>  -0.1500 
 22 C        7.5630     4.8920     0.2660 C.ar  1 <1>  -0.1500 
 23 C        7.4810     2.3990     0.3750 C.3   1 <1>  -0.0970 
 24 C        6.4380     6.1730    -1.4140 C.ar  1 <1>  -0.1500 
 25 C        7.2420     6.1260    -0.2910 C.ar  1 <1>   0.0820 
 26 O        7.6710     7.3150     0.2000 O.3   1 <1>  -0.3620 
 27 C        8.5170     7.3860     1.3260 C.3   1 <1>   0.0400 
 28 H        3.3020    -1.0850    -0.4490 H     1 <1>   0.0800 
 29 H        3.4850     2.3140     1.2450 H     1 <1>   0.0800 
 30 H        1.9810     2.8770     0.6570 H     1 <1>   0.0800 
 31 H        1.6330     0.5830    -1.8660 H     1 <1>   0.0800 
 32 H        0.6550    -0.2360    -0.7400 H     1 <1>   0.0800 
 33 H        4.0850    -0.0530     1.6000 H     1 <1>   0.4000 
 34 H        3.5560     0.5990    -2.3420 H     1 <1>   0.0800 
 35 H        5.0880    -0.0400    -1.7930 H     1 <1>   0.0800 
 36 H        3.9000     3.8230    -0.5620 H     1 <1>   0.0800 
 37 H        2.8660     2.9110    -1.6430 H     1 <1>   0.0800 
 38 H        5.1630     1.7850    -0.2400 H     1 <1>   0.4500 
 39 H        0.8720     2.5690    -2.8310 H     1 <1>   0.1500 
 40 H       -0.6360     1.3690     0.9810 H     1 <1>   0.1500 
 41 H        6.4810     1.8230    -2.2460 H     1 <1>   0.0800 
 42 H        5.2270     2.7800    -3.0040 H     1 <1>   0.0800 
 43 H       -0.6770     4.4620    -2.8440 H     1 <1>   0.1500 
 44 H       -2.1810     3.2620     0.9570 H     1 <1>   0.1500 
 45 H       -2.2060     4.8210    -0.9520 H     1 <1>   0.1500 
 46 H        5.3300     5.0780    -2.8490 H     1 <1>   0.1500 
 47 H        8.1870     4.8410     1.1380 H     1 <1>   0.1500 
 48 H        8.3850     2.5230     0.9450 H     1 <1>   0.0800 
 49 H        7.6640     1.6300    -0.3520 H     1 <1>   0.0800 
 50 H        6.7080     2.0740     1.0490 H     1 <1>   0.0800 
 51 H        6.1980     7.1300    -1.8420 H     1 <1>   0.1500 
 52 H        8.7270     8.4230     1.5200 H     1 <1>   0.0800 
 53 H        9.4310     6.8630     1.1100 H     1 <1>   0.0800 
 54 H        8.0120     6.9520     2.1710 H     1 <1>   0.0800 
@<TRIPOS>BOND
  1   1   2  ar  
  2   2   3  ar  
  3   2   4  1   
  4   4   5  1   
  5   4   6  1   
  6   4   7  1   
  7   5   8  1   
  8   5   9  1   
  9   5  28  1   
 10   6  10  1   
 11   6  29  1   
 12   6  30  1   
 13   7  11  1   
 14   7  31  1   
 15   7  32  1   
 16   8  33  1   
 17   9  12  1   
 18   9  34  1   
 19   9  35  1   
 20  10  12  1   
 21  10  36  1   
 22  10  37  1   
 23  11  13  ar  
 24  11  14  ar  
 25  12  15  1   
 26  12  38  1   
 27  13  16  ar  
 28  13  39  1   
 29  14  17  ar  
 30  14  40  1   
 31  15  18  1   
 32  15  41  1   
 33  15  42  1   
 34  16  19  ar  
 35  16  43  1   
 36  17  19  ar  
 37  17  44  1   
 38  18  20  ar  
 39  18  21  ar  
 40  19  45  1   
 41  20  22  ar  
 42  20  23  1   
 43  21  24  ar  
 44  21  46  1   
 45  22  25  ar  
 46  22  47  1   
 47  23  48  1   
 48  23  49  1   
 49  23  50  1   
 50  24  25  ar  
 51  24  51  1   
 52  25  26  1   
 53  26  27  1   
 54  27  52  1   
 55  27  53  1   
 56  27  54  1   
@<TRIPOS>SUBSTRUCTURE
  1 ****  10 GROUP 4 **** **** 0

# MOE 2024.06 (io_trps.svl 2023.06)
