@<TRIPOS>MOLECULE
NONAME
61 63 1 0 0 
SMALL
USER_CHARGES


@<TRIPOS>ATOM
  1 O       -0.1220     0.2000    -2.0880 O.2   1 <1>  -0.5700 
  2 C        0.5770    -0.5550    -1.4520 C.2   1 <1>   0.5690 
  3 N        1.5930    -0.0850    -0.6560 N.am  1 <1>  -0.6600 
  4 C        0.2710    -2.0600    -1.5850 C.3   1 <1>   0.1710 
  5 C        2.4890    -0.9360     0.1840 C.3   1 <1>   0.1400 
  6 C        1.8370     1.3790    -0.4780 C.3   1 <1>   0.1400 
  7 N       -0.0010    -2.8120    -0.3170 N.3   1 <1>  -0.8100 
  8 C        3.9560    -0.4680     0.0870 C.3   1 <1>   0.2000 
  9 C        3.3420     1.7040    -0.5420 C.3   1 <1>   0.2000 
 10 C       -0.2080    -4.2400    -0.6090 C.3   1 <1>   0.1100 
 11 C       -1.1350    -2.2120     0.4130 C.3   1 <1>   0.1100 
 12 O        4.0500     0.8980     0.3520 O.3   1 <1>  -0.5600 
 13 C        4.8520    -1.1790     1.0980 C.3   1 <1>  -0.2400 
 14 C        3.6320     3.1530    -0.1590 C.3   1 <1>  -0.2400 
 15 C       -0.3520    -5.1100     0.6550 C.3   1 <1>   0.2000 
 16 C       -1.0570    -2.5870     1.8930 C.3   1 <1>  -0.1600 
 17 O       -1.6160    -4.8850     1.2310 O.3   1 <1>  -0.5600 
 18 C       -0.2480    -6.6160     0.3340 C.3   1 <1>   0.3430 
 19 C       -1.6740    -3.9450     2.2630 C.3   1 <1>   0.1200 
 20 N       -1.5920    -7.1870     0.0000 N.4   1 <1>  -0.9590 
 21 C       -1.8010    -8.5320     0.6060 C.3   1 <1>   0.3430 
 22 C       -1.9100    -7.1580    -1.4550 C.3   1 <1>   0.3430 
 23 C       -3.2590    -8.9550     0.4250 C.3   1 <1>  -0.1600 
 24 C       -3.3710    -7.5570    -1.6680 C.3   1 <1>  -0.1600 
 25 C       -3.6840    -8.9250    -1.0490 C.3   1 <1>  -0.1600 
 26 H        1.1120    -2.5060    -2.0840 H     1 <1>   0.0800 
 27 H       -0.5790    -2.1580    -2.2370 H     1 <1>   0.0800 
 28 H        2.1640    -0.8770     1.2080 H     1 <1>   0.0800 
 29 H        2.4360    -1.9640    -0.1210 H     1 <1>   0.0800 
 30 H        1.3240     1.9410    -1.2390 H     1 <1>   0.0800 
 31 H        1.4480     1.6850     0.4760 H     1 <1>   0.0800 
 32 H        4.3290    -0.6450    -0.9070 H     1 <1>   0.0800 
 33 H        3.7130     1.5160    -1.5360 H     1 <1>   0.0800 
 34 H       -1.0790    -4.3560    -1.2310 H     1 <1>   0.0800 
 35 H        0.6470    -4.5900    -1.1620 H     1 <1>   0.0800 
 36 H       -1.0770    -1.1380     0.3560 H     1 <1>   0.0800 
 37 H       -2.0770    -2.5110    -0.0180 H     1 <1>   0.0800 
 38 H        4.5120    -0.9830     2.1000 H     1 <1>   0.0800 
 39 H        5.8640    -0.8290     0.9950 H     1 <1>   0.0800 
 40 H        4.8380    -2.2390     0.9270 H     1 <1>   0.0800 
 41 H        3.2990     3.3480     0.8440 H     1 <1>   0.0800 
 42 H        3.1230     3.8210    -0.8300 H     1 <1>   0.0800 
 43 H        4.6890     3.3420    -0.2250 H     1 <1>   0.0800 
 44 H        0.4270    -4.8540     1.3540 H     1 <1>   0.0800 
 45 H       -1.5800    -1.8360     2.4580 H     1 <1>   0.0800 
 46 H       -0.0330    -2.5450     2.2170 H     1 <1>   0.0800 
 47 H        0.1330    -7.1040     1.2150 H     1 <1>   0.0800 
 48 H        0.4560    -6.7870    -0.4630 H     1 <1>   0.0800 
 49 H       -2.7170    -3.8080     2.4960 H     1 <1>   0.0800 
 50 H       -1.1880    -4.3550     3.1320 H     1 <1>   0.0800 
 51 H       -2.2440    -6.5280     0.4700 H     1 <1>   0.4500 
 52 H       -1.1550    -9.2520     0.1290 H     1 <1>   0.0800 
 53 H       -1.5650    -8.5040     1.6580 H     1 <1>   0.0800 
 54 H       -1.7520    -6.1690    -1.8530 H     1 <1>   0.0800 
 55 H       -1.2690    -7.8450    -1.9830 H     1 <1>   0.0800 
 56 H       -3.3870    -9.9510     0.8120 H     1 <1>   0.0800 
 57 H       -3.8920    -8.3030     1.0010 H     1 <1>   0.0800 
 58 H       -4.0100    -6.8050    -1.2380 H     1 <1>   0.0800 
 59 H       -3.5780    -7.5880    -2.7240 H     1 <1>   0.0800 
 60 H       -4.7390    -9.1310    -1.1300 H     1 <1>   0.0800 
 61 H       -3.1580    -9.6940    -1.5910 H     1 <1>   0.0800 
@<TRIPOS>BOND
  1   1   2  2   
  2   2   3  am  
  3   2   4  1   
  4   3   5  1   
  5   3   6  1   
  6   4   7  1   
  7   4  26  1   
  8   4  27  1   
  9   5   8  1   
 10   5  28  1   
 11   5  29  1   
 12   6   9  1   
 13   6  30  1   
 14   6  31  1   
 15   7  10  1   
 16   7  11  1   
 17   8  12  1   
 18   8  13  1   
 19   8  32  1   
 20   9  12  1   
 21   9  14  1   
 22   9  33  1   
 23  10  15  1   
 24  10  34  1   
 25  10  35  1   
 26  11  16  1   
 27  11  36  1   
 28  11  37  1   
 29  13  38  1   
 30  13  39  1   
 31  13  40  1   
 32  14  41  1   
 33  14  42  1   
 34  14  43  1   
 35  15  17  1   
 36  15  18  1   
 37  15  44  1   
 38  16  19  1   
 39  16  45  1   
 40  16  46  1   
 41  17  19  1   
 42  18  20  1   
 43  18  47  1   
 44  18  48  1   
 45  19  49  1   
 46  19  50  1   
 47  20  21  1   
 48  20  22  1   
 49  20  51  1   
 50  21  23  1   
 51  21  52  1   
 52  21  53  1   
 53  22  24  1   
 54  22  54  1   
 55  22  55  1   
 56  23  25  1   
 57  23  56  1   
 58  23  57  1   
 59  24  25  1   
 60  24  58  1   
 61  24  59  1   
 62  25  60  1   
 63  25  61  1   
@<TRIPOS>SUBSTRUCTURE
  1 ****   7 GROUP 4 **** **** 0

# MOE 2024.06 (io_trps.svl 2023.06)
