@<TRIPOS>MOLECULE
NONAME
43 45 1 0 0 
SMALL
USER_CHARGES


@<TRIPOS>ATOM
  1 F        0.7260     1.3220    -1.1700 F     1 <1>  -0.1900 
  2 C        1.7780     1.5340    -0.4240 C.ar  1 <1>   0.1900 
  3 C        2.0640     2.8210     0.0090 C.ar  1 <1>  -0.1440 
  4 C        2.5600     0.4410    -0.1070 C.ar  1 <1>  -0.1500 
  5 C        3.2150     3.0210     0.7830 C.ar  1 <1>   0.0860 
  6 C        1.1360     3.9830    -0.3480 C.3   1 <1>  -0.0960 
  7 C        3.6800     0.6350     0.6790 C.ar  1 <1>  -0.1500 
  8 C        3.6390     4.3320     1.2400 C.2   1 <1>   0.5440 
  9 C        3.9940     1.9100     1.1160 C.ar  1 <1>  -0.1500 
 10 O        3.6270     4.5850     2.4290 O.2   1 <1>  -0.5700 
 11 N        4.1140     5.3020     0.3740 N.am  1 <1>  -0.6600 
 12 C        4.3190     6.7070     0.8570 C.3   1 <1>   0.1400 
 13 C        4.5420     4.9950    -1.0140 C.3   1 <1>   0.1400 
 14 C        5.8050     7.0730     1.0880 C.3   1 <1>   0.4230 
 15 C        6.0190     5.3430    -1.2700 C.3   1 <1>  -0.0800 
 16 N        6.5030     7.5900    -0.1440 N.4   1 <1>  -0.9590 
 17 C        6.6590     5.9080     1.6500 C.3   1 <1>   0.1200 
 18 C        6.9990     4.6050    -0.3210 C.3   1 <1>   0.1200 
 19 C        6.2130     6.8640    -1.4190 C.3   1 <1>   0.3430 
 20 C        6.4340     9.0730    -0.2940 C.3   1 <1>   0.2630 
 21 O        7.5510     5.4260     0.6700 O.3   1 <1>  -0.5600 
 22 H        2.2920    -0.5380    -0.4650 H     1 <1>   0.1500 
 23 H        1.1230     4.7210     0.4340 H     1 <1>   0.0800 
 24 H        0.1240     3.6400    -0.4780 H     1 <1>   0.0800 
 25 H        1.4570     4.4460    -1.2620 H     1 <1>   0.0800 
 26 H        4.3010    -0.2020     0.9510 H     1 <1>   0.1500 
 27 H        4.8630     2.0540     1.7360 H     1 <1>   0.1500 
 28 H        3.8700     7.3970     0.1670 H     1 <1>   0.0800 
 29 H        3.8030     6.8360     1.7930 H     1 <1>   0.0800 
 30 H        4.4040     3.9460    -1.2190 H     1 <1>   0.0800 
 31 H        3.9100     5.5330    -1.7010 H     1 <1>   0.0800 
 32 H        5.8120     7.8520     1.8320 H     1 <1>   0.0800 
 33 H        6.2080     4.9380    -2.2490 H     1 <1>   0.0800 
 34 H        7.4800     7.3060     0.0610 H     1 <1>   0.4500 
 35 H        6.0730     5.0960     2.0400 H     1 <1>   0.0800 
 36 H        7.2590     6.2800     2.4610 H     1 <1>   0.0800 
 37 H        7.8310     4.2290    -0.8940 H     1 <1>   0.0800 
 38 H        6.5270     3.7610     0.1550 H     1 <1>   0.0800 
 39 H        5.3300     7.2800    -1.8760 H     1 <1>   0.0800 
 40 H        7.0350     7.0340    -2.0970 H     1 <1>   0.0800 
 41 H        5.4210     9.3830    -0.4920 H     1 <1>   0.0800 
 42 H        7.0600     9.3960    -1.1090 H     1 <1>   0.0800 
 43 H        6.7740     9.5560     0.6080 H     1 <1>   0.0800 
@<TRIPOS>BOND
  1   1   2  1   
  2   2   3  ar  
  3   2   4  ar  
  4   3   5  ar  
  5   3   6  1   
  6   4   7  ar  
  7   4  22  1   
  8   5   8  1   
  9   5   9  ar  
 10   6  23  1   
 11   6  24  1   
 12   6  25  1   
 13   7   9  ar  
 14   7  26  1   
 15   8  10  2   
 16   8  11  am  
 17   9  27  1   
 18  11  12  1   
 19  11  13  1   
 20  12  14  1   
 21  12  28  1   
 22  12  29  1   
 23  13  15  1   
 24  13  30  1   
 25  13  31  1   
 26  14  16  1   
 27  14  17  1   
 28  14  32  1   
 29  15  18  1   
 30  15  19  1   
 31  15  33  1   
 32  16  19  1   
 33  16  20  1   
 34  16  34  1   
 35  17  21  1   
 36  17  35  1   
 37  17  36  1   
 38  18  21  1   
 39  18  37  1   
 40  18  38  1   
 41  19  39  1   
 42  19  40  1   
 43  20  41  1   
 44  20  42  1   
 45  20  43  1   
@<TRIPOS>SUBSTRUCTURE
  1 ****  11 GROUP 4 **** **** 0

# MOE 2024.06 (io_trps.svl 2023.06)
