@<TRIPOS>MOLECULE
NONAME
43 45 1 0 0 
SMALL
USER_CHARGES


@<TRIPOS>ATOM
  1 S       -0.9250    -0.3390     0.2380 S.3   1 <1>  -0.0800 
  2 C       -2.0630     0.9310     0.6320 C.2   1 <1>   0.1980 
  3 C       -2.0650    -1.5040     0.8400 C.2   1 <1>  -0.1100 
  4 N       -3.1520     0.5210     1.1430 N.2   1 <1>  -0.5650 
  5 C       -1.6480     2.3520     0.3310 C.3   1 <1>  -0.0600 
  6 C       -3.1630    -0.8600     1.2690 C.2   1 <1>   0.0460 
  7 C       -4.4160    -1.4760     1.8680 C.3   1 <1>   0.0820 
  8 C       -4.4900    -2.9790     1.6480 C.2   1 <1>   0.5690 
  9 O       -4.3610    -3.6870     2.6190 O.2   1 <1>  -0.5700 
 10 N       -4.6930    -3.4990     0.3950 N.am  1 <1>  -0.6600 
 11 C       -4.6930    -4.9840     0.1680 C.3   1 <1>   0.3640 
 12 C       -5.0260    -2.6560    -0.7950 C.3   1 <1>   0.1400 
 13 C       -3.2870    -5.4490    -0.2590 C.ar  1 <1>  -0.1440 
 14 C       -5.8400    -5.3840    -0.8060 C.3   1 <1>   0.2000 
 15 C       -5.1060    -3.4650    -2.0970 C.3   1 <1>   0.1200 
 16 C       -2.9880    -5.9500    -1.5240 C.ar  1 <1>  -0.1500 
 17 C       -2.2610    -5.3830     0.6760 C.ar  1 <1>  -0.1500 
 18 O       -5.9380    -4.5900    -1.9760 O.3   1 <1>  -0.5600 
 19 C       -7.2110    -5.3270    -0.1180 C.3   1 <1>   0.1200 
 20 C       -1.7020    -6.3520    -1.8440 C.ar  1 <1>  -0.1500 
 21 C       -0.9740    -5.7820     0.3590 C.ar  1 <1>  -0.1500 
 22 O       -7.3250    -6.3410     0.8280 O.3   1 <1>  -0.6800 
 23 C       -0.6930    -6.2660    -0.9050 C.ar  1 <1>  -0.1500 
 24 H       -1.7900    -2.5430     0.8070 H     1 <1>   0.1500 
 25 H       -2.4330     3.0270     0.6190 H     1 <1>   0.0800 
 26 H       -1.4580     2.4610    -0.7200 H     1 <1>   0.0800 
 27 H       -0.7580     2.5950     0.8820 H     1 <1>   0.0800 
 28 H       -5.2840    -1.0150     1.4380 H     1 <1>   0.0800 
 29 H       -4.4290    -1.2700     2.9220 H     1 <1>   0.0800 
 30 H       -4.8970    -5.4780     1.1030 H     1 <1>   0.0800 
 31 H       -5.9750    -2.1740    -0.6320 H     1 <1>   0.0800 
 32 H       -4.2810    -1.8900    -0.9190 H     1 <1>   0.0800 
 33 H       -5.6850    -6.3950    -1.1350 H     1 <1>   0.0800 
 34 H       -4.1240    -3.7860    -2.3930 H     1 <1>   0.0800 
 35 H       -5.5030    -2.8520    -2.8860 H     1 <1>   0.0800 
 36 H       -3.7430    -6.0380    -2.2830 H     1 <1>   0.1500 
 37 H       -2.4580    -5.0190     1.6690 H     1 <1>   0.1500 
 38 H       -8.0010    -5.4550    -0.8380 H     1 <1>   0.0800 
 39 H       -7.3370    -4.3870     0.3910 H     1 <1>   0.0800 
 40 H       -1.4880    -6.7320    -2.8280 H     1 <1>   0.1500 
 41 H       -0.1950    -5.7180     1.0980 H     1 <1>   0.1500 
 42 H       -7.4480    -7.2110     0.3980 H     1 <1>   0.4000 
 43 H        0.3070    -6.5770    -1.1540 H     1 <1>   0.1500 
@<TRIPOS>BOND
  1   1   2  1   
  2   1   3  1   
  3   2   4  2   
  4   2   5  1   
  5   3   6  2   
  6   3  24  1   
  7   4   6  1   
  8   5  25  1   
  9   5  26  1   
 10   5  27  1   
 11   6   7  1   
 12   7   8  1   
 13   7  28  1   
 14   7  29  1   
 15   8   9  2   
 16   8  10  am  
 17  10  11  1   
 18  10  12  1   
 19  11  13  1   
 20  11  14  1   
 21  11  30  1   
 22  12  15  1   
 23  12  31  1   
 24  12  32  1   
 25  13  16  ar  
 26  13  17  ar  
 27  14  18  1   
 28  14  19  1   
 29  14  33  1   
 30  15  18  1   
 31  15  34  1   
 32  15  35  1   
 33  16  20  ar  
 34  16  36  1   
 35  17  21  ar  
 36  17  37  1   
 37  19  22  1   
 38  19  38  1   
 39  19  39  1   
 40  20  23  ar  
 41  20  40  1   
 42  21  23  ar  
 43  21  41  1   
 44  22  42  1   
 45  23  43  1   
@<TRIPOS>SUBSTRUCTURE
  1 ****  10 GROUP 4 **** **** 0

# MOE 2024.06 (io_trps.svl 2023.06)
