@<TRIPOS>MOLECULE
NONAME
45 47 1 0 0 
SMALL
USER_CHARGES


@<TRIPOS>ATOM
  1 CL       1.7980    -0.3070    -0.7110 Cl    1 <1>  -0.1770 
  2 C        2.8600     0.8640     0.0250 C.ar  1 <1>   0.1770 
  3 C        2.5960     2.2100    -0.1310 C.ar  1 <1>  -0.1500 
  4 C        3.9490     0.4240     0.7520 C.ar  1 <1>  -0.1500 
  5 C        3.4330     3.1660     0.4420 C.ar  1 <1>   0.0860 
  6 C        4.7870     1.3570     1.3370 C.ar  1 <1>  -0.1500 
  7 C        3.1620     4.5820     0.2720 C.2   1 <1>   0.5440 
  8 C        4.5250     2.7080     1.1840 C.ar  1 <1>  -0.1500 
  9 O        2.0380     4.9940     0.4870 O.2   1 <1>  -0.5700 
 10 N        4.1380     5.4690    -0.1440 N.am  1 <1>  -0.6600 
 11 C        5.3240     4.9700    -0.9230 C.3   1 <1>   0.1400 
 12 C        3.8980     6.9410    -0.0160 C.3   1 <1>   0.1400 
 13 C        5.9690     5.9890    -1.8720 C.3   1 <1>   0.1400 
 14 C        5.1150     7.7040     0.5220 C.3   1 <1>  -0.1600 
 15 N        6.8250     6.9540    -1.1190 N.am  1 <1>  -0.6600 
 16 C        6.1010     8.1290    -0.5690 C.3   1 <1>   0.1400 
 17 C        8.1640     6.6980    -0.9540 C.2   1 <1>   0.5690 
 18 O        8.6540     5.6620    -1.3400 O.2   1 <1>  -0.5700 
 19 C        9.0700     7.7220    -0.2920 C.3   1 <1>  -0.0990 
 20 C       10.5480     7.3130    -0.2980 C.3   1 <1>   0.2810 
 21 N       10.8150     6.2290     0.6800 N.am  1 <1>  -0.7300 
 22 C       11.4750     8.3970     0.2560 C.2   1 <1>   0.5690 
 23 C       11.7840     6.6040     1.5370 C.2   1 <1>   0.6900 
 24 O       11.5890     9.5190    -0.1680 O.2   1 <1>  -0.5700 
 25 N       12.1460     7.8840     1.3120 N.am  1 <1>  -0.4900 
 26 O       12.2860     5.8940     2.3740 O.2   1 <1>  -0.5700 
 27 H        1.7360     2.5250    -0.6940 H     1 <1>   0.1500 
 28 H        4.1330    -0.6310     0.8570 H     1 <1>   0.1500 
 29 H        5.6370     1.0320     1.9130 H     1 <1>   0.1500 
 30 H        5.1730     3.4290     1.6520 H     1 <1>   0.1500 
 31 H        5.0080     4.1310    -1.5170 H     1 <1>   0.0800 
 32 H        6.0780     4.6170    -0.2410 H     1 <1>   0.0800 
 33 H        3.0870     7.1040     0.6740 H     1 <1>   0.0800 
 34 H        3.5870     7.3390    -0.9660 H     1 <1>   0.0800 
 35 H        5.2150     6.5060    -2.4390 H     1 <1>   0.0800 
 36 H        6.5810     5.4530    -2.5760 H     1 <1>   0.0800 
 37 H        5.6090     7.1350     1.2890 H     1 <1>   0.0800 
 38 H        4.7470     8.6040     0.9800 H     1 <1>   0.0800 
 39 H        6.7900     8.8400    -0.1510 H     1 <1>   0.0800 
 40 H        5.5750     8.6260    -1.3670 H     1 <1>   0.0800 
 41 H        8.7490     7.8900     0.7190 H     1 <1>   0.0800 
 42 H        8.9800     8.6430    -0.8380 H     1 <1>   0.0800 
 43 H       10.8750     7.0240    -1.2820 H     1 <1>   0.0800 
 44 H       10.5470     5.2570     0.5040 H     1 <1>   0.3700 
 45 H       12.8570     8.3630     1.8510 H     1 <1>   0.3700 
@<TRIPOS>BOND
  1   1   2  1   
  2   2   3  ar  
  3   2   4  ar  
  4   3   5  ar  
  5   3  27  1   
  6   4   6  ar  
  7   4  28  1   
  8   5   7  1   
  9   5   8  ar  
 10   6   8  ar  
 11   6  29  1   
 12   7   9  2   
 13   7  10  am  
 14   8  30  1   
 15  10  11  1   
 16  10  12  1   
 17  11  13  1   
 18  11  31  1   
 19  11  32  1   
 20  12  14  1   
 21  12  33  1   
 22  12  34  1   
 23  13  15  1   
 24  13  35  1   
 25  13  36  1   
 26  14  16  1   
 27  14  37  1   
 28  14  38  1   
 29  15  16  1   
 30  15  17  am  
 31  16  39  1   
 32  16  40  1   
 33  17  18  2   
 34  17  19  1   
 35  19  20  1   
 36  19  41  1   
 37  19  42  1   
 38  20  21  1   
 39  20  22  1   
 40  20  43  1   
 41  21  23  am  
 42  21  44  1   
 43  22  24  2   
 44  22  25  am  
 45  23  25  am  
 46  23  26  2   
 47  25  45  1   
@<TRIPOS>SUBSTRUCTURE
  1 ****  11 GROUP 4 **** **** 0

# MOE 2024.06 (io_trps.svl 2023.06)
