@<TRIPOS>MOLECULE
NONAME
44 48 1 0 0 
SMALL
USER_CHARGES


@<TRIPOS>ATOM
  1 O        5.1900     3.7240    -0.1760 O.2   1 <1>  -0.5700 
  2 C        6.2800     3.2640    -0.0120 C.2   1 <1>   0.4480 
  3 C        7.4740     3.5260    -0.9070 C.3   1 <1>  -0.0190 
  4 C        6.6780     2.3230     1.1190 C.3   1 <1>   0.1710 
  5 C        7.8280     2.1060    -1.5220 C.3   1 <1>  -0.1600 
  6 C        8.5790     4.0300     0.0910 C.3   1 <1>  -0.1600 
  7 N        8.0410     1.7540     0.8600 N.3   1 <1>  -0.8100 
  8 C        8.0920     1.0290    -0.3880 C.3   1 <1>   0.1900 
  9 C        9.1450     2.7440     0.6990 C.3   1 <1>   0.1900 
 10 C        9.4770     0.2900    -0.3410 C.3   1 <1>  -0.1600 
 11 C       10.2670     2.1120     1.4850 C.3   1 <1>  -0.1600 
 12 C       10.4080     0.6570     0.8970 C.3   1 <1>   0.2000 
 13 O       11.7540     0.4950     0.4980 O.3   1 <1>  -0.4300 
 14 C       12.3440    -0.7020     0.4070 C.2   1 <1>   0.8060 
 15 O       11.7050    -1.6980     0.6890 O.2   1 <1>  -0.5700 
 16 C       13.7150    -0.7150    -0.0320 C.2   1 <1>  -0.0860 
 17 C       14.5270    -1.8720    -0.2070 C.ar  1 <1>   0.0000 
 18 C       14.5110     0.3490    -0.3700 C.2   1 <1>  -0.3020 
 19 C       15.7750    -1.4370    -0.6430 C.ar  1 <1>  -0.1520 
 20 C       14.3120    -3.2440    -0.0330 C.ar  1 <1>  -0.1500 
 21 N       15.7450    -0.0710    -0.7370 N.pl3 1 <1>   0.0330 
 22 C       16.8080    -2.3380    -0.9090 C.ar  1 <1>  -0.1500 
 23 C       15.3290    -4.1350    -0.2950 C.ar  1 <1>  -0.1500 
 24 C       16.5770    -3.6820    -0.7330 C.ar  1 <1>  -0.1500 
 25 H        7.2310     4.2580    -1.6560 H     1 <1>   0.0800 
 26 H        5.9570     1.5290     1.1950 H     1 <1>   0.0800 
 27 H        6.6870     2.8660     2.0470 H     1 <1>   0.0800 
 28 H        8.6840     2.1910    -2.1660 H     1 <1>   0.0800 
 29 H        7.0110     1.7680    -2.1350 H     1 <1>   0.0800 
 30 H        8.1870     4.6850     0.8500 H     1 <1>   0.0800 
 31 H        9.3500     4.5630    -0.4390 H     1 <1>   0.0800 
 32 H        7.3040     0.2920    -0.3990 H     1 <1>   0.0800 
 33 H        9.7080     2.5910    -0.2070 H     1 <1>   0.0800 
 34 H       10.0030     0.4910    -1.2560 H     1 <1>   0.0800 
 35 H        9.2890    -0.7680    -0.3150 H     1 <1>   0.0800 
 36 H       10.0080     2.0820     2.5280 H     1 <1>   0.0800 
 37 H       11.1750     2.6750     1.3610 H     1 <1>   0.0800 
 38 H       10.2060    -0.0350     1.6990 H     1 <1>   0.0800 
 39 H       14.2420     1.3910    -0.3610 H     1 <1>   0.1500 
 40 H       13.3520    -3.5900     0.3040 H     1 <1>   0.1500 
 41 H       16.5330     0.5120    -1.0350 H     1 <1>   0.2700 
 42 H       17.7640    -1.9800    -1.2460 H     1 <1>   0.1500 
 43 H       15.1690    -5.1910    -0.1630 H     1 <1>   0.1500 
 44 H       17.3550    -4.3990    -0.9300 H     1 <1>   0.1500 
@<TRIPOS>BOND
  1   1   2  2   
  2   2   3  1   
  3   2   4  1   
  4   3   5  1   
  5   3   6  1   
  6   3  25  1   
  7   4   7  1   
  8   4  26  1   
  9   4  27  1   
 10   5   8  1   
 11   5  28  1   
 12   5  29  1   
 13   6   9  1   
 14   6  30  1   
 15   6  31  1   
 16   7   8  1   
 17   7   9  1   
 18   8  10  1   
 19   8  32  1   
 20   9  11  1   
 21   9  33  1   
 22  10  12  1   
 23  10  34  1   
 24  10  35  1   
 25  11  12  1   
 26  11  36  1   
 27  11  37  1   
 28  12  13  1   
 29  12  38  1   
 30  13  14  1   
 31  14  15  2   
 32  14  16  1   
 33  16  17  1   
 34  16  18  2   
 35  17  19  ar  
 36  17  20  ar  
 37  18  21  1   
 38  18  39  1   
 39  19  21  1   
 40  19  22  ar  
 41  20  23  ar  
 42  20  40  1   
 43  21  41  1   
 44  22  24  ar  
 45  22  42  1   
 46  23  24  ar  
 47  23  43  1   
 48  24  44  1   
@<TRIPOS>SUBSTRUCTURE
  1 ****  13 GROUP 4 **** **** 0

# MOE 2024.06 (io_trps.svl 2023.06)
