@<TRIPOS>MOLECULE
NONAME
42 44 1 0 0 
SMALL
USER_CHARGES


@<TRIPOS>ATOM
  1 CL       0.2160     0.7640    -0.4300 Cl    1 <1>  -0.1770 
  2 C       -1.2560     1.5800     0.0250 C.ar  1 <1>   0.1770 
  3 C       -1.3110     2.9480     0.0270 C.ar  1 <1>  -0.1500 
  4 C       -2.3590     0.8090     0.3800 C.ar  1 <1>  -0.1500 
  5 C       -2.4950     3.6230     0.3920 C.ar  1 <1>   0.0000 
  6 C       -3.5250     1.4360     0.7410 C.ar  1 <1>  -0.1500 
  7 C       -3.6130     2.8380     0.7530 C.ar  1 <1>   0.3610 
  8 C       -2.6110     5.0470     0.4130 C.ar  1 <1>   0.1000 
  9 N       -4.7850     3.4670     1.1150 N.ar  1 <1>  -0.1790 
 10 N       -1.5630     5.8240     0.0790 N.pl3 1 <1>  -0.8690 
 11 C       -3.8340     5.6000     0.7930 C.ar  1 <1>  -0.1500 
 12 C       -4.8980     4.8090     1.1370 C.ar  1 <1>   0.2110 
 13 C       -1.4170     7.2970     0.0140 C.3   1 <1>   0.3890 
 14 C       -0.0540     7.6360    -0.5800 C.2   1 <1>   0.0070 
 15 N        0.9480     6.8200    -0.6110 N.2   1 <1>  -0.3380 
 16 N        0.2620     8.8150    -1.1320 N.pl3 1 <1>   0.0480 
 17 N        1.9600     7.4590    -1.1940 N.2   1 <1>  -0.3380 
 18 C        1.5340     8.6360    -1.4930 C.2   1 <1>   0.0360 
 19 C       -0.5540    10.0310    -1.3440 C.3   1 <1>   0.0960 
 20 C       -0.8140    10.7560    -0.0190 C.3   1 <1>  -0.1600 
 21 C       -1.6310    12.0270    -0.2390 C.3   1 <1>   0.1200 
 22 O       -1.9540    12.5220     1.0130 O.3   1 <1>  -0.5600 
 23 C       -2.6620    13.7190     0.9890 C.3   1 <1>   0.0400 
 24 H       -0.4320     3.5020    -0.2560 H     1 <1>   0.1500 
 25 H       -2.2680    -0.2650     0.3630 H     1 <1>   0.1500 
 26 H       -4.3770     0.8380     1.0150 H     1 <1>   0.1500 
 27 H       -5.5800     2.8760     1.3720 H     1 <1>   0.4570 
 28 H       -0.6460     5.4140    -0.1730 H     1 <1>   0.4000 
 29 H       -3.9410     6.6690     0.8180 H     1 <1>   0.1500 
 30 H       -5.8390     5.2490     1.4290 H     1 <1>   0.1500 
 31 H       -1.4860     7.7080     1.0070 H     1 <1>   0.0800 
 32 H       -2.1990     7.7070    -0.5990 H     1 <1>   0.0800 
 33 H        2.1240     9.3920    -1.9780 H     1 <1>   0.1500 
 34 H       -1.4830     9.7480    -1.8060 H     1 <1>   0.0800 
 35 H       -0.0270    10.6830    -2.0190 H     1 <1>   0.0800 
 36 H        0.1230    11.0240     0.4380 H     1 <1>   0.0800 
 37 H       -1.3590    10.1150     0.6490 H     1 <1>   0.0800 
 38 H       -2.5460    11.8160    -0.7670 H     1 <1>   0.0800 
 39 H       -1.0580    12.7680    -0.7720 H     1 <1>   0.0800 
 40 H       -2.8650    14.0080     2.0050 H     1 <1>   0.0800 
 41 H       -3.5890    13.5760     0.4610 H     1 <1>   0.0800 
 42 H       -2.0650    14.4770     0.5110 H     1 <1>   0.0800 
@<TRIPOS>BOND
  1   1   2  1   
  2   2   3  ar  
  3   2   4  ar  
  4   3   5  ar  
  5   3  24  1   
  6   4   6  ar  
  7   4  25  1   
  8   5   7  ar  
  9   5   8  ar  
 10   6   7  ar  
 11   6  26  1   
 12   7   9  ar  
 13   8  10  1   
 14   8  11  ar  
 15   9  12  ar  
 16   9  27  1   
 17  10  13  1   
 18  10  28  1   
 19  11  12  ar  
 20  11  29  1   
 21  12  30  1   
 22  13  14  1   
 23  13  31  1   
 24  13  32  1   
 25  14  15  2   
 26  14  16  1   
 27  15  17  1   
 28  16  18  1   
 29  16  19  1   
 30  17  18  2   
 31  18  33  1   
 32  19  20  1   
 33  19  34  1   
 34  19  35  1   
 35  20  21  1   
 36  20  36  1   
 37  20  37  1   
 38  21  22  1   
 39  21  38  1   
 40  21  39  1   
 41  22  23  1   
 42  23  40  1   
 43  23  41  1   
 44  23  42  1   
@<TRIPOS>SUBSTRUCTURE
  1 ****  10 GROUP 4 **** **** 0

# MOE 2024.06 (io_trps.svl 2023.06)
