@<TRIPOS>MOLECULE
NONAME
47 49 1 0 0 
SMALL
USER_CHARGES


@<TRIPOS>ATOM
  1 S       -0.9240     0.9140    -0.9210 S.3   1 <1>  -0.3320 
  2 C        0.7720     1.4180    -1.2240 C.ar  1 <1>   0.4120 
  3 C       -1.1380     0.7730     0.9220 C.3   1 <1>   0.1310 
  4 N        1.0390     1.6210    -2.5010 N.ar  1 <1>  -0.6200 
  5 C        1.6770     1.5660    -0.1800 C.ar  1 <1>  -0.1500 
  6 C       -2.5700     0.4110     1.2890 C.2   1 <1>   0.5690 
  7 C        2.2810     1.9960    -2.7590 C.ar  1 <1>   0.1600 
  8 C        2.9660     1.9580    -0.4710 C.ar  1 <1>  -0.1500 
  9 O       -2.8430     0.2410     2.4520 O.2   1 <1>  -0.5700 
 10 N       -3.5090     0.2690     0.3190 N.am  1 <1>  -0.7300 
 11 C        3.2650     2.1760    -1.8000 C.ar  1 <1>  -0.1500 
 12 C       -4.9550     0.0020     0.5120 C.3   1 <1>   0.2200 
 13 C       -5.2180    -1.4700     0.9070 C.3   1 <1>   0.2000 
 14 C       -5.6740     0.3760    -0.7880 C.3   1 <1>  -0.1600 
 15 O       -4.7350    -1.7100     2.1880 O.3   1 <1>  -0.6800 
 16 C       -6.7120    -1.8170     0.8960 C.3   1 <1>   0.1400 
 17 C       -7.1670     0.0550    -0.7070 C.3   1 <1>   0.1400 
 18 N       -7.3380    -1.3890    -0.3940 N.am  1 <1>  -0.6600 
 19 C       -7.8410    -2.2760    -1.3260 C.2   1 <1>   0.5440 
 20 O       -7.9280    -1.9170    -2.4850 O.2   1 <1>  -0.5700 
 21 C       -8.2520    -3.6220    -0.9690 C.ar  1 <1>   0.0860 
 22 C       -9.1100    -3.8670     0.1040 C.ar  1 <1>  -0.1500 
 23 C       -7.8040    -4.7220    -1.6990 C.ar  1 <1>  -0.1500 
 24 C       -9.4890    -5.1530     0.4450 C.ar  1 <1>  -0.1500 
 25 C       -8.1800    -6.0110    -1.3640 C.ar  1 <1>  -0.1500 
 26 C       -9.0220    -6.2280    -0.2890 C.ar  1 <1>  -0.1500 
 27 H       -0.4670     0.0090     1.2670 H     1 <1>   0.0800 
 28 H       -0.8810     1.7230     1.3500 H     1 <1>   0.0800 
 29 H        1.4010     1.3840     0.8370 H     1 <1>   0.1500 
 30 H        2.5300     2.1690    -3.7920 H     1 <1>   0.1500 
 31 H        3.7070     2.0890     0.3000 H     1 <1>   0.1500 
 32 H       -3.2060     0.3760    -0.6550 H     1 <1>   0.3700 
 33 H        4.2520     2.4840    -2.0940 H     1 <1>   0.1500 
 34 H       -5.3280     0.6340     1.3010 H     1 <1>   0.0800 
 35 H       -4.6980    -2.1260     0.2300 H     1 <1>   0.0800 
 36 H       -5.5550     1.4280    -0.9770 H     1 <1>   0.0800 
 37 H       -5.2570    -0.1700    -1.6160 H     1 <1>   0.0800 
 38 H       -3.9780    -1.0940     2.3720 H     1 <1>   0.4000 
 39 H       -7.2050    -1.3080     1.7050 H     1 <1>   0.0800 
 40 H       -6.8160    -2.8760     1.0410 H     1 <1>   0.0800 
 41 H       -7.6450     0.3020    -1.6400 H     1 <1>   0.0800 
 42 H       -7.6330     0.6410     0.0670 H     1 <1>   0.0800 
 43 H       -9.4830    -3.0330     0.6730 H     1 <1>   0.1500 
 44 H       -7.1550    -4.5540    -2.5400 H     1 <1>   0.1500 
 45 H      -10.1490    -5.3180     1.2790 H     1 <1>   0.1500 
 46 H       -7.8190    -6.8450    -1.9420 H     1 <1>   0.1500 
 47 H       -9.3160    -7.2300    -0.0270 H     1 <1>   0.1500 
@<TRIPOS>BOND
  1   1   2  1   
  2   1   3  1   
  3   2   4  ar  
  4   2   5  ar  
  5   3   6  1   
  6   3  27  1   
  7   3  28  1   
  8   4   7  ar  
  9   5   8  ar  
 10   5  29  1   
 11   6   9  2   
 12   6  10  am  
 13   7  11  ar  
 14   7  30  1   
 15   8  11  ar  
 16   8  31  1   
 17  10  12  1   
 18  10  32  1   
 19  11  33  1   
 20  12  13  1   
 21  12  14  1   
 22  12  34  1   
 23  13  15  1   
 24  13  16  1   
 25  13  35  1   
 26  14  17  1   
 27  14  36  1   
 28  14  37  1   
 29  15  38  1   
 30  16  18  1   
 31  16  39  1   
 32  16  40  1   
 33  17  18  1   
 34  17  41  1   
 35  17  42  1   
 36  18  19  am  
 37  19  20  2   
 38  19  21  1   
 39  21  22  ar  
 40  21  23  ar  
 41  22  24  ar  
 42  22  43  1   
 43  23  25  ar  
 44  23  44  1   
 45  24  26  ar  
 46  24  45  1   
 47  25  26  ar  
 48  25  46  1   
 49  26  47  1   
@<TRIPOS>SUBSTRUCTURE
  1 ****  12 GROUP 4 **** **** 0

# MOE 2024.06 (io_trps.svl 2023.06)
