@<TRIPOS>MOLECULE
NONAME
43 45 1 0 0 
SMALL
USER_CHARGES


@<TRIPOS>ATOM
  1 S        0.1140    -0.2760     0.6090 S.o2  1 <1>   1.3330 
  2 O       -0.7520     0.8780     0.6950 O.2   1 <1>  -0.6500 
  3 O        0.5220    -0.9510     1.8200 O.2   1 <1>  -0.6500 
  4 N       -0.6350    -1.4250    -0.3920 N.am  1 <1>  -0.8490 
  5 C        1.5520     0.1970    -0.3520 C.3   1 <1>  -0.0550 
  6 C       -0.0730    -2.7730    -0.2510 C.3   1 <1>   0.1160 
  7 C       -2.0870    -1.4690    -0.1960 C.3   1 <1>   0.1160 
  8 C        2.3960     1.3130     0.2960 C.3   1 <1>  -0.0800 
  9 C        3.4570     1.8190    -0.6670 C.3   1 <1>   0.2200 
 10 C        3.2610     0.7820     1.4380 C.3   1 <1>   0.1200 
 11 N        3.8360     3.1990    -0.2960 N.am  1 <1>  -0.7300 
 12 C        4.6270     0.8660    -0.4120 C.3   1 <1>   0.1200 
 13 O        4.4020     0.2630     0.8300 O.3   1 <1>  -0.5600 
 14 C        3.6670     4.3190    -1.0540 C.2   1 <1>   0.7160 
 15 O        3.1560     4.2110    -2.1550 O.2   1 <1>  -0.5700 
 16 C        4.1000     5.6060    -0.5330 C.2   1 <1>   0.1410 
 17 N        4.6900     5.7490     0.6860 N.2   1 <1>  -0.5650 
 18 C        3.9980     6.8270    -1.1370 C.2   1 <1>  -0.3020 
 19 C        4.9280     7.0250     0.7920 C.2   1 <1>   0.3120 
 20 N        4.5180     7.7420    -0.3120 N.pl3 1 <1>   0.3340 
 21 N        5.5230     7.6240     1.8770 N.2   1 <1>  -0.5760 
 22 C        4.6980     9.1120    -0.3600 C.2   1 <1>  -0.1810 
 23 C        5.6860     8.9020     1.8200 C.2   1 <1>   0.3760 
 24 C        5.2860     9.7010     0.7110 C.2   1 <1>  -0.1360 
 25 H        2.1680    -0.6650    -0.5230 H     1 <1>   0.0800 
 26 H        1.2060     0.5440    -1.3060 H     1 <1>   0.0800 
 27 H       -0.5190    -3.4360    -0.9720 H     1 <1>   0.0800 
 28 H       -0.2570    -3.1560     0.7400 H     1 <1>   0.0800 
 29 H        0.9900    -2.7530    -0.4200 H     1 <1>   0.0800 
 30 H       -2.5310    -2.1950    -0.8550 H     1 <1>   0.0800 
 31 H       -2.5190    -0.5070    -0.4180 H     1 <1>   0.0800 
 32 H       -2.3200    -1.7250     0.8250 H     1 <1>   0.0800 
 33 H        1.7470     2.1080     0.6220 H     1 <1>   0.0800 
 34 H        3.1400     1.7880    -1.6960 H     1 <1>   0.0800 
 35 H        2.7920     0.0110     2.0240 H     1 <1>   0.0800 
 36 H        3.5710     1.5830     2.0870 H     1 <1>   0.0800 
 37 H        4.2860     3.3380     0.6140 H     1 <1>   0.3700 
 38 H        5.5740     1.3770    -0.3940 H     1 <1>   0.0800 
 39 H        4.6490     0.0840    -1.1500 H     1 <1>   0.0800 
 40 H        3.5850     7.0630    -2.1000 H     1 <1>   0.1500 
 41 H        4.3620     9.6250    -1.2420 H     1 <1>   0.1500 
 42 H        6.1490     9.4050     2.6510 H     1 <1>   0.0600 
 43 H        5.4670    10.7590     0.7620 H     1 <1>   0.1500 
@<TRIPOS>BOND
  1   1   2  2   
  2   1   3  2   
  3   1   4  am  
  4   1   5  1   
  5   4   6  1   
  6   4   7  1   
  7   5   8  1   
  8   5  25  1   
  9   5  26  1   
 10   6  27  1   
 11   6  28  1   
 12   6  29  1   
 13   7  30  1   
 14   7  31  1   
 15   7  32  1   
 16   8   9  1   
 17   8  10  1   
 18   8  33  1   
 19   9  11  1   
 20   9  12  1   
 21   9  34  1   
 22  10  13  1   
 23  10  35  1   
 24  10  36  1   
 25  11  14  am  
 26  11  37  1   
 27  12  13  1   
 28  12  38  1   
 29  12  39  1   
 30  14  15  2   
 31  14  16  1   
 32  16  17  1   
 33  16  18  2   
 34  17  19  2   
 35  18  20  1   
 36  18  40  1   
 37  19  20  1   
 38  19  21  1   
 39  20  22  1   
 40  21  23  2   
 41  22  24  2   
 42  22  41  1   
 43  23  24  1   
 44  23  42  1   
 45  24  43  1   
@<TRIPOS>SUBSTRUCTURE
  1 ****  11 GROUP 4 **** **** 0

# MOE 2024.06 (io_trps.svl 2023.06)
