@<TRIPOS>MOLECULE
NONAME
60 63 1 0 0 
SMALL
USER_CHARGES


@<TRIPOS>ATOM
  1 O       -0.5730     1.2960     1.1790 O.2   1 <1>  -0.5700 
  2 C       -1.6600     1.6560     0.7700 C.2   1 <1>   0.5440 
  3 N       -2.5580     0.7040     0.3470 N.am  1 <1>  -0.6600 
  4 C       -1.9790     3.0710     0.7290 C.ar  1 <1>   0.0860 
  5 C       -3.7430     0.9720    -0.5060 C.3   1 <1>   0.1400 
  6 C       -2.2390    -0.7460     0.3550 C.3   1 <1>   0.1400 
  7 C       -1.1320     3.9730     0.0910 C.ar  1 <1>  -0.1500 
  8 C       -3.1320     3.5790     1.3260 C.ar  1 <1>  -0.1500 
  9 C       -4.0850    -0.3750    -1.1430 C.3   1 <1>   0.2000 
 10 C       -3.4790    -1.4310    -0.2220 C.3   1 <1>  -0.0800 
 11 C       -1.4200     5.3250     0.0340 C.ar  1 <1>   0.0830 
 12 C       -3.4360     4.9280     1.2730 C.ar  1 <1>  -0.1500 
 13 O       -5.4560    -0.5590    -1.2390 O.3   1 <1>  -0.6800 
 14 C       -3.1880    -2.7550    -0.9490 C.3   1 <1>  -0.0170 
 15 O       -0.5240     6.1130    -0.6070 O.3   1 <1>  -0.3630 
 16 C       -2.5850     5.8050     0.6250 C.ar  1 <1>  -0.1500 
 17 C       -2.6310    -3.8040    -0.0020 C.ar  1 <1>   0.1670 
 18 C       -0.5930     7.5300    -0.5170 C.3   1 <1>   0.1810 
 19 N       -1.3270    -3.7590     0.2240 N.ar  1 <1>  -0.6200 
 20 C       -3.4850    -4.7340     0.5730 C.ar  1 <1>  -0.1500 
 21 C        0.6090     8.1970    -1.1810 C.2   1 <1>   0.5690 
 22 C       -0.8560    -4.6740     1.0560 C.ar  1 <1>   0.1600 
 23 C       -2.9810    -5.6820     1.4370 C.ar  1 <1>  -0.1500 
 24 O        0.3740     8.9290    -2.1170 O.2   1 <1>  -0.5700 
 25 N        1.8920     8.0100    -0.7180 N.am  1 <1>  -0.6600 
 26 C       -1.6250    -5.6410     1.6800 C.ar  1 <1>  -0.1500 
 27 C        3.0550     8.6700    -1.3740 C.3   1 <1>   0.1400 
 28 C        2.2680     7.1050     0.4070 C.3   1 <1>   0.1400 
 29 C        3.8520     9.4680    -0.3370 C.3   1 <1>  -0.1600 
 30 C        3.0580     7.8880     1.4610 C.3   1 <1>  -0.1600 
 31 C        4.2780     8.5900     0.8480 C.3   1 <1>  -0.1600 
 32 H       -4.5520     1.3190     0.1120 H     1 <1>   0.0800 
 33 H       -3.5080     1.7030    -1.2600 H     1 <1>   0.0800 
 34 H       -1.3760    -0.9210    -0.2670 H     1 <1>   0.0800 
 35 H       -2.0240    -1.0870     1.3540 H     1 <1>   0.0800 
 36 H       -0.2290     3.6090    -0.3660 H     1 <1>   0.1500 
 37 H       -3.7910     2.9040     1.8430 H     1 <1>   0.1500 
 38 H       -3.6630    -0.4270    -2.1320 H     1 <1>   0.0800 
 39 H       -4.1480    -1.6170     0.6010 H     1 <1>   0.0800 
 40 H       -4.3340     5.2960     1.7390 H     1 <1>   0.1500 
 41 H       -5.8620    -0.5500    -0.3510 H     1 <1>   0.4000 
 42 H       -2.4820    -2.5910    -1.7440 H     1 <1>   0.0800 
 43 H       -4.0950    -3.1220    -1.3940 H     1 <1>   0.0800 
 44 H       -2.8450     6.8460     0.5920 H     1 <1>   0.1500 
 45 H       -1.4920     7.8510    -1.0100 H     1 <1>   0.0800 
 46 H       -0.6260     7.8070     0.5190 H     1 <1>   0.0800 
 47 H       -4.5360    -4.7180     0.3480 H     1 <1>   0.1500 
 48 H        0.2030    -4.6510     1.2520 H     1 <1>   0.1500 
 49 H       -3.6160    -6.4180     1.9000 H     1 <1>   0.1500 
 50 H       -1.1660    -6.3500     2.3440 H     1 <1>   0.1500 
 51 H        3.6810     7.9150    -1.8170 H     1 <1>   0.0800 
 52 H        2.7270     9.3310    -2.1590 H     1 <1>   0.0800 
 53 H        1.4020     6.6680     0.8700 H     1 <1>   0.0800 
 54 H        2.8730     6.3030     0.0190 H     1 <1>   0.0800 
 55 H        4.7230     9.8890    -0.8070 H     1 <1>   0.0800 
 56 H        3.2430    10.2830     0.0130 H     1 <1>   0.0800 
 57 H        2.4090     8.6180     1.9110 H     1 <1>   0.0800 
 58 H        3.3810     7.2140     2.2350 H     1 <1>   0.0800 
 59 H        4.7650     9.1950     1.5940 H     1 <1>   0.0800 
 60 H        4.9820     7.8490     0.5080 H     1 <1>   0.0800 
@<TRIPOS>BOND
  1   1   2  2   
  2   2   3  am  
  3   2   4  1   
  4   3   5  1   
  5   3   6  1   
  6   4   7  ar  
  7   4   8  ar  
  8   5   9  1   
  9   5  32  1   
 10   5  33  1   
 11   6  10  1   
 12   6  34  1   
 13   6  35  1   
 14   7  11  ar  
 15   7  36  1   
 16   8  12  ar  
 17   8  37  1   
 18   9  10  1   
 19   9  13  1   
 20   9  38  1   
 21  10  14  1   
 22  10  39  1   
 23  11  15  1   
 24  11  16  ar  
 25  12  16  ar  
 26  12  40  1   
 27  13  41  1   
 28  14  17  1   
 29  14  42  1   
 30  14  43  1   
 31  15  18  1   
 32  16  44  1   
 33  17  19  ar  
 34  17  20  ar  
 35  18  21  1   
 36  18  45  1   
 37  18  46  1   
 38  19  22  ar  
 39  20  23  ar  
 40  20  47  1   
 41  21  24  2   
 42  21  25  am  
 43  22  26  ar  
 44  22  48  1   
 45  23  26  ar  
 46  23  49  1   
 47  25  27  1   
 48  25  28  1   
 49  26  50  1   
 50  27  29  1   
 51  27  51  1   
 52  27  52  1   
 53  28  30  1   
 54  28  53  1   
 55  28  54  1   
 56  29  31  1   
 57  29  55  1   
 58  29  56  1   
 59  30  31  1   
 60  30  57  1   
 61  30  58  1   
 62  31  59  1   
 63  31  60  1   
@<TRIPOS>SUBSTRUCTURE
  1 ****   4 GROUP 4 **** **** 0

# MOE 2024.06 (io_trps.svl 2023.06)
