@<TRIPOS>MOLECULE
NONAME
53 55 1 0 0 
SMALL
USER_CHARGES


@<TRIPOS>ATOM
  1 F        0.2720     6.2750    -2.0720 F     1 <1>  -0.1900 
  2 C        1.0730     5.2740    -1.8270 C.ar  1 <1>   0.1900 
  3 C        1.6300     5.1610    -0.5680 C.ar  1 <1>  -0.1500 
  4 C        1.3380     4.3700    -2.8370 C.ar  1 <1>  -0.1500 
  5 C        2.4970     4.1080    -0.3030 C.ar  1 <1>  -0.1440 
  6 C        2.1970     3.3180    -2.5710 C.ar  1 <1>  -0.1500 
  7 C        2.7710     3.1910    -1.3140 C.ar  1 <1>  -0.1500 
  8 C        3.1540     3.9560     1.0740 C.3   1 <1>   0.3940 
  9 N        2.1250     3.8240     2.1670 N.3   1 <1>  -0.8100 
 10 C        4.0880     5.1640     1.2880 C.2   1 <1>   0.5690 
 11 C        2.7550     3.4270     3.4400 C.3   1 <1>   0.0300 
 12 C        1.0730     2.8430     1.8380 C.3   1 <1>   0.0300 
 13 O        5.2090     5.1540     0.8240 O.2   1 <1>  -0.5700 
 14 N        3.5820     6.2210     2.0000 N.am  1 <1>  -0.4940 
 15 C        4.1240     7.4780     2.3600 C.2   1 <1>  -0.0880 
 16 N        4.9200     8.2930     1.6110 N.pl3 1 <1>   0.3140 
 17 C        3.9270     8.1200     3.5350 C.2   1 <1>  -0.1500 
 18 N        5.2400     9.4240     2.2880 N.2   1 <1>  -0.7070 
 19 C        5.3820     8.0930     0.2140 C.3   1 <1>   0.1760 
 20 C        4.6410     9.3060     3.4320 C.2   1 <1>   0.1390 
 21 C        6.8890     7.7980     0.2010 C.3   1 <1>  -0.1600 
 22 C        5.0680     9.3120    -0.6670 C.3   1 <1>  -0.1600 
 23 C        7.3770     7.5970    -1.2260 C.3   1 <1>   0.3430 
 24 C        5.6000     9.1000    -2.0810 C.3   1 <1>   0.3430 
 25 N        7.0660     8.8160    -2.0310 N.4   1 <1>  -0.9590 
 26 C        7.6360     8.7050    -3.4070 C.3   1 <1>   0.2630 
 27 H        1.3790     5.8840     0.1870 H     1 <1>   0.1500 
 28 H        0.8800     4.4880    -3.8030 H     1 <1>   0.1500 
 29 H        2.4180     2.5960    -3.3390 H     1 <1>   0.1500 
 30 H        3.4380     2.3660    -1.1290 H     1 <1>   0.1500 
 31 H        3.7650     3.0710     1.0680 H     1 <1>   0.0800 
 32 H        3.5070     4.1370     3.7380 H     1 <1>   0.0800 
 33 H        3.2120     2.4550     3.3500 H     1 <1>   0.0800 
 34 H        2.0110     3.3870     4.2180 H     1 <1>   0.0800 
 35 H        0.4940     3.1740     0.9930 H     1 <1>   0.0800 
 36 H        0.3990     2.7340     2.6700 H     1 <1>   0.0800 
 37 H        1.5060     1.8830     1.6120 H     1 <1>   0.0800 
 38 H        2.6850     5.9700     2.4400 H     1 <1>   0.3700 
 39 H        3.3510     7.8040     4.3850 H     1 <1>   0.1500 
 40 H        4.8480     7.2590    -0.1980 H     1 <1>   0.0800 
 41 H        4.6980    10.0510     4.2100 H     1 <1>   0.1500 
 42 H        7.0870     6.9040     0.7660 H     1 <1>   0.0800 
 43 H        7.4320     8.6050     0.6610 H     1 <1>   0.0800 
 44 H        5.5080    10.2030    -0.2530 H     1 <1>   0.0800 
 45 H        4.0030     9.4560    -0.7090 H     1 <1>   0.0800 
 46 H        6.8910     6.7350    -1.6550 H     1 <1>   0.0800 
 47 H        8.4410     7.4180    -1.2180 H     1 <1>   0.0800 
 48 H        5.4140     9.9840    -2.6690 H     1 <1>   0.0800 
 49 H        5.0840     8.2720    -2.5400 H     1 <1>   0.0800 
 50 H        7.5130     9.6140    -1.5540 H     1 <1>   0.4500 
 51 H        7.1900     7.8750    -3.9320 H     1 <1>   0.0800 
 52 H        8.7020     8.5490    -3.3590 H     1 <1>   0.0800 
 53 H        7.4480     9.6080    -3.9660 H     1 <1>   0.0800 
@<TRIPOS>BOND
  1   1   2  1   
  2   2   3  ar  
  3   2   4  ar  
  4   3   5  ar  
  5   3  27  1   
  6   4   6  ar  
  7   4  28  1   
  8   5   7  ar  
  9   5   8  1   
 10   6   7  ar  
 11   6  29  1   
 12   7  30  1   
 13   8   9  1   
 14   8  10  1   
 15   8  31  1   
 16   9  11  1   
 17   9  12  1   
 18  10  13  2   
 19  10  14  am  
 20  11  32  1   
 21  11  33  1   
 22  11  34  1   
 23  12  35  1   
 24  12  36  1   
 25  12  37  1   
 26  14  15  1   
 27  14  38  1   
 28  15  16  1   
 29  15  17  2   
 30  16  18  1   
 31  16  19  1   
 32  17  20  1   
 33  17  39  1   
 34  18  20  2   
 35  19  21  1   
 36  19  22  1   
 37  19  40  1   
 38  20  41  1   
 39  21  23  1   
 40  21  42  1   
 41  21  43  1   
 42  22  24  1   
 43  22  44  1   
 44  22  45  1   
 45  23  25  1   
 46  23  46  1   
 47  23  47  1   
 48  24  25  1   
 49  24  48  1   
 50  24  49  1   
 51  25  26  1   
 52  25  50  1   
 53  26  51  1   
 54  26  52  1   
 55  26  53  1   
@<TRIPOS>SUBSTRUCTURE
  1 ****  10 GROUP 4 **** **** 0

# MOE 2024.06 (io_trps.svl 2023.06)
