@<TRIPOS>MOLECULE
NONAME
62 65 1 0 0 
SMALL
USER_CHARGES


@<TRIPOS>ATOM
  1 O       -3.7240     2.6730    -2.4840 O.2   1 <1>  -0.5700 
  2 C       -3.5300     3.0580    -1.3460 C.2   1 <1>   0.5440 
  3 N       -4.1090     2.3660    -0.2970 N.am  1 <1>  -0.6600 
  4 C       -2.6900     4.2230    -1.1240 C.ar  1 <1>   0.0860 
  5 C       -5.2320     1.4190    -0.5780 C.3   1 <1>   0.2200 
  6 C       -3.3950     2.2480     1.0120 C.3   1 <1>   0.0600 
  7 C       -3.0350     5.2090    -0.2000 C.ar  1 <1>  -0.1500 
  8 C       -1.5030     4.3970    -1.8330 C.ar  1 <1>  -0.1500 
  9 C       -6.4400     2.1520    -1.1650 C.3   1 <1>  -0.1600 
 10 C       -5.8240     0.7180     0.6500 C.3   1 <1>  -0.1600 
 11 C       -2.2250     6.3080     0.0180 C.ar  1 <1>  -0.1500 
 12 C       -0.6880     5.4940    -1.6190 C.ar  1 <1>  -0.1500 
 13 C       -7.6250     1.2080    -0.9370 C.3   1 <1>  -0.0800 
 14 C       -7.2200     0.2680     0.2010 C.3   1 <1>  -0.0800 
 15 C       -1.0430     6.4580    -0.6890 C.ar  1 <1>  -0.1430 
 16 C       -8.9240     1.8830    -0.4790 C.3   1 <1>  -0.1600 
 17 C       -8.3260     0.3900     1.2620 C.3   1 <1>  -0.1600 
 18 C       -0.1570     7.6700    -0.4470 C.3   1 <1>   0.2630 
 19 C       -9.5600     0.9000     0.5080 C.3   1 <1>   0.4230 
 20 O        0.2680     7.6600     0.8970 O.3   1 <1>  -0.3630 
 21 N      -10.2370    -0.2220    -0.2200 N.4   1 <1>  -0.9590 
 22 C        1.0600     8.6420     1.3920 C.ar  1 <1>   0.0820 
 23 C      -11.3580     0.2490    -1.0960 C.3   1 <1>   0.2630 
 24 C      -10.7650    -1.2770     0.7030 C.3   1 <1>   0.2630 
 25 C        1.5080     9.7310     0.6470 C.ar  1 <1>  -0.1500 
 26 C        1.4300     8.5300     2.7230 C.ar  1 <1>  -0.1500 
 27 C        2.3150    10.6880     1.2380 C.ar  1 <1>  -0.1500 
 28 C        2.2360     9.4880     3.3120 C.ar  1 <1>  -0.1500 
 29 C        2.6790    10.5680     2.5680 C.ar  1 <1>  -0.1500 
 30 H       -4.8960     0.6750    -1.2820 H     1 <1>   0.0800 
 31 H       -3.9860     2.6930     1.7930 H     1 <1>   0.0800 
 32 H       -2.4420     2.7460     0.9780 H     1 <1>   0.0800 
 33 H       -3.2160     1.2130     1.2420 H     1 <1>   0.0800 
 34 H       -3.9530     5.1090     0.3510 H     1 <1>   0.1500 
 35 H       -1.2240     3.6550    -2.5610 H     1 <1>   0.1500 
 36 H       -6.5750     3.0790    -0.6360 H     1 <1>   0.0800 
 37 H       -6.3020     2.3580    -2.2120 H     1 <1>   0.0800 
 38 H       -5.2210    -0.1190     0.9550 H     1 <1>   0.0800 
 39 H       -5.9090     1.4230     1.4570 H     1 <1>   0.0800 
 40 H       -2.5110     7.0490     0.7440 H     1 <1>   0.1500 
 41 H        0.2250     5.5900    -2.1820 H     1 <1>   0.1500 
 42 H       -7.7950     0.6270    -1.8290 H     1 <1>   0.0800 
 43 H       -7.1680    -0.7390    -0.1790 H     1 <1>   0.0800 
 44 H       -9.5490     2.1730    -1.3030 H     1 <1>   0.0800 
 45 H       -8.6870     2.7790     0.0690 H     1 <1>   0.0800 
 46 H       -8.0560     1.1470     1.9770 H     1 <1>   0.0800 
 47 H       -8.4710    -0.5230     1.8070 H     1 <1>   0.0800 
 48 H       -0.7120     8.5750    -0.6210 H     1 <1>   0.0800 
 49 H        0.7140     7.6430    -1.0770 H     1 <1>   0.0800 
 50 H      -10.2530     1.3950     1.1700 H     1 <1>   0.0800 
 51 H       -9.5130    -0.6440    -0.8200 H     1 <1>   0.4500 
 52 H      -12.0890     0.7860    -0.5130 H     1 <1>   0.0800 
 53 H      -11.8430    -0.5920    -1.5640 H     1 <1>   0.0800 
 54 H      -10.9910     0.8970    -1.8730 H     1 <1>   0.0800 
 55 H      -11.4580    -0.8450     1.4080 H     1 <1>   0.0800 
 56 H       -9.9630    -1.7450     1.2490 H     1 <1>   0.0800 
 57 H      -11.2770    -2.0410     0.1420 H     1 <1>   0.0800 
 58 H        1.2440     9.8540    -0.3860 H     1 <1>   0.1500 
 59 H        1.0820     7.6870     3.2930 H     1 <1>   0.1500 
 60 H        2.6610    11.5300     0.6630 H     1 <1>   0.1500 
 61 H        2.5190     9.3920     4.3460 H     1 <1>   0.1500 
 62 H        3.3070    11.3140     3.0250 H     1 <1>   0.1500 
@<TRIPOS>BOND
  1   1   2  2   
  2   2   3  am  
  3   2   4  1   
  4   3   5  1   
  5   3   6  1   
  6   4   7  ar  
  7   4   8  ar  
  8   5   9  1   
  9   5  10  1   
 10   5  30  1   
 11   6  31  1   
 12   6  32  1   
 13   6  33  1   
 14   7  11  ar  
 15   7  34  1   
 16   8  12  ar  
 17   8  35  1   
 18   9  13  1   
 19   9  36  1   
 20   9  37  1   
 21  10  14  1   
 22  10  38  1   
 23  10  39  1   
 24  11  15  ar  
 25  11  40  1   
 26  12  15  ar  
 27  12  41  1   
 28  13  14  1   
 29  13  16  1   
 30  13  42  1   
 31  14  17  1   
 32  14  43  1   
 33  15  18  1   
 34  16  19  1   
 35  16  44  1   
 36  16  45  1   
 37  17  19  1   
 38  17  46  1   
 39  17  47  1   
 40  18  20  1   
 41  18  48  1   
 42  18  49  1   
 43  19  21  1   
 44  19  50  1   
 45  20  22  1   
 46  21  23  1   
 47  21  24  1   
 48  21  51  1   
 49  22  25  ar  
 50  22  26  ar  
 51  23  52  1   
 52  23  53  1   
 53  23  54  1   
 54  24  55  1   
 55  24  56  1   
 56  24  57  1   
 57  25  27  ar  
 58  25  58  1   
 59  26  28  ar  
 60  26  59  1   
 61  27  29  ar  
 62  27  60  1   
 63  28  29  ar  
 64  28  61  1   
 65  29  62  1   
@<TRIPOS>SUBSTRUCTURE
  1 ****   7 GROUP 4 **** **** 0

# MOE 2024.06 (io_trps.svl 2023.06)
