@<TRIPOS>MOLECULE
NONAME
49 52 1 0 0 
SMALL
USER_CHARGES


@<TRIPOS>ATOM
  1 O       -0.6680     1.0080     1.6250 O.2   1 <1>  -0.5700 
  2 C       -1.5780     1.3240     0.8720 C.2   1 <1>   0.7160 
  3 N       -2.5870     0.3910     0.6700 N.am  1 <1>  -0.6600 
  4 C       -1.5280     2.6450     0.2410 C.2   1 <1>   0.1410 
  5 C       -2.6940    -0.8100     1.5520 C.3   1 <1>   0.1400 
  6 C       -3.5670     0.4980    -0.4520 C.3   1 <1>   0.1400 
  7 N       -2.5550     3.2790    -0.4110 N.2   1 <1>  -0.5650 
  8 C       -0.4440     3.4770     0.2180 C.2   1 <1>  -0.3020 
  9 C       -4.1580    -1.2250     1.7210 C.3   1 <1>  -0.1600 
 10 C       -4.1260    -0.8770    -0.8120 C.3   1 <1>  -0.1600 
 11 C       -2.0730     4.4150    -0.7840 C.2   1 <1>   0.0360 
 12 N       -0.7860     4.5960    -0.4300 N.pl3 1 <1>   0.0330 
 13 C       -4.8710    -1.5010     0.3780 C.3   1 <1>   0.4240 
 14 O       -6.1010    -0.8200     0.4160 O.3   1 <1>  -0.5600 
 15 C       -5.0740    -3.0170     0.1520 C.ar  1 <1>  -0.1430 
 16 C       -7.1460    -1.4340     1.1020 C.3   1 <1>   0.1200 
 17 C       -6.3430    -3.5810     0.1320 C.ar  1 <1>  -0.1430 
 18 C       -3.9810    -3.8560    -0.0210 C.ar  1 <1>  -0.1500 
 19 C       -7.5540    -2.6930     0.3420 C.3   1 <1>  -0.0170 
 20 C       -6.5070    -4.9420    -0.0670 C.ar  1 <1>  -0.1500 
 21 C       -4.1250    -5.2170    -0.2270 C.ar  1 <1>   0.0830 
 22 C       -5.4100    -5.7810    -0.2430 C.ar  1 <1>   0.0830 
 23 O       -2.9510    -5.8910    -0.3940 O.3   1 <1>  -0.3620 
 24 O       -5.5660    -7.1280    -0.4090 O.3   1 <1>  -0.3630 
 25 C       -2.8750    -7.0620    -1.1750 C.3   1 <1>   0.0400 
 26 C       -6.8230    -7.7610    -0.3020 C.3   1 <1>   0.0400 
 27 H       -2.2770    -0.5920     2.5200 H     1 <1>   0.0800 
 28 H       -2.1240    -1.6130     1.1190 H     1 <1>   0.0800 
 29 H       -3.0840     0.9180    -1.3180 H     1 <1>   0.0800 
 30 H       -4.3700     1.1550    -0.1580 H     1 <1>   0.0800 
 31 H        0.5290     3.3010     0.6410 H     1 <1>   0.1500 
 32 H       -4.6570    -0.4300     2.2450 H     1 <1>   0.0800 
 33 H       -4.2000    -2.1020     2.3410 H     1 <1>   0.0800 
 34 H       -3.3070    -1.4960    -1.1250 H     1 <1>   0.0800 
 35 H       -4.7980    -0.7970    -1.6470 H     1 <1>   0.0800 
 36 H       -2.6270     5.1630    -1.3250 H     1 <1>   0.1500 
 37 H       -0.2050     5.4180    -0.6160 H     1 <1>   0.2700 
 38 H       -7.9640    -0.7380     1.1500 H     1 <1>   0.0800 
 39 H       -6.8220    -1.6700     2.1020 H     1 <1>   0.0800 
 40 H       -2.9820    -3.4620    -0.0010 H     1 <1>   0.1500 
 41 H       -7.9690    -2.4150    -0.6100 H     1 <1>   0.0800 
 42 H       -8.3080    -3.2150     0.9030 H     1 <1>   0.0800 
 43 H       -7.5060    -5.3310    -0.0800 H     1 <1>   0.1500 
 44 H       -1.8470    -7.2220    -1.4420 H     1 <1>   0.0800 
 45 H       -3.4720    -6.9330    -2.0610 H     1 <1>   0.0800 
 46 H       -3.2320    -7.8920    -0.5920 H     1 <1>   0.0800 
 47 H       -6.6740    -8.8190    -0.4170 H     1 <1>   0.0800 
 48 H       -7.4660    -7.3960    -1.0830 H     1 <1>   0.0800 
 49 H       -7.2360    -7.5540     0.6700 H     1 <1>   0.0800 
@<TRIPOS>BOND
  1   1   2  2   
  2   2   3  am  
  3   2   4  1   
  4   3   5  1   
  5   3   6  1   
  6   4   7  1   
  7   4   8  2   
  8   5   9  1   
  9   5  27  1   
 10   5  28  1   
 11   6  10  1   
 12   6  29  1   
 13   6  30  1   
 14   7  11  2   
 15   8  12  1   
 16   8  31  1   
 17   9  13  1   
 18   9  32  1   
 19   9  33  1   
 20  10  13  1   
 21  10  34  1   
 22  10  35  1   
 23  11  12  1   
 24  11  36  1   
 25  12  37  1   
 26  13  14  1   
 27  13  15  1   
 28  14  16  1   
 29  15  17  ar  
 30  15  18  ar  
 31  16  19  1   
 32  16  38  1   
 33  16  39  1   
 34  17  19  1   
 35  17  20  ar  
 36  18  21  ar  
 37  18  40  1   
 38  19  41  1   
 39  19  42  1   
 40  20  22  ar  
 41  20  43  1   
 42  21  22  ar  
 43  21  23  1   
 44  22  24  1   
 45  23  25  1   
 46  24  26  1   
 47  25  44  1   
 48  25  45  1   
 49  25  46  1   
 50  26  47  1   
 51  26  48  1   
 52  26  49  1   
@<TRIPOS>SUBSTRUCTURE
  1 ****  13 GROUP 4 **** **** 0

# MOE 2024.06 (io_trps.svl 2023.06)
