@<TRIPOS>MOLECULE
NONAME
48 51 1 0 0 
SMALL
USER_CHARGES


@<TRIPOS>ATOM
  1 S        1.1040    -2.6100    -2.1240 S.3   1 <1>  -0.0800 
  2 C        1.4290    -1.2280    -1.0850 C.2   1 <1>   0.4620 
  3 C        0.0080    -3.2350    -0.9340 C.2   1 <1>  -0.1100 
  4 N        0.7750    -1.2650     0.0190 N.2   1 <1>  -0.5650 
  5 N        2.3140    -0.2450    -1.4840 N.pl3 1 <1>  -0.8220 
  6 C       -0.0410    -2.4010     0.1250 C.2   1 <1>   0.1410 
  7 C        2.4690     0.9940    -0.6560 C.3   1 <1>   0.2890 
  8 C        3.0970    -0.2880    -2.7520 C.3   1 <1>   0.2090 
  9 C       -0.8590    -2.6100     1.3120 C.2   1 <1>   0.7160 
 10 C        3.9100     1.5730    -0.7060 C.3   1 <1>  -0.0800 
 11 C        1.3850     2.0030    -1.0700 C.3   1 <1>  -0.1600 
 12 C        4.5980    -0.0640    -2.5050 C.3   1 <1>  -0.1600 
 13 O       -1.5780    -3.5790     1.4390 O.2   1 <1>  -0.5700 
 14 N       -0.8450    -1.7200     2.3290 N.am  1 <1>  -0.8000 
 15 C        4.9420     0.4960    -1.1120 C.3   1 <1>   0.4240 
 16 C        3.9910     2.8530    -1.5730 C.3   1 <1>  -0.1600 
 17 C        1.6980     3.4040    -0.5300 C.3   1 <1>  -0.1600 
 18 O        4.7820    -0.5670    -0.2450 O.3   1 <1>  -0.6800 
 19 C        6.3940     1.0010    -0.9420 C.ar  1 <1>  -0.1440 
 20 C        3.0310     3.9480    -1.0740 C.3   1 <1>  -0.1600 
 21 C        6.8900     1.1920     0.3450 C.ar  1 <1>  -0.1500 
 22 C        7.2400     1.2970    -2.0100 C.ar  1 <1>  -0.1500 
 23 C        8.1730     1.6630     0.5630 C.ar  1 <1>  -0.1500 
 24 C        8.5250     1.7680    -1.7960 C.ar  1 <1>  -0.1500 
 25 C        8.9930     1.9540    -0.5090 C.ar  1 <1>  -0.1500 
 26 H       -0.4950    -4.1640    -1.1350 H     1 <1>   0.1500 
 27 H        2.2890     0.7320     0.3740 H     1 <1>   0.0800 
 28 H        2.9680    -1.2200    -3.2690 H     1 <1>   0.0800 
 29 H        2.7250     0.4890    -3.3990 H     1 <1>   0.0800 
 30 H        4.1540     1.8850     0.2940 H     1 <1>   0.0800 
 31 H        1.3160     2.0490    -2.1420 H     1 <1>   0.0800 
 32 H        0.4360     1.6700    -0.6880 H     1 <1>   0.0800 
 33 H        4.9160     0.6200    -3.2650 H     1 <1>   0.0800 
 34 H        5.1390    -0.9800    -2.6630 H     1 <1>   0.0800 
 35 H       -1.4130    -1.8720     3.1600 H     1 <1>   0.3700 
 36 H       -0.2500    -0.8920     2.2810 H     1 <1>   0.3700 
 37 H        4.9940     3.2450    -1.5710 H     1 <1>   0.0800 
 38 H        3.7390     2.6170    -2.5910 H     1 <1>   0.0800 
 39 H        0.9000     4.0810    -0.7830 H     1 <1>   0.0800 
 40 H        1.7500     3.3540     0.5450 H     1 <1>   0.0800 
 41 H        3.8600    -0.8830    -0.3850 H     1 <1>   0.4000 
 42 H        3.5120     4.5170    -0.2960 H     1 <1>   0.0800 
 43 H        2.8350     4.6250    -1.8880 H     1 <1>   0.0800 
 44 H        6.2710     0.9650     1.1950 H     1 <1>   0.1500 
 45 H        6.9300     1.1700    -3.0280 H     1 <1>   0.1500 
 46 H        8.5300     1.8000     1.5690 H     1 <1>   0.1500 
 47 H        9.1620     1.9900    -2.6340 H     1 <1>   0.1500 
 48 H        9.9910     2.3200    -0.3430 H     1 <1>   0.1500 
@<TRIPOS>BOND
  1   1   2  1   
  2   1   3  1   
  3   2   4  2   
  4   2   5  1   
  5   3   6  2   
  6   3  26  1   
  7   4   6  1   
  8   5   7  1   
  9   5   8  1   
 10   6   9  1   
 11   7  10  1   
 12   7  11  1   
 13   7  27  1   
 14   8  12  1   
 15   8  28  1   
 16   8  29  1   
 17   9  13  2   
 18   9  14  am  
 19  10  15  1   
 20  10  16  1   
 21  10  30  1   
 22  11  17  1   
 23  11  31  1   
 24  11  32  1   
 25  12  15  1   
 26  12  33  1   
 27  12  34  1   
 28  14  35  1   
 29  14  36  1   
 30  15  18  1   
 31  15  19  1   
 32  16  20  1   
 33  16  37  1   
 34  16  38  1   
 35  17  20  1   
 36  17  39  1   
 37  17  40  1   
 38  18  41  1   
 39  19  21  ar  
 40  19  22  ar  
 41  20  42  1   
 42  20  43  1   
 43  21  23  ar  
 44  21  44  1   
 45  22  24  ar  
 46  22  45  1   
 47  23  25  ar  
 48  23  46  1   
 49  24  25  ar  
 50  24  47  1   
 51  25  48  1   
@<TRIPOS>SUBSTRUCTURE
  1 ****   7 GROUP 4 **** **** 0

# MOE 2024.06 (io_trps.svl 2023.06)
