@<TRIPOS>MOLECULE
NONAME
44 47 1 0 0 
SMALL
USER_CHARGES


@<TRIPOS>ATOM
  1 O        0.2420    -0.1960    -0.9280 O.2   1 <1>  -0.5700 
  2 C        1.0320    -0.4530    -0.0500 C.2   1 <1>   0.5690 
  3 N        2.0310     0.4250     0.3020 N.am  1 <1>  -0.4940 
  4 C        1.0020    -1.8030     0.6740 C.3   1 <1>   0.3800 
  5 C        2.3270     1.6940    -0.2480 C.2   1 <1>  -0.0880 
  6 N        2.3180    -2.3980     0.3820 N.pl3 1 <1>   0.3140 
  7 C       -0.1560    -2.8010     0.4290 C.ar  1 <1>  -0.1440 
  8 N        3.5700     2.2490    -0.2980 N.pl3 1 <1>   0.3140 
  9 C        1.4860     2.5830    -0.8260 C.2   1 <1>  -0.1500 
 10 N        3.3550    -2.2490     1.1840 N.2   1 <1>  -0.4180 
 11 C        2.7450    -3.0150    -0.7030 C.2   1 <1>   0.0360 
 12 C        0.0480    -4.1710     0.5870 C.ar  1 <1>  -0.1500 
 13 C       -1.4370    -2.3700     0.0970 C.ar  1 <1>  -0.1500 
 14 N        3.5320     3.4730    -0.8820 N.2   1 <1>  -0.7070 
 15 C        4.8310     1.5740     0.1330 C.3   1 <1>   0.1760 
 16 C        2.2860     3.6570    -1.1920 C.2   1 <1>   0.1390 
 17 N        4.3540    -2.7920     0.5890 N.2   1 <1>   0.0000 
 18 N        3.9910    -3.2710    -0.5960 N.2   1 <1>  -0.3380 
 19 C       -0.9800    -5.0750     0.3860 C.ar  1 <1>  -0.1500 
 20 C       -2.4660    -3.2720    -0.1050 C.ar  1 <1>  -0.1500 
 21 C        6.0240     2.5030     0.3700 C.3   1 <1>  -0.1600 
 22 C        5.3480     0.5910    -0.9170 C.3   1 <1>  -0.1600 
 23 C       -2.2380    -4.6270     0.0360 C.ar  1 <1>  -0.1500 
 24 C        7.2460     1.5850     0.2860 C.3   1 <1>  -0.1600 
 25 C        6.8260     0.3850    -0.5750 C.3   1 <1>  -0.1600 
 26 H        2.7400     0.0550     0.9440 H     1 <1>   0.3700 
 27 H        0.9850    -1.5830     1.7240 H     1 <1>   0.0800 
 28 H        0.4270     2.4940    -0.9820 H     1 <1>   0.1500 
 29 H        2.1200    -3.2500    -1.5470 H     1 <1>   0.1500 
 30 H        1.0060    -4.5710     0.8770 H     1 <1>   0.1500 
 31 H       -1.6670    -1.3240    -0.0100 H     1 <1>   0.1500 
 32 H        4.6380     1.0390     1.0450 H     1 <1>   0.0800 
 33 H        1.9230     4.5450    -1.6810 H     1 <1>   0.1500 
 34 H       -0.8010    -6.1300     0.5050 H     1 <1>   0.1500 
 35 H       -3.4470    -2.9180    -0.3700 H     1 <1>   0.1500 
 36 H        5.9600     3.0060     1.3180 H     1 <1>   0.0800 
 37 H        6.0870     3.2320    -0.4210 H     1 <1>   0.0800 
 38 H        5.2720     1.0420    -1.8930 H     1 <1>   0.0800 
 39 H        4.8060    -0.3370    -0.9070 H     1 <1>   0.0800 
 40 H       -3.0390    -5.3290    -0.1230 H     1 <1>   0.1500 
 41 H        7.5150     1.2430     1.2720 H     1 <1>   0.0800 
 42 H        8.0880     2.1020    -0.1420 H     1 <1>   0.0800 
 43 H        7.4170     0.3230    -1.4730 H     1 <1>   0.0800 
 44 H        6.9520    -0.5270    -0.0150 H     1 <1>   0.0800 
@<TRIPOS>BOND
  1   1   2  2   
  2   2   3  am  
  3   2   4  1   
  4   3   5  1   
  5   3  26  1   
  6   4   6  1   
  7   4   7  1   
  8   4  27  1   
  9   5   8  1   
 10   5   9  2   
 11   6  10  1   
 12   6  11  1   
 13   7  12  ar  
 14   7  13  ar  
 15   8  14  1   
 16   8  15  1   
 17   9  16  1   
 18   9  28  1   
 19  10  17  2   
 20  11  18  2   
 21  11  29  1   
 22  12  19  ar  
 23  12  30  1   
 24  13  20  ar  
 25  13  31  1   
 26  14  16  2   
 27  15  21  1   
 28  15  22  1   
 29  15  32  1   
 30  16  33  1   
 31  17  18  1   
 32  19  23  ar  
 33  19  34  1   
 34  20  23  ar  
 35  20  35  1   
 36  21  24  1   
 37  21  36  1   
 38  21  37  1   
 39  22  25  1   
 40  22  38  1   
 41  22  39  1   
 42  23  40  1   
 43  24  25  1   
 44  24  41  1   
 45  24  42  1   
 46  25  43  1   
 47  25  44  1   
@<TRIPOS>SUBSTRUCTURE
  1 ****   3 GROUP 4 **** **** 0

# MOE 2024.06 (io_trps.svl 2023.06)
