@<TRIPOS>MOLECULE
NONAME
45 47 1 0 0 
SMALL
USER_CHARGES


@<TRIPOS>ATOM
  1 O        0.2390     0.1910    -0.3820 O.2   1 <1>  -0.5700 
  2 C        1.1970    -0.5280    -0.5130 C.2   1 <1>   0.5690 
  3 N        2.3910    -0.0710    -0.9690 N.am  1 <1>  -0.7300 
  4 C        1.0630    -1.9930    -0.1610 C.3   1 <1>  -0.0990 
  5 C        2.6690     1.3330    -1.3360 C.3   1 <1>   0.1400 
  6 C       -0.0600    -2.6550    -0.9710 C.3   1 <1>   0.0200 
  7 C        3.6960     1.9080    -0.3630 C.3   1 <1>  -0.1600 
  8 C       -0.1430    -4.1390    -0.6770 C.2   1 <1>   0.2980 
  9 C        3.9600     3.3910    -0.6420 C.3   1 <1>   0.0210 
 10 O        0.8190    -4.9160    -1.1020 O.3   1 <1>  -0.0190 
 11 N       -1.0730    -4.7190    -0.0400 N.2   1 <1>  -0.5650 
 12 C        4.9710     3.9410     0.3480 C.2   1 <1>  -0.1810 
 13 N        0.4730    -6.0980    -0.6970 N.2   1 <1>  -0.4100 
 14 C       -0.6460    -5.9870    -0.0700 C.2   1 <1>   0.5150 
 15 C        4.7660     4.5540     1.5260 C.2   1 <1>  -0.0400 
 16 C        6.3630     3.9200     0.2400 C.2   1 <1>   0.1080 
 17 C       -1.3980    -7.0570     0.5490 C.2   1 <1>   0.1410 
 18 O        5.9320     4.8520     2.0330 O.3   1 <1>  -0.0190 
 19 C        3.5110     4.9150     2.2920 C.3   1 <1>  -0.0600 
 20 N        6.9090     4.4720     1.2630 N.2   1 <1>  -0.4100 
 21 C        7.1550     3.3390    -0.9120 C.3   1 <1>  -0.0590 
 22 O       -0.9630    -8.3140     0.5190 O.3   1 <1>  -0.2800 
 23 C       -2.5790    -7.0250     1.2250 C.2   1 <1>  -0.1500 
 24 C       -1.8320    -9.0760     1.1530 C.2   1 <1>  -0.0100 
 25 C       -2.8600    -8.3360     1.6160 C.2   1 <1>  -0.1500 
 26 H        3.1860    -0.7090    -1.0360 H     1 <1>   0.3700 
 27 H        0.8420    -2.0710     0.8880 H     1 <1>   0.0800 
 28 H        1.9930    -2.4970    -0.3480 H     1 <1>   0.0800 
 29 H        1.7590     1.9090    -1.2910 H     1 <1>   0.0800 
 30 H        3.0430     1.3710    -2.3450 H     1 <1>   0.0800 
 31 H        0.1110    -2.5160    -2.0230 H     1 <1>   0.0800 
 32 H       -1.0010    -2.1950    -0.7230 H     1 <1>   0.0800 
 33 H        4.6180     1.3600    -0.4430 H     1 <1>   0.0800 
 34 H        3.3240     1.8080     0.6420 H     1 <1>   0.0800 
 35 H        3.0410     3.9440    -0.5520 H     1 <1>   0.0800 
 36 H        4.3260     3.5260    -1.6440 H     1 <1>   0.0800 
 37 H        2.6360     4.5860     1.7630 H     1 <1>   0.0800 
 38 H        3.4610     5.9810     2.4230 H     1 <1>   0.0800 
 39 H        3.5300     4.4450     3.2580 H     1 <1>   0.0800 
 40 H        6.9310     2.2950    -1.0200 H     1 <1>   0.0800 
 41 H        8.2070     3.4500    -0.7230 H     1 <1>   0.0800 
 42 H        6.9090     3.8550    -1.8210 H     1 <1>   0.0800 
 43 H       -3.1890    -6.1620     1.4260 H     1 <1>   0.1500 
 44 H       -1.6390   -10.1320     1.2270 H     1 <1>   0.1500 
 45 H       -3.7240    -8.6560     2.1710 H     1 <1>   0.1500 
@<TRIPOS>BOND
  1   1   2  2   
  2   2   3  am  
  3   2   4  1   
  4   3   5  1   
  5   3  26  1   
  6   4   6  1   
  7   4  27  1   
  8   4  28  1   
  9   5   7  1   
 10   5  29  1   
 11   5  30  1   
 12   6   8  1   
 13   6  31  1   
 14   6  32  1   
 15   7   9  1   
 16   7  33  1   
 17   7  34  1   
 18   8  10  1   
 19   8  11  2   
 20   9  12  1   
 21   9  35  1   
 22   9  36  1   
 23  10  13  1   
 24  11  14  1   
 25  12  15  2   
 26  12  16  1   
 27  13  14  2   
 28  14  17  1   
 29  15  18  1   
 30  15  19  1   
 31  16  20  2   
 32  16  21  1   
 33  17  22  1   
 34  17  23  2   
 35  18  20  1   
 36  19  37  1   
 37  19  38  1   
 38  19  39  1   
 39  21  40  1   
 40  21  41  1   
 41  21  42  1   
 42  22  24  1   
 43  23  25  1   
 44  23  43  1   
 45  24  25  2   
 46  24  44  1   
 47  25  45  1   
@<TRIPOS>SUBSTRUCTURE
  1 ****   4 GROUP 4 **** **** 0

# MOE 2024.06 (io_trps.svl 2023.06)
