@<TRIPOS>MOLECULE
NONAME
47 48 1 0 0 
SMALL
USER_CHARGES


@<TRIPOS>ATOM
  1 O        2.1950     0.1870    -2.3350 O.3   1 <1>  -0.6800 
  2 C        2.9450     0.7250    -1.2980 C.3   1 <1>   0.1200 
  3 C        2.9080    -0.1800    -0.0350 C.3   1 <1>   0.0000 
  4 C        3.2530    -1.6530    -0.3850 C.3   1 <1>  -0.1600 
  5 C        1.4730    -0.2470     0.5510 C.3   1 <1>  -0.1600 
  6 C        3.9260     0.3210     1.0270 C.3   1 <1>   0.2090 
  7 C        1.9460    -2.4360    -0.3090 C.3   1 <1>  -0.1600 
  8 C        1.1540    -1.7230     0.7730 C.3   1 <1>  -0.1600 
  9 N        4.0500     1.8220     1.1200 N.pl3 1 <1>  -0.8380 
 10 C        5.0400     2.5910     0.5790 C.ar  1 <1>   0.7710 
 11 C        2.9270     2.4640     1.8870 C.3   1 <1>   0.1290 
 12 N        4.8980     3.9050     0.5600 N.ar  1 <1>  -0.6200 
 13 N        6.1320     1.9990     0.0660 N.ar  1 <1>  -0.1790 
 14 C        5.8590     4.6450     0.0410 C.ar  1 <1>   0.4100 
 15 C        7.1260     2.7140    -0.5110 C.ar  1 <1>   0.2110 
 16 N        5.6780     5.9890     0.0980 N.pl3 1 <1>  -0.8380 
 17 C        7.0110     4.0640    -0.5470 C.ar  1 <1>  -0.1440 
 18 C        6.6510     6.9070     0.7530 C.3   1 <1>   0.1290 
 19 C        4.3370     6.6020    -0.1320 C.3   1 <1>   0.1290 
 20 C        8.0810     4.9080    -1.2380 C.3   1 <1>  -0.0970 
 21 H        2.0890     0.8230    -3.0690 H     1 <1>   0.4000 
 22 H        2.5410     1.6980    -1.0720 H     1 <1>   0.0800 
 23 H        3.9520     0.8360    -1.6570 H     1 <1>   0.0800 
 24 H        3.9250    -2.0780     0.3400 H     1 <1>   0.0800 
 25 H        3.7000    -1.7560    -1.3590 H     1 <1>   0.0800 
 26 H        0.7630     0.1430    -0.1590 H     1 <1>   0.0800 
 27 H        1.3540     0.3000     1.4670 H     1 <1>   0.0800 
 28 H        4.8860    -0.1050     0.8030 H     1 <1>   0.0800 
 29 H        3.6480    -0.0740     1.9920 H     1 <1>   0.0800 
 30 H        2.1030    -3.4770    -0.0820 H     1 <1>   0.0800 
 31 H        1.4240    -2.3530    -1.2480 H     1 <1>   0.0800 
 32 H        0.0990    -1.9240     0.6960 H     1 <1>   0.0800 
 33 H        1.5040    -2.0330     1.7430 H     1 <1>   0.0800 
 34 H        2.6320     1.8410     2.7140 H     1 <1>   0.0800 
 35 H        2.0790     2.6120     1.2400 H     1 <1>   0.0800 
 36 H        3.2190     3.4190     2.2910 H     1 <1>   0.0800 
 37 H        6.1660     0.9910     0.1460 H     1 <1>   0.4570 
 38 H        7.9700     2.1890    -0.9290 H     1 <1>   0.1500 
 39 H        7.4490     6.3470     1.2080 H     1 <1>   0.0800 
 40 H        6.1590     7.4750     1.5240 H     1 <1>   0.0800 
 41 H        7.0620     7.5850     0.0260 H     1 <1>   0.0800 
 42 H        3.7050     5.9250    -0.6800 H     1 <1>   0.0800 
 43 H        4.4410     7.5100    -0.6990 H     1 <1>   0.0800 
 44 H        3.8700     6.8230     0.8120 H     1 <1>   0.0800 
 45 H        7.6170     5.6590    -1.8540 H     1 <1>   0.0800 
 46 H        8.7110     4.3050    -1.8670 H     1 <1>   0.0800 
 47 H        8.7030     5.3970    -0.5100 H     1 <1>   0.0800 
@<TRIPOS>BOND
  1   1   2  1   
  2   1  21  1   
  3   2   3  1   
  4   2  22  1   
  5   2  23  1   
  6   3   4  1   
  7   3   5  1   
  8   3   6  1   
  9   4   7  1   
 10   4  24  1   
 11   4  25  1   
 12   5   8  1   
 13   5  26  1   
 14   5  27  1   
 15   6   9  1   
 16   6  28  1   
 17   6  29  1   
 18   7   8  1   
 19   7  30  1   
 20   7  31  1   
 21   8  32  1   
 22   8  33  1   
 23   9  10  1   
 24   9  11  1   
 25  10  12  ar  
 26  10  13  ar  
 27  11  34  1   
 28  11  35  1   
 29  11  36  1   
 30  12  14  ar  
 31  13  15  ar  
 32  13  37  1   
 33  14  16  1   
 34  14  17  ar  
 35  15  17  ar  
 36  15  38  1   
 37  16  18  1   
 38  16  19  1   
 39  17  20  1   
 40  18  39  1   
 41  18  40  1   
 42  18  41  1   
 43  19  42  1   
 44  19  43  1   
 45  19  44  1   
 46  20  45  1   
 47  20  46  1   
 48  20  47  1   
@<TRIPOS>SUBSTRUCTURE
  1 ****  10 GROUP 4 **** **** 0

# MOE 2024.06 (io_trps.svl 2023.06)
