@<TRIPOS>MOLECULE
NONAME
46 49 1 0 0 
SMALL
USER_CHARGES


@<TRIPOS>ATOM
  1 S       -0.5160    -2.0120     1.6920 S.3   1 <1>  -0.0800 
  2 C       -0.6680    -0.3000     1.3680 C.2   1 <1>   0.1980 
  3 C       -1.9670    -2.2830     0.7730 C.2   1 <1>  -0.1100 
  4 N       -1.6770     0.0150     0.6620 N.2   1 <1>  -0.5650 
  5 C        0.3890     0.6120     1.9450 C.3   1 <1>  -0.0600 
  6 C       -2.4240    -1.1040     0.3170 C.2   1 <1>   0.0460 
  7 C       -3.6670    -0.8660    -0.5320 C.3   1 <1>   0.3210 
  8 N       -4.2320    -2.1440    -1.0270 N.am  1 <1>  -0.7300 
  9 C       -5.4960    -2.5890    -0.8240 C.2   1 <1>   0.5690 
 10 O       -6.3140    -1.9170    -0.2420 O.2   1 <1>  -0.5700 
 11 C       -5.8920    -3.9800    -1.3330 C.3   1 <1>   0.2610 
 12 O       -4.7700    -4.6210    -1.9280 O.3   1 <1>  -0.5600 
 13 C       -6.5520    -4.7900    -0.1760 C.3   1 <1>   0.3640 
 14 C       -4.9610    -5.9800    -2.2240 C.3   1 <1>   0.1810 
 15 N       -6.0090    -6.1750     0.0160 N.am  1 <1>  -0.5090 
 16 C       -8.0610    -4.8410    -0.4130 C.ar  1 <1>  -0.1430 
 17 C       -5.2410    -6.7680    -0.9510 C.2   1 <1>   0.5690 
 18 C       -6.1240    -6.7420     1.3830 C.3   1 <1>   0.0490 
 19 C       -8.6510    -5.8500    -1.1660 C.ar  1 <1>   0.1600 
 20 C       -8.8760    -3.8580     0.1170 C.ar  1 <1>  -0.1500 
 21 O       -4.7660    -7.8750    -0.8460 O.2   1 <1>  -0.5700 
 22 C       -6.6750    -8.1240     1.5430 C.3   1 <1>  -0.2000 
 23 C       -7.4660    -6.9500     2.0190 C.3   1 <1>  -0.2000 
 24 N       -9.9430    -5.9430    -1.4340 N.ar  1 <1>  -0.6200 
 25 C      -10.2250    -3.9440    -0.1460 C.ar  1 <1>  -0.1500 
 26 C      -10.7000    -4.9900    -0.9160 C.ar  1 <1>   0.1600 
 27 H       -2.3210    -3.2920     0.6760 H     1 <1>   0.1500 
 28 H        0.1770     1.6300     1.6730 H     1 <1>   0.0800 
 29 H        1.3540     0.3400     1.5610 H     1 <1>   0.0800 
 30 H        0.3950     0.5300     3.0160 H     1 <1>   0.0800 
 31 H       -3.4020    -0.2520    -1.3740 H     1 <1>   0.0800 
 32 H       -4.3970    -0.3350     0.0550 H     1 <1>   0.0800 
 33 H       -3.5840    -2.7560    -1.5330 H     1 <1>   0.3700 
 34 H       -6.6140    -3.8330    -2.1150 H     1 <1>   0.0800 
 35 H       -6.3840    -4.2580     0.7460 H     1 <1>   0.0800 
 36 H       -5.7780    -6.0800    -2.9160 H     1 <1>   0.0800 
 37 H       -4.0610    -6.3470    -2.6830 H     1 <1>   0.0800 
 38 H       -5.2950    -6.4620     2.0130 H     1 <1>   0.1000 
 39 H       -8.0340    -6.6320    -1.5740 H     1 <1>   0.1500 
 40 H       -8.4830    -3.0470     0.7100 H     1 <1>   0.1500 
 41 H       -7.0010    -8.6520     0.6630 H     1 <1>   0.1000 
 42 H       -6.2270    -8.7750     2.2720 H     1 <1>   0.1000 
 43 H       -7.5640    -6.8100     3.0810 H     1 <1>   0.1000 
 44 H       -8.3780    -6.7320     1.4930 H     1 <1>   0.1000 
 45 H      -10.9060    -3.2070     0.2400 H     1 <1>   0.1500 
 46 H      -11.7570    -5.0470    -1.1170 H     1 <1>   0.1500 
@<TRIPOS>BOND
  1   1   2  1   
  2   1   3  1   
  3   2   4  2   
  4   2   5  1   
  5   3   6  2   
  6   3  27  1   
  7   4   6  1   
  8   5  28  1   
  9   5  29  1   
 10   5  30  1   
 11   6   7  1   
 12   7   8  1   
 13   7  31  1   
 14   7  32  1   
 15   8   9  am  
 16   8  33  1   
 17   9  10  2   
 18   9  11  1   
 19  11  12  1   
 20  11  13  1   
 21  11  34  1   
 22  12  14  1   
 23  13  15  1   
 24  13  16  1   
 25  13  35  1   
 26  14  17  1   
 27  14  36  1   
 28  14  37  1   
 29  15  17  am  
 30  15  18  1   
 31  16  19  ar  
 32  16  20  ar  
 33  17  21  2   
 34  18  22  1   
 35  18  23  1   
 36  18  38  1   
 37  19  24  ar  
 38  19  39  1   
 39  20  25  ar  
 40  20  40  1   
 41  22  23  1   
 42  22  41  1   
 43  22  42  1   
 44  23  43  1   
 45  23  44  1   
 46  24  26  ar  
 47  25  26  ar  
 48  25  45  1   
 49  26  46  1   
@<TRIPOS>SUBSTRUCTURE
  1 ****  11 GROUP 4 **** **** 0

# MOE 2024.06 (io_trps.svl 2023.06)
