@<TRIPOS>MOLECULE
NONAME
42 44 1 0 0 
SMALL
USER_CHARGES


@<TRIPOS>ATOM
  1 O       -3.3060     1.0240    -1.3730 O.2   1 <1>  -0.5700 
  2 C       -2.5940     0.8410    -0.4170 C.2   1 <1>   0.5690 
  3 N       -2.2370    -0.4030    -0.0180 N.am  1 <1>  -0.7300 
  4 C       -2.0870     2.0330     0.3580 C.3   1 <1>  -0.0990 
  5 C       -2.6850    -1.6460    -0.6820 C.3   1 <1>   0.2200 
  6 C       -0.9120     2.6650    -0.3810 C.3   1 <1>   0.1200 
  7 C       -3.9370    -2.1530     0.0100 C.3   1 <1>  -0.0800 
  8 C       -1.6960    -2.7730    -0.4050 C.3   1 <1>   0.1200 
  9 O       -0.4380     3.7260     0.3690 O.3   1 <1>  -0.6800 
 10 C       -3.3620    -2.9620     1.1770 C.3   1 <1>   0.1200 
 11 C       -4.7940    -3.0170    -0.9370 C.3   1 <1>  -0.0170 
 12 O       -2.0460    -3.2980     0.8400 O.3   1 <1>  -0.5600 
 13 C       -6.1120    -3.4200    -0.2850 C.ar  1 <1>  -0.1440 
 14 C       -7.1880    -2.5130    -0.1320 C.ar  1 <1>   0.0000 
 15 C       -6.2890    -4.6920     0.1760 C.ar  1 <1>  -0.1500 
 16 C       -8.3610    -2.9870     0.5060 C.ar  1 <1>   0.3100 
 17 C       -7.1720    -1.1690    -0.5740 C.ar  1 <1>  -0.1500 
 18 C       -7.4940    -5.0600     0.7870 C.ar  1 <1>   0.1600 
 19 N       -8.4970    -4.2590     0.9580 N.ar  1 <1>  -0.6200 
 20 C       -9.4410    -2.1070     0.6830 C.ar  1 <1>  -0.1500 
 21 C       -8.2430    -0.3380    -0.3870 C.ar  1 <1>  -0.1500 
 22 C       -9.3920    -0.8100     0.2500 C.ar  1 <1>  -0.1500 
 23 H       -1.6900    -0.5480     0.8330 H     1 <1>   0.3700 
 24 H       -2.8880     2.7420     0.4500 H     1 <1>   0.0800 
 25 H       -1.7780     1.7210     1.3380 H     1 <1>   0.0800 
 26 H       -2.8210    -1.4730    -1.7370 H     1 <1>   0.0800 
 27 H       -1.2100     3.0310    -1.3500 H     1 <1>   0.0800 
 28 H       -0.1090     1.9570    -0.4990 H     1 <1>   0.0800 
 29 H       -4.5330    -1.3360     0.3750 H     1 <1>   0.0800 
 30 H       -0.6750    -2.4360    -0.3840 H     1 <1>   0.0800 
 31 H       -1.8050    -3.5600    -1.1310 H     1 <1>   0.0800 
 32 H       -1.0870     4.4570     0.3840 H     1 <1>   0.4000 
 33 H       -3.9130    -3.8640     1.3780 H     1 <1>   0.0800 
 34 H       -3.3250    -2.3630     2.0710 H     1 <1>   0.0800 
 35 H       -4.2460    -3.8990    -1.2200 H     1 <1>   0.0800 
 36 H       -5.0030    -2.4750    -1.8430 H     1 <1>   0.0800 
 37 H       -5.5190    -5.4370     0.0890 H     1 <1>   0.1500 
 38 H       -6.3010    -0.7820    -1.0710 H     1 <1>   0.1500 
 39 H       -7.5910    -6.0730     1.1380 H     1 <1>   0.1500 
 40 H      -10.3150    -2.4920     1.1740 H     1 <1>   0.1500 
 41 H       -8.2140     0.6830    -0.7280 H     1 <1>   0.1500 
 42 H      -10.2280    -0.1460     0.3930 H     1 <1>   0.1500 
@<TRIPOS>BOND
  1   1   2  2   
  2   2   3  am  
  3   2   4  1   
  4   3   5  1   
  5   3  23  1   
  6   4   6  1   
  7   4  24  1   
  8   4  25  1   
  9   5   7  1   
 10   5   8  1   
 11   5  26  1   
 12   6   9  1   
 13   6  27  1   
 14   6  28  1   
 15   7  10  1   
 16   7  11  1   
 17   7  29  1   
 18   8  12  1   
 19   8  30  1   
 20   8  31  1   
 21   9  32  1   
 22  10  12  1   
 23  10  33  1   
 24  10  34  1   
 25  11  13  1   
 26  11  35  1   
 27  11  36  1   
 28  13  14  ar  
 29  13  15  ar  
 30  14  16  ar  
 31  14  17  ar  
 32  15  18  ar  
 33  15  37  1   
 34  16  19  ar  
 35  16  20  ar  
 36  17  21  ar  
 37  17  38  1   
 38  18  19  ar  
 39  18  39  1   
 40  20  22  ar  
 41  20  40  1   
 42  21  22  ar  
 43  21  41  1   
 44  22  42  1   
@<TRIPOS>SUBSTRUCTURE
  1 ****   7 GROUP 4 **** **** 0

# MOE 2024.06 (io_trps.svl 2023.06)
