@<TRIPOS>MOLECULE
NONAME
48 51 1 0 0 
SMALL
USER_CHARGES


@<TRIPOS>ATOM
  1 CL      -0.6710    -4.0440    -1.7280 Cl    1 <1>  -0.1770 
  2 C        0.9230    -3.3460    -1.5170 C.ar  1 <1>   0.1770 
  3 C        1.5770    -3.4190    -0.2910 C.ar  1 <1>  -0.0230 
  4 C        1.4990    -2.7180    -2.6060 C.ar  1 <1>  -0.1500 
  5 N        0.9910    -4.0790     0.8180 N.pl3 1 <1>   0.5930 
  6 C        2.8300    -2.8230    -0.1780 C.ar  1 <1>  -0.1500 
  7 C        2.7510    -2.1410    -2.4800 C.ar  1 <1>  -0.1500 
  8 N        0.8270    -3.5040     2.0340 N.2   1 <1>  -0.7070 
  9 C        0.4880    -5.3370     0.8450 C.2   1 <1>  -0.3020 
 10 C        3.4130    -2.1920    -1.2650 C.ar  1 <1>  -0.1500 
 11 C        0.2180    -4.3780     2.7680 C.2   1 <1>   0.1390 
 12 C       -0.0370    -5.5530     2.0720 C.2   1 <1>  -0.1810 
 13 C       -0.7680    -6.7670     2.6050 C.3   1 <1>   0.5240 
 14 N       -1.6210    -7.2770     1.5090 N.4   1 <1>  -0.9590 
 15 C       -2.6770    -6.3320     1.0190 C.3   1 <1>   0.3430 
 16 C       -2.2650    -8.5930     1.7110 C.3   1 <1>   0.3430 
 17 C       -3.8900    -7.2090     0.6660 C.3   1 <1>   0.2000 
 18 C       -3.3340    -8.6350     0.6160 C.3   1 <1>  -0.0800 
 19 O       -4.8390    -7.1320     1.6790 O.3   1 <1>  -0.6800 
 20 C       -2.7740    -8.9450    -0.8020 C.3   1 <1>  -0.0170 
 21 C       -1.3730    -9.5430    -0.8290 C.ar  1 <1>   0.1670 
 22 N       -0.3670    -8.6920    -0.6580 N.ar  1 <1>  -0.6200 
 23 C       -1.2150   -10.9060    -1.0310 C.ar  1 <1>  -0.1500 
 24 C        0.8470    -9.2270    -0.7190 C.ar  1 <1>   0.1600 
 25 C        0.0520   -11.4460    -1.0710 C.ar  1 <1>  -0.1500 
 26 C        1.1050   -10.5720    -0.9140 C.ar  1 <1>  -0.1500 
 27 H        0.9710    -2.6790    -3.5430 H     1 <1>   0.1500 
 28 H        3.3500    -2.8500     0.7660 H     1 <1>   0.1500 
 29 H        3.2070    -1.6490    -3.3230 H     1 <1>   0.1500 
 30 H        0.5340    -5.9740    -0.0190 H     1 <1>   0.1500 
 31 H        4.3840    -1.7380    -1.1630 H     1 <1>   0.1500 
 32 H       -0.0510    -4.1890     3.7960 H     1 <1>   0.1500 
 33 H       -1.3730    -6.4950     3.4540 H     1 <1>   0.0800 
 34 H       -0.0540    -7.5160     2.9050 H     1 <1>   0.0800 
 35 H       -0.9810    -7.4390     0.7030 H     1 <1>   0.4500 
 36 H       -2.9480    -5.6080     1.7700 H     1 <1>   0.0800 
 37 H       -2.3200    -5.8170     0.1420 H     1 <1>   0.0800 
 38 H       -1.5570    -9.4020     1.6200 H     1 <1>   0.0800 
 39 H       -2.7330    -8.6330     2.6810 H     1 <1>   0.0800 
 40 H       -4.3680    -6.8960    -0.2480 H     1 <1>   0.0800 
 41 H       -4.0900    -9.3630     0.8550 H     1 <1>   0.0800 
 42 H       -4.5220    -7.4570     2.5420 H     1 <1>   0.4000 
 43 H       -2.7430    -8.0530    -1.4040 H     1 <1>   0.0800 
 44 H       -3.4550    -9.6130    -1.3020 H     1 <1>   0.0800 
 45 H       -2.0680   -11.5480    -1.1630 H     1 <1>   0.1500 
 46 H        1.6870    -8.5610    -0.6090 H     1 <1>   0.1500 
 47 H        0.2130   -12.5000    -1.2280 H     1 <1>   0.1500 
 48 H        2.1190   -10.9300    -0.9480 H     1 <1>   0.1500 
@<TRIPOS>BOND
  1   1   2  1   
  2   2   3  ar  
  3   2   4  ar  
  4   3   5  1   
  5   3   6  ar  
  6   4   7  ar  
  7   4  27  1   
  8   5   8  1   
  9   5   9  1   
 10   6  10  ar  
 11   6  28  1   
 12   7  10  ar  
 13   7  29  1   
 14   8  11  2   
 15   9  12  2   
 16   9  30  1   
 17  10  31  1   
 18  11  12  1   
 19  11  32  1   
 20  12  13  1   
 21  13  14  1   
 22  13  33  1   
 23  13  34  1   
 24  14  15  1   
 25  14  16  1   
 26  14  35  1   
 27  15  17  1   
 28  15  36  1   
 29  15  37  1   
 30  16  18  1   
 31  16  38  1   
 32  16  39  1   
 33  17  18  1   
 34  17  19  1   
 35  17  40  1   
 36  18  20  1   
 37  18  41  1   
 38  19  42  1   
 39  20  21  1   
 40  20  43  1   
 41  20  44  1   
 42  21  22  ar  
 43  21  23  ar  
 44  22  24  ar  
 45  23  25  ar  
 46  23  45  1   
 47  24  26  ar  
 48  24  46  1   
 49  25  26  ar  
 50  25  47  1   
 51  26  48  1   
@<TRIPOS>SUBSTRUCTURE
  1 ****   9 GROUP 4 **** **** 0

# MOE 2024.06 (io_trps.svl 2023.06)
