@<TRIPOS>MOLECULE
NONAME
44 45 1 0 0 
SMALL
USER_CHARGES


@<TRIPOS>ATOM
  1 CL      -3.9860     0.8800    -2.9120 Cl    1 <1>  -0.1230 
  2 C       -3.3030     0.7700    -1.2950 C.2   1 <1>   0.1230 
  3 C       -3.3990    -0.3130    -0.4150 C.2   1 <1>   0.2030 
  4 C       -2.5850     1.7290    -0.6830 C.2   1 <1>  -0.3320 
  5 N       -2.7540    -0.0140     0.7060 N.2   1 <1>  -0.7070 
  6 C       -4.0920    -1.5660    -0.6650 C.2   1 <1>   0.7160 
  7 N       -2.2660     1.2240     0.5290 N.pl3 1 <1>   0.3140 
  8 C       -2.1830     3.1070    -1.1890 C.3   1 <1>  -0.0600 
  9 O       -4.7160    -1.7940    -1.6870 O.2   1 <1>  -0.5700 
 10 N       -4.0720    -2.5380     0.2930 N.am  1 <1>  -0.7300 
 11 C       -1.4830     1.8910     1.5790 C.3   1 <1>   0.0160 
 12 C       -4.7410    -3.8540     0.2060 C.3   1 <1>   0.2200 
 13 C       -6.2100    -3.7090     0.6140 C.3   1 <1>  -0.0800 
 14 C       -4.1810    -4.8210     1.2480 C.3   1 <1>   0.1200 
 15 C       -6.3340    -4.5900     1.8620 C.3   1 <1>   0.1200 
 16 C       -7.2000    -3.9880    -0.5400 C.3   1 <1>  -0.0550 
 17 O       -5.0370    -4.7190     2.3410 O.3   1 <1>  -0.5600 
 18 S       -7.3210    -5.6800    -1.1450 S.o2  1 <1>   1.3330 
 19 O       -6.0220    -6.3110    -1.0530 O.2   1 <1>  -0.6500 
 20 O       -8.0240    -5.6810    -2.4070 O.2   1 <1>  -0.6500 
 21 N       -8.3450    -6.4320    -0.0160 N.am  1 <1>  -0.8490 
 22 C       -9.7720    -6.2060    -0.2790 C.3   1 <1>   0.1160 
 23 C       -8.0880    -7.8720     0.0940 C.3   1 <1>   0.1160 
 24 H       -2.5610     3.2650    -2.1840 H     1 <1>   0.0800 
 25 H       -1.1110     3.1960    -1.2170 H     1 <1>   0.0800 
 26 H       -2.5840     3.8710    -0.5480 H     1 <1>   0.0800 
 27 H       -3.6450    -2.2880     1.1900 H     1 <1>   0.3700 
 28 H       -1.9800     2.7980     1.8670 H     1 <1>   0.0800 
 29 H       -0.5030     2.1110     1.2020 H     1 <1>   0.0800 
 30 H       -1.4040     1.2390     2.4290 H     1 <1>   0.0800 
 31 H       -4.6120    -4.2550    -0.7850 H     1 <1>   0.0800 
 32 H       -6.3840    -2.6970     0.9350 H     1 <1>   0.0800 
 33 H       -3.1770    -4.5820     1.5490 H     1 <1>   0.0800 
 34 H       -4.2280    -5.8340     0.8860 H     1 <1>   0.0800 
 35 H       -6.6890    -5.5810     1.6460 H     1 <1>   0.0800 
 36 H       -6.9470    -4.1420     2.6250 H     1 <1>   0.0800 
 37 H       -6.9090    -3.3630    -1.3630 H     1 <1>   0.0800 
 38 H       -8.1750    -3.6610    -0.2390 H     1 <1>   0.0800 
 39 H      -10.3650    -6.6210     0.5180 H     1 <1>   0.0800 
 40 H      -10.0620    -6.6680    -1.2090 H     1 <1>   0.0800 
 41 H       -9.9770    -5.1510    -0.3400 H     1 <1>   0.0800 
 42 H       -8.7470    -8.3160     0.8210 H     1 <1>   0.0800 
 43 H       -7.0730    -8.0430     0.4130 H     1 <1>   0.0800 
 44 H       -8.2360    -8.3520    -0.8590 H     1 <1>   0.0800 
@<TRIPOS>BOND
  1   1   2  1   
  2   2   3  1   
  3   2   4  2   
  4   3   5  2   
  5   3   6  1   
  6   4   7  1   
  7   4   8  1   
  8   5   7  1   
  9   6   9  2   
 10   6  10  am  
 11   7  11  1   
 12   8  24  1   
 13   8  25  1   
 14   8  26  1   
 15  10  12  1   
 16  10  27  1   
 17  11  28  1   
 18  11  29  1   
 19  11  30  1   
 20  12  13  1   
 21  12  14  1   
 22  12  31  1   
 23  13  15  1   
 24  13  16  1   
 25  13  32  1   
 26  14  17  1   
 27  14  33  1   
 28  14  34  1   
 29  15  17  1   
 30  15  35  1   
 31  15  36  1   
 32  16  18  1   
 33  16  37  1   
 34  16  38  1   
 35  18  19  2   
 36  18  20  2   
 37  18  21  am  
 38  21  22  1   
 39  21  23  1   
 40  22  39  1   
 41  22  40  1   
 42  22  41  1   
 43  23  42  1   
 44  23  43  1   
 45  23  44  1   
@<TRIPOS>SUBSTRUCTURE
  1 ****  10 GROUP 4 **** **** 0

# MOE 2024.06 (io_trps.svl 2023.06)
