@<TRIPOS>MOLECULE
NONAME
51 54 1 0 0 
SMALL
USER_CHARGES


@<TRIPOS>ATOM
  1 O        0.1360     0.3370    -1.3600 O.3   1 <1>  -0.0190 
  2 N        0.6460     1.4700    -1.0000 N.2   1 <1>  -0.4100 
  3 C        0.8050    -0.6760    -0.8900 C.2   1 <1>  -0.0400 
  4 C        1.6970     1.2050    -0.2840 C.2   1 <1>   0.2350 
  5 C        1.8340    -0.1880    -0.1840 C.2   1 <1>  -0.1500 
  6 C        0.3430    -2.0870    -1.2060 C.3   1 <1>   0.5230 
  7 C        2.5660     2.2040     0.3080 C.ar  1 <1>   0.0540 
  8 N       -0.9460    -2.3900    -0.5060 N.4   1 <1>  -0.9590 
  9 C        3.7890     1.9090     0.8960 C.ar  1 <1>  -0.1500 
 10 C        2.2310     3.5510     0.3260 C.ar  1 <1>  -0.1500 
 11 C       -1.1310    -3.8740    -0.4040 C.3   1 <1>   0.3430 
 12 C       -2.1010    -1.6960    -1.1650 C.3   1 <1>   0.2630 
 13 C        4.5660     2.9130     1.4440 C.ar  1 <1>   0.1600 
 14 C        3.0770     4.4810     0.8990 C.ar  1 <1>   0.1600 
 15 C       -2.3100    -4.2760     0.4980 C.3   1 <1>  -0.0800 
 16 N        4.2390     4.1930     1.4620 N.ar  1 <1>  -0.6200 
 17 C       -2.0070    -5.6680     1.0290 C.3   1 <1>   0.2090 
 18 C       -3.5990    -4.5280    -0.3000 C.3   1 <1>  -0.1600 
 19 N       -2.2980    -6.5260    -0.1330 N.pl3 1 <1>  -0.8380 
 20 C       -3.4430    -5.9390    -0.8720 C.3   1 <1>   0.2090 
 21 C       -2.3530    -7.8960     0.1110 C.ar  1 <1>   0.1000 
 22 C       -1.4220    -8.7310    -0.4910 C.ar  1 <1>  -0.1500 
 23 C       -3.3140    -8.4600     0.9450 C.ar  1 <1>  -0.1500 
 24 C       -1.4430   -10.0960    -0.2680 C.ar  1 <1>  -0.1500 
 25 C       -3.3390    -9.8240     1.1720 C.ar  1 <1>  -0.1500 
 26 C       -2.4020   -10.6450     0.5660 C.ar  1 <1>  -0.1500 
 27 H        2.6100    -0.7040     0.3520 H     1 <1>   0.1500 
 28 H        1.1050    -2.7740    -0.8740 H     1 <1>   0.0800 
 29 H        0.2280    -2.2020    -2.2710 H     1 <1>   0.0800 
 30 H       -0.8530    -2.0080     0.4460 H     1 <1>   0.4500 
 31 H        4.1540     0.9010     0.9310 H     1 <1>   0.1500 
 32 H        1.3050     3.8810    -0.1100 H     1 <1>   0.1500 
 33 H       -0.2340    -4.3060     0.0090 H     1 <1>   0.0800 
 34 H       -1.2700    -4.3080    -1.3820 H     1 <1>   0.0800 
 35 H       -2.2320    -2.0570    -2.1720 H     1 <1>   0.0800 
 36 H       -1.9380    -0.6310    -1.1990 H     1 <1>   0.0800 
 37 H       -3.0080    -1.8740    -0.6120 H     1 <1>   0.0800 
 38 H        5.5090     2.6520     1.8930 H     1 <1>   0.1500 
 39 H        2.7850     5.5180     0.8960 H     1 <1>   0.1500 
 40 H       -2.4410    -3.5870     1.3130 H     1 <1>   0.0800 
 41 H       -2.6660    -5.9170     1.8450 H     1 <1>   0.0800 
 42 H       -0.9850    -5.7900     1.3480 H     1 <1>   0.0800 
 43 H       -3.7870    -3.8190    -1.0830 H     1 <1>   0.0800 
 44 H       -4.4440    -4.5270     0.3670 H     1 <1>   0.0800 
 45 H       -3.2040    -5.9090    -1.9220 H     1 <1>   0.0800 
 46 H       -4.3390    -6.5220    -0.7330 H     1 <1>   0.0800 
 47 H       -0.6820    -8.3010    -1.1390 H     1 <1>   0.1500 
 48 H       -4.0440    -7.8310     1.4150 H     1 <1>   0.1500 
 49 H       -0.7150   -10.7300    -0.7410 H     1 <1>   0.1500 
 50 H       -4.0860   -10.2500     1.8190 H     1 <1>   0.1500 
 51 H       -2.4200   -11.7060     0.7420 H     1 <1>   0.1500 
@<TRIPOS>BOND
  1   1   2  1   
  2   1   3  1   
  3   2   4  2   
  4   3   5  2   
  5   3   6  1   
  6   4   5  1   
  7   4   7  1   
  8   5  27  1   
  9   6   8  1   
 10   6  28  1   
 11   6  29  1   
 12   7   9  ar  
 13   7  10  ar  
 14   8  11  1   
 15   8  12  1   
 16   8  30  1   
 17   9  13  ar  
 18   9  31  1   
 19  10  14  ar  
 20  10  32  1   
 21  11  15  1   
 22  11  33  1   
 23  11  34  1   
 24  12  35  1   
 25  12  36  1   
 26  12  37  1   
 27  13  16  ar  
 28  13  38  1   
 29  14  16  ar  
 30  14  39  1   
 31  15  17  1   
 32  15  18  1   
 33  15  40  1   
 34  17  19  1   
 35  17  41  1   
 36  17  42  1   
 37  18  20  1   
 38  18  43  1   
 39  18  44  1   
 40  19  20  1   
 41  19  21  1   
 42  20  45  1   
 43  20  46  1   
 44  21  22  ar  
 45  21  23  ar  
 46  22  24  ar  
 47  22  47  1   
 48  23  25  ar  
 49  23  48  1   
 50  24  26  ar  
 51  24  49  1   
 52  25  26  ar  
 53  25  50  1   
 54  26  51  1   
@<TRIPOS>SUBSTRUCTURE
  1 ****   8 GROUP 4 **** **** 0

# MOE 2024.06 (io_trps.svl 2023.06)
