@<TRIPOS>MOLECULE
NONAME
46 47 1 0 0 
SMALL
USER_CHARGES


@<TRIPOS>ATOM
  1 O       -0.9680     0.1230    -1.1420 O.co2 1 <1>  -0.9000 
  2 C       -1.3340     0.7050    -0.1140 C.2   1 <1>   0.9060 
  3 O       -1.9690     0.1090     0.7710 O.co2 1 <1>  -0.9000 
  4 C       -0.9860     2.1800     0.1030 C.3   1 <1>  -0.1060 
  5 C       -2.2530     2.8900     0.6250 C.3   1 <1>   0.2000 
  6 C       -0.7030     2.8240    -1.2760 C.3   1 <1>   0.1100 
  7 C        0.1880     2.2410     1.1380 C.3   1 <1>  -0.0170 
  8 O       -2.5520     2.4360     1.8970 O.3   1 <1>  -0.6800 
  9 C       -2.1640     4.4260     0.6390 C.3   1 <1>  -0.1600 
 10 N       -0.5980     4.3090    -1.2840 N.3   1 <1>  -0.8100 
 11 C        1.6080     2.3880     0.5920 C.ar  1 <1>  -0.1440 
 12 C       -0.8900     4.9810    -0.0090 C.3   1 <1>   0.1100 
 13 C        0.6630     4.7460    -1.9580 C.3   1 <1>   0.1710 
 14 C        2.4140     3.4300     1.0270 C.ar  1 <1>  -0.1500 
 15 C        2.1200     1.4750    -0.3170 C.ar  1 <1>  -0.1500 
 16 C        1.2140     6.1350    -1.6100 C.2   1 <1>   0.5690 
 17 C        3.7040     3.5730     0.5440 C.ar  1 <1>  -0.1500 
 18 C        3.4070     1.6180    -0.8070 C.ar  1 <1>  -0.1500 
 19 O        0.8830     7.1070    -2.2500 O.2   1 <1>  -0.5700 
 20 N        2.1000     6.2220    -0.5810 N.am  1 <1>  -0.7300 
 21 C        4.1990     2.6690    -0.3790 C.ar  1 <1>  -0.1500 
 22 C        2.7120     7.4600    -0.0700 C.3   1 <1>   0.1400 
 23 C        2.5510     7.4890     1.4450 C.3   1 <1>  -0.2400 
 24 H       -3.0800     2.6050    -0.0050 H     1 <1>   0.0800 
 25 H       -1.5210     2.5660    -1.9280 H     1 <1>   0.0800 
 26 H        0.1640     2.3680    -1.7170 H     1 <1>   0.0800 
 27 H        0.0080     3.0420     1.8300 H     1 <1>   0.0800 
 28 H        0.1630     1.3490     1.7410 H     1 <1>   0.0800 
 29 H       -2.5020     1.4390     1.8280 H     1 <1>   0.4000 
 30 H       -3.0050     4.8140     0.0940 H     1 <1>   0.0800 
 31 H       -2.2300     4.7970     1.6460 H     1 <1>   0.0800 
 32 H       -0.0580     4.8670     0.6600 H     1 <1>   0.0800 
 33 H       -1.0240     6.0350    -0.1860 H     1 <1>   0.0800 
 34 H        1.4450     4.0430    -1.7310 H     1 <1>   0.0800 
 35 H        0.5040     4.7080    -3.0200 H     1 <1>   0.0800 
 36 H        2.0370     4.1290     1.7520 H     1 <1>   0.1500 
 37 H        1.5100     0.6480    -0.6490 H     1 <1>   0.1500 
 38 H        4.3260     4.3810     0.8880 H     1 <1>   0.1500 
 39 H        3.7840     0.9050    -1.5180 H     1 <1>   0.1500 
 40 H        2.3590     5.3510    -0.1070 H     1 <1>   0.3700 
 41 H        5.1990     2.7760    -0.7600 H     1 <1>   0.1500 
 42 H        3.7540     7.4800    -0.3380 H     1 <1>   0.0800 
 43 H        2.2280     8.3170    -0.5100 H     1 <1>   0.0800 
 44 H        3.0560     6.6530     1.8950 H     1 <1>   0.0800 
 45 H        1.5080     7.4630     1.7050 H     1 <1>   0.0800 
 46 H        2.9770     8.3960     1.8350 H     1 <1>   0.0800 
@<TRIPOS>BOND
  1   1   2  ar  
  2   2   3  ar  
  3   2   4  1   
  4   4   5  1   
  5   4   6  1   
  6   4   7  1   
  7   5   8  1   
  8   5   9  1   
  9   5  24  1   
 10   6  10  1   
 11   6  25  1   
 12   6  26  1   
 13   7  11  1   
 14   7  27  1   
 15   7  28  1   
 16   8  29  1   
 17   9  12  1   
 18   9  30  1   
 19   9  31  1   
 20  10  12  1   
 21  10  13  1   
 22  11  14  ar  
 23  11  15  ar  
 24  12  32  1   
 25  12  33  1   
 26  13  16  1   
 27  13  34  1   
 28  13  35  1   
 29  14  17  ar  
 30  14  36  1   
 31  15  18  ar  
 32  15  37  1   
 33  16  19  2   
 34  16  20  am  
 35  17  21  ar  
 36  17  38  1   
 37  18  21  ar  
 38  18  39  1   
 39  20  22  1   
 40  20  40  1   
 41  21  41  1   
 42  22  23  1   
 43  22  42  1   
 44  22  43  1   
 45  23  44  1   
 46  23  45  1   
 47  23  46  1   
@<TRIPOS>SUBSTRUCTURE
  1 ****  11 GROUP 4 **** **** 0

# MOE 2024.06 (io_trps.svl 2023.06)
