@<TRIPOS>MOLECULE
NONAME
48 50 1 0 0 
SMALL
USER_CHARGES


@<TRIPOS>ATOM
  1 O       -0.2050     0.9250    -1.7570 O.co2 1 <1>  -0.9000 
  2 C       -0.9420     1.4400    -0.9130 C.2   1 <1>   0.9060 
  3 O       -1.7140     0.7750    -0.2100 O.co2 1 <1>  -0.9000 
  4 C       -0.9100     2.9410    -0.7540 C.3   1 <1>  -0.1860 
  5 C       -2.3020     3.5860    -0.8040 C.3   1 <1>   0.2000 
  6 C       -0.1810     3.3390     0.5270 C.3   1 <1>   0.1400 
  7 O       -3.1600     2.9050     0.0340 O.3   1 <1>  -0.6800 
  8 C       -2.2950     5.0530    -0.3400 C.3   1 <1>  -0.1600 
  9 N        0.0180     4.8280     0.5830 N.am  1 <1>  -0.6600 
 10 C       -0.8870     5.6530    -0.2820 C.3   1 <1>   0.1400 
 11 C        0.9920     5.3350     1.4100 C.2   1 <1>   0.5690 
 12 O        1.5610     4.6460     2.2220 O.2   1 <1>  -0.5700 
 13 C        1.4060     6.7920     1.3360 C.3   1 <1>  -0.0990 
 14 C        2.1590     7.1100     0.0340 C.3   1 <1>   0.2070 
 15 C        3.5640     6.5010     0.0310 C.ar  1 <1>  -0.1430 
 16 C        2.1720     8.6120    -0.2800 C.ar  1 <1>  -0.1430 
 17 C        3.7260     5.1730    -0.3440 C.ar  1 <1>  -0.1500 
 18 C        4.6880     7.2330     0.3920 C.ar  1 <1>  -0.1500 
 19 C        2.2050     9.5860     0.7120 C.ar  1 <1>  -0.1500 
 20 C        2.1530     9.0160    -1.6080 C.ar  1 <1>  -0.1500 
 21 C        4.9810     4.5900    -0.3610 C.ar  1 <1>  -0.1500 
 22 C        5.9450     6.6520     0.3750 C.ar  1 <1>  -0.1500 
 23 C        2.2050    10.9300     0.3810 C.ar  1 <1>  -0.1500 
 24 C        2.1530    10.3590    -1.9410 C.ar  1 <1>  -0.1500 
 25 C        6.0930     5.3300    -0.0020 C.ar  1 <1>  -0.1500 
 26 C        2.1770    11.3180    -0.9460 C.ar  1 <1>  -0.1500 
 27 H       -0.3340     3.3060    -1.5820 H     1 <1>   0.0800 
 28 H       -2.6950     3.4980    -1.8030 H     1 <1>   0.0800 
 29 H        0.7760     2.8450     0.5630 H     1 <1>   0.0800 
 30 H       -0.7520     3.0220     1.3830 H     1 <1>   0.0800 
 31 H       -2.8310     1.9530     0.0670 H     1 <1>   0.4000 
 32 H       -2.9000     5.6320    -1.0120 H     1 <1>   0.0800 
 33 H       -2.7260     5.1340     0.6430 H     1 <1>   0.0800 
 34 H       -0.9600     6.6580     0.0900 H     1 <1>   0.0800 
 35 H       -0.4780     5.6910    -1.2770 H     1 <1>   0.0800 
 36 H        0.5340     7.4080     1.4310 H     1 <1>   0.0800 
 37 H        2.0460     7.0060     2.1720 H     1 <1>   0.0800 
 38 H        1.6210     6.6450    -0.7720 H     1 <1>   0.0800 
 39 H        2.8730     4.5750    -0.6200 H     1 <1>   0.1500 
 40 H        4.6010     8.2630     0.6880 H     1 <1>   0.1500 
 41 H        2.2370     9.3140     1.7520 H     1 <1>   0.1500 
 42 H        2.1430     8.2820    -2.3960 H     1 <1>   0.1500 
 43 H        5.0860     3.5590    -0.6500 H     1 <1>   0.1500 
 44 H        6.8060     7.2310     0.6560 H     1 <1>   0.1500 
 45 H        2.2290    11.6750     1.1580 H     1 <1>   0.1500 
 46 H        2.1390    10.6580    -2.9750 H     1 <1>   0.1500 
 47 H        7.0680     4.8770    -0.0140 H     1 <1>   0.1500 
 48 H        2.1780    12.3630    -1.2030 H     1 <1>   0.1500 
@<TRIPOS>BOND
  1   1   2  ar  
  2   2   3  ar  
  3   2   4  1   
  4   4   5  1   
  5   4   6  1   
  6   4  27  1   
  7   5   7  1   
  8   5   8  1   
  9   5  28  1   
 10   6   9  1   
 11   6  29  1   
 12   6  30  1   
 13   7  31  1   
 14   8  10  1   
 15   8  32  1   
 16   8  33  1   
 17   9  10  1   
 18   9  11  am  
 19  10  34  1   
 20  10  35  1   
 21  11  12  2   
 22  11  13  1   
 23  13  14  1   
 24  13  36  1   
 25  13  37  1   
 26  14  15  1   
 27  14  16  1   
 28  14  38  1   
 29  15  17  ar  
 30  15  18  ar  
 31  16  19  ar  
 32  16  20  ar  
 33  17  21  ar  
 34  17  39  1   
 35  18  22  ar  
 36  18  40  1   
 37  19  23  ar  
 38  19  41  1   
 39  20  24  ar  
 40  20  42  1   
 41  21  25  ar  
 42  21  43  1   
 43  22  25  ar  
 44  22  44  1   
 45  23  26  ar  
 46  23  45  1   
 47  24  26  ar  
 48  24  46  1   
 49  25  47  1   
 50  26  48  1   
@<TRIPOS>SUBSTRUCTURE
  1 ****  14 GROUP 4 **** **** 0

# MOE 2024.06 (io_trps.svl 2023.06)
