@<TRIPOS>MOLECULE
NONAME
59 62 1 0 0 
SMALL
USER_CHARGES


@<TRIPOS>ATOM
  1 O       -2.8380    -3.3310    -2.4660 O.2   1 <1>  -0.5700 
  2 C       -2.5970    -2.1710    -2.2330 C.2   1 <1>   0.5690 
  3 N       -2.8600    -1.5230    -1.0770 N.am  1 <1>  -0.6600 
  4 C       -1.9540    -1.2460    -3.2270 C.3   1 <1>  -0.0990 
  5 C       -2.4420    -0.1130    -1.0980 C.3   1 <1>   0.1400 
  6 C       -3.3930    -2.1480     0.1570 C.3   1 <1>   0.1400 
  7 C       -2.0750     0.1400    -2.5680 C.3   1 <1>  -0.1600 
  8 C       -4.9000    -2.3610     0.0150 C.3   1 <1>  -0.0990 
  9 C       -5.5110    -3.0020     1.2490 C.2   1 <1>   0.5690 
 10 O       -4.9160    -2.8940     2.2970 O.2   1 <1>  -0.5700 
 11 N       -6.7020    -3.6790     1.1650 N.am  1 <1>  -0.6600 
 12 C       -7.2200    -4.4820     2.3070 C.3   1 <1>   0.1400 
 13 C       -7.5630    -3.7810    -0.0450 C.3   1 <1>   0.1400 
 14 C       -7.2570    -5.9560     1.8940 C.3   1 <1>  -0.1600 
 15 C       -7.5830    -5.2400    -0.5050 C.3   1 <1>  -0.1600 
 16 C       -8.0770    -6.1780     0.6120 C.3   1 <1>   0.4240 
 17 O       -9.3920    -5.8010     0.9470 O.3   1 <1>  -0.5600 
 18 C       -7.9980    -7.6560     0.1720 C.ar  1 <1>  -0.1440 
 19 C      -10.4290    -6.3080     0.1640 C.3   1 <1>   0.1200 
 20 C       -9.1450    -8.4340     0.0530 C.ar  1 <1>  -0.1440 
 21 C       -6.7690    -8.2350    -0.1270 C.ar  1 <1>  -0.1500 
 22 C      -10.4970    -7.8200     0.3540 C.3   1 <1>  -0.0170 
 23 C       -9.0600    -9.7620    -0.3360 C.ar  1 <1>  -0.1500 
 24 C       -6.6770    -9.5540    -0.5320 C.ar  1 <1>   0.0820 
 25 C       -7.8330   -10.3350    -0.6160 C.ar  1 <1>   0.0820 
 26 O       -5.4460   -10.0300    -0.8390 O.3   1 <1>  -0.3620 
 27 O       -7.8170   -11.6460    -0.9610 O.3   1 <1>  -0.3620 
 28 C       -5.2170   -10.3230    -2.2000 C.3   1 <1>   0.0400 
 29 C       -7.1560   -12.5210    -0.0720 C.3   1 <1>   0.0400 
 30 H       -2.4650    -1.2890    -4.1710 H     1 <1>   0.0800 
 31 H       -0.9250    -1.5300    -3.3510 H     1 <1>   0.0800 
 32 H       -1.5850     0.0160    -0.4590 H     1 <1>   0.0800 
 33 H       -3.2450     0.5280    -0.7760 H     1 <1>   0.0800 
 34 H       -3.1790    -1.5200     1.0060 H     1 <1>   0.0800 
 35 H       -2.9090    -3.0990     0.3090 H     1 <1>   0.0800 
 36 H       -2.8710     0.6940    -3.0340 H     1 <1>   0.0800 
 37 H       -1.1650     0.7070    -2.6520 H     1 <1>   0.0800 
 38 H       -5.0560    -3.0040    -0.8300 H     1 <1>   0.0800 
 39 H       -5.3850    -1.4190    -0.1550 H     1 <1>   0.0800 
 40 H       -8.2100    -4.1420     2.5610 H     1 <1>   0.0800 
 41 H       -6.5940    -4.3640     3.1750 H     1 <1>   0.0800 
 42 H       -7.2130    -3.1460    -0.8380 H     1 <1>   0.0800 
 43 H       -8.5610    -3.4650     0.2090 H     1 <1>   0.0800 
 44 H       -7.6770    -6.5470     2.6870 H     1 <1>   0.0800 
 45 H       -6.2450    -6.2840     1.7500 H     1 <1>   0.0800 
 46 H       -6.5850    -5.5140    -0.7930 H     1 <1>   0.0800 
 47 H       -8.2010    -5.3450    -1.3760 H     1 <1>   0.0800 
 48 H      -10.2550    -6.0540    -0.8660 H     1 <1>   0.0800 
 49 H      -11.3450    -5.8470     0.4910 H     1 <1>   0.0800 
 50 H       -5.8600    -7.6670    -0.0580 H     1 <1>   0.1500 
 51 H      -11.2450    -8.2270    -0.3030 H     1 <1>   0.0800 
 52 H      -10.7790    -8.0430     1.3670 H     1 <1>   0.0800 
 53 H       -9.9440   -10.3670    -0.4210 H     1 <1>   0.1500 
 54 H       -4.1950   -10.6350    -2.3100 H     1 <1>   0.0800 
 55 H       -5.3970    -9.4350    -2.7790 H     1 <1>   0.0800 
 56 H       -5.8780   -11.1120    -2.5100 H     1 <1>   0.0800 
 57 H       -7.3410   -13.5290    -0.3940 H     1 <1>   0.0800 
 58 H       -7.5490   -12.3700     0.9180 H     1 <1>   0.0800 
 59 H       -6.1010   -12.3180    -0.0900 H     1 <1>   0.0800 
@<TRIPOS>BOND
  1   1   2  2   
  2   2   3  am  
  3   2   4  1   
  4   3   5  1   
  5   3   6  1   
  6   4   7  1   
  7   4  30  1   
  8   4  31  1   
  9   5   7  1   
 10   5  32  1   
 11   5  33  1   
 12   6   8  1   
 13   6  34  1   
 14   6  35  1   
 15   7  36  1   
 16   7  37  1   
 17   8   9  1   
 18   8  38  1   
 19   8  39  1   
 20   9  10  2   
 21   9  11  am  
 22  11  12  1   
 23  11  13  1   
 24  12  14  1   
 25  12  40  1   
 26  12  41  1   
 27  13  15  1   
 28  13  42  1   
 29  13  43  1   
 30  14  16  1   
 31  14  44  1   
 32  14  45  1   
 33  15  16  1   
 34  15  46  1   
 35  15  47  1   
 36  16  17  1   
 37  16  18  1   
 38  17  19  1   
 39  18  20  ar  
 40  18  21  ar  
 41  19  22  1   
 42  19  48  1   
 43  19  49  1   
 44  20  22  1   
 45  20  23  ar  
 46  21  24  ar  
 47  21  50  1   
 48  22  51  1   
 49  22  52  1   
 50  23  25  ar  
 51  23  53  1   
 52  24  25  ar  
 53  24  26  1   
 54  25  27  1   
 55  26  28  1   
 56  27  29  1   
 57  28  54  1   
 58  28  55  1   
 59  28  56  1   
 60  29  57  1   
 61  29  58  1   
 62  29  59  1   
@<TRIPOS>SUBSTRUCTURE
  1 ****  15 GROUP 4 **** **** 0

# MOE 2024.06 (io_trps.svl 2023.06)
