@<TRIPOS>MOLECULE
NONAME
47 48 1 0 0 
SMALL
USER_CHARGES


@<TRIPOS>ATOM
  1 O        4.8370    -0.7290     1.2430 O.co2 1 <1>  -0.9000 
  2 C        4.1170    -0.5860     0.2470 C.2   1 <1>   0.9060 
  3 O        4.0650    -1.4480    -0.6440 O.co2 1 <1>  -0.9000 
  4 C        3.2880     0.6980     0.0530 C.3   1 <1>  -0.1060 
  5 C        3.8430     1.2780    -1.2760 C.3   1 <1>   0.2000 
  6 C        3.5190     1.7280     1.2070 C.3   1 <1>  -0.1600 
  7 C        1.7750     0.2990     0.0370 C.3   1 <1>  -0.1600 
  8 O        3.2690     0.6360    -2.3600 O.3   1 <1>  -0.6800 
  9 C        3.7170     2.8030    -1.3930 C.3   1 <1>   0.1400 
 10 C        4.7110     2.6520     0.9460 C.3   1 <1>   0.1400 
 11 C        0.7660     1.3670    -0.4260 C.3   1 <1>  -0.1600 
 12 N        4.4410     3.4910    -0.2680 N.am  1 <1>  -0.6600 
 13 C       -0.6700     0.8490    -0.3010 C.3   1 <1>  -0.2400 
 14 C        4.8610     4.7880    -0.4200 C.2   1 <1>   0.5690 
 15 O        4.5610     5.4340    -1.4000 O.2   1 <1>  -0.5700 
 16 C        5.7050     5.4970     0.6350 C.3   1 <1>   0.0440 
 17 C        7.0480     4.8300     0.9510 C.ar  1 <1>  -0.1430 
 18 C        8.0120     4.5850    -0.0260 C.ar  1 <1>  -0.1430 
 19 C        7.3070     4.4610     2.2650 C.ar  1 <1>  -0.1500 
 20 C        9.2010     3.9650     0.3280 C.ar  1 <1>  -0.1500 
 21 C        7.8100     4.9660    -1.4860 C.3   1 <1>  -0.0970 
 22 C        8.4960     3.8450     2.6090 C.ar  1 <1>  -0.1500 
 23 C        9.4450     3.5950     1.6370 C.ar  1 <1>  -0.1500 
 24 H        4.8970     1.0590    -1.3350 H     1 <1>   0.0800 
 25 H        3.6670     1.2100     2.1380 H     1 <1>   0.0800 
 26 H        2.6610     2.3550     1.3490 H     1 <1>   0.0800 
 27 H        1.6550    -0.5580    -0.6050 H     1 <1>   0.0800 
 28 H        1.5120    -0.0290     1.0280 H     1 <1>   0.0800 
 29 H        3.3810    -0.3320    -2.1670 H     1 <1>   0.4000 
 30 H        2.6840     3.0920    -1.3670 H     1 <1>   0.0800 
 31 H        4.1390     3.1150    -2.3320 H     1 <1>   0.0800 
 32 H        5.6040     2.0660     0.7940 H     1 <1>   0.0800 
 33 H        4.8590     3.2730     1.8090 H     1 <1>   0.0800 
 34 H        0.8600     2.2660     0.1540 H     1 <1>   0.0800 
 35 H        0.9520     1.6130    -1.4570 H     1 <1>   0.0800 
 36 H       -0.8950     0.6110     0.7230 H     1 <1>   0.0800 
 37 H       -0.7970    -0.0370    -0.8990 H     1 <1>   0.0800 
 38 H       -1.3620     1.5970    -0.6430 H     1 <1>   0.0800 
 39 H        5.8990     6.4990     0.2990 H     1 <1>   0.0800 
 40 H        5.1100     5.5830     1.5240 H     1 <1>   0.0800 
 41 H        6.5810     4.6460     3.0370 H     1 <1>   0.1500 
 42 H        9.9480     3.7620    -0.4190 H     1 <1>   0.1500 
 43 H        8.7440     4.9650    -2.0170 H     1 <1>   0.0800 
 44 H        7.3840     5.9490    -1.5700 H     1 <1>   0.0800 
 45 H        7.1520     4.2590    -1.9600 H     1 <1>   0.0800 
 46 H        8.6810     3.5580     3.6290 H     1 <1>   0.1500 
 47 H       10.3700     3.1100     1.8980 H     1 <1>   0.1500 
@<TRIPOS>BOND
  1   1   2  ar  
  2   2   3  ar  
  3   2   4  1   
  4   4   5  1   
  5   4   6  1   
  6   4   7  1   
  7   5   8  1   
  8   5   9  1   
  9   5  24  1   
 10   6  10  1   
 11   6  25  1   
 12   6  26  1   
 13   7  11  1   
 14   7  27  1   
 15   7  28  1   
 16   8  29  1   
 17   9  12  1   
 18   9  30  1   
 19   9  31  1   
 20  10  12  1   
 21  10  32  1   
 22  10  33  1   
 23  11  13  1   
 24  11  34  1   
 25  11  35  1   
 26  12  14  am  
 27  13  36  1   
 28  13  37  1   
 29  13  38  1   
 30  14  15  2   
 31  14  16  1   
 32  16  17  1   
 33  16  39  1   
 34  16  40  1   
 35  17  18  ar  
 36  17  19  ar  
 37  18  20  ar  
 38  18  21  1   
 39  19  22  ar  
 40  19  41  1   
 41  20  23  ar  
 42  20  42  1   
 43  21  43  1   
 44  21  44  1   
 45  21  45  1   
 46  22  23  ar  
 47  22  46  1   
 48  23  47  1   
@<TRIPOS>SUBSTRUCTURE
  1 ****  10 GROUP 4 **** **** 0

# MOE 2024.06 (io_trps.svl 2023.06)
