@<TRIPOS>MOLECULE
NONAME
54 56 1 0 0 
SMALL
USER_CHARGES


@<TRIPOS>ATOM
  1 S       -2.1170    -0.2140     1.0180 S.o2  1 <1>   1.0900 
  2 O       -2.8020     0.6890     1.9120 O.2   1 <1>  -0.6500 
  3 O       -0.6780    -0.3370     1.0120 O.2   1 <1>  -0.6500 
  4 C       -2.7930    -1.8460     1.1360 C.3   1 <1>  -0.0550 
  5 C       -2.6510     0.0470    -0.6670 C.3   1 <1>  -0.0550 
  6 C       -2.6590    -2.4100    -0.2750 C.3   1 <1>   0.1760 
  7 C       -3.1060    -1.3030    -1.2510 C.3   1 <1>  -0.1600 
  8 N       -3.4590    -3.6490    -0.4410 N.pl3 1 <1>   0.3140 
  9 N       -4.7680    -3.6850    -0.1140 N.2   1 <1>  -0.7070 
 10 C       -3.0270    -4.8490    -0.9040 C.2   1 <1>  -0.3320 
 11 C       -5.1340    -4.9040    -0.3600 C.2   1 <1>   0.1080 
 12 C       -4.0890    -5.6820    -0.8540 C.2   1 <1>   0.0630 
 13 C       -1.6100    -5.1440    -1.3740 C.3   1 <1>  -0.0600 
 14 C       -6.5420    -5.4050    -0.1190 C.3   1 <1>  -0.0590 
 15 N       -4.1920    -7.0470    -1.2090 N.am  1 <1>  -0.4930 
 16 C       -3.4770    -8.1050    -0.7310 C.2   1 <1>   0.5690 
 17 O       -2.4320    -7.9970    -0.1300 O.2   1 <1>  -0.5700 
 18 C       -4.0350    -9.4920    -0.9460 C.3   1 <1>   0.1570 
 19 N       -5.4850    -9.4490    -0.7070 N.pl3 1 <1>   0.3140 
 20 N       -6.3220    -9.0360    -1.6790 N.2   1 <1>  -0.7070 
 21 C       -6.1420    -9.6420     0.4590 C.2   1 <1>  -0.3320 
 22 C       -7.4900    -9.0040    -1.1230 C.2   1 <1>   0.1080 
 23 C       -7.4450    -9.3720     0.2190 C.2   1 <1>  -0.1810 
 24 C       -5.4650   -10.0560     1.7580 C.3   1 <1>  -0.0600 
 25 C       -8.7300    -8.6010    -1.8880 C.3   1 <1>  -0.0590 
 26 C       -8.6190    -9.4310     1.1820 C.3   1 <1>   0.0210 
 27 C       -8.8150    -8.0780     1.8680 C.3   1 <1>  -0.2400 
 28 H       -3.8300    -1.7870     1.4090 H     1 <1>   0.0800 
 29 H       -2.2620    -2.4430     1.8520 H     1 <1>   0.0800 
 30 H       -1.8400     0.4500    -1.2450 H     1 <1>   0.0800 
 31 H       -3.4670     0.7450    -0.6960 H     1 <1>   0.0800 
 32 H       -1.6230    -2.6370    -0.4510 H     1 <1>   0.0800 
 33 H       -2.6900    -1.4630    -2.2300 H     1 <1>   0.0800 
 34 H       -4.1810    -1.3000    -1.3240 H     1 <1>   0.0800 
 35 H       -1.3040    -4.4350    -2.1220 H     1 <1>   0.0800 
 36 H       -1.5560    -6.1270    -1.8060 H     1 <1>   0.0800 
 37 H       -0.9280    -5.1050    -0.5430 H     1 <1>   0.0800 
 38 H       -7.0900    -4.6900     0.4670 H     1 <1>   0.0800 
 39 H       -6.5120    -6.3400     0.4090 H     1 <1>   0.0800 
 40 H       -7.0420    -5.5460    -1.0590 H     1 <1>   0.0800 
 41 H       -5.1040    -7.3160    -1.6080 H     1 <1>   0.3700 
 42 H       -3.5770   -10.1860    -0.2700 H     1 <1>   0.0800 
 43 H       -3.8560    -9.8030    -1.9570 H     1 <1>   0.0800 
 44 H       -4.6930    -9.3520     2.0150 H     1 <1>   0.0800 
 45 H       -5.0290   -11.0330     1.6550 H     1 <1>   0.0800 
 46 H       -6.1740   -10.0840     2.5650 H     1 <1>   0.0800 
 47 H       -8.4560    -8.2070    -2.8500 H     1 <1>   0.0800 
 48 H       -9.2710    -7.8490    -1.3460 H     1 <1>   0.0800 
 49 H       -9.3600    -9.4590    -2.0320 H     1 <1>   0.0800 
 50 H       -8.4380   -10.1890     1.9230 H     1 <1>   0.0800 
 51 H       -9.5120    -9.7060     0.6490 H     1 <1>   0.0800 
 52 H       -7.9250    -7.8070     2.4080 H     1 <1>   0.0800 
 53 H       -9.6380    -8.1280     2.5580 H     1 <1>   0.0800 
 54 H       -9.0190    -7.3160     1.1380 H     1 <1>   0.0800 
@<TRIPOS>BOND
  1   1   2  2   
  2   1   3  2   
  3   1   4  1   
  4   1   5  1   
  5   4   6  1   
  6   4  28  1   
  7   4  29  1   
  8   5   7  1   
  9   5  30  1   
 10   5  31  1   
 11   6   7  1   
 12   6   8  1   
 13   6  32  1   
 14   7  33  1   
 15   7  34  1   
 16   8   9  1   
 17   8  10  1   
 18   9  11  2   
 19  10  12  2   
 20  10  13  1   
 21  11  12  1   
 22  11  14  1   
 23  12  15  1   
 24  13  35  1   
 25  13  36  1   
 26  13  37  1   
 27  14  38  1   
 28  14  39  1   
 29  14  40  1   
 30  15  16  am  
 31  15  41  1   
 32  16  17  2   
 33  16  18  1   
 34  18  19  1   
 35  18  42  1   
 36  18  43  1   
 37  19  20  1   
 38  19  21  1   
 39  20  22  2   
 40  21  23  2   
 41  21  24  1   
 42  22  23  1   
 43  22  25  1   
 44  23  26  1   
 45  24  44  1   
 46  24  45  1   
 47  24  46  1   
 48  25  47  1   
 49  25  48  1   
 50  25  49  1   
 51  26  27  1   
 52  26  50  1   
 53  26  51  1   
 54  27  52  1   
 55  27  53  1   
 56  27  54  1   
@<TRIPOS>SUBSTRUCTURE
  1 ****  12 GROUP 4 **** **** 0

# MOE 2024.06 (io_trps.svl 2023.06)
