@<TRIPOS>MOLECULE
NONAME
53 55 1 0 0 
SMALL
USER_CHARGES


@<TRIPOS>ATOM
  1 O       -3.4290     3.7340    -1.9340 O.2   1 <1>  -0.5700 
  2 C       -3.1870     3.0630    -0.9460 C.2   1 <1>   0.5440 
  3 N       -4.0240     3.1530     0.1540 N.am  1 <1>  -0.6600 
  4 C       -1.9810     2.2610    -0.9300 C.ar  1 <1>   0.0860 
  5 C       -3.6570     2.6030     1.4940 C.3   1 <1>   0.1400 
  6 C       -5.2560     3.9870     0.1230 C.3   1 <1>   0.1400 
  7 C       -1.9980     0.8660    -1.0460 C.ar  1 <1>   0.0820 
  8 C       -0.7440     2.8860    -0.7910 C.ar  1 <1>  -0.1500 
  9 C       -4.3220     1.2490     1.8120 C.3   1 <1>   0.1400 
 10 C       -6.5160     3.1530     0.3630 C.3   1 <1>  -0.1600 
 11 O       -3.1780     0.2460    -1.2040 O.3   1 <1>  -0.5320 
 12 C       -0.8210     0.1210    -1.0030 C.ar  1 <1>  -0.1440 
 13 C        0.4290     2.1580    -0.7480 C.ar  1 <1>  -0.1500 
 14 N       -5.8200     1.1960     1.7260 N.am  1 <1>  -0.6600 
 15 C       -6.5640     2.4880     1.7400 C.3   1 <1>   0.1400 
 16 C        0.3880     0.7780    -0.8500 C.ar  1 <1>  -0.1500 
 17 C       -0.8250    -1.3950    -1.1240 C.3   1 <1>  -0.0970 
 18 C       -6.5150     0.0140     1.5700 C.2   1 <1>   0.5690 
 19 O       -7.7080     0.0210     1.3550 O.2   1 <1>  -0.5700 
 20 C       -5.8170    -1.3580     1.7000 C.3   1 <1>   0.1240 
 21 C       -5.2230    -1.8860     0.3880 C.ar  1 <1>  -0.1440 
 22 C       -6.7490    -2.4370     2.2830 C.3   1 <1>  -0.2400 
 23 C       -4.1440    -2.7590     0.4290 C.ar  1 <1>  -0.1500 
 24 C       -5.7550    -1.5370    -0.8460 C.ar  1 <1>  -0.1500 
 25 C       -3.6110    -3.2780    -0.7390 C.ar  1 <1>  -0.1500 
 26 C       -5.2150    -2.0470    -2.0150 C.ar  1 <1>  -0.1500 
 27 C       -4.1430    -2.9190    -1.9630 C.ar  1 <1>  -0.1500 
 28 H       -3.9170     3.3160     2.2550 H     1 <1>   0.0800 
 29 H       -2.5910     2.4740     1.5490 H     1 <1>   0.0800 
 30 H       -5.3530     4.4770    -0.8310 H     1 <1>   0.0800 
 31 H       -5.1780     4.7580     0.8700 H     1 <1>   0.0800 
 32 H       -0.7130     3.9600    -0.7210 H     1 <1>   0.1500 
 33 H       -4.0360     0.9710     2.8110 H     1 <1>   0.0800 
 34 H       -3.9100     0.5150     1.1470 H     1 <1>   0.0800 
 35 H       -6.6240     2.4140    -0.4120 H     1 <1>   0.0800 
 36 H       -7.3570     3.8170     0.2870 H     1 <1>   0.0800 
 37 H       -3.1580    -0.7300    -1.2560 H     1 <1>   0.4500 
 38 H        1.3740     2.6610    -0.6390 H     1 <1>   0.1500 
 39 H       -7.5940     2.3040     1.9950 H     1 <1>   0.0800 
 40 H       -6.1680     3.1400     2.4980 H     1 <1>   0.0800 
 41 H        1.3110     0.2250    -0.8150 H     1 <1>   0.1500 
 42 H       -1.3780    -1.6970    -1.9950 H     1 <1>   0.0800 
 43 H       -1.2700    -1.8270    -0.2470 H     1 <1>   0.0800 
 44 H        0.1760    -1.7760    -1.2180 H     1 <1>   0.0800 
 45 H       -5.0170    -1.2410     2.4050 H     1 <1>   0.0800 
 46 H       -7.5560    -2.6330     1.5990 H     1 <1>   0.0800 
 47 H       -7.1660    -2.1010     3.2160 H     1 <1>   0.0800 
 48 H       -6.2100    -3.3520     2.4510 H     1 <1>   0.0800 
 49 H       -3.7220    -3.0510     1.3750 H     1 <1>   0.1500 
 50 H       -6.5960    -0.8680    -0.9130 H     1 <1>   0.1500 
 51 H       -2.7860    -3.9680    -0.6930 H     1 <1>   0.1500 
 52 H       -5.6380    -1.7620    -2.9640 H     1 <1>   0.1500 
 53 H       -3.7330    -3.3210    -2.8740 H     1 <1>   0.1500 
@<TRIPOS>BOND
  1   1   2  2   
  2   2   3  am  
  3   2   4  1   
  4   3   5  1   
  5   3   6  1   
  6   4   7  ar  
  7   4   8  ar  
  8   5   9  1   
  9   5  28  1   
 10   5  29  1   
 11   6  10  1   
 12   6  30  1   
 13   6  31  1   
 14   7  11  1   
 15   7  12  ar  
 16   8  13  ar  
 17   8  32  1   
 18   9  14  1   
 19   9  33  1   
 20   9  34  1   
 21  10  15  1   
 22  10  35  1   
 23  10  36  1   
 24  11  37  1   
 25  12  16  ar  
 26  12  17  1   
 27  13  16  ar  
 28  13  38  1   
 29  14  15  1   
 30  14  18  am  
 31  15  39  1   
 32  15  40  1   
 33  16  41  1   
 34  17  42  1   
 35  17  43  1   
 36  17  44  1   
 37  18  19  2   
 38  18  20  1   
 39  20  21  1   
 40  20  22  1   
 41  20  45  1   
 42  21  23  ar  
 43  21  24  ar  
 44  22  46  1   
 45  22  47  1   
 46  22  48  1   
 47  23  25  ar  
 48  23  49  1   
 49  24  26  ar  
 50  24  50  1   
 51  25  27  ar  
 52  25  51  1   
 53  26  27  ar  
 54  26  52  1   
 55  27  53  1   
@<TRIPOS>SUBSTRUCTURE
  1 ****  11 GROUP 4 **** **** 0

# MOE 2024.06 (io_trps.svl 2023.06)
