@<TRIPOS>MOLECULE
NONAME
42 44 1 0 0 
SMALL
USER_CHARGES


@<TRIPOS>ATOM
  1 N        0.0370     0.2170    -0.2040 N.ar  1 <1>  -0.1790 
  2 C        0.0940     1.5460    -0.3180 C.ar  1 <1>   0.4610 
  3 C       -1.1140    -0.4910     0.0930 C.ar  1 <1>   0.3610 
  4 N        1.2690     2.1290    -0.6080 N.pl3 1 <1>  -0.8690 
  5 C       -1.1120     2.2620    -0.1160 C.ar  1 <1>  -0.1500 
  6 C       -2.3170     0.2130     0.2930 C.ar  1 <1>   0.0000 
  7 C       -1.0910    -1.8870     0.1930 C.ar  1 <1>  -0.1500 
  8 C        1.5180     3.5850    -0.8340 C.3   1 <1>   0.2090 
  9 C       -2.2850     1.6370     0.1790 C.ar  1 <1>  -0.1430 
 10 C       -3.4700    -0.5320     0.5920 C.ar  1 <1>  -0.1500 
 11 C       -2.2360    -2.5860     0.4880 C.ar  1 <1>  -0.1500 
 12 C        1.9020     4.2740     0.4750 C.3   1 <1>   0.0210 
 13 C       -3.5570     2.4510     0.3880 C.3   1 <1>  -0.0970 
 14 C       -3.4300    -1.9020     0.6880 C.ar  1 <1>  -0.1500 
 15 C        2.0570     5.7620     0.2280 C.2   1 <1>  -0.1810 
 16 C        1.0490     6.7240     0.2750 C.2   1 <1>   0.1080 
 17 C        3.1750     6.4490    -0.0970 C.2   1 <1>  -0.3320 
 18 N        1.4910     7.9070    -0.0020 N.2   1 <1>  -0.7070 
 19 C       -0.4080     6.4860     0.6030 C.3   1 <1>  -0.0590 
 20 N        2.8050     7.7400    -0.2260 N.pl3 1 <1>   0.3000 
 21 C        4.6070     5.9830    -0.3040 C.3   1 <1>  -0.0600 
 22 H        0.8910    -0.3100    -0.3510 H     1 <1>   0.4570 
 23 H        2.1390     1.5950    -0.7130 H     1 <1>   0.4000 
 24 H       -1.0820     3.3320    -0.1980 H     1 <1>   0.1500 
 25 H       -0.1740    -2.4280     0.0410 H     1 <1>   0.1500 
 26 H        0.6470     4.0590    -1.2530 H     1 <1>   0.0800 
 27 H        2.3180     3.7060    -1.5460 H     1 <1>   0.0800 
 28 H       -4.4090    -0.0310     0.7520 H     1 <1>   0.1500 
 29 H       -2.2250    -3.6620     0.5670 H     1 <1>   0.1500 
 30 H        2.8280     3.8720     0.8430 H     1 <1>   0.0800 
 31 H        1.1440     4.1130     1.2200 H     1 <1>   0.0800 
 32 H       -3.3700     3.5040     0.2700 H     1 <1>   0.0800 
 33 H       -3.9440     2.2910     1.3800 H     1 <1>   0.0800 
 34 H       -4.3060     2.1640    -0.3290 H     1 <1>   0.0800 
 35 H       -4.3240    -2.4590     0.9190 H     1 <1>   0.1500 
 36 H       -0.4970     5.8920     1.4920 H     1 <1>   0.0800 
 37 H       -0.8900     5.9910    -0.2180 H     1 <1>   0.0800 
 38 H       -0.8970     7.4290     0.7710 H     1 <1>   0.0800 
 39 H        3.4190     8.5280    -0.4650 H     1 <1>   0.2700 
 40 H        4.6870     4.9190    -0.1820 H     1 <1>   0.0800 
 41 H        5.2550     6.4570     0.4110 H     1 <1>   0.0800 
 42 H        4.9390     6.2370    -1.2960 H     1 <1>   0.0800 
@<TRIPOS>BOND
  1   1   2  ar  
  2   1   3  ar  
  3   1  22  1   
  4   2   4  1   
  5   2   5  ar  
  6   3   6  ar  
  7   3   7  ar  
  8   4   8  1   
  9   4  23  1   
 10   5   9  ar  
 11   5  24  1   
 12   6   9  ar  
 13   6  10  ar  
 14   7  11  ar  
 15   7  25  1   
 16   8  12  1   
 17   8  26  1   
 18   8  27  1   
 19   9  13  1   
 20  10  14  ar  
 21  10  28  1   
 22  11  14  ar  
 23  11  29  1   
 24  12  15  1   
 25  12  30  1   
 26  12  31  1   
 27  13  32  1   
 28  13  33  1   
 29  13  34  1   
 30  14  35  1   
 31  15  16  1   
 32  15  17  2   
 33  16  18  2   
 34  16  19  1   
 35  17  20  1   
 36  17  21  1   
 37  18  20  1   
 38  19  36  1   
 39  19  37  1   
 40  19  38  1   
 41  20  39  1   
 42  21  40  1   
 43  21  41  1   
 44  21  42  1   
@<TRIPOS>SUBSTRUCTURE
  1 ****   5 GROUP 4 **** **** 0

# MOE 2024.06 (io_trps.svl 2023.06)
