@<TRIPOS>MOLECULE
NONAME
45 47 1 0 0 
SMALL
USER_CHARGES


@<TRIPOS>ATOM
  1 O        1.5860    -1.9460     1.7780 O.3   1 <1>  -0.2170 
  2 N        0.9460    -0.8900     1.3260 N.2   1 <1>  -0.5130 
  3 C        2.9050    -2.0260     1.2820 C.3   1 <1>   0.2000 
  4 C        1.7510    -0.0550     0.8090 C.2   1 <1>   0.3030 
  5 C        3.1610    -0.5880     0.8370 C.3   1 <1>  -0.0990 
  6 C        2.9120    -3.0500     0.1180 C.3   1 <1>   0.3430 
  7 C        1.4270     1.2280     0.2200 C.ar  1 <1>   0.0860 
  8 N        1.5960    -3.0580    -0.6140 N.4   1 <1>  -0.9590 
  9 C        0.0980     1.6530     0.1460 C.ar  1 <1>  -0.1500 
 10 C        2.3980     2.0880    -0.3030 C.ar  1 <1>  -0.1500 
 11 C        0.7300    -4.1740    -0.1090 C.3   1 <1>   0.3430 
 12 C        1.7030    -3.0740    -2.0960 C.3   1 <1>   0.3430 
 13 C       -0.2480     2.8600    -0.4320 C.ar  1 <1>  -0.1500 
 14 C        2.0570     3.2960    -0.8830 C.ar  1 <1>  -0.1500 
 15 C       -0.7560    -3.8180    -0.1750 C.3   1 <1>   0.0960 
 16 C        2.2030    -1.7220    -2.5880 C.3   1 <1>  -0.2400 
 17 C        0.7320     3.6840    -0.9520 C.ar  1 <1>  -0.1500 
 18 N       -1.5290    -5.0250     0.1320 N.pl3 1 <1>   0.3140 
 19 N       -1.1730    -6.2200    -0.3730 N.2   1 <1>  -0.7070 
 20 C       -2.6250    -5.1250     0.9060 C.2   1 <1>  -0.3020 
 21 C       -2.0580    -7.0520     0.0900 C.2   1 <1>   0.1390 
 22 C       -2.9950    -6.4230     0.9000 C.2   1 <1>  -0.1500 
 23 H        3.5670    -2.3210     2.0770 H     1 <1>   0.0800 
 24 H        3.6500    -0.5330    -0.1180 H     1 <1>   0.0800 
 25 H        3.7390    -0.0610     1.5760 H     1 <1>   0.0800 
 26 H        3.1140    -4.0320     0.5150 H     1 <1>   0.0800 
 27 H        3.7170    -2.8070    -0.5550 H     1 <1>   0.0800 
 28 H        1.1270    -2.1840    -0.3000 H     1 <1>   0.4500 
 29 H       -0.6800     1.0310     0.5530 H     1 <1>   0.1500 
 30 H        3.4400     1.8290    -0.2610 H     1 <1>   0.1500 
 31 H        0.9720    -4.3840     0.9210 H     1 <1>   0.0800 
 32 H        0.9160    -5.0660    -0.6860 H     1 <1>   0.0800 
 33 H        0.7320    -3.2630    -2.5280 H     1 <1>   0.0800 
 34 H        2.3690    -3.8600    -2.4150 H     1 <1>   0.0800 
 35 H       -1.2810     3.1640    -0.4750 H     1 <1>   0.1500 
 36 H        2.8220     3.9420    -1.2820 H     1 <1>   0.1500 
 37 H       -1.0320    -3.4940    -1.1600 H     1 <1>   0.0800 
 38 H       -0.9940    -3.0570     0.5460 H     1 <1>   0.0800 
 39 H        1.5670    -0.9270    -2.2410 H     1 <1>   0.0800 
 40 H        2.1830    -1.7140    -3.6640 H     1 <1>   0.0800 
 41 H        3.2170    -1.5430    -2.2830 H     1 <1>   0.0800 
 42 H        0.4650     4.6250    -1.4020 H     1 <1>   0.1500 
 43 H       -3.0780    -4.2890     1.4100 H     1 <1>   0.1500 
 44 H       -2.0600    -8.1070    -0.1330 H     1 <1>   0.1500 
 45 H       -3.8220    -6.8960     1.3990 H     1 <1>   0.1500 
@<TRIPOS>BOND
  1   1   2  1   
  2   1   3  1   
  3   2   4  2   
  4   3   5  1   
  5   3   6  1   
  6   3  23  1   
  7   4   5  1   
  8   4   7  1   
  9   5  24  1   
 10   5  25  1   
 11   6   8  1   
 12   6  26  1   
 13   6  27  1   
 14   7   9  ar  
 15   7  10  ar  
 16   8  11  1   
 17   8  12  1   
 18   8  28  1   
 19   9  13  ar  
 20   9  29  1   
 21  10  14  ar  
 22  10  30  1   
 23  11  15  1   
 24  11  31  1   
 25  11  32  1   
 26  12  16  1   
 27  12  33  1   
 28  12  34  1   
 29  13  17  ar  
 30  13  35  1   
 31  14  17  ar  
 32  14  36  1   
 33  15  18  1   
 34  15  37  1   
 35  15  38  1   
 36  16  39  1   
 37  16  40  1   
 38  16  41  1   
 39  17  42  1   
 40  18  19  1   
 41  18  20  1   
 42  19  21  2   
 43  20  22  2   
 44  20  43  1   
 45  21  22  1   
 46  21  44  1   
 47  22  45  1   
@<TRIPOS>SUBSTRUCTURE
  1 ****   2 GROUP 4 **** **** 0

# MOE 2024.06 (io_trps.svl 2023.06)
