@<TRIPOS>MOLECULE
NONAME
49 52 1 0 0 
SMALL
USER_CHARGES


@<TRIPOS>ATOM
  1 CL      -6.6050    -2.1030     4.2050 Cl    1 <1>  -0.1240 
  2 C       -5.5570    -2.7600     2.9750 C.2   1 <1>   0.2640 
  3 O       -5.7110    -2.3380     1.7380 O.3   1 <1>  -0.2800 
  4 C       -4.5730    -3.6730     3.0810 C.2   1 <1>  -0.1500 
  5 C       -4.8170    -2.9820     1.0040 C.2   1 <1>  -0.0400 
  6 C       -4.0840    -3.8210     1.7750 C.2   1 <1>  -0.1500 
  7 C       -4.7520    -2.7140    -0.4910 C.3   1 <1>   0.5230 
  8 N       -5.9690    -3.2650    -1.1380 N.4   1 <1>  -0.9590 
  9 C       -5.7870    -3.6080    -2.5790 C.3   1 <1>   0.3430 
 10 C       -7.2170    -2.5020    -0.8570 C.3   1 <1>   0.3430 
 11 C       -6.8430    -4.6320    -3.0550 C.3   1 <1>   0.1400 
 12 C       -8.3220    -3.4570    -0.3910 C.3   1 <1>  -0.1600 
 13 N       -7.6010    -5.2700    -1.9250 N.am  1 <1>  -0.6600 
 14 C       -8.7700    -4.4960    -1.4300 C.3   1 <1>   0.1400 
 15 C       -7.0080    -6.2270    -1.1310 C.2   1 <1>   0.5440 
 16 O       -5.8140    -6.0970    -0.9260 O.2   1 <1>  -0.5700 
 17 C       -7.7680    -7.2800    -0.4820 C.ar  1 <1>   0.0860 
 18 C       -7.3810    -7.7870     0.7590 C.ar  1 <1>  -0.1500 
 19 C       -8.9110    -7.8300    -1.0630 C.ar  1 <1>  -0.1500 
 20 C       -8.1070    -8.7740     1.3980 C.ar  1 <1>  -0.1500 
 21 C       -9.6420    -8.8150    -0.4270 C.ar  1 <1>  -0.1500 
 22 C       -9.2600    -9.3020     0.8200 C.ar  1 <1>  -0.0230 
 23 N      -10.0260   -10.3100     1.4750 N.pl3 1 <1>   0.5930 
 24 N      -10.7890   -11.2180     0.8110 N.2   1 <1>  -0.7070 
 25 C      -10.1400   -10.5170     2.8120 C.2   1 <1>  -0.3020 
 26 C      -11.3380   -11.9540     1.7250 C.2   1 <1>   0.1390 
 27 C      -10.9690   -11.5630     3.0050 C.2   1 <1>  -0.1500 
 28 H       -4.2250    -4.1870     3.9600 H     1 <1>   0.1500 
 29 H       -3.2850    -4.4870     1.4910 H     1 <1>   0.1500 
 30 H       -3.8780    -3.2050    -0.8870 H     1 <1>   0.0800 
 31 H       -4.6690    -1.6560    -0.6760 H     1 <1>   0.0800 
 32 H       -6.0960    -4.2030    -0.7050 H     1 <1>   0.4500 
 33 H       -4.8170    -4.0580    -2.7130 H     1 <1>   0.0800 
 34 H       -5.8260    -2.7220    -3.1920 H     1 <1>   0.0800 
 35 H       -7.5350    -1.9690    -1.7380 H     1 <1>   0.0800 
 36 H       -7.0370    -1.7780    -0.0780 H     1 <1>   0.0800 
 37 H       -6.3450    -5.4020    -3.6200 H     1 <1>   0.0800 
 38 H       -7.5340    -4.1500    -3.7250 H     1 <1>   0.0800 
 39 H       -9.1800    -2.8660    -0.1240 H     1 <1>   0.0800 
 40 H       -8.0060    -3.9560     0.5090 H     1 <1>   0.0800 
 41 H       -9.2600    -4.0100    -2.2570 H     1 <1>   0.0800 
 42 H       -9.4860    -5.1630    -0.9780 H     1 <1>   0.0800 
 43 H       -6.4920    -7.4010     1.2260 H     1 <1>   0.1500 
 44 H       -9.2310    -7.4850    -2.0310 H     1 <1>   0.1500 
 45 H       -7.7670    -9.1400     2.3510 H     1 <1>   0.1500 
 46 H      -10.5210    -9.2200    -0.9030 H     1 <1>   0.1500 
 47 H       -9.6330    -9.9100     3.5370 H     1 <1>   0.1500 
 48 H      -12.0040   -12.7730     1.5080 H     1 <1>   0.1500 
 49 H      -11.2950   -12.0160     3.9250 H     1 <1>   0.1500 
@<TRIPOS>BOND
  1   1   2  1   
  2   2   3  1   
  3   2   4  2   
  4   3   5  1   
  5   4   6  1   
  6   4  28  1   
  7   5   6  2   
  8   5   7  1   
  9   6  29  1   
 10   7   8  1   
 11   7  30  1   
 12   7  31  1   
 13   8   9  1   
 14   8  10  1   
 15   8  32  1   
 16   9  11  1   
 17   9  33  1   
 18   9  34  1   
 19  10  12  1   
 20  10  35  1   
 21  10  36  1   
 22  11  13  1   
 23  11  37  1   
 24  11  38  1   
 25  12  14  1   
 26  12  39  1   
 27  12  40  1   
 28  13  14  1   
 29  13  15  am  
 30  14  41  1   
 31  14  42  1   
 32  15  16  2   
 33  15  17  1   
 34  17  18  ar  
 35  17  19  ar  
 36  18  20  ar  
 37  18  43  1   
 38  19  21  ar  
 39  19  44  1   
 40  20  22  ar  
 41  20  45  1   
 42  21  22  ar  
 43  21  46  1   
 44  22  23  1   
 45  23  24  1   
 46  23  25  1   
 47  24  26  2   
 48  25  27  2   
 49  25  47  1   
 50  26  27  1   
 51  26  48  1   
 52  27  49  1   
@<TRIPOS>SUBSTRUCTURE
  1 ****  17 GROUP 4 **** **** 0

# MOE 2024.06 (io_trps.svl 2023.06)
