@<TRIPOS>MOLECULE
NONAME
34 34 1 0 0 
SMALL
USER_CHARGES


@<TRIPOS>ATOM
  1 O       -0.2910    -0.1660    -0.6800 O.2   1 <1>  -0.5700 
  2 C       -1.2710    -0.8220    -0.3900 C.2   1 <1>   0.7800 
  3 O       -2.4150    -0.2570    -0.0090 O.3   1 <1>  -0.4300 
  4 N       -1.2810    -2.1710    -0.4330 N.am  1 <1>  -0.7300 
  5 C       -2.6800     1.1230     0.1210 C.3   1 <1>   0.2800 
  6 C       -0.1370    -3.0430    -0.7830 C.3   1 <1>   0.1400 
  7 C       -2.5420     1.8210    -1.2370 C.3   1 <1>  -0.2400 
  8 C       -4.1350     1.2090     0.5860 C.3   1 <1>  -0.2400 
  9 C       -1.7710     1.7400     1.1910 C.3   1 <1>  -0.2400 
 10 C        0.0310    -4.1440     0.2750 C.3   1 <1>   0.0000 
 11 C        1.0170    -5.2690    -0.1440 C.3   1 <1>   0.0000 
 12 C       -1.0850    -5.2260     0.2850 C.3   1 <1>   0.0000 
 13 C       -0.2070    -6.0510    -0.6970 C.3   1 <1>  -0.0710 
 14 C       -0.1870    -7.5520    -0.4470 C.2   1 <1>   0.8710 
 15 O        0.8750    -8.1680    -0.5870 O.co2 1 <1>  -0.9000 
 16 O       -1.2400    -8.1190    -0.1310 O.co2 1 <1>  -0.9000 
 17 H       -2.1430    -2.6420    -0.1630 H     1 <1>   0.3700 
 18 H        0.7660    -2.4580    -0.8350 H     1 <1>   0.0800 
 19 H       -0.3110    -3.4760    -1.7520 H     1 <1>   0.0800 
 20 H       -3.1380     1.3200    -1.9780 H     1 <1>   0.0800 
 21 H       -1.5170     1.8400    -1.5610 H     1 <1>   0.0800 
 22 H       -2.8770     2.8390    -1.1620 H     1 <1>   0.0800 
 23 H       -4.7850     0.7590    -0.1420 H     1 <1>   0.0800 
 24 H       -4.4270     2.2360     0.7130 H     1 <1>   0.0800 
 25 H       -4.2560     0.7030     1.5260 H     1 <1>   0.0800 
 26 H       -0.7470     1.7590     0.8660 H     1 <1>   0.0800 
 27 H       -1.8410     1.1830     2.1080 H     1 <1>   0.0800 
 28 H       -2.0680     2.7540     1.3840 H     1 <1>   0.0800 
 29 H        0.2550    -3.7530     1.2530 H     1 <1>   0.0000 
 30 H        1.4710    -5.7460     0.7080 H     1 <1>   0.0000 
 31 H        1.7270    -4.9800    -0.8990 H     1 <1>   0.0000 
 32 H       -2.0230    -4.9090    -0.1360 H     1 <1>   0.0000 
 33 H       -1.1870    -5.6910     1.2510 H     1 <1>   0.0000 
 34 H       -0.4120    -5.8070    -1.7260 H     1 <1>   0.0000 
@<TRIPOS>BOND
  1   1   2  2   
  2   2   3  1   
  3   2   4  am  
  4   3   5  1   
  5   4   6  1   
  6   4  17  1   
  7   5   7  1   
  8   5   8  1   
  9   5   9  1   
 10   6  10  1   
 11   6  18  1   
 12   6  19  1   
 13   7  20  1   
 14   7  21  1   
 15   7  22  1   
 16   8  23  1   
 17   8  24  1   
 18   8  25  1   
 19   9  26  1   
 20   9  27  1   
 21   9  28  1   
 22  10  11  1   
 23  10  12  1   
 24  10  29  1   
 25  11  13  1   
 26  11  30  1   
 27  11  31  1   
 28  12  13  1   
 29  12  32  1   
 30  12  33  1   
 31  13  14  1   
 32  13  34  1   
 33  14  15  ar  
 34  14  16  ar  
@<TRIPOS>SUBSTRUCTURE
  1 ****   4 GROUP 4 **** **** 0

# MOE 2024.06 (io_trps.svl 2023.06)
