@<TRIPOS>MOLECULE
NONAME
46 48 1 0 0 
SMALL
USER_CHARGES


@<TRIPOS>ATOM
  1 CL      -0.0170     0.2930     0.1500 Cl    1 <1>  -0.1770 
  2 C       -1.7100     0.6690    -0.0290 C.ar  1 <1>   0.1770 
  3 C       -2.1060     1.5900    -0.9800 C.ar  1 <1>  -0.1500 
  4 C       -2.6370     0.0440     0.7830 C.ar  1 <1>  -0.1500 
  5 C       -3.4510     1.8850    -1.1170 C.ar  1 <1>  -0.1500 
  6 C       -3.9780     0.3480     0.6370 C.ar  1 <1>  -0.1500 
  7 C       -4.4170     1.2700    -0.3160 C.ar  1 <1>   0.0530 
  8 C       -5.8100     1.6060    -0.4710 C.2   1 <1>   0.0870 
  9 O       -6.1440     2.8620    -0.6320 O.3   1 <1>  -0.0190 
 10 C       -6.9650     0.8810    -0.4950 C.2   1 <1>  -0.0860 
 11 N       -7.4320     3.0400    -0.7480 N.2   1 <1>  -0.4100 
 12 C       -7.9430     1.8700    -0.6590 C.2   1 <1>   0.3720 
 13 C       -7.1930    -0.5330    -0.4260 C.2   1 <1>   0.7160 
 14 N       -9.3140     1.6900    -0.7320 N.pl3 1 <1>  -0.8520 
 15 O       -6.2700    -1.3210    -0.3650 O.2   1 <1>  -0.5700 
 16 N       -8.4570    -1.0380    -0.4250 N.am  1 <1>  -0.7300 
 17 C      -10.0050     1.7560     0.5850 C.3   1 <1>   0.2090 
 18 C       -8.8040    -2.4840    -0.5040 C.3   1 <1>   0.2200 
 19 C      -11.5080     1.4770     0.4460 C.3   1 <1>   0.1200 
 20 C      -10.3110    -2.6690    -0.6140 C.3   1 <1>   0.2000 
 21 C       -8.4890    -3.1950     0.8230 C.3   1 <1>   0.1200 
 22 O      -11.7130     0.2130    -0.1110 O.3   1 <1>  -0.5600 
 23 O      -10.5900    -3.9210    -1.1540 O.3   1 <1>  -0.6800 
 24 C      -10.7210    -2.6830     0.8530 C.3   1 <1>   0.1200 
 25 O       -9.7020    -3.3750     1.5090 O.3   1 <1>  -0.5600 
 26 C      -13.0490    -0.0730    -0.3790 C.3   1 <1>   0.0400 
 27 H       -1.3680     2.0660    -1.6010 H     1 <1>   0.1500 
 28 H       -2.3080    -0.6700     1.5160 H     1 <1>   0.1500 
 29 H       -3.7620     2.6020    -1.8570 H     1 <1>   0.1500 
 30 H       -4.6990    -0.1380     1.2720 H     1 <1>   0.1500 
 31 H       -9.6930     2.4320    -1.3310 H     1 <1>   0.4000 
 32 H       -9.2190    -0.3610    -0.5910 H     1 <1>   0.3700 
 33 H       -9.5750     1.0370     1.2610 H     1 <1>   0.0800 
 34 H       -9.8640     2.7360     1.0090 H     1 <1>   0.0800 
 35 H       -8.2820    -2.9290    -1.3340 H     1 <1>   0.0800 
 36 H      -11.9600     2.2180    -0.1910 H     1 <1>   0.0800 
 37 H      -11.9780     1.5030     1.4140 H     1 <1>   0.0800 
 38 H      -10.7980    -1.9180    -1.2110 H     1 <1>   0.0800 
 39 H       -7.8170    -2.6250     1.4400 H     1 <1>   0.0800 
 40 H       -8.0720    -4.1690     0.6400 H     1 <1>   0.0800 
 41 H      -10.3590    -4.6010    -0.4880 H     1 <1>   0.4000 
 42 H      -11.6660    -3.1690     1.0200 H     1 <1>   0.0800 
 43 H      -10.7460    -1.6840     1.2520 H     1 <1>   0.0800 
 44 H      -13.1060    -1.0640    -0.7970 H     1 <1>   0.0800 
 45 H      -13.4300     0.6390    -1.0920 H     1 <1>   0.0800 
 46 H      -13.6150    -0.0340     0.5360 H     1 <1>   0.0800 
@<TRIPOS>BOND
  1   1   2  1   
  2   2   3  ar  
  3   2   4  ar  
  4   3   5  ar  
  5   3  27  1   
  6   4   6  ar  
  7   4  28  1   
  8   5   7  ar  
  9   5  29  1   
 10   6   7  ar  
 11   6  30  1   
 12   7   8  1   
 13   8   9  1   
 14   8  10  2   
 15   9  11  1   
 16  10  12  1   
 17  10  13  1   
 18  11  12  2   
 19  12  14  1   
 20  13  15  2   
 21  13  16  am  
 22  14  17  1   
 23  14  31  1   
 24  16  18  1   
 25  16  32  1   
 26  17  19  1   
 27  17  33  1   
 28  17  34  1   
 29  18  20  1   
 30  18  21  1   
 31  18  35  1   
 32  19  22  1   
 33  19  36  1   
 34  19  37  1   
 35  20  23  1   
 36  20  24  1   
 37  20  38  1   
 38  21  25  1   
 39  21  39  1   
 40  21  40  1   
 41  22  26  1   
 42  23  41  1   
 43  24  25  1   
 44  24  42  1   
 45  24  43  1   
 46  26  44  1   
 47  26  45  1   
 48  26  46  1   
@<TRIPOS>SUBSTRUCTURE
  1 ****  13 GROUP 4 **** **** 0

# MOE 2024.06 (io_trps.svl 2023.06)
