@<TRIPOS>MOLECULE
NONAME
59 62 1 0 0 
SMALL
USER_CHARGES


@<TRIPOS>ATOM
  1 O       -1.2590    -3.9320    -0.6860 O.2   1 <1>  -0.5700 
  2 C       -0.0530    -3.9280    -0.7420 C.2   1 <1>   0.5690 
  3 N        0.6780    -4.9450    -1.2910 N.am  1 <1>  -0.6600 
  4 C        0.7060    -2.7470    -0.1700 C.3   1 <1>  -0.0990 
  5 C        2.1610    -4.8760    -1.3110 C.3   1 <1>   0.1400 
  6 C        0.0540    -6.1710    -1.8550 C.3   1 <1>   0.0600 
  7 C        1.8220    -2.3000    -1.1320 C.3   1 <1>  -0.0800 
  8 C        2.6200    -3.4730    -1.7480 C.3   1 <1>  -0.0800 
  9 C        2.8470    -1.3650    -0.4760 C.3   1 <1>  -0.1600 
 10 C        4.0950    -3.2030    -1.4240 C.3   1 <1>  -0.1600 
 11 C        4.1640    -1.7010    -1.1750 C.3   1 <1>   0.2200 
 12 N        5.4000    -1.3110    -0.4280 N.am  1 <1>  -0.6600 
 13 C        6.4700    -0.8080    -1.1340 C.2   1 <1>   0.5690 
 14 C        5.4410    -1.6180     1.0370 C.3   1 <1>   0.0600 
 15 O        6.4520    -0.7230    -2.3400 O.2   1 <1>  -0.5700 
 16 C        7.7400    -0.3270    -0.4580 C.3   1 <1>  -0.0990 
 17 C        8.8820    -1.3370    -0.6480 C.3   1 <1>   0.2070 
 18 C        8.5740    -2.6550     0.0690 C.ar  1 <1>  -0.1440 
 19 C       10.2600    -0.7910    -0.2460 C.ar  1 <1>  -0.1440 
 20 C        8.9630    -2.8750     1.3850 C.ar  1 <1>  -0.1500 
 21 C        7.8780    -3.6540    -0.5980 C.ar  1 <1>  -0.1500 
 22 C       10.4370     0.2530     0.6560 C.ar  1 <1>  -0.1500 
 23 C       11.3850    -1.3790    -0.8080 C.ar  1 <1>  -0.1500 
 24 C        8.6580    -4.0660     2.0200 C.ar  1 <1>  -0.1500 
 25 C        7.5720    -4.8450     0.0350 C.ar  1 <1>  -0.1500 
 26 C       11.7080     0.6990     0.9790 C.ar  1 <1>  -0.1500 
 27 C       12.6550    -0.9360    -0.4870 C.ar  1 <1>  -0.1500 
 28 C        7.9610    -5.0520     1.3460 C.ar  1 <1>  -0.1500 
 29 C       12.8180     0.1060     0.4070 C.ar  1 <1>  -0.1500 
 30 H        0.0250    -1.9350     0.0100 H     1 <1>   0.0800 
 31 H        1.1180    -3.0560     0.7720 H     1 <1>   0.0800 
 32 H        2.5220    -5.0940    -0.3200 H     1 <1>   0.0800 
 33 H        2.5600    -5.6140    -1.9860 H     1 <1>   0.0800 
 34 H        0.4080    -7.0370    -1.3250 H     1 <1>   0.0800 
 35 H        0.3050    -6.2600    -2.8970 H     1 <1>   0.0800 
 36 H       -1.0180    -6.1250    -1.7620 H     1 <1>   0.0800 
 37 H        1.3560    -1.7710    -1.9480 H     1 <1>   0.0800 
 38 H        2.5030    -3.4150    -2.8180 H     1 <1>   0.0800 
 39 H        2.8990    -1.5780     0.5740 H     1 <1>   0.0800 
 40 H        2.5860    -0.3320    -0.6180 H     1 <1>   0.0800 
 41 H        4.7390    -3.4870    -2.2380 H     1 <1>   0.0800 
 42 H        4.3850    -3.7360    -0.5370 H     1 <1>   0.0800 
 43 H        4.1480    -1.2070    -2.1340 H     1 <1>   0.0800 
 44 H        4.8820    -2.5110     1.2520 H     1 <1>   0.0800 
 45 H        5.0160    -0.7980     1.5890 H     1 <1>   0.0800 
 46 H        6.4450    -1.7840     1.3760 H     1 <1>   0.0800 
 47 H        8.0210     0.5990    -0.9250 H     1 <1>   0.0800 
 48 H        7.5740    -0.1260     0.5810 H     1 <1>   0.0800 
 49 H        8.9390    -1.5450    -1.7040 H     1 <1>   0.0800 
 50 H        9.5110    -2.1220     1.9250 H     1 <1>   0.1500 
 51 H        7.5650    -3.5040    -1.6180 H     1 <1>   0.1500 
 52 H        9.5990     0.7340     1.1240 H     1 <1>   0.1500 
 53 H       11.2740    -2.1960    -1.5010 H     1 <1>   0.1500 
 54 H        8.9680    -4.2260     3.0380 H     1 <1>   0.1500 
 55 H        7.0320    -5.6110    -0.4950 H     1 <1>   0.1500 
 56 H       11.8320     1.5090     1.6760 H     1 <1>   0.1500 
 57 H       13.5160    -1.4030    -0.9320 H     1 <1>   0.1500 
 58 H        7.7270    -5.9790     1.8390 H     1 <1>   0.1500 
 59 H       13.8050     0.4530     0.6580 H     1 <1>   0.1500 
@<TRIPOS>BOND
  1   1   2  2   
  2   2   3  am  
  3   2   4  1   
  4   3   5  1   
  5   3   6  1   
  6   4   7  1   
  7   4  30  1   
  8   4  31  1   
  9   5   8  1   
 10   5  32  1   
 11   5  33  1   
 12   6  34  1   
 13   6  35  1   
 14   6  36  1   
 15   7   8  1   
 16   7   9  1   
 17   7  37  1   
 18   8  10  1   
 19   8  38  1   
 20   9  11  1   
 21   9  39  1   
 22   9  40  1   
 23  10  11  1   
 24  10  41  1   
 25  10  42  1   
 26  11  12  1   
 27  11  43  1   
 28  12  13  am  
 29  12  14  1   
 30  13  15  2   
 31  13  16  1   
 32  14  44  1   
 33  14  45  1   
 34  14  46  1   
 35  16  17  1   
 36  16  47  1   
 37  16  48  1   
 38  17  18  1   
 39  17  19  1   
 40  17  49  1   
 41  18  20  ar  
 42  18  21  ar  
 43  19  22  ar  
 44  19  23  ar  
 45  20  24  ar  
 46  20  50  1   
 47  21  25  ar  
 48  21  51  1   
 49  22  26  ar  
 50  22  52  1   
 51  23  27  ar  
 52  23  53  1   
 53  24  28  ar  
 54  24  54  1   
 55  25  28  ar  
 56  25  55  1   
 57  26  29  ar  
 58  26  56  1   
 59  27  29  ar  
 60  27  57  1   
 61  28  58  1   
 62  29  59  1   
@<TRIPOS>SUBSTRUCTURE
  1 ****  12 GROUP 4 **** **** 0

# MOE 2024.06 (io_trps.svl 2023.06)
