@<TRIPOS>MOLECULE
NONAME
51 53 1 0 0 
SMALL
USER_CHARGES


@<TRIPOS>ATOM
  1 O        1.7360    -1.0270     1.3790 O.co2 1 <1>  -0.9000 
  2 C        2.3890    -0.6550     0.3960 C.2   1 <1>   0.9060 
  3 O        2.9710    -1.4620    -0.3470 O.co2 1 <1>  -0.9000 
  4 C        2.5370     0.8550     0.0970 C.3   1 <1>  -0.1060 
  5 C        3.8560     0.8230     1.0130 C.3   1 <1>   0.2000 
  6 C        2.7040     2.4230    -0.2840 C.3   1 <1>  -0.1600 
  7 C        1.1800     0.7870    -0.7700 C.3   1 <1>  -0.0160 
  8 O        4.9010     0.3160     0.2310 O.3   1 <1>  -0.6800 
  9 C        4.3460     2.0780     1.7750 C.3   1 <1>   0.1400 
 10 C        4.0900     3.0710    -0.4550 C.3   1 <1>   0.1400 
 11 C        0.0460     1.7030    -0.2910 C.ar  1 <1>  -0.1440 
 12 N        4.7650     3.1610     0.8540 N.am  1 <1>  -0.6600 
 13 C       -0.4050     1.6060     1.0160 C.ar  1 <1>  -0.1500 
 14 C       -0.5450     2.6220    -1.1450 C.ar  1 <1>  -0.1500 
 15 C        5.7710     4.0260     1.2020 C.2   1 <1>   0.5690 
 16 C       -1.4240     2.4260     1.4690 C.ar  1 <1>  -0.1500 
 17 C       -1.5650     3.4430    -0.6950 C.ar  1 <1>  -0.1500 
 18 O        6.0980     4.1680     2.3590 O.2   1 <1>  -0.5700 
 19 C        6.5000     4.8610     0.1540 C.3   1 <1>   0.0820 
 20 C       -2.0040     3.3470     0.6140 C.ar  1 <1>  -0.1500 
 21 C        7.9800     4.5110     0.0040 C.2   1 <1>  -0.1810 
 22 C        8.5230     3.2400    -0.1980 C.2   1 <1>   0.1080 
 23 C        9.0490     5.3400     0.0250 C.2   1 <1>  -0.3320 
 24 N        9.8140     3.2700    -0.3030 N.2   1 <1>  -0.7070 
 25 C        7.7570     1.9380    -0.2870 C.3   1 <1>  -0.0590 
 26 N       10.1370     4.5640    -0.1580 N.pl3 1 <1>   0.3000 
 27 C        9.1450     6.8450     0.2130 C.3   1 <1>  -0.0600 
 28 H        3.7630     0.1300     1.8380 H     1 <1>   0.0800 
 29 H        2.1760     3.0040     0.4540 H     1 <1>   0.0800 
 30 H        2.2620     2.7060    -1.2240 H     1 <1>   0.0800 
 31 H        1.4020     0.9580    -1.8100 H     1 <1>   0.0800 
 32 H        0.6820    -0.1730    -0.8300 H     1 <1>   0.0800 
 33 H        4.5460    -0.5270    -0.1680 H     1 <1>   0.4000 
 34 H        5.1710     1.8000     2.4080 H     1 <1>   0.0800 
 35 H        3.5550     2.4400     2.4070 H     1 <1>   0.0800 
 36 H        3.9620     4.0600    -0.8580 H     1 <1>   0.0800 
 37 H        4.6850     2.4900    -1.1390 H     1 <1>   0.0800 
 38 H        0.0400     0.8820     1.6810 H     1 <1>   0.1500 
 39 H       -0.2120     2.6990    -2.1650 H     1 <1>   0.1500 
 40 H       -1.7620     2.3400     2.4860 H     1 <1>   0.1500 
 41 H       -2.0170     4.1540    -1.3620 H     1 <1>   0.1500 
 42 H        6.0440     4.7570    -0.8090 H     1 <1>   0.0800 
 43 H        6.4010     5.8870     0.4450 H     1 <1>   0.0800 
 44 H       -2.7960     3.9830     0.9670 H     1 <1>   0.1500 
 45 H        6.9500     2.0250    -0.9870 H     1 <1>   0.0800 
 46 H        7.3620     1.6790     0.6780 H     1 <1>   0.0800 
 47 H        8.4090     1.1480    -0.6120 H     1 <1>   0.0800 
 48 H       11.1110     4.8860    -0.1850 H     1 <1>   0.2700 
 49 H        8.1710     7.2840     0.3250 H     1 <1>   0.0800 
 50 H        9.6240     7.2940    -0.6380 H     1 <1>   0.0800 
 51 H        9.7180     7.0680     1.0950 H     1 <1>   0.0800 
@<TRIPOS>BOND
  1   1   2  ar  
  2   2   3  ar  
  3   2   4  1   
  4   4   5  1   
  5   4   6  1   
  6   4   7  1   
  7   5   8  1   
  8   5   9  1   
  9   5  28  1   
 10   6  10  1   
 11   6  29  1   
 12   6  30  1   
 13   7  11  1   
 14   7  31  1   
 15   7  32  1   
 16   8  33  1   
 17   9  12  1   
 18   9  34  1   
 19   9  35  1   
 20  10  12  1   
 21  10  36  1   
 22  10  37  1   
 23  11  13  ar  
 24  11  14  ar  
 25  12  15  am  
 26  13  16  ar  
 27  13  38  1   
 28  14  17  ar  
 29  14  39  1   
 30  15  18  2   
 31  15  19  1   
 32  16  20  ar  
 33  16  40  1   
 34  17  20  ar  
 35  17  41  1   
 36  19  21  1   
 37  19  42  1   
 38  19  43  1   
 39  20  44  1   
 40  21  22  1   
 41  21  23  2   
 42  22  24  2   
 43  22  25  1   
 44  23  26  1   
 45  23  27  1   
 46  24  26  1   
 47  25  45  1   
 48  25  46  1   
 49  25  47  1   
 50  26  48  1   
 51  27  49  1   
 52  27  50  1   
 53  27  51  1   
@<TRIPOS>SUBSTRUCTURE
  1 ****  10 GROUP 4 **** **** 0

# MOE 2024.06 (io_trps.svl 2023.06)
