@<TRIPOS>MOLECULE
NONAME
50 53 1 0 0 
SMALL
USER_CHARGES


@<TRIPOS>ATOM
  1 O       -2.8270     0.8780    -2.4840 O.2   1 <1>  -0.5700 
  2 C       -2.3290     0.9750    -1.3800 C.2   1 <1>   0.5440 
  3 N       -2.0430    -0.1710    -0.6970 N.am  1 <1>  -0.7300 
  4 C       -2.1130     2.2720    -0.7780 C.ar  1 <1>   0.0860 
  5 C       -2.2140    -1.5500    -1.2130 C.3   1 <1>   0.2200 
  6 C       -0.9050     2.6390    -0.1290 C.ar  1 <1>   0.0000 
  7 C       -3.1100     3.2130    -0.7960 C.ar  1 <1>  -0.1500 
  8 C       -3.4000    -2.2410    -0.5550 C.3   1 <1>  -0.0800 
  9 C       -1.0690    -2.4100    -0.6970 C.3   1 <1>   0.1200 
 10 C       -0.8620     3.8900     0.5250 C.ar  1 <1>   0.3100 
 11 C        0.2640     1.8440    -0.1070 C.ar  1 <1>  -0.1500 
 12 C       -2.9570     4.4400    -0.1480 C.ar  1 <1>   0.1660 
 13 C       -2.8050    -2.7780     0.7520 C.3   1 <1>   0.1200 
 14 C       -4.6630    -1.3800    -0.3710 C.3   1 <1>  -0.0170 
 15 O       -1.4140    -2.7160     0.6200 O.3   1 <1>  -0.5600 
 16 N       -1.8900     4.7720     0.5050 N.ar  1 <1>  -0.6200 
 17 C        0.3010     4.2550     1.2210 C.ar  1 <1>  -0.1500 
 18 C        1.3860     2.2330     0.5730 C.ar  1 <1>  -0.1500 
 19 C       -4.0820     5.4530    -0.1830 C.3   1 <1>  -0.0970 
 20 C       -5.8040    -2.2060     0.2020 C.ar  1 <1>  -0.1430 
 21 C        1.4100     3.4510     1.2570 C.ar  1 <1>  -0.1430 
 22 C       -6.5850    -3.0160    -0.5980 C.ar  1 <1>  -0.1500 
 23 C       -6.1170    -2.1940     1.5460 C.ar  1 <1>  -0.1500 
 24 C        2.6630     3.8540     2.0120 C.3   1 <1>  -0.0970 
 25 C       -7.6080    -3.7570    -0.0300 C.ar  1 <1>   0.1600 
 26 C       -7.1630    -2.9740     2.0130 C.ar  1 <1>   0.1600 
 27 N       -7.9140    -3.7570     1.2570 N.ar  1 <1>  -0.6200 
 28 H       -1.6930    -0.1260     0.2640 H     1 <1>   0.3700 
 29 H       -2.2740    -1.5520    -2.2890 H     1 <1>   0.0800 
 30 H       -4.0310     3.0010    -1.3090 H     1 <1>   0.1500 
 31 H       -3.6600    -3.0900    -1.1610 H     1 <1>   0.0800 
 32 H       -0.1210    -1.9030    -0.7180 H     1 <1>   0.0800 
 33 H       -1.0070    -3.3330    -1.2460 H     1 <1>   0.0800 
 34 H        0.2840     0.9120    -0.6430 H     1 <1>   0.1500 
 35 H       -3.0950    -3.7990     0.9320 H     1 <1>   0.0800 
 36 H       -3.0780    -2.1690     1.5960 H     1 <1>   0.0800 
 37 H       -4.9590    -0.9740    -1.3240 H     1 <1>   0.0800 
 38 H       -4.4620    -0.5490     0.2830 H     1 <1>   0.0800 
 39 H        0.2880     5.2040     1.7250 H     1 <1>   0.1500 
 40 H        2.2630     1.6080     0.5840 H     1 <1>   0.1500 
 41 H       -4.8960     5.1130    -0.7970 H     1 <1>   0.0800 
 42 H       -3.7150     6.3820    -0.5790 H     1 <1>   0.0800 
 43 H       -4.4430     5.6220     0.8140 H     1 <1>   0.0800 
 44 H       -6.4070    -3.0770    -1.6560 H     1 <1>   0.1500 
 45 H       -5.5610    -1.5860     2.2360 H     1 <1>   0.1500 
 46 H        2.8870     3.1230     2.7680 H     1 <1>   0.0800 
 47 H        2.5330     4.8100     2.4880 H     1 <1>   0.0800 
 48 H        3.4950     3.9200     1.3340 H     1 <1>   0.0800 
 49 H       -8.2070    -4.3830    -0.6700 H     1 <1>   0.1500 
 50 H       -7.3930    -2.9520     3.0640 H     1 <1>   0.1500 
@<TRIPOS>BOND
  1   1   2  2   
  2   2   3  am  
  3   2   4  1   
  4   3   5  1   
  5   3  28  1   
  6   4   6  ar  
  7   4   7  ar  
  8   5   8  1   
  9   5   9  1   
 10   5  29  1   
 11   6  10  ar  
 12   6  11  ar  
 13   7  12  ar  
 14   7  30  1   
 15   8  13  1   
 16   8  14  1   
 17   8  31  1   
 18   9  15  1   
 19   9  32  1   
 20   9  33  1   
 21  10  16  ar  
 22  10  17  ar  
 23  11  18  ar  
 24  11  34  1   
 25  12  16  ar  
 26  12  19  1   
 27  13  15  1   
 28  13  35  1   
 29  13  36  1   
 30  14  20  1   
 31  14  37  1   
 32  14  38  1   
 33  17  21  ar  
 34  17  39  1   
 35  18  21  ar  
 36  18  40  1   
 37  19  41  1   
 38  19  42  1   
 39  19  43  1   
 40  20  22  ar  
 41  20  23  ar  
 42  21  24  1   
 43  22  25  ar  
 44  22  44  1   
 45  23  26  ar  
 46  23  45  1   
 47  24  46  1   
 48  24  47  1   
 49  24  48  1   
 50  25  27  ar  
 51  25  49  1   
 52  26  27  ar  
 53  26  50  1   
@<TRIPOS>SUBSTRUCTURE
  1 ****   3 GROUP 4 **** **** 0

# MOE 2024.06 (io_trps.svl 2023.06)
