@<TRIPOS>MOLECULE
NONAME
51 53 1 0 0 
SMALL
USER_CHARGES


@<TRIPOS>ATOM
  1 F       -2.2010    -2.1750    -2.7600 F     1 <1>  -0.1900 
  2 C       -2.0700    -2.4410    -1.4900 C.ar  1 <1>   0.1900 
  3 C       -1.5740    -3.6770    -1.1230 C.ar  1 <1>  -0.1500 
  4 C       -2.4350    -1.4850    -0.5630 C.ar  1 <1>  -0.1500 
  5 C       -1.4490    -3.9770     0.2270 C.ar  1 <1>  -0.1440 
  6 C       -2.2940    -1.7820     0.7810 C.ar  1 <1>  -0.1500 
  7 C       -1.8030    -3.0190     1.1730 C.ar  1 <1>  -0.1500 
  8 C       -0.9410    -5.3360     0.6660 C.3   1 <1>   0.4870 
  9 N       -1.9970    -6.3530     0.3520 N.4   1 <1>  -0.9590 
 10 C       -3.2410    -6.0790     1.1740 C.3   1 <1>   0.3430 
 11 C       -1.4550    -7.7230     0.5670 C.3   1 <1>   0.3430 
 12 C       -4.5300    -6.8510     0.7650 C.3   1 <1>   0.3430 
 13 C       -2.0780    -8.7460    -0.3880 C.3   1 <1>  -0.1600 
 14 N       -4.3780    -8.3370     0.5270 N.4   1 <1>  -0.9590 
 15 C       -3.5720    -8.6260    -0.6970 C.3   1 <1>   0.3430 
 16 C       -5.7380    -8.9520     0.3950 C.3   1 <1>   0.3430 
 17 C       -5.6560   -10.4580     0.6500 C.3   1 <1>  -0.1600 
 18 C       -7.0240   -11.1530     0.5000 C.3   1 <1>  -0.0800 
 19 C       -6.8720   -12.6500     0.7520 C.3   1 <1>   0.1200 
 20 C       -7.5340   -11.1510    -0.9420 C.3   1 <1>  -0.1600 
 21 O       -6.4230   -13.1400    -0.4630 O.3   1 <1>  -0.5600 
 22 C       -7.1190   -12.5180    -1.4920 C.3   1 <1>   0.1200 
 23 H       -1.2920    -4.3650    -1.9010 H     1 <1>   0.1500 
 24 H       -2.8140    -0.5310    -0.8900 H     1 <1>   0.1500 
 25 H       -2.5620    -1.0430     1.5200 H     1 <1>   0.1500 
 26 H       -1.6950    -3.2120     2.2280 H     1 <1>   0.1500 
 27 H       -0.7210    -5.3270     1.7220 H     1 <1>   0.0800 
 28 H       -0.0310    -5.5600     0.1320 H     1 <1>   0.0800 
 29 H       -2.1960    -6.2000    -0.6460 H     1 <1>   0.4500 
 30 H       -3.4750    -5.0270     1.1220 H     1 <1>   0.0800 
 31 H       -3.0320    -6.2950     2.2100 H     1 <1>   0.0800 
 32 H       -1.6310    -8.0240     1.5880 H     1 <1>   0.0800 
 33 H       -0.3870    -7.7270     0.4110 H     1 <1>   0.0800 
 34 H       -4.9270    -6.3930    -0.1270 H     1 <1>   0.0800 
 35 H       -5.2620    -6.6940     1.5410 H     1 <1>   0.0800 
 36 H       -1.8910    -9.7280     0.0090 H     1 <1>   0.0800 
 37 H       -1.5460    -8.7050    -1.3220 H     1 <1>   0.0800 
 38 H       -3.9510    -8.8000     1.3420 H     1 <1>   0.4500 
 39 H       -3.8970    -9.5520    -1.1460 H     1 <1>   0.0800 
 40 H       -3.7340    -7.8480    -1.4260 H     1 <1>   0.0800 
 41 H       -6.1410    -8.7620    -0.5870 H     1 <1>   0.0800 
 42 H       -6.4120    -8.5220     1.1200 H     1 <1>   0.0800 
 43 H       -5.3030   -10.6270     1.6520 H     1 <1>   0.0800 
 44 H       -4.9660   -10.9240    -0.0320 H     1 <1>   0.0800 
 45 H       -7.7430   -10.7310     1.1820 H     1 <1>   0.0800 
 46 H       -7.8200   -13.1130     0.9710 H     1 <1>   0.0800 
 47 H       -6.1580   -12.8920     1.5210 H     1 <1>   0.0800 
 48 H       -7.1390   -10.3610    -1.5520 H     1 <1>   0.0800 
 49 H       -8.6090   -11.0880    -0.9600 H     1 <1>   0.0800 
 50 H       -6.4690   -12.4410    -2.3460 H     1 <1>   0.0800 
 51 H       -7.9760   -13.1240    -1.7350 H     1 <1>   0.0800 
@<TRIPOS>BOND
  1   1   2  1   
  2   2   3  ar  
  3   2   4  ar  
  4   3   5  ar  
  5   3  23  1   
  6   4   6  ar  
  7   4  24  1   
  8   5   7  ar  
  9   5   8  1   
 10   6   7  ar  
 11   6  25  1   
 12   7  26  1   
 13   8   9  1   
 14   8  27  1   
 15   8  28  1   
 16   9  10  1   
 17   9  11  1   
 18   9  29  1   
 19  10  12  1   
 20  10  30  1   
 21  10  31  1   
 22  11  13  1   
 23  11  32  1   
 24  11  33  1   
 25  12  14  1   
 26  12  34  1   
 27  12  35  1   
 28  13  15  1   
 29  13  36  1   
 30  13  37  1   
 31  14  15  1   
 32  14  16  1   
 33  14  38  1   
 34  15  39  1   
 35  15  40  1   
 36  16  17  1   
 37  16  41  1   
 38  16  42  1   
 39  17  18  1   
 40  17  43  1   
 41  17  44  1   
 42  18  19  1   
 43  18  20  1   
 44  18  45  1   
 45  19  21  1   
 46  19  46  1   
 47  19  47  1   
 48  20  22  1   
 49  20  48  1   
 50  20  49  1   
 51  21  22  1   
 52  22  50  1   
 53  22  51  1   
@<TRIPOS>SUBSTRUCTURE
  1 ****  12 GROUP 4 **** **** 0

# MOE 2024.06 (io_trps.svl 2023.06)
