@<TRIPOS>MOLECULE
NONAME
20 21 1 0 0 
SMALL
USER_CHARGES


@<TRIPOS>ATOM
  1 O        6.5620    -0.3710    -1.3430 O.3   1 <1>  -0.6800 
  2 C        5.5420    -0.3190    -0.4080 C.3   1 <1>   0.2000 
  3 C        4.2510     0.2110    -1.0820 C.3   1 <1>   0.4230 
  4 C        5.8580     0.7720     0.6340 C.3   1 <1>  -0.1600 
  5 N        3.1220     0.0940    -0.1090 N.4   1 <1>  -0.9060 
  6 C        4.4830     1.7110    -1.0700 C.3   1 <1>  -0.1600 
  7 C        4.7030     1.7780     0.4320 C.3   1 <1>  -0.0800 
  8 C        3.4050     1.1310     0.9360 C.3   1 <1>   0.3430 
  9 H        7.4080    -0.6480    -0.9340 H     1 <1>   0.4000 
 10 H        5.4160    -1.3010     0.0160 H     1 <1>   0.0800 
 11 H        4.0480    -0.2300    -2.0450 H     1 <1>   0.0800 
 12 H        5.8630     0.3760     1.6350 H     1 <1>   0.0800 
 13 H        6.8050     1.2460     0.4350 H     1 <1>   0.0800 
 14 H        2.2370     0.3020    -0.5870 H     1 <1>   0.4500 
 15 H        3.0660    -0.8520     0.2840 H     1 <1>   0.4500 
 16 H        5.3560     1.9980    -1.6350 H     1 <1>   0.0800 
 17 H        3.6300     2.2710    -1.4140 H     1 <1>   0.0800 
 18 H        4.8940     2.7580     0.8360 H     1 <1>   0.0800 
 19 H        2.6100     1.8590     0.9700 H     1 <1>   0.0800 
 20 H        3.5400     0.6920     1.9120 H     1 <1>   0.0800 
@<TRIPOS>BOND
  1   1   2  1   
  2   1   9  1   
  3   2   3  1   
  4   2   4  1   
  5   2  10  1   
  6   3   5  1   
  7   3   6  1   
  8   3  11  1   
  9   4   7  1   
 10   4  12  1   
 11   4  13  1   
 12   5   8  1   
 13   5  14  1   
 14   5  15  1   
 15   6   7  1   
 16   6  16  1   
 17   6  17  1   
 18   7   8  1   
 19   7  18  1   
 20   8  19  1   
 21   8  20  1   
@<TRIPOS>SUBSTRUCTURE
  1 ****   3 GROUP 4 **** **** 0

# MOE 2024.06 (io_trps.svl 2023.06)
