@<TRIPOS>MOLECULE
NONAME
45 47 1 0 0 
SMALL
USER_CHARGES


@<TRIPOS>ATOM
  1 O       -0.2380     0.9180     0.8140 O.2   1 <1>  -0.5700 
  2 C       -1.0900     1.4030     0.0860 C.2   1 <1>   0.5440 
  3 N       -0.7300     2.3260    -0.8720 N.am  1 <1>  -0.4200 
  4 C       -2.4760     1.0450     0.1930 C.ar  1 <1>   0.0860 
  5 C       -1.6960     2.8610    -1.6890 C.2   1 <1>   0.4500 
  6 C        0.6820     2.7540    -1.0240 C.3   1 <1>   0.1400 
  7 C       -3.3700     1.6590    -0.6930 C.ar  1 <1>   0.1790 
  8 C       -2.9710     0.1270     1.1240 C.ar  1 <1>  -0.1500 
  9 N       -2.9400     2.5740    -1.6340 N.2   1 <1>  -0.6290 
 10 C        0.9680     3.9410    -0.0980 C.3   1 <1>  -0.1600 
 11 C       -4.7230     1.3430    -0.6270 C.ar  1 <1>  -0.1500 
 12 C       -4.3160    -0.1760     1.1780 C.ar  1 <1>  -0.1500 
 13 C        2.4110     4.4450    -0.2600 C.3   1 <1>  -0.0990 
 14 C       -5.1970     0.4350     0.2970 C.ar  1 <1>  -0.1500 
 15 C        2.7230     5.5960     0.6740 C.2   1 <1>   0.5690 
 16 O        3.4750     5.4180     1.5990 O.2   1 <1>  -0.5700 
 17 N        2.1590     6.8020     0.4310 N.am  1 <1>  -0.7300 
 18 C        2.4290     8.0220     1.2110 C.3   1 <1>   0.3210 
 19 C        2.9470     9.0790     0.2610 C.2   1 <1>  -0.1810 
 20 C        2.3600    10.1890    -0.2140 C.2   1 <1>  -0.0400 
 21 C        4.2060     9.0990    -0.3380 C.2   1 <1>   0.1080 
 22 O        3.2090    10.7800    -1.0120 O.3   1 <1>  -0.0190 
 23 C        0.9960    10.8120     0.0020 C.3   1 <1>  -0.0600 
 24 N        4.3320    10.1280    -1.0960 N.2   1 <1>  -0.4100 
 25 C        5.2950     8.0640    -0.1410 C.3   1 <1>  -0.0590 
 26 H       -1.3560     3.5740    -2.4210 H     1 <1>   0.0600 
 27 H        0.8630     3.0310    -2.0490 H     1 <1>   0.0800 
 28 H        1.3370     1.9330    -0.7830 H     1 <1>   0.0800 
 29 H       -2.2830    -0.3450     1.8050 H     1 <1>   0.1500 
 30 H        0.8210     3.6310     0.9240 H     1 <1>   0.0800 
 31 H        0.2810     4.7410    -0.3140 H     1 <1>   0.0800 
 32 H       -5.3960     1.8230    -1.3140 H     1 <1>   0.1500 
 33 H       -4.6850    -0.8850     1.9000 H     1 <1>   0.1500 
 34 H        2.5840     4.7660    -1.2710 H     1 <1>   0.0800 
 35 H        3.0970     3.6430    -0.0460 H     1 <1>   0.0800 
 36 H       -6.2470     0.2000     0.3380 H     1 <1>   0.1500 
 37 H        1.6070     6.9540    -0.4130 H     1 <1>   0.3700 
 38 H        3.1560     7.8300     1.9820 H     1 <1>   0.0800 
 39 H        1.5190     8.3520     1.6800 H     1 <1>   0.0800 
 40 H        0.4050    10.2140     0.6700 H     1 <1>   0.0800 
 41 H        0.4830    10.8950    -0.9390 H     1 <1>   0.0800 
 42 H        1.1110    11.7950     0.4220 H     1 <1>   0.0800 
 43 H        5.4140     7.8420     0.9030 H     1 <1>   0.0800 
 44 H        6.2270     8.4350    -0.5250 H     1 <1>   0.0800 
 45 H        5.0380     7.1620    -0.6640 H     1 <1>   0.0800 
@<TRIPOS>BOND
  1   1   2  2   
  2   2   3  am  
  3   2   4  1   
  4   3   5  1   
  5   3   6  1   
  6   4   7  ar  
  7   4   8  ar  
  8   5   9  2   
  9   5  26  1   
 10   6  10  1   
 11   6  27  1   
 12   6  28  1   
 13   7   9  1   
 14   7  11  ar  
 15   8  12  ar  
 16   8  29  1   
 17  10  13  1   
 18  10  30  1   
 19  10  31  1   
 20  11  14  ar  
 21  11  32  1   
 22  12  14  ar  
 23  12  33  1   
 24  13  15  1   
 25  13  34  1   
 26  13  35  1   
 27  14  36  1   
 28  15  16  2   
 29  15  17  am  
 30  17  18  1   
 31  17  37  1   
 32  18  19  1   
 33  18  38  1   
 34  18  39  1   
 35  19  20  2   
 36  19  21  1   
 37  20  22  1   
 38  20  23  1   
 39  21  24  2   
 40  21  25  1   
 41  22  24  1   
 42  23  40  1   
 43  23  41  1   
 44  23  42  1   
 45  25  43  1   
 46  25  44  1   
 47  25  45  1   
@<TRIPOS>SUBSTRUCTURE
  1 ****  10 GROUP 4 **** **** 0

# MOE 2024.06 (io_trps.svl 2023.06)
