@<TRIPOS>MOLECULE
NONAME
49 52 1 0 0 
SMALL
USER_CHARGES


@<TRIPOS>ATOM
  1 F       -0.3430    -0.5200    -1.8860 F     1 <1>  -0.1900 
  2 C       -0.5940     0.1430    -0.7840 C.ar  1 <1>   0.1900 
  3 C       -1.8180    -0.0630    -0.1420 C.ar  1 <1>   0.1000 
  4 C        0.3640     1.0100    -0.3120 C.ar  1 <1>  -0.1500 
  5 N       -2.7830    -0.9440    -0.6250 N.pl3 1 <1>  -0.6000 
  6 C       -2.0760     0.6530     1.0360 C.ar  1 <1>   0.0860 
  7 C        0.1040     1.7150     0.8560 C.ar  1 <1>  -0.1500 
  8 C       -4.0050    -1.1720    -0.0100 C.2   1 <1>   0.1140 
  9 C       -3.3390     0.4440     1.6960 C.2   1 <1>   0.4690 
 10 C       -1.0960     1.5350     1.5140 C.ar  1 <1>  -0.1500 
 11 C       -4.9290    -2.1240    -0.6180 C.2   1 <1>   0.6160 
 12 C       -4.2630    -0.4650     1.1280 C.2   1 <1>  -0.1360 
 13 O       -3.6260     1.0290     2.7320 O.2   1 <1>  -0.5700 
 14 O       -4.7930    -2.4210    -1.7920 O.2   1 <1>  -0.5700 
 15 N       -5.9400    -2.7190     0.1080 N.am  1 <1>  -0.6600 
 16 C       -7.1880    -3.1670    -0.5830 C.3   1 <1>   0.2200 
 17 C       -5.6090    -3.3890     1.4010 C.3   1 <1>   0.0600 
 18 C       -8.3210    -3.5320     0.3780 C.3   1 <1>  -0.1600 
 19 C       -7.8050    -2.0480    -1.4220 C.3   1 <1>  -0.1600 
 20 C       -9.6050    -3.4190    -0.4520 C.3   1 <1>  -0.0800 
 21 C       -9.2770    -2.4400    -1.5990 C.3   1 <1>  -0.0800 
 22 C      -10.8340    -3.0410     0.3970 C.3   1 <1>   0.1400 
 23 C      -10.2220    -1.2270    -1.6720 C.3   1 <1>  -0.0990 
 24 N      -11.9280    -2.5480    -0.4760 N.am  1 <1>  -0.6600 
 25 C      -11.6610    -1.6620    -1.4840 C.2   1 <1>   0.5690 
 26 C      -13.3030    -3.0230    -0.1670 C.3   1 <1>   0.0600 
 27 O      -12.5110    -1.2120    -2.2150 O.2   1 <1>  -0.5700 
 28 H        1.2930     1.1370    -0.8390 H     1 <1>   0.1500 
 29 H       -2.6110    -1.4320    -1.5190 H     1 <1>   0.4000 
 30 H        0.8400     2.4000     1.2440 H     1 <1>   0.1500 
 31 H       -1.2970     2.0840     2.4200 H     1 <1>   0.1500 
 32 H       -5.1960    -0.5680     1.6470 H     1 <1>   0.1500 
 33 H       -6.9650    -4.0100    -1.2180 H     1 <1>   0.0800 
 34 H       -6.1980    -2.9670     2.1960 H     1 <1>   0.0800 
 35 H       -4.5660    -3.2630     1.6390 H     1 <1>   0.0800 
 36 H       -5.8090    -4.4440     1.3300 H     1 <1>   0.0800 
 37 H       -8.2030    -4.5230     0.7790 H     1 <1>   0.0800 
 38 H       -8.3490    -2.8130     1.1780 H     1 <1>   0.0800 
 39 H       -7.7300    -1.1210    -0.8830 H     1 <1>   0.0800 
 40 H       -7.3150    -1.9490    -2.3750 H     1 <1>   0.0800 
 41 H       -9.8010    -4.3820    -0.8950 H     1 <1>   0.0800 
 42 H       -9.3730    -2.9870    -2.5230 H     1 <1>   0.0800 
 43 H      -10.5800    -2.2570     1.0910 H     1 <1>   0.0800 
 44 H      -11.1640    -3.8980     0.9600 H     1 <1>   0.0800 
 45 H      -10.1150    -0.7330    -2.6210 H     1 <1>   0.0800 
 46 H       -9.9920    -0.5200    -0.8970 H     1 <1>   0.0800 
 47 H      -13.5660    -2.7470     0.8390 H     1 <1>   0.0800 
 48 H      -13.3490    -4.0930    -0.2700 H     1 <1>   0.0800 
 49 H      -14.0150    -2.5820    -0.8430 H     1 <1>   0.0800 
@<TRIPOS>BOND
  1   1   2  1   
  2   2   3  ar  
  3   2   4  ar  
  4   3   5  1   
  5   3   6  ar  
  6   4   7  ar  
  7   4  28  1   
  8   5   8  1   
  9   5  29  1   
 10   6   9  1   
 11   6  10  ar  
 12   7  10  ar  
 13   7  30  1   
 14   8  11  1   
 15   8  12  2   
 16   9  12  1   
 17   9  13  2   
 18  10  31  1   
 19  11  14  2   
 20  11  15  am  
 21  12  32  1   
 22  15  16  1   
 23  15  17  1   
 24  16  18  1   
 25  16  19  1   
 26  16  33  1   
 27  17  34  1   
 28  17  35  1   
 29  17  36  1   
 30  18  20  1   
 31  18  37  1   
 32  18  38  1   
 33  19  21  1   
 34  19  39  1   
 35  19  40  1   
 36  20  21  1   
 37  20  22  1   
 38  20  41  1   
 39  21  23  1   
 40  21  42  1   
 41  22  24  1   
 42  22  43  1   
 43  22  44  1   
 44  23  25  1   
 45  23  45  1   
 46  23  46  1   
 47  24  25  am  
 48  24  26  1   
 49  25  27  2   
 50  26  47  1   
 51  26  48  1   
 52  26  49  1   
@<TRIPOS>SUBSTRUCTURE
  1 ****  11 GROUP 4 **** **** 0

# MOE 2024.06 (io_trps.svl 2023.06)
