@<TRIPOS>MOLECULE
NONAME
42 44 1 0 0 
SMALL
USER_CHARGES


@<TRIPOS>ATOM
  1 O       -0.5010     0.2650    -0.5400 O.2   1 <1>  -0.5700 
  2 C       -1.4650     0.8620    -0.1020 C.2   1 <1>   0.5440 
  3 N       -2.6130     0.1490     0.1650 N.am  1 <1>  -0.6600 
  4 C       -1.3820     2.2830     0.1050 C.ar  1 <1>   0.0860 
  5 C       -3.9880     0.7150     0.1060 C.3   1 <1>   0.1400 
  6 C       -2.6590    -1.3280     0.0150 C.3   1 <1>   0.1400 
  7 C       -1.9350     2.9210     1.2000 C.ar  1 <1>   0.1600 
  8 C       -0.7280     3.1150    -0.7850 C.ar  1 <1>   0.1600 
  9 C       -4.8770    -0.4540    -0.3180 C.3   1 <1>   0.2000 
 10 C       -4.1350    -1.7110     0.1310 C.3   1 <1>  -0.0800 
 11 N       -1.8900     4.2180     1.3810 N.ar  1 <1>  -0.6200 
 12 N       -0.6600     4.4160    -0.6380 N.ar  1 <1>  -0.6200 
 13 O       -6.1230    -0.3920     0.2850 O.3   1 <1>  -0.6800 
 14 C       -4.5160    -2.9550    -0.6860 C.3   1 <1>  -0.0170 
 15 C       -1.2520     4.9090     0.4460 C.ar  1 <1>   0.7200 
 16 C       -3.7550    -4.1800    -0.2050 C.ar  1 <1>  -0.1430 
 17 N       -1.2240     6.2400     0.6540 N.pl3 1 <1>  -0.8690 
 18 C       -2.5910    -4.6080    -0.8120 C.ar  1 <1>  -0.1500 
 19 C       -4.1910    -4.9260     0.8700 C.ar  1 <1>  -0.1500 
 20 C       -0.5460     7.2740    -0.1660 C.3   1 <1>   0.1290 
 21 C       -1.9380    -5.7290    -0.3250 C.ar  1 <1>   0.1600 
 22 C       -3.4630    -6.0320     1.2780 C.ar  1 <1>   0.1600 
 23 N       -2.3450    -6.4500     0.7070 N.ar  1 <1>  -0.6200 
 24 H       -4.2690     1.0680     1.0820 H     1 <1>   0.0800 
 25 H       -4.0450     1.5150    -0.6120 H     1 <1>   0.0800 
 26 H       -2.2690    -1.5940    -0.9530 H     1 <1>   0.0800 
 27 H       -2.0660    -1.8070     0.7770 H     1 <1>   0.0800 
 28 H       -2.4290     2.3300     1.9520 H     1 <1>   0.1500 
 29 H       -0.2520     2.6780    -1.6470 H     1 <1>   0.1500 
 30 H       -5.0140    -0.4390    -1.3860 H     1 <1>   0.0800 
 31 H       -4.3350    -1.8930     1.1720 H     1 <1>   0.0800 
 32 H       -6.0400    -0.4520     1.2560 H     1 <1>   0.4000 
 33 H       -4.3120    -2.7880    -1.7300 H     1 <1>   0.0800 
 34 H       -5.5730    -3.1340    -0.5900 H     1 <1>   0.0800 
 35 H       -1.6730     6.5380     1.5190 H     1 <1>   0.4000 
 36 H       -2.1840    -4.0850    -1.6570 H     1 <1>   0.1500 
 37 H       -5.0910    -4.6610     1.3950 H     1 <1>   0.1500 
 38 H       -0.1220     6.8420    -1.0560 H     1 <1>   0.0800 
 39 H        0.2440     7.7290     0.4060 H     1 <1>   0.0800 
 40 H       -1.2560     8.0300    -0.4540 H     1 <1>   0.0800 
 41 H       -1.0310    -6.0480    -0.8100 H     1 <1>   0.1500 
 42 H       -3.8190    -6.6030     2.1180 H     1 <1>   0.1500 
@<TRIPOS>BOND
  1   1   2  2   
  2   2   3  am  
  3   2   4  1   
  4   3   5  1   
  5   3   6  1   
  6   4   7  ar  
  7   4   8  ar  
  8   5   9  1   
  9   5  24  1   
 10   5  25  1   
 11   6  10  1   
 12   6  26  1   
 13   6  27  1   
 14   7  11  ar  
 15   7  28  1   
 16   8  12  ar  
 17   8  29  1   
 18   9  10  1   
 19   9  13  1   
 20   9  30  1   
 21  10  14  1   
 22  10  31  1   
 23  11  15  ar  
 24  12  15  ar  
 25  13  32  1   
 26  14  16  1   
 27  14  33  1   
 28  14  34  1   
 29  15  17  1   
 30  16  18  ar  
 31  16  19  ar  
 32  17  20  1   
 33  17  35  1   
 34  18  21  ar  
 35  18  36  1   
 36  19  22  ar  
 37  19  37  1   
 38  20  38  1   
 39  20  39  1   
 40  20  40  1   
 41  21  23  ar  
 42  21  41  1   
 43  22  23  ar  
 44  22  42  1   
@<TRIPOS>SUBSTRUCTURE
  1 ****   3 GROUP 4 **** **** 0

# MOE 2024.06 (io_trps.svl 2023.06)
