@<TRIPOS>MOLECULE
NONAME
47 49 1 0 0 
SMALL
USER_CHARGES


@<TRIPOS>ATOM
  1 O        0.3740    -0.4450    -1.4540 O.2   1 <1>  -0.5700 
  2 C       -0.4310     0.4070    -1.1560 C.2   1 <1>   0.5690 
  3 N       -1.6750     0.0740    -0.6910 N.am  1 <1>  -0.6600 
  4 C       -0.0270     1.8630    -1.3340 C.3   1 <1>   0.0440 
  5 C       -2.7200     1.0220    -0.2320 C.3   1 <1>   0.1400 
  6 C       -2.1070    -1.3280    -0.4840 C.3   1 <1>   0.1400 
  7 C        0.1050     2.6100    -0.0050 C.ar  1 <1>  -0.1440 
  8 C       -3.9350     0.1460     0.0700 C.3   1 <1>   0.2000 
  9 C       -3.3670    -1.2380     0.3780 C.3   1 <1>  -0.0800 
 10 C       -0.6920     3.7090     0.3140 C.ar  1 <1>   0.0830 
 11 C        1.0520     2.1670     0.9050 C.ar  1 <1>  -0.1500 
 12 O       -4.6530     0.6240     1.1540 O.3   1 <1>  -0.6800 
 13 C       -4.3710    -2.3720     0.1220 C.3   1 <1>   0.0210 
 14 O       -1.6220     4.1110    -0.5940 O.3   1 <1>  -0.3630 
 15 C       -0.5210     4.3490     1.5410 C.ar  1 <1>  -0.1500 
 16 C        1.2150     2.8050     2.1210 C.ar  1 <1>  -0.1500 
 17 C       -3.7260    -3.7290     0.3270 C.2   1 <1>   0.1080 
 18 C       -2.4410     5.2380    -0.3730 C.3   1 <1>   0.0400 
 19 C        0.4290     3.8970     2.4380 C.ar  1 <1>  -0.1500 
 20 N       -3.3240    -4.1490     1.4860 N.2   1 <1>  -0.7070 
 21 C       -3.4840    -4.6550    -0.6820 C.2   1 <1>  -0.1500 
 22 N       -2.8090    -5.3690     1.2450 N.pl3 1 <1>   0.3000 
 23 C       -2.8930    -5.6980    -0.0610 C.2   1 <1>  -0.3320 
 24 C       -2.3950    -7.0070    -0.6450 C.3   1 <1>  -0.0600 
 25 H        0.9240     1.8920    -1.8340 H     1 <1>   0.0800 
 26 H       -0.7350     2.3310    -1.9890 H     1 <1>   0.0800 
 27 H       -2.3800     1.5170     0.6610 H     1 <1>   0.0800 
 28 H       -2.9460     1.7430    -0.9980 H     1 <1>   0.0800 
 29 H       -2.3210    -1.7710    -1.4410 H     1 <1>   0.0800 
 30 H       -1.3360    -1.9000     0.0070 H     1 <1>   0.0800 
 31 H       -4.5860     0.1240    -0.7860 H     1 <1>   0.0800 
 32 H       -3.0470    -1.2790     1.4050 H     1 <1>   0.0800 
 33 H        1.6690     1.3160     0.6680 H     1 <1>   0.1500 
 34 H       -4.1160     0.5540     1.9680 H     1 <1>   0.4000 
 35 H       -4.7540    -2.3090    -0.8800 H     1 <1>   0.0800 
 36 H       -5.1990    -2.2780     0.8020 H     1 <1>   0.0800 
 37 H       -1.1150     5.1980     1.8170 H     1 <1>   0.1500 
 38 H        1.9540     2.4500     2.8190 H     1 <1>   0.1500 
 39 H       -3.0720     5.3670    -1.2330 H     1 <1>   0.0800 
 40 H       -1.8160     6.1040    -0.2460 H     1 <1>   0.0800 
 41 H       -3.0450     5.0660     0.5010 H     1 <1>   0.0800 
 42 H        0.5580     4.3940     3.3840 H     1 <1>   0.1500 
 43 H       -3.7250    -4.5400    -1.7230 H     1 <1>   0.1500 
 44 H       -2.4080    -5.9490     1.9910 H     1 <1>   0.2700 
 45 H       -2.5750    -7.0310    -1.7050 H     1 <1>   0.0800 
 46 H       -2.9090    -7.8360    -0.1920 H     1 <1>   0.0800 
 47 H       -1.3380    -7.1120    -0.4750 H     1 <1>   0.0800 
@<TRIPOS>BOND
  1   1   2  2   
  2   2   3  am  
  3   2   4  1   
  4   3   5  1   
  5   3   6  1   
  6   4   7  1   
  7   4  25  1   
  8   4  26  1   
  9   5   8  1   
 10   5  27  1   
 11   5  28  1   
 12   6   9  1   
 13   6  29  1   
 14   6  30  1   
 15   7  10  ar  
 16   7  11  ar  
 17   8   9  1   
 18   8  12  1   
 19   8  31  1   
 20   9  13  1   
 21   9  32  1   
 22  10  14  1   
 23  10  15  ar  
 24  11  16  ar  
 25  11  33  1   
 26  12  34  1   
 27  13  17  1   
 28  13  35  1   
 29  13  36  1   
 30  14  18  1   
 31  15  19  ar  
 32  15  37  1   
 33  16  19  ar  
 34  16  38  1   
 35  17  20  2   
 36  17  21  1   
 37  18  39  1   
 38  18  40  1   
 39  18  41  1   
 40  19  42  1   
 41  20  22  1   
 42  21  23  2   
 43  21  43  1   
 44  22  23  1   
 45  22  44  1   
 46  23  24  1   
 47  24  45  1   
 48  24  46  1   
 49  24  47  1   
@<TRIPOS>SUBSTRUCTURE
  1 ****   3 GROUP 4 **** **** 0

# MOE 2024.06 (io_trps.svl 2023.06)
