@<TRIPOS>MOLECULE
NONAME
57 59 1 0 0 
SMALL
USER_CHARGES


@<TRIPOS>ATOM
  1 S        0.5400     0.7470    -0.1210 S.o2  1 <1>   1.4470 
  2 O       -0.0910     1.1700    -1.3500 O.2   1 <1>  -0.6500 
  3 O        0.2900     1.4560     1.1130 O.2   1 <1>  -0.6500 
  4 N        2.2020     0.8610    -0.3300 N.am  1 <1>  -0.9140 
  5 C        0.2700    -1.0330     0.1180 C.ar  1 <1>  -0.0090 
  6 C        2.6580     1.9720    -1.1540 C.3   1 <1>   0.1960 
  7 C       -0.4350    -1.5190     1.2130 C.ar  1 <1>  -0.1500 
  8 C        0.7580    -1.9610    -0.7940 C.ar  1 <1>  -0.1500 
  9 C        2.5070     3.3040    -0.4120 C.3   1 <1>  -0.1600 
 10 C       -0.6460    -2.8750     1.3870 C.ar  1 <1>  -0.1500 
 11 C        0.5470    -3.3180    -0.6220 C.ar  1 <1>  -0.1500 
 12 C        3.1160     4.4580    -1.2170 C.3   1 <1>  -0.2400 
 13 C       -0.1690    -3.8060     0.4670 C.ar  1 <1>   0.0860 
 14 C       -0.4040    -5.2280     0.6310 C.2   1 <1>   0.5440 
 15 O        0.5530    -5.9730     0.7220 O.2   1 <1>  -0.5700 
 16 N       -1.6780    -5.7630     0.6760 N.am  1 <1>  -0.6600 
 17 C       -2.8670    -5.0050     0.1820 C.3   1 <1>   0.2200 
 18 C       -1.8610    -7.1930     1.0790 C.3   1 <1>   0.0600 
 19 C       -3.6970    -5.7520    -0.8590 C.3   1 <1>  -0.1600 
 20 C       -3.8610    -4.6730     1.2900 C.3   1 <1>  -0.1600 
 21 C       -5.0530    -5.0350    -0.8470 C.3   1 <1>  -0.0800 
 22 C       -5.1750    -4.3850     0.5520 C.3   1 <1>  -0.0800 
 23 C       -6.2210    -5.9580    -1.2450 C.3   1 <1>   0.1400 
 24 C       -6.4190    -4.8360     1.3360 C.3   1 <1>  -0.0990 
 25 N       -7.5130    -5.3690    -0.8100 N.am  1 <1>  -0.6600 
 26 C       -7.6400    -4.8250     0.4390 C.2   1 <1>   0.5690 
 27 C       -8.6470    -5.4520    -1.7690 C.3   1 <1>   0.0600 
 28 O       -8.6670    -4.3470     0.8540 O.2   1 <1>  -0.5700 
 29 H        2.5550     1.0150     0.6120 H     1 <1>   0.4200 
 30 H        3.7000     1.8180    -1.3820 H     1 <1>   0.0800 
 31 H        2.1200     1.9950    -2.0880 H     1 <1>   0.0800 
 32 H       -0.8220    -0.8250     1.9420 H     1 <1>   0.1500 
 33 H        1.3130    -1.6130    -1.6500 H     1 <1>   0.1500 
 34 H        1.4640     3.5180    -0.2490 H     1 <1>   0.0800 
 35 H        2.9990     3.2490     0.5430 H     1 <1>   0.0800 
 36 H       -1.1860    -3.2280     2.2490 H     1 <1>   0.1500 
 37 H        0.9420    -4.0190    -1.3380 H     1 <1>   0.1500 
 38 H        2.6250     4.5510    -2.1710 H     1 <1>   0.0800 
 39 H        4.1670     4.2950    -1.3800 H     1 <1>   0.0800 
 40 H        2.9930     5.3830    -0.6810 H     1 <1>   0.0800 
 41 H       -2.5540    -4.0790    -0.2710 H     1 <1>   0.0800 
 42 H       -2.8150    -7.3430     1.5480 H     1 <1>   0.0800 
 43 H       -1.0930    -7.4830     1.7760 H     1 <1>   0.0800 
 44 H       -1.7870    -7.8230     0.2100 H     1 <1>   0.0800 
 45 H       -3.2340    -5.7120    -1.8300 H     1 <1>   0.0800 
 46 H       -3.8360    -6.7770    -0.5700 H     1 <1>   0.0800 
 47 H       -3.9820    -5.5160     1.9440 H     1 <1>   0.0800 
 48 H       -3.5420    -3.8220     1.8640 H     1 <1>   0.0800 
 49 H       -5.0110    -4.2380    -1.5700 H     1 <1>   0.0800 
 50 H       -5.2540    -3.3200     0.4010 H     1 <1>   0.0800 
 51 H       -6.1160    -6.9190    -0.7700 H     1 <1>   0.0800 
 52 H       -6.2190    -6.1060    -2.3110 H     1 <1>   0.0800 
 53 H       -6.5850    -4.1860     2.1760 H     1 <1>   0.0800 
 54 H       -6.2940    -5.8380     1.7030 H     1 <1>   0.0800 
 55 H       -8.4040    -4.9120    -2.6670 H     1 <1>   0.0800 
 56 H       -9.5360    -5.0230    -1.3390 H     1 <1>   0.0800 
 57 H       -8.8450    -6.4810    -2.0110 H     1 <1>   0.0800 
@<TRIPOS>BOND
  1   1   2  2   
  2   1   3  2   
  3   1   4  am  
  4   1   5  1   
  5   4   6  1   
  6   4  29  1   
  7   5   7  ar  
  8   5   8  ar  
  9   6   9  1   
 10   6  30  1   
 11   6  31  1   
 12   7  10  ar  
 13   7  32  1   
 14   8  11  ar  
 15   8  33  1   
 16   9  12  1   
 17   9  34  1   
 18   9  35  1   
 19  10  13  ar  
 20  10  36  1   
 21  11  13  ar  
 22  11  37  1   
 23  12  38  1   
 24  12  39  1   
 25  12  40  1   
 26  13  14  1   
 27  14  15  2   
 28  14  16  am  
 29  16  17  1   
 30  16  18  1   
 31  17  19  1   
 32  17  20  1   
 33  17  41  1   
 34  18  42  1   
 35  18  43  1   
 36  18  44  1   
 37  19  21  1   
 38  19  45  1   
 39  19  46  1   
 40  20  22  1   
 41  20  47  1   
 42  20  48  1   
 43  21  22  1   
 44  21  23  1   
 45  21  49  1   
 46  22  24  1   
 47  22  50  1   
 48  23  25  1   
 49  23  51  1   
 50  23  52  1   
 51  24  26  1   
 52  24  53  1   
 53  24  54  1   
 54  25  26  am  
 55  25  27  1   
 56  26  28  2   
 57  27  55  1   
 58  27  56  1   
 59  27  57  1   
@<TRIPOS>SUBSTRUCTURE
  1 ****  10 GROUP 4 **** **** 0

# MOE 2024.06 (io_trps.svl 2023.06)
