@<TRIPOS>MOLECULE
NONAME
61 65 1 0 0 
SMALL
USER_CHARGES


@<TRIPOS>ATOM
  1 O       -0.3670    -1.1630     2.6330 O.3   1 <1>  -0.5600 
  2 C       -1.1270    -2.2170     3.1490 C.3   1 <1>   0.1200 
  3 C        0.6840    -1.5680     1.8090 C.3   1 <1>   0.1200 
  4 C       -1.7670    -3.0300     2.0100 C.3   1 <1>   0.2090 
  5 C        0.1440    -2.3370     0.5870 C.3   1 <1>   0.2090 
  6 N       -0.7290    -3.4890     1.0100 N.pl3 1 <1>  -0.8380 
  7 C       -0.6520    -4.7860     0.6030 C.ar  1 <1>   0.7710 
  8 N       -1.4260    -5.6970     1.1770 N.ar  1 <1>  -0.6200 
  9 N        0.2050    -5.1150    -0.3810 N.ar  1 <1>  -0.1790 
 10 C       -1.3360    -6.9390     0.7660 C.ar  1 <1>   0.4100 
 11 C        0.3330    -6.3860    -0.8340 C.ar  1 <1>   0.2180 
 12 N       -2.1470    -7.7970     1.4010 N.pl3 1 <1>  -0.8690 
 13 C       -0.4490    -7.3280    -0.2540 C.ar  1 <1>  -0.1500 
 14 C        1.3300    -6.6810    -1.9480 C.3   1 <1>  -0.0170 
 15 C       -2.4210    -9.2330     1.1440 C.3   1 <1>   0.2890 
 16 C        0.9690    -5.9600    -3.2540 C.3   1 <1>  -0.2400 
 17 C       -3.8740    -9.5670     1.4250 C.3   1 <1>  -0.0800 
 18 C       -1.6900   -10.1590     2.1070 C.3   1 <1>   0.1200 
 19 C       -3.7960   -11.0510     1.7900 C.3   1 <1>   0.1200 
 20 C       -4.8000    -9.2610     0.2330 C.3   1 <1>  -0.0160 
 21 O       -2.4920   -11.2940     2.2270 O.3   1 <1>  -0.5600 
 22 C       -6.2870    -9.5840     0.4310 C.ar  1 <1>  -0.1440 
 23 C       -7.1580    -9.6290    -0.6860 C.ar  1 <1>   0.0000 
 24 C       -6.8430    -9.8240     1.6580 C.ar  1 <1>  -0.1500 
 25 C       -8.5170    -9.9580    -0.4560 C.ar  1 <1>   0.3100 
 26 C       -6.7660    -9.3590    -2.0190 C.ar  1 <1>  -0.1500 
 27 C       -8.2030   -10.1310     1.7750 C.ar  1 <1>   0.1600 
 28 N       -9.0220   -10.2080     0.7770 N.ar  1 <1>  -0.6200 
 29 C       -9.3980   -10.0280    -1.5480 C.ar  1 <1>  -0.1500 
 30 C       -7.6510    -9.4310    -3.0610 C.ar  1 <1>  -0.1500 
 31 C       -8.9840    -9.7730    -2.8260 C.ar  1 <1>  -0.1500 
 32 H       -0.4920    -2.8410     3.7530 H     1 <1>   0.0800 
 33 H       -1.8910    -1.7930     3.7760 H     1 <1>   0.0800 
 34 H        1.2070    -0.6830     1.4920 H     1 <1>   0.0800 
 35 H        1.3570    -2.1790     2.3850 H     1 <1>   0.0800 
 36 H       -2.4890    -2.4080     1.5090 H     1 <1>   0.0800 
 37 H       -2.3030    -3.8540     2.4460 H     1 <1>   0.0800 
 38 H        0.9820    -2.6660     0.0020 H     1 <1>   0.0800 
 39 H       -0.4350    -1.6540    -0.0140 H     1 <1>   0.0800 
 40 H        0.7320    -4.3540    -0.7850 H     1 <1>   0.4570 
 41 H       -2.6960    -7.3980     2.1690 H     1 <1>   0.4000 
 42 H       -0.4060    -8.3590    -0.5480 H     1 <1>   0.1500 
 43 H        2.3200    -6.3930    -1.6370 H     1 <1>   0.0800 
 44 H        1.3520    -7.7420    -2.1360 H     1 <1>   0.0800 
 45 H       -2.1640    -9.5030     0.1350 H     1 <1>   0.0800 
 46 H        1.0090    -4.8920    -3.1430 H     1 <1>   0.0800 
 47 H       -0.0190    -6.2400    -3.5790 H     1 <1>   0.0800 
 48 H        1.6640    -6.2400    -4.0280 H     1 <1>   0.0800 
 49 H       -4.1940    -9.0230     2.2950 H     1 <1>   0.0800 
 50 H       -1.6060    -9.7150     3.0840 H     1 <1>   0.0800 
 51 H       -0.7230   -10.4520     1.7400 H     1 <1>   0.0800 
 52 H       -3.9720   -11.6790     0.9320 H     1 <1>   0.0800 
 53 H       -4.4790   -11.3170     2.5770 H     1 <1>   0.0800 
 54 H       -4.4380    -9.8250    -0.6080 H     1 <1>   0.0800 
 55 H       -4.7160    -8.2160    -0.0120 H     1 <1>   0.0800 
 56 H       -6.2800    -9.7890     2.5700 H     1 <1>   0.1500 
 57 H       -5.7510    -9.0840    -2.2300 H     1 <1>   0.1500 
 58 H       -8.5930   -10.3170     2.7610 H     1 <1>   0.1500 
 59 H      -10.4200   -10.2880    -1.3410 H     1 <1>   0.1500 
 60 H       -7.3350    -9.2250    -4.0690 H     1 <1>   0.1500 
 61 H       -9.6710    -9.8290    -3.6530 H     1 <1>   0.1500 
@<TRIPOS>BOND
  1   1   2  1   
  2   1   3  1   
  3   2   4  1   
  4   2  32  1   
  5   2  33  1   
  6   3   5  1   
  7   3  34  1   
  8   3  35  1   
  9   4   6  1   
 10   4  36  1   
 11   4  37  1   
 12   5   6  1   
 13   5  38  1   
 14   5  39  1   
 15   6   7  1   
 16   7   8  ar  
 17   7   9  ar  
 18   8  10  ar  
 19   9  11  ar  
 20   9  40  1   
 21  10  12  1   
 22  10  13  ar  
 23  11  13  ar  
 24  11  14  1   
 25  12  15  1   
 26  12  41  1   
 27  13  42  1   
 28  14  16  1   
 29  14  43  1   
 30  14  44  1   
 31  15  17  1   
 32  15  18  1   
 33  15  45  1   
 34  16  46  1   
 35  16  47  1   
 36  16  48  1   
 37  17  19  1   
 38  17  20  1   
 39  17  49  1   
 40  18  21  1   
 41  18  50  1   
 42  18  51  1   
 43  19  21  1   
 44  19  52  1   
 45  19  53  1   
 46  20  22  1   
 47  20  54  1   
 48  20  55  1   
 49  22  23  ar  
 50  22  24  ar  
 51  23  25  ar  
 52  23  26  ar  
 53  24  27  ar  
 54  24  56  1   
 55  25  28  ar  
 56  25  29  ar  
 57  26  30  ar  
 58  26  57  1   
 59  27  28  ar  
 60  27  58  1   
 61  29  31  ar  
 62  29  59  1   
 63  30  31  ar  
 64  30  60  1   
 65  31  61  1   
@<TRIPOS>SUBSTRUCTURE
  1 ****  12 GROUP 4 **** **** 0

# MOE 2024.06 (io_trps.svl 2023.06)
