@<TRIPOS>MOLECULE
NONAME
49 50 1 0 0 
SMALL
USER_CHARGES


@<TRIPOS>ATOM
  1 S        0.0180    -0.1780    -1.7380 S.o2  1 <1>   1.4470 
  2 O        0.7010    -1.2460    -2.4410 O.2   1 <1>  -0.6500 
  3 O       -0.9440     0.6090    -2.4830 O.2   1 <1>  -0.6500 
  4 N       -0.8070    -0.8830    -0.4340 N.am  1 <1>  -0.8490 
  5 C        1.2960     0.8200    -0.9160 C.ar  1 <1>  -0.0090 
  6 C       -1.5660    -2.0800    -0.8440 C.3   1 <1>   0.1960 
  7 C       -1.6740     0.0810     0.2500 C.3   1 <1>   0.1960 
  8 C        1.1320     2.1690    -0.6120 C.ar  1 <1>   0.0820 
  9 C        2.4890     0.2120    -0.5420 C.ar  1 <1>  -0.1500 
 10 C       -2.1670    -2.7790     0.3790 C.3   1 <1>  -0.1860 
 11 C       -2.2560    -0.5370     1.5200 C.3   1 <1>  -0.1600 
 12 O       -0.0370     2.7710    -0.9400 O.3   1 <1>  -0.3620 
 13 C        2.1520     2.8670     0.0270 C.ar  1 <1>  -0.1500 
 14 C        3.5230     0.8870     0.0960 C.ar  1 <1>  -0.1440 
 15 C       -3.0040    -3.9710    -0.0240 C.2   1 <1>   0.9060 
 16 C       -3.0280    -1.8030     1.1740 C.3   1 <1>   0.2000 
 17 C       -0.1590     4.1740    -1.0320 C.3   1 <1>   0.0400 
 18 C        3.3300     2.2350     0.3720 C.ar  1 <1>  -0.1500 
 19 C        4.8130     0.1230     0.4670 C.3   1 <1>   0.1440 
 20 O       -3.1720    -4.2340    -1.2170 O.co2 1 <1>  -0.9000 
 21 O       -3.5310    -4.6350     0.8790 O.co2 1 <1>  -0.9000 
 22 O       -3.4160    -2.4130     2.3470 O.3   1 <1>  -0.6800 
 23 C        5.8680     1.0110     1.1480 C.3   1 <1>  -0.2400 
 24 C        4.4710    -1.0190     1.4360 C.3   1 <1>  -0.2400 
 25 C        5.4490    -0.4600    -0.8040 C.3   1 <1>  -0.2400 
 26 H       -2.3480    -1.8020    -1.5340 H     1 <1>   0.0800 
 27 H       -0.9170    -2.7770    -1.3490 H     1 <1>   0.0800 
 28 H       -1.1060     0.9520     0.5250 H     1 <1>   0.0800 
 29 H       -2.4700     0.3900    -0.4090 H     1 <1>   0.0800 
 30 H        2.6000    -0.8350    -0.7660 H     1 <1>   0.1500 
 31 H       -1.3620    -3.1370     0.9900 H     1 <1>   0.0800 
 32 H       -2.9140     0.1670     1.9940 H     1 <1>   0.0800 
 33 H       -1.4520    -0.7720     2.1940 H     1 <1>   0.0800 
 34 H        2.0440     3.9060     0.2720 H     1 <1>   0.1500 
 35 H       -3.9190    -1.5650     0.6160 H     1 <1>   0.0800 
 36 H       -1.1170     4.3960    -1.4670 H     1 <1>   0.0800 
 37 H        0.6250     4.5520    -1.6650 H     1 <1>   0.0800 
 38 H       -0.0990     4.5970    -0.0460 H     1 <1>   0.0800 
 39 H        4.0840     2.8200     0.8640 H     1 <1>   0.1500 
 40 H       -3.6210    -3.3620     2.1010 H     1 <1>   0.4000 
 41 H        6.7490     0.4400     1.3820 H     1 <1>   0.0800 
 42 H        5.4840     1.4190     2.0650 H     1 <1>   0.0800 
 43 H        6.1580     1.8180     0.4980 H     1 <1>   0.0800 
 44 H        5.3610    -1.5410     1.7370 H     1 <1>   0.0800 
 45 H        3.8060    -1.7290     0.9800 H     1 <1>   0.0800 
 46 H        3.9910    -0.6250     2.3140 H     1 <1>   0.0800 
 47 H        6.3710    -0.9630    -0.5720 H     1 <1>   0.0800 
 48 H        5.6560     0.3270    -1.5060 H     1 <1>   0.0800 
 49 H        4.7950    -1.1690    -1.2780 H     1 <1>   0.0800 
@<TRIPOS>BOND
  1   1   2  2   
  2   1   3  2   
  3   1   4  am  
  4   1   5  1   
  5   4   6  1   
  6   4   7  1   
  7   5   8  ar  
  8   5   9  ar  
  9   6  10  1   
 10   6  26  1   
 11   6  27  1   
 12   7  11  1   
 13   7  28  1   
 14   7  29  1   
 15   8  12  1   
 16   8  13  ar  
 17   9  14  ar  
 18   9  30  1   
 19  10  15  1   
 20  10  16  1   
 21  10  31  1   
 22  11  16  1   
 23  11  32  1   
 24  11  33  1   
 25  12  17  1   
 26  13  18  ar  
 27  13  34  1   
 28  14  18  ar  
 29  14  19  1   
 30  15  20  ar  
 31  15  21  ar  
 32  16  22  1   
 33  16  35  1   
 34  17  36  1   
 35  17  37  1   
 36  17  38  1   
 37  18  39  1   
 38  19  23  1   
 39  19  24  1   
 40  19  25  1   
 41  22  40  1   
 42  23  41  1   
 43  23  42  1   
 44  23  43  1   
 45  24  44  1   
 46  24  45  1   
 47  24  46  1   
 48  25  47  1   
 49  25  48  1   
 50  25  49  1   
@<TRIPOS>SUBSTRUCTURE
  1 ****   4 GROUP 4 **** **** 0

# MOE 2024.06 (io_trps.svl 2023.06)
