@<TRIPOS>MOLECULE
NONAME
49 52 1 0 0 
SMALL
USER_CHARGES


@<TRIPOS>ATOM
  1 O        0.3380    -0.7010     0.7700 O.3   1 <1>  -0.3630 
  2 C        1.3370    -0.0700     0.0960 C.ar  1 <1>   0.0830 
  3 C       -0.9980    -0.4880     0.3650 C.3   1 <1>   0.0400 
  4 C        1.3930     1.3300     0.0290 C.ar  1 <1>   0.0830 
  5 C        2.3270    -0.8490    -0.5090 C.ar  1 <1>  -0.1440 
  6 O        0.4320     2.0640     0.6640 O.3   1 <1>  -0.3620 
  7 C        2.4340     1.9370    -0.6670 C.ar  1 <1>  -0.1500 
  8 C        3.3560    -0.2120    -1.1900 C.ar  1 <1>  -0.1500 
  9 C        2.3370    -2.3850    -0.4760 C.3   1 <1>   0.0630 
 10 C        0.5610     3.4550     0.8490 C.3   1 <1>   0.0400 
 11 C        3.4090     1.1670    -1.2710 C.ar  1 <1>  -0.1500 
 12 C        1.1260    -3.0390    -1.1380 C.3   1 <1>   0.2090 
 13 C        2.4060    -3.0080     0.9160 C.3   1 <1>  -0.1600 
 14 N        0.9310    -4.3410    -0.4360 N.pl3 1 <1>  -0.8380 
 15 C        1.8290    -4.4080     0.7430 C.3   1 <1>   0.2090 
 16 C       -0.3330    -4.9090    -0.3290 C.ar  1 <1>   0.4100 
 17 N       -1.3690    -4.0980    -0.2270 N.ar  1 <1>  -0.3100 
 18 C       -0.4700    -6.3210    -0.3060 C.ar  1 <1>   0.0000 
 19 N       -2.5920    -4.5820    -0.0490 N.ar  1 <1>  -0.3100 
 20 C       -1.7600    -6.8270    -0.0920 C.ar  1 <1>   0.0000 
 21 C        0.5900    -7.2360    -0.4950 C.ar  1 <1>  -0.1500 
 22 C       -2.7860    -5.8690     0.0250 C.ar  1 <1>   0.1670 
 23 C       -1.9370    -8.2300    -0.0220 C.ar  1 <1>  -0.1500 
 24 C        0.3930    -8.5880    -0.4320 C.ar  1 <1>  -0.1500 
 25 C       -4.2210    -6.3160     0.2450 C.3   1 <1>  -0.0970 
 26 C       -0.8870    -9.0910    -0.1860 C.ar  1 <1>  -0.1500 
 27 H       -1.5750    -1.3480     0.6550 H     1 <1>   0.0800 
 28 H       -1.0300    -0.3680    -0.7030 H     1 <1>   0.0800 
 29 H       -1.3770     0.3890     0.8570 H     1 <1>   0.0800 
 30 H        2.5060     3.0040    -0.7500 H     1 <1>   0.1500 
 31 H        4.1310    -0.7860    -1.6670 H     1 <1>   0.1500 
 32 H        3.1960    -2.7380    -1.0190 H     1 <1>   0.0800 
 33 H       -0.2600     3.7860     1.4590 H     1 <1>   0.0800 
 34 H        0.5220     3.9410    -0.1090 H     1 <1>   0.0800 
 35 H        1.4920     3.6560     1.3490 H     1 <1>   0.0800 
 36 H        4.2130     1.6420    -1.8060 H     1 <1>   0.1500 
 37 H        1.3060    -3.2040    -2.1850 H     1 <1>   0.0800 
 38 H        0.2580    -2.4180    -1.0330 H     1 <1>   0.0800 
 39 H        1.7930    -2.4730     1.6160 H     1 <1>   0.0800 
 40 H        3.4110    -3.0350     1.2960 H     1 <1>   0.0800 
 41 H        1.2900    -4.7160     1.6250 H     1 <1>   0.0800 
 42 H        2.6190    -5.1110     0.5430 H     1 <1>   0.0800 
 43 H        1.5710    -6.8470    -0.6990 H     1 <1>   0.1500 
 44 H       -2.9170    -8.6300     0.1600 H     1 <1>   0.1500 
 45 H        1.2100    -9.2740    -0.5740 H     1 <1>   0.1500 
 46 H       -4.8760    -5.4650     0.3030 H     1 <1>   0.0800 
 47 H       -4.2970    -6.8660     1.1640 H     1 <1>   0.0800 
 48 H       -4.5420    -6.9350    -0.5730 H     1 <1>   0.0800 
 49 H       -1.0300   -10.1570    -0.1340 H     1 <1>   0.1500 
@<TRIPOS>BOND
  1   1   2  1   
  2   1   3  1   
  3   2   4  ar  
  4   2   5  ar  
  5   3  27  1   
  6   3  28  1   
  7   3  29  1   
  8   4   6  1   
  9   4   7  ar  
 10   5   8  ar  
 11   5   9  1   
 12   6  10  1   
 13   7  11  ar  
 14   7  30  1   
 15   8  11  ar  
 16   8  31  1   
 17   9  12  1   
 18   9  13  1   
 19   9  32  1   
 20  10  33  1   
 21  10  34  1   
 22  10  35  1   
 23  11  36  1   
 24  12  14  1   
 25  12  37  1   
 26  12  38  1   
 27  13  15  1   
 28  13  39  1   
 29  13  40  1   
 30  14  15  1   
 31  14  16  1   
 32  15  41  1   
 33  15  42  1   
 34  16  17  ar  
 35  16  18  ar  
 36  17  19  ar  
 37  18  20  ar  
 38  18  21  ar  
 39  19  22  ar  
 40  20  22  ar  
 41  20  23  ar  
 42  21  24  ar  
 43  21  43  1   
 44  22  25  1   
 45  23  26  ar  
 46  23  44  1   
 47  24  26  ar  
 48  24  45  1   
 49  25  46  1   
 50  25  47  1   
 51  25  48  1   
 52  26  49  1   
@<TRIPOS>SUBSTRUCTURE
  1 ****  12 GROUP 4 **** **** 0

# MOE 2024.06 (io_trps.svl 2023.06)
