@<TRIPOS>MOLECULE
NONAME
44 46 1 0 0 
SMALL
USER_CHARGES


@<TRIPOS>ATOM
  1 S       -3.1570     0.1810    -1.2450 S.3   1 <1>  -0.0800 
  2 C       -2.4970     0.2700     0.3820 C.2   1 <1>  -0.1400 
  3 C       -1.5490     0.1440    -1.9460 C.2   1 <1>  -0.1100 
  4 C       -1.1510     0.2710     0.3410 C.2   1 <1>  -0.1500 
  5 C       -3.4660     0.3360     1.5540 C.3   1 <1>   0.0810 
  6 C       -0.6120     0.1970    -0.9830 C.2   1 <1>  -0.1500 
  7 C       -3.9950    -1.0350     1.9560 C.2   1 <1>   0.5690 
  8 O       -3.2940    -1.6970     2.6880 O.2   1 <1>  -0.5700 
  9 N       -5.2130    -1.5170     1.5350 N.am  1 <1>  -0.6600 
 10 C       -5.7220    -2.8330     2.0260 C.3   1 <1>   0.1400 
 11 C       -6.0610    -0.9460     0.4450 C.3   1 <1>   0.1400 
 12 C       -5.6810    -3.8340     0.8520 C.3   1 <1>   0.4230 
 13 C       -6.1320    -1.9460    -0.7230 C.3   1 <1>  -0.1600 
 14 N       -6.0020    -5.2570     1.2090 N.4   1 <1>  -0.9590 
 15 C       -6.6150    -3.3600    -0.2860 C.3   1 <1>  -0.1060 
 16 C       -5.8470    -6.2150     0.0740 C.3   1 <1>   0.3430 
 17 C       -5.4040    -5.7600     2.4740 C.3   1 <1>   0.2630 
 18 C       -8.0490    -3.3160     0.2730 C.2   1 <1>   0.9060 
 19 C       -6.5600    -4.3340    -1.5000 C.3   1 <1>  -0.1600 
 20 C       -5.6020    -5.5150    -1.2710 C.3   1 <1>  -0.1600 
 21 O       -8.4280    -4.2560     0.9890 O.co2 1 <1>  -0.9000 
 22 O       -8.7810    -2.3590     0.0260 O.co2 1 <1>  -0.9000 
 23 H       -1.4760     0.0850    -3.0170 H     1 <1>   0.1500 
 24 H       -0.5000     0.3170     1.1970 H     1 <1>   0.1500 
 25 H       -2.9390     0.7340     2.4010 H     1 <1>   0.0800 
 26 H       -4.2680     1.0150     1.3420 H     1 <1>   0.0800 
 27 H        0.4520     0.1880    -1.1440 H     1 <1>   0.1500 
 28 H       -5.1080    -3.1810     2.8350 H     1 <1>   0.0800 
 29 H       -6.7250    -2.7110     2.3970 H     1 <1>   0.0800 
 30 H       -7.0510    -0.7560     0.8300 H     1 <1>   0.0800 
 31 H       -5.6720    -0.0120     0.0870 H     1 <1>   0.0800 
 32 H       -4.6700    -3.8140     0.4810 H     1 <1>   0.0800 
 33 H       -6.8070    -1.5520    -1.4650 H     1 <1>   0.0800 
 34 H       -5.1600    -2.0140    -1.1770 H     1 <1>   0.0800 
 35 H       -7.0470    -5.1750     1.3440 H     1 <1>   0.4500 
 36 H       -5.0270    -6.8860     0.2700 H     1 <1>   0.0800 
 37 H       -6.7480    -6.8030     0.0000 H     1 <1>   0.0800 
 38 H       -4.3290    -5.7480     2.4080 H     1 <1>   0.0800 
 39 H       -5.7350    -6.7670     2.6650 H     1 <1>   0.0800 
 40 H       -5.7100    -5.1420     3.3010 H     1 <1>   0.0800 
 41 H       -7.5490    -4.7270    -1.6800 H     1 <1>   0.0800 
 42 H       -6.2730    -3.8130    -2.3970 H     1 <1>   0.0800 
 43 H       -4.5840    -5.1690    -1.3090 H     1 <1>   0.0800 
 44 H       -5.7220    -6.2310    -2.0650 H     1 <1>   0.0800 
@<TRIPOS>BOND
  1   1   2  1   
  2   1   3  1   
  3   2   4  2   
  4   2   5  1   
  5   3   6  2   
  6   3  23  1   
  7   4   6  1   
  8   4  24  1   
  9   5   7  1   
 10   5  25  1   
 11   5  26  1   
 12   6  27  1   
 13   7   8  2   
 14   7   9  am  
 15   9  10  1   
 16   9  11  1   
 17  10  12  1   
 18  10  28  1   
 19  10  29  1   
 20  11  13  1   
 21  11  30  1   
 22  11  31  1   
 23  12  14  1   
 24  12  15  1   
 25  12  32  1   
 26  13  15  1   
 27  13  33  1   
 28  13  34  1   
 29  14  16  1   
 30  14  17  1   
 31  14  35  1   
 32  15  18  1   
 33  15  19  1   
 34  16  20  1   
 35  16  36  1   
 36  16  37  1   
 37  17  38  1   
 38  17  39  1   
 39  17  40  1   
 40  18  21  ar  
 41  18  22  ar  
 42  19  20  1   
 43  19  41  1   
 44  19  42  1   
 45  20  43  1   
 46  20  44  1   
@<TRIPOS>SUBSTRUCTURE
  1 ****   9 GROUP 4 **** **** 0

# MOE 2024.06 (io_trps.svl 2023.06)
