@<TRIPOS>MOLECULE
NONAME
52 54 1 0 0 
SMALL
USER_CHARGES


@<TRIPOS>ATOM
  1 O       -4.6220     2.1510    -1.5840 O.2   1 <1>  -0.5700 
  2 C       -3.4840     1.9590    -1.2160 C.2   1 <1>   0.5690 
  3 N       -2.9270     0.7210    -1.3170 N.am  1 <1>  -0.7300 
  4 C       -2.6520     3.1300    -0.6250 C.3   1 <1>   0.3410 
  5 C       -3.5900    -0.4880    -1.8520 C.3   1 <1>   0.2200 
  6 O       -1.3890     2.6020    -0.1950 O.3   1 <1>  -0.3630 
  7 C       -3.3780     3.7410     0.5880 C.3   1 <1>  -0.2400 
  8 C       -2.4170     4.2040    -1.7020 C.3   1 <1>  -0.2400 
  9 C       -3.8590    -1.4540    -0.7110 C.3   1 <1>  -0.0800 
 10 C       -2.6140    -1.2770    -2.7230 C.3   1 <1>   0.1200 
 11 C       -0.4240     3.3890     0.3330 C.ar  1 <1>   0.0820 
 12 C       -2.5160    -2.1770    -0.6010 C.3   1 <1>   0.1200 
 13 C       -5.0140    -2.4160    -1.0480 C.3   1 <1>  -0.0160 
 14 O       -1.9640    -2.1890    -1.8830 O.3   1 <1>  -0.5600 
 15 C        0.5390     3.9510    -0.4930 C.ar  1 <1>  -0.1500 
 16 C       -0.3670     3.5930     1.7030 C.ar  1 <1>  -0.1500 
 17 C       -5.2940    -3.3750     0.0990 C.ar  1 <1>  -0.1440 
 18 C        1.5390     4.7460     0.0410 C.ar  1 <1>  -0.1440 
 19 C        0.6300     4.3880     2.2390 C.ar  1 <1>  -0.1500 
 20 C       -4.8880    -4.6940     0.0670 C.ar  1 <1>  -0.1500 
 21 C       -5.9710    -2.9740     1.2320 C.ar  1 <1>  -0.1500 
 22 C        1.5770     4.9650     1.4090 C.ar  1 <1>  -0.1500 
 23 C        2.5880     5.3750    -0.8590 C.3   1 <1>  -0.0970 
 24 C       -5.1660    -5.5220     1.1420 C.ar  1 <1>   0.1600 
 25 C       -6.1990    -3.8830     2.2520 C.ar  1 <1>   0.1600 
 26 N       -5.8110    -5.1480     2.2350 N.ar  1 <1>  -0.6200 
 27 H       -1.9640     0.5990    -0.9880 H     1 <1>   0.3700 
 28 H       -4.4810    -0.2130    -2.3930 H     1 <1>   0.0800 
 29 H       -4.3580     4.0720     0.2940 H     1 <1>   0.0800 
 30 H       -2.8450     4.5910     0.9710 H     1 <1>   0.0800 
 31 H       -3.4920     3.0020     1.3600 H     1 <1>   0.0800 
 32 H       -3.3620     4.5490    -2.0800 H     1 <1>   0.0800 
 33 H       -1.8600     3.7890    -2.5220 H     1 <1>   0.0800 
 34 H       -1.8940     5.0520    -1.2980 H     1 <1>   0.0800 
 35 H       -4.0950    -0.9300     0.1980 H     1 <1>   0.0800 
 36 H       -1.8860    -0.6460    -3.2020 H     1 <1>   0.0800 
 37 H       -3.1460    -1.8460    -3.4640 H     1 <1>   0.0800 
 38 H       -2.6010    -3.1870    -0.2420 H     1 <1>   0.0800 
 39 H       -1.8440    -1.6290     0.0360 H     1 <1>   0.0800 
 40 H       -4.7850    -2.9770    -1.9380 H     1 <1>   0.0800 
 41 H       -5.9060    -1.8470    -1.2450 H     1 <1>   0.0800 
 42 H        0.4990     3.7600    -1.5500 H     1 <1>   0.1500 
 43 H       -1.0970     3.1320     2.3420 H     1 <1>   0.1500 
 44 H        0.6730     4.5550     3.3010 H     1 <1>   0.1500 
 45 H       -4.3560    -5.0860    -0.7810 H     1 <1>   0.1500 
 46 H       -6.3240    -1.9630     1.3310 H     1 <1>   0.1500 
 47 H        2.3480     5.5840     1.8350 H     1 <1>   0.1500 
 48 H        3.5550     5.3260    -0.3910 H     1 <1>   0.0800 
 49 H        2.3410     6.4050    -1.0410 H     1 <1>   0.0800 
 50 H        2.6410     4.8590    -1.8000 H     1 <1>   0.0800 
 51 H       -4.8410    -6.5480     1.1000 H     1 <1>   0.1500 
 52 H       -6.7290    -3.5510     3.1280 H     1 <1>   0.1500 
@<TRIPOS>BOND
  1   1   2  2   
  2   2   3  am  
  3   2   4  1   
  4   3   5  1   
  5   3  27  1   
  6   4   6  1   
  7   4   7  1   
  8   4   8  1   
  9   5   9  1   
 10   5  10  1   
 11   5  28  1   
 12   6  11  1   
 13   7  29  1   
 14   7  30  1   
 15   7  31  1   
 16   8  32  1   
 17   8  33  1   
 18   8  34  1   
 19   9  12  1   
 20   9  13  1   
 21   9  35  1   
 22  10  14  1   
 23  10  36  1   
 24  10  37  1   
 25  11  15  ar  
 26  11  16  ar  
 27  12  14  1   
 28  12  38  1   
 29  12  39  1   
 30  13  17  1   
 31  13  40  1   
 32  13  41  1   
 33  15  18  ar  
 34  15  42  1   
 35  16  19  ar  
 36  16  43  1   
 37  17  20  ar  
 38  17  21  ar  
 39  18  22  ar  
 40  18  23  1   
 41  19  22  ar  
 42  19  44  1   
 43  20  24  ar  
 44  20  45  1   
 45  21  25  ar  
 46  21  46  1   
 47  22  47  1   
 48  23  48  1   
 49  23  49  1   
 50  23  50  1   
 51  24  26  ar  
 52  24  51  1   
 53  25  26  ar  
 54  25  52  1   
@<TRIPOS>SUBSTRUCTURE
  1 ****   3 GROUP 4 **** **** 0

# MOE 2024.06 (io_trps.svl 2023.06)
