@<TRIPOS>MOLECULE
NONAME
51 55 1 0 0 
SMALL
USER_CHARGES


@<TRIPOS>ATOM
  1 O       -1.4140    -0.0390    -1.6430 O.2   1 <1>  -0.5700 
  2 C       -1.5650    -0.0420    -0.4330 C.2   1 <1>   0.7150 
  3 N       -1.7520    -1.2400     0.1890 N.am  1 <1>  -0.7300 
  4 C       -1.5800     1.1770     0.3410 C.2   1 <1>   0.1020 
  5 C       -1.8910    -2.5620    -0.4640 C.3   1 <1>   0.2200 
  6 N       -1.9060     1.2620     1.6060 N.2   1 <1>  -0.3380 
  7 N       -1.2760     2.4010    -0.1300 N.pl3 1 <1>   0.0480 
  8 C       -3.3300    -3.0610    -0.4090 C.3   1 <1>  -0.0800 
  9 C       -1.1890    -3.6160     0.3810 C.3   1 <1>   0.1200 
 10 N       -1.8280     2.5370     1.9630 N.2   1 <1>  -0.3380 
 11 C       -1.4560     3.1950     0.9200 C.2   1 <1>   0.0070 
 12 C       -0.8880     2.8460    -1.4930 C.3   1 <1>   0.0960 
 13 C       -3.4080    -3.7130     0.9770 C.3   1 <1>   0.1200 
 14 C       -4.4130    -1.9880    -0.6580 C.3   1 <1>  -0.0160 
 15 O       -2.0940    -3.9550     1.3880 O.3   1 <1>  -0.5600 
 16 C       -1.2300     4.6960     0.8640 C.3   1 <1>   0.0200 
 17 C       -0.3640     4.2930    -1.4800 C.3   1 <1>  -0.1600 
 18 C       -5.8640    -2.4800    -0.7220 C.ar  1 <1>  -0.1440 
 19 C       -1.2250     5.2030    -0.5880 C.3   1 <1>  -0.1600 
 20 C       -6.9250    -1.5400    -0.7020 C.ar  1 <1>   0.0000 
 21 C       -6.2110    -3.8000    -0.8100 C.ar  1 <1>  -0.1500 
 22 C       -8.2530    -2.0330    -0.7480 C.ar  1 <1>   0.3100 
 23 C       -6.7490    -0.1360    -0.6440 C.ar  1 <1>  -0.1500 
 24 C       -7.5570    -4.1810    -0.8570 C.ar  1 <1>   0.1600 
 25 N       -8.5510    -3.3540    -0.8240 N.ar  1 <1>  -0.6200 
 26 C       -9.3220    -1.1230    -0.7190 C.ar  1 <1>  -0.1500 
 27 C       -7.8120     0.7240    -0.6180 C.ar  1 <1>  -0.1500 
 28 C       -9.1170     0.2280    -0.6550 C.ar  1 <1>  -0.1500 
 29 H       -1.8850    -1.2300     1.2050 H     1 <1>   0.3700 
 30 H       -1.5030    -2.5310    -1.4690 H     1 <1>   0.0800 
 31 H       -3.4230    -3.8310    -1.1530 H     1 <1>   0.0800 
 32 H       -0.2750    -3.2580     0.8210 H     1 <1>   0.0800 
 33 H       -0.9960    -4.5020    -0.1980 H     1 <1>   0.0800 
 34 H       -0.1340     2.1850    -1.8820 H     1 <1>   0.0800 
 35 H       -1.7570     2.7780    -2.1230 H     1 <1>   0.0800 
 36 H       -3.9440    -4.6460     0.9590 H     1 <1>   0.0800 
 37 H       -3.8560    -3.0520     1.6990 H     1 <1>   0.0800 
 38 H       -4.1890    -1.4820    -1.5810 H     1 <1>   0.0800 
 39 H       -4.3480    -1.2650     0.1360 H     1 <1>   0.0800 
 40 H       -1.9960     5.1970     1.4300 H     1 <1>   0.0800 
 41 H       -0.2830     4.9110     1.3260 H     1 <1>   0.0800 
 42 H        0.6510     4.2950    -1.1210 H     1 <1>   0.0800 
 43 H       -0.3500     4.6730    -2.4870 H     1 <1>   0.0800 
 44 H       -2.2350     5.2160    -0.9610 H     1 <1>   0.0800 
 45 H       -0.8490     6.2120    -0.6150 H     1 <1>   0.0800 
 46 H       -5.4880    -4.5910    -0.8490 H     1 <1>   0.1500 
 47 H       -5.7570     0.2750    -0.6200 H     1 <1>   0.1500 
 48 H       -7.7800    -5.2320    -0.9230 H     1 <1>   0.1500 
 49 H      -10.3160    -1.5290    -0.7510 H     1 <1>   0.1500 
 50 H       -7.6590     1.7890    -0.5700 H     1 <1>   0.1500 
 51 H       -9.9460     0.9140    -0.6330 H     1 <1>   0.1500 
@<TRIPOS>BOND
  1   1   2  2   
  2   2   3  am  
  3   2   4  1   
  4   3   5  1   
  5   3  29  1   
  6   4   6  2   
  7   4   7  1   
  8   5   8  1   
  9   5   9  1   
 10   5  30  1   
 11   6  10  1   
 12   7  11  1   
 13   7  12  1   
 14   8  13  1   
 15   8  14  1   
 16   8  31  1   
 17   9  15  1   
 18   9  32  1   
 19   9  33  1   
 20  10  11  2   
 21  11  16  1   
 22  12  17  1   
 23  12  34  1   
 24  12  35  1   
 25  13  15  1   
 26  13  36  1   
 27  13  37  1   
 28  14  18  1   
 29  14  38  1   
 30  14  39  1   
 31  16  19  1   
 32  16  40  1   
 33  16  41  1   
 34  17  19  1   
 35  17  42  1   
 36  17  43  1   
 37  18  20  ar  
 38  18  21  ar  
 39  19  44  1   
 40  19  45  1   
 41  20  22  ar  
 42  20  23  ar  
 43  21  24  ar  
 44  21  46  1   
 45  22  25  ar  
 46  22  26  ar  
 47  23  27  ar  
 48  23  47  1   
 49  24  25  ar  
 50  24  48  1   
 51  26  28  ar  
 52  26  49  1   
 53  27  28  ar  
 54  27  50  1   
 55  28  51  1   
@<TRIPOS>SUBSTRUCTURE
  1 ****  14 GROUP 4 **** **** 0

# MOE 2024.06 (io_trps.svl 2023.06)
