@<TRIPOS>MOLECULE
NONAME
43 44 1 0 0 
SMALL
USER_CHARGES


@<TRIPOS>ATOM
  1 S        0.6050     0.0550     0.6010 S.o2  1 <1>   1.3330 
  2 O       -0.3690    -0.3930     1.5660 O.2   1 <1>  -0.6500 
  3 O        1.9120     0.4880     1.0430 O.2   1 <1>  -0.6500 
  4 N        0.7800    -1.1060    -0.6200 N.am  1 <1>  -0.8490 
  5 C       -0.0960     1.4560    -0.2720 C.3   1 <1>  -0.0550 
  6 C       -0.4210    -1.9290    -0.8180 C.3   1 <1>   0.1160 
  7 C        1.9400    -1.9800    -0.4020 C.3   1 <1>   0.1160 
  8 C       -0.4610     2.6300     0.6630 C.3   1 <1>  -0.0800 
  9 C       -1.0300     3.8120    -0.1260 C.3   1 <1>   0.2000 
 10 C        0.7700     3.2030     1.3970 C.3   1 <1>   0.3430 
 11 O       -1.9040     4.4990     0.7080 O.3   1 <1>  -0.6800 
 12 C        0.1880     4.7060    -0.3510 C.3   1 <1>   0.3430 
 13 N        0.9190     4.6110     0.9400 N.4   1 <1>  -0.9590 
 14 C        2.3180     5.1060     0.8960 C.3   1 <1>   0.5230 
 15 C        2.3230     6.5860     0.5730 C.2   1 <1>  -0.1400 
 16 S        3.8290     7.2060    -0.0800 S.3   1 <1>  -0.0800 
 17 C        1.4120     7.5760     0.6720 C.2   1 <1>  -0.1500 
 18 C        3.1640     8.8240    -0.2110 C.2   1 <1>  -0.1400 
 19 C        1.8920     8.8470     0.2240 C.2   1 <1>  -0.1500 
 20 C        4.0700     9.9050    -0.7620 C.3   1 <1>  -0.0600 
 21 H        0.6020     1.7800    -1.0200 H     1 <1>   0.0800 
 22 H       -0.9850     1.1300    -0.7780 H     1 <1>   0.0800 
 23 H       -0.2830    -2.5900    -1.6570 H     1 <1>   0.0800 
 24 H       -1.2740    -1.3040    -1.0160 H     1 <1>   0.0800 
 25 H       -0.6230    -2.5200     0.0620 H     1 <1>   0.0800 
 26 H        2.0310    -2.6890    -1.2080 H     1 <1>   0.0800 
 27 H        1.8390    -2.5140     0.5290 H     1 <1>   0.0800 
 28 H        2.8440    -1.3950    -0.3690 H     1 <1>   0.0800 
 29 H       -1.1770     2.2690     1.3830 H     1 <1>   0.0800 
 30 H       -1.5420     3.5510    -1.0370 H     1 <1>   0.0800 
 31 H        1.6570     2.6480     1.1460 H     1 <1>   0.0800 
 32 H        0.6290     3.1650     2.4660 H     1 <1>   0.0800 
 33 H       -2.7700     4.0410     0.7810 H     1 <1>   0.4000 
 34 H       -0.1030     5.7180    -0.5810 H     1 <1>   0.0800 
 35 H        0.7920     4.3110    -1.1510 H     1 <1>   0.0800 
 36 H        0.3860     5.2010     1.5950 H     1 <1>   0.4500 
 37 H        2.8040     4.9480     1.8450 H     1 <1>   0.0800 
 38 H        2.8700     4.5730     0.1380 H     1 <1>   0.0800 
 39 H        0.4050     7.4930     1.0440 H     1 <1>   0.1500 
 40 H        1.2600     9.7180     0.2510 H     1 <1>   0.1500 
 41 H        3.5510    10.8460    -0.7910 H     1 <1>   0.0800 
 42 H        4.3830     9.6500    -1.7590 H     1 <1>   0.0800 
 43 H        4.9410    10.0080    -0.1390 H     1 <1>   0.0800 
@<TRIPOS>BOND
  1   1   2  2   
  2   1   3  2   
  3   1   4  am  
  4   1   5  1   
  5   4   6  1   
  6   4   7  1   
  7   5   8  1   
  8   5  21  1   
  9   5  22  1   
 10   6  23  1   
 11   6  24  1   
 12   6  25  1   
 13   7  26  1   
 14   7  27  1   
 15   7  28  1   
 16   8   9  1   
 17   8  10  1   
 18   8  29  1   
 19   9  11  1   
 20   9  12  1   
 21   9  30  1   
 22  10  13  1   
 23  10  31  1   
 24  10  32  1   
 25  11  33  1   
 26  12  13  1   
 27  12  34  1   
 28  12  35  1   
 29  13  14  1   
 30  13  36  1   
 31  14  15  1   
 32  14  37  1   
 33  14  38  1   
 34  15  16  1   
 35  15  17  2   
 36  16  18  1   
 37  17  19  1   
 38  17  39  1   
 39  18  19  2   
 40  18  20  1   
 41  19  40  1   
 42  20  41  1   
 43  20  42  1   
 44  20  43  1   
@<TRIPOS>SUBSTRUCTURE
  1 ****  13 GROUP 4 **** **** 0

# MOE 2024.06 (io_trps.svl 2023.06)
