@<TRIPOS>MOLECULE
NONAME
55 57 1 0 0 
SMALL
USER_CHARGES


@<TRIPOS>ATOM
  1 O        0.0560     0.7060    -1.0570 O.2   1 <1>  -0.5700 
  2 C        0.0540     1.8910    -0.7800 C.2   1 <1>   0.5440 
  3 N       -1.1560     2.5430    -0.6640 N.am  1 <1>  -0.6600 
  4 C        1.3130     2.5800    -0.5770 C.ar  1 <1>   0.0860 
  5 C       -1.3030     3.8440     0.0540 C.3   1 <1>   0.1400 
  6 C       -2.4100     1.8780    -1.1220 C.3   1 <1>   0.1400 
  7 C        2.2680     2.0870     0.3080 C.ar  1 <1>  -0.1500 
  8 C        1.6190     3.7560    -1.2580 C.ar  1 <1>  -0.1500 
  9 C       -2.6290     3.8590     0.8110 C.3   1 <1>  -0.1600 
 10 C       -3.5050     2.9140    -1.3890 C.3   1 <1>  -0.1600 
 11 C        3.4710     2.7340     0.5290 C.ar  1 <1>   0.0830 
 12 C        2.8120     4.4240    -1.0500 C.ar  1 <1>  -0.1500 
 13 C       -3.8300     3.7920    -0.1560 C.3   1 <1>   0.2800 
 14 O        4.2960     2.1250     1.4250 O.3   1 <1>  -0.3630 
 15 C        3.7530     3.9320    -0.1480 C.ar  1 <1>   0.0830 
 16 O       -4.0210     5.0790    -0.6790 O.3   1 <1>  -0.5600 
 17 C       -5.0960     3.2820     0.5810 C.3   1 <1>  -0.1600 
 18 C        5.6970     2.1740     1.2660 C.3   1 <1>   0.3200 
 19 O        4.9170     4.5940     0.0960 O.3   1 <1>  -0.3630 
 20 C       -4.8010     6.0050     0.0260 C.3   1 <1>   0.1200 
 21 C       -6.3960     3.9680     0.1400 C.3   1 <1>   0.2800 
 22 C        6.3000     1.0250     2.0030 C.1   1 <1>  -0.2000 
 23 C        5.2100     5.8530    -0.4720 C.3   1 <1>   0.0400 
 24 C       -6.2410     5.5090     0.2800 C.3   1 <1>   0.2000 
 25 O       -6.6270     3.6650    -1.1880 O.3   1 <1>  -0.6800 
 26 C       -7.6080     3.3930     0.8850 C.3   1 <1>  -0.2400 
 27 C        6.7810     0.1100     2.5900 C.1   1 <1>  -0.1770 
 28 O       -6.5970     5.9390     1.5640 O.3   1 <1>  -0.6800 
 29 H       -0.4930     3.9750     0.7510 H     1 <1>   0.0800 
 30 H       -1.2810     4.6510    -0.6590 H     1 <1>   0.0800 
 31 H       -2.2110     1.3230    -2.0240 H     1 <1>   0.0800 
 32 H       -2.7320     1.1820    -0.3670 H     1 <1>   0.0800 
 33 H        2.0640     1.1710     0.8330 H     1 <1>   0.1500 
 34 H        0.9050     4.1460    -1.9630 H     1 <1>   0.1500 
 35 H       -2.6880     4.7370     1.4240 H     1 <1>   0.0800 
 36 H       -2.6370     3.0080     1.4690 H     1 <1>   0.0800 
 37 H       -4.3840     2.4060    -1.7370 H     1 <1>   0.0800 
 38 H       -3.1640     3.5360    -2.1990 H     1 <1>   0.0800 
 39 H        2.9860     5.3270    -1.6030 H     1 <1>   0.1500 
 40 H       -5.1790     2.2150     0.4850 H     1 <1>   0.0800 
 41 H       -4.9780     3.4710     1.6320 H     1 <1>   0.0800 
 42 H        5.9300     2.1110     0.2180 H     1 <1>   0.0800 
 43 H        6.0530     3.1030     1.6740 H     1 <1>   0.0800 
 44 H       -4.2990     6.2220     0.9510 H     1 <1>   0.0800 
 45 H       -4.8350     6.9020    -0.5640 H     1 <1>   0.0800 
 46 H        6.1600     6.1790    -0.0900 H     1 <1>   0.0800 
 47 H        4.4430     6.5520    -0.1870 H     1 <1>   0.0800 
 48 H        5.2630     5.7510    -1.5410 H     1 <1>   0.0800 
 49 H       -6.9170     5.9950    -0.4010 H     1 <1>   0.0800 
 50 H       -6.8160     2.7150    -1.2840 H     1 <1>   0.4000 
 51 H       -7.4980     3.5240     1.9460 H     1 <1>   0.0800 
 52 H       -7.7190     2.3420     0.6920 H     1 <1>   0.0800 
 53 H       -8.5030     3.9080     0.5800 H     1 <1>   0.0800 
 54 H        7.2080    -0.7210     3.1230 H     1 <1>   0.1770 
 55 H       -6.0560     5.4860     2.2360 H     1 <1>   0.4000 
@<TRIPOS>BOND
  1   1   2  2   
  2   2   3  am  
  3   2   4  1   
  4   3   5  1   
  5   3   6  1   
  6   4   7  ar  
  7   4   8  ar  
  8   5   9  1   
  9   5  29  1   
 10   5  30  1   
 11   6  10  1   
 12   6  31  1   
 13   6  32  1   
 14   7  11  ar  
 15   7  33  1   
 16   8  12  ar  
 17   8  34  1   
 18   9  13  1   
 19   9  35  1   
 20   9  36  1   
 21  10  13  1   
 22  10  37  1   
 23  10  38  1   
 24  11  14  1   
 25  11  15  ar  
 26  12  15  ar  
 27  12  39  1   
 28  13  16  1   
 29  13  17  1   
 30  14  18  1   
 31  15  19  1   
 32  16  20  1   
 33  17  21  1   
 34  17  40  1   
 35  17  41  1   
 36  18  22  1   
 37  18  42  1   
 38  18  43  1   
 39  19  23  1   
 40  20  24  1   
 41  20  44  1   
 42  20  45  1   
 43  21  24  1   
 44  21  25  1   
 45  21  26  1   
 46  22  27  3   
 47  23  46  1   
 48  23  47  1   
 49  23  48  1   
 50  24  28  1   
 51  24  49  1   
 52  25  50  1   
 53  26  51  1   
 54  26  52  1   
 55  26  53  1   
 56  27  54  1   
 57  28  55  1   
@<TRIPOS>SUBSTRUCTURE
  1 ****   5 GROUP 4 **** **** 0

# MOE 2024.06 (io_trps.svl 2023.06)
