@<TRIPOS>MOLECULE
NONAME
46 47 1 0 0 
SMALL
USER_CHARGES


@<TRIPOS>ATOM
  1 CL      -0.0780     1.2140    -2.5830 Cl    1 <1>  -0.1770 
  2 C        1.3560     1.3480    -1.5970 C.ar  1 <1>   0.1770 
  3 C        1.9990     0.2020    -1.1630 C.ar  1 <1>  -0.1440 
  4 C        1.8160     2.6080    -1.2580 C.ar  1 <1>  -0.1500 
  5 C        3.1190     0.3660    -0.3670 C.ar  1 <1>   0.1900 
  6 C        1.5090    -1.1800    -1.5410 C.3   1 <1>   0.4860 
  7 C        2.9440     2.7400    -0.4630 C.ar  1 <1>  -0.1500 
  8 F        3.7260    -0.7080     0.0660 F     1 <1>  -0.1900 
  9 C        3.6120     1.6130    -0.0050 C.ar  1 <1>  -0.1440 
 10 N        0.8440    -1.8060    -0.3720 N.4   1 <1>  -0.9590 
 11 C        4.8510     1.7540     0.8690 C.3   1 <1>  -0.0970 
 12 C        0.5740    -3.2530    -0.6670 C.3   1 <1>   0.3430 
 13 C       -0.3980    -1.0610     0.0290 C.3   1 <1>   0.3430 
 14 C       -0.3000    -3.8020     0.4530 C.3   1 <1>   0.2000 
 15 C       -1.3380    -1.8550     0.9690 C.3   1 <1>  -0.1600 
 16 O       -0.0600    -5.1740     0.6000 O.3   1 <1>  -0.6800 
 17 C       -1.7870    -3.2100     0.2380 C.3   1 <1>  -0.1060 
 18 C       -2.1530    -4.4990    -0.5350 C.2   1 <1>   0.9060 
 19 C       -3.3010    -2.6940     0.0520 C.3   1 <1>  -0.1600 
 20 O       -2.5580    -5.5040     0.0640 O.co2 1 <1>  -0.9000 
 21 O       -1.9060    -4.5060    -1.7470 O.co2 1 <1>  -0.9000 
 22 C       -3.4990    -1.6950    -1.1110 C.3   1 <1>  -0.1600 
 23 C       -4.9840    -1.3870    -1.3250 C.3   1 <1>  -0.2400 
 24 H        1.2960     3.4810    -1.6140 H     1 <1>   0.1500 
 25 H        2.3510    -1.7800    -1.8450 H     1 <1>   0.0800 
 26 H        0.8210    -1.1250    -2.3690 H     1 <1>   0.0800 
 27 H        3.2980     3.7250    -0.2050 H     1 <1>   0.1500 
 28 H        1.5070    -1.7780     0.4140 H     1 <1>   0.4500 
 29 H        5.1210     2.7870     0.9960 H     1 <1>   0.0800 
 30 H        5.6820     1.2410     0.4170 H     1 <1>   0.0800 
 31 H        4.6700     1.3280     1.8390 H     1 <1>   0.0800 
 32 H        0.0530    -3.3620    -1.6050 H     1 <1>   0.0800 
 33 H        1.4960    -3.8090    -0.7050 H     1 <1>   0.0800 
 34 H       -0.1240    -0.1300     0.5000 H     1 <1>   0.0800 
 35 H       -0.9510    -0.8210    -0.8640 H     1 <1>   0.0800 
 36 H        0.1610    -3.4710     1.3650 H     1 <1>   0.0800 
 37 H       -0.9080    -1.9910     1.9470 H     1 <1>   0.0800 
 38 H       -2.1060    -1.1360     1.1940 H     1 <1>   0.0800 
 39 H       -0.9310    -5.6540     0.4320 H     1 <1>   0.4000 
 40 H       -4.0260    -3.4800    -0.1270 H     1 <1>   0.0800 
 41 H       -3.7110    -2.2920     0.9630 H     1 <1>   0.0800 
 42 H       -2.9930    -0.7670    -0.9270 H     1 <1>   0.0800 
 43 H       -3.1020    -2.1240    -2.0170 H     1 <1>   0.0800 
 44 H       -5.4150    -0.9620    -0.4360 H     1 <1>   0.0800 
 45 H       -5.5190    -2.2880    -1.5730 H     1 <1>   0.0800 
 46 H       -5.1030    -0.6900    -2.1350 H     1 <1>   0.0800 
@<TRIPOS>BOND
  1   1   2  1   
  2   2   3  ar  
  3   2   4  ar  
  4   3   5  ar  
  5   3   6  1   
  6   4   7  ar  
  7   4  24  1   
  8   5   8  1   
  9   5   9  ar  
 10   6  10  1   
 11   6  25  1   
 12   6  26  1   
 13   7   9  ar  
 14   7  27  1   
 15   9  11  1   
 16  10  12  1   
 17  10  13  1   
 18  10  28  1   
 19  11  29  1   
 20  11  30  1   
 21  11  31  1   
 22  12  14  1   
 23  12  32  1   
 24  12  33  1   
 25  13  15  1   
 26  13  34  1   
 27  13  35  1   
 28  14  16  1   
 29  14  17  1   
 30  14  36  1   
 31  15  17  1   
 32  15  37  1   
 33  15  38  1   
 34  16  39  1   
 35  17  18  1   
 36  17  19  1   
 37  18  20  ar  
 38  18  21  ar  
 39  19  22  1   
 40  19  40  1   
 41  19  41  1   
 42  22  23  1   
 43  22  42  1   
 44  22  43  1   
 45  23  44  1   
 46  23  45  1   
 47  23  46  1   
@<TRIPOS>SUBSTRUCTURE
  1 ****  13 GROUP 4 **** **** 0

# MOE 2024.06 (io_trps.svl 2023.06)
