@<TRIPOS>MOLECULE
NONAME
42 44 1 0 0 
SMALL
USER_CHARGES


@<TRIPOS>ATOM
  1 CL       1.4290    -2.7980     1.0760 Cl    1 <1>  -0.1230 
  2 C       -0.2160    -3.4000     0.9870 C.2   1 <1>   0.1230 
  3 C       -1.2650    -3.0250     1.8120 C.2   1 <1>   0.1390 
  4 C       -0.7130    -4.3030     0.1230 C.2   1 <1>  -0.3020 
  5 N       -2.3610    -3.6540     1.4900 N.2   1 <1>  -0.7070 
  6 N       -2.0160    -4.4420     0.4450 N.pl3 1 <1>   0.3140 
  7 C       -2.9920    -5.3220    -0.2170 C.3   1 <1>   0.0960 
  8 C       -4.1980    -5.5210     0.7080 C.3   1 <1>   0.3430 
  9 N       -5.2160    -6.4490     0.1290 N.4   1 <1>  -0.9590 
 10 C       -5.9010    -5.9920    -1.1190 C.3   1 <1>   0.3430 
 11 C       -6.2890    -6.8400     1.0730 C.3   1 <1>   0.3430 
 12 C       -7.2760    -6.6730    -1.1200 C.3   1 <1>   0.2000 
 13 C       -7.3690    -7.4630     0.1910 C.3   1 <1>  -0.0800 
 14 O       -8.2700    -5.7020    -1.1400 O.3   1 <1>  -0.6800 
 15 C       -7.1660    -8.9830    -0.0130 C.3   1 <1>   0.0210 
 16 C       -5.7390    -9.4550    -0.2750 C.2   1 <1>   0.1080 
 17 N       -4.9380    -8.9540    -1.1700 N.2   1 <1>  -0.7070 
 18 C       -5.1510   -10.5090     0.4140 C.2   1 <1>  -0.1500 
 19 N       -3.8290    -9.7280    -1.1080 N.pl3 1 <1>   0.3000 
 20 C       -3.9300   -10.6560    -0.1390 C.2   1 <1>  -0.3320 
 21 C       -2.8450   -11.6660     0.1920 C.3   1 <1>  -0.0600 
 22 H       -1.1840    -2.3090     2.6120 H     1 <1>   0.1500 
 23 H       -0.2190    -4.8280    -0.6730 H     1 <1>   0.1500 
 24 H       -3.2910    -4.8540    -1.1360 H     1 <1>   0.0800 
 25 H       -2.5180    -6.2630    -0.4200 H     1 <1>   0.0800 
 26 H       -4.6500    -4.5620     0.9050 H     1 <1>   0.0800 
 27 H       -3.8430    -5.9200     1.6450 H     1 <1>   0.0800 
 28 H       -4.7790    -7.3570    -0.1470 H     1 <1>   0.4500 
 29 H       -6.0250    -4.9220    -1.1220 H     1 <1>   0.0800 
 30 H       -5.3370    -6.2980    -1.9850 H     1 <1>   0.0800 
 31 H       -5.9300    -7.5370     1.8140 H     1 <1>   0.0800 
 32 H       -6.6800    -5.9630     1.5640 H     1 <1>   0.0800 
 33 H       -7.4040    -7.2910    -1.9940 H     1 <1>   0.0800 
 34 H       -8.3370    -7.3290     0.6440 H     1 <1>   0.0800 
 35 H       -8.3410    -5.2030    -0.3030 H     1 <1>   0.4000 
 36 H       -7.7860    -9.3190    -0.8260 H     1 <1>   0.0800 
 37 H       -7.5200    -9.4890     0.8680 H     1 <1>   0.0800 
 38 H       -5.5960   -11.0880     1.2060 H     1 <1>   0.1500 
 39 H       -3.0310    -9.6240    -1.7500 H     1 <1>   0.2700 
 40 H       -3.1650   -12.3050     0.9970 H     1 <1>   0.0800 
 41 H       -1.9420   -11.1650     0.4940 H     1 <1>   0.0800 
 42 H       -2.6340   -12.2820    -0.6650 H     1 <1>   0.0800 
@<TRIPOS>BOND
  1   1   2  1   
  2   2   3  1   
  3   2   4  2   
  4   3   5  2   
  5   3  22  1   
  6   4   6  1   
  7   4  23  1   
  8   5   6  1   
  9   6   7  1   
 10   7   8  1   
 11   7  24  1   
 12   7  25  1   
 13   8   9  1   
 14   8  26  1   
 15   8  27  1   
 16   9  10  1   
 17   9  11  1   
 18   9  28  1   
 19  10  12  1   
 20  10  29  1   
 21  10  30  1   
 22  11  13  1   
 23  11  31  1   
 24  11  32  1   
 25  12  13  1   
 26  12  14  1   
 27  12  33  1   
 28  13  15  1   
 29  13  34  1   
 30  14  35  1   
 31  15  16  1   
 32  15  36  1   
 33  15  37  1   
 34  16  17  2   
 35  16  18  1   
 36  17  19  1   
 37  18  20  2   
 38  18  38  1   
 39  19  20  1   
 40  19  39  1   
 41  20  21  1   
 42  21  40  1   
 43  21  41  1   
 44  21  42  1   
@<TRIPOS>SUBSTRUCTURE
  1 ****   9 GROUP 4 **** **** 0

# MOE 2024.06 (io_trps.svl 2023.06)
