@<TRIPOS>MOLECULE
NONAME
53 55 1 0 0 
SMALL
USER_CHARGES


@<TRIPOS>ATOM
  1 O        0.0390     1.0160     0.2460 O.2   1 <1>  -0.5700 
  2 C       -0.1910     2.1560    -0.0820 C.2   1 <1>   0.5690 
  3 N       -1.0540     2.9610     0.6110 N.am  1 <1>  -0.6600 
  4 C        0.4960     2.7000    -1.3340 C.3   1 <1>   0.1810 
  5 C       -1.3610     4.3570     0.1500 C.3   1 <1>   0.3640 
  6 C       -1.7020     2.5310     1.8840 C.3   1 <1>   0.0600 
  7 O        0.6060     4.1010    -1.3190 O.3   1 <1>  -0.5600 
  8 C       -2.8790     4.5790     0.0450 C.ar  1 <1>  -0.1430 
  9 C       -0.6320     4.7820    -1.1530 C.3   1 <1>   0.2610 
 10 C       -3.7620     3.7510    -0.6590 C.ar  1 <1>  -0.1430 
 11 C       -3.3910     5.6890     0.7070 C.ar  1 <1>  -0.1500 
 12 C       -0.3940     6.2960    -1.1260 C.2   1 <1>   0.5690 
 13 C       -5.1170     4.0520    -0.6710 C.ar  1 <1>  -0.1500 
 14 C       -3.3270     2.5070    -1.4260 C.3   1 <1>  -0.0960 
 15 C       -4.7420     5.9800     0.6860 C.ar  1 <1>  -0.1500 
 16 O       -1.3120     7.0550    -1.3220 O.2   1 <1>  -0.5700 
 17 N        0.8550     6.7580    -0.8670 N.am  1 <1>  -0.7300 
 18 C       -5.6080     5.1580    -0.0040 C.ar  1 <1>  -0.1500 
 19 C        1.2500     8.1750    -0.7730 C.3   1 <1>   0.2350 
 20 C        2.6110     8.3510    -0.0530 C.3   1 <1>  -0.1900 
 21 C        2.9640     9.8590     0.0810 C.3   1 <1>   0.0150 
 22 C        3.6880     7.3240    -0.2890 C.3   1 <1>  -0.2000 
 23 C        3.0010     7.4080     1.0490 C.3   1 <1>  -0.2000 
 24 C        4.4420    10.1570     0.3860 C.3   1 <1>  -0.2400 
 25 C        2.0990    10.5270     1.1600 C.3   1 <1>  -0.2400 
 26 H       -0.0520     2.4050    -2.2090 H     1 <1>   0.0800 
 27 H        1.4900     2.2960    -1.3940 H     1 <1>   0.0800 
 28 H       -0.9910     5.0060     0.9240 H     1 <1>   0.0800 
 29 H       -1.4980     3.2490     2.6590 H     1 <1>   0.0800 
 30 H       -1.3270     1.5720     2.1970 H     1 <1>   0.0800 
 31 H       -2.7670     2.4540     1.7470 H     1 <1>   0.0800 
 32 H       -1.2450     4.5640    -2.0070 H     1 <1>   0.0800 
 33 H       -2.7370     6.3540     1.2440 H     1 <1>   0.1500 
 34 H       -5.8080     3.4230    -1.2030 H     1 <1>   0.1500 
 35 H       -4.1180     2.1510    -2.0610 H     1 <1>   0.0800 
 36 H       -3.0760     1.7200    -0.7390 H     1 <1>   0.0800 
 37 H       -2.4820     2.7140    -2.0510 H     1 <1>   0.0800 
 38 H       -5.1150     6.8470     1.2020 H     1 <1>   0.1500 
 39 H        1.6170     6.0810    -0.7800 H     1 <1>   0.3700 
 40 H       -6.6610     5.3780    -0.0240 H     1 <1>   0.1500 
 41 H        1.3160     8.5800    -1.7680 H     1 <1>   0.0800 
 42 H        0.4760     8.7070    -0.2490 H     1 <1>   0.0800 
 43 H        2.7460    10.3360    -0.8610 H     1 <1>   0.0800 
 44 H        3.4920     6.4730    -0.9160 H     1 <1>   0.1000 
 45 H        4.7290     7.5890    -0.3190 H     1 <1>   0.1000 
 46 H        3.5620     7.7800     1.8880 H     1 <1>   0.1000 
 47 H        2.3290     6.6200     1.3400 H     1 <1>   0.1000 
 48 H        4.7520     9.6910     1.3030 H     1 <1>   0.0800 
 49 H        4.5940    11.2180     0.4800 H     1 <1>   0.0800 
 50 H        5.0690     9.8120    -0.4150 H     1 <1>   0.0800 
 51 H        2.2690    10.0650     2.1160 H     1 <1>   0.0800 
 52 H        1.0530    10.4520     0.9250 H     1 <1>   0.0800 
 53 H        2.3410    11.5720     1.2390 H     1 <1>   0.0800 
@<TRIPOS>BOND
  1   1   2  2   
  2   2   3  am  
  3   2   4  1   
  4   3   5  1   
  5   3   6  1   
  6   4   7  1   
  7   4  26  1   
  8   4  27  1   
  9   5   8  1   
 10   5   9  1   
 11   5  28  1   
 12   6  29  1   
 13   6  30  1   
 14   6  31  1   
 15   7   9  1   
 16   8  10  ar  
 17   8  11  ar  
 18   9  12  1   
 19   9  32  1   
 20  10  13  ar  
 21  10  14  1   
 22  11  15  ar  
 23  11  33  1   
 24  12  16  2   
 25  12  17  am  
 26  13  18  ar  
 27  13  34  1   
 28  14  35  1   
 29  14  36  1   
 30  14  37  1   
 31  15  18  ar  
 32  15  38  1   
 33  17  19  1   
 34  17  39  1   
 35  18  40  1   
 36  19  20  1   
 37  19  41  1   
 38  19  42  1   
 39  20  21  1   
 40  20  22  1   
 41  20  23  1   
 42  21  24  1   
 43  21  25  1   
 44  21  43  1   
 45  22  23  1   
 46  22  44  1   
 47  22  45  1   
 48  23  46  1   
 49  23  47  1   
 50  24  48  1   
 51  24  49  1   
 52  24  50  1   
 53  25  51  1   
 54  25  52  1   
 55  25  53  1   
@<TRIPOS>SUBSTRUCTURE
  1 ****  12 GROUP 4 **** **** 0

# MOE 2024.06 (io_trps.svl 2023.06)
