@<TRIPOS>MOLECULE
NONAME
42 44 1 0 0 
SMALL
USER_CHARGES


@<TRIPOS>ATOM
  1 CL       1.3840     1.4720    -3.4710 Cl    1 <1>  -0.1770 
  2 C        2.5310     1.7820    -2.1940 C.ar  1 <1>   0.1770 
  3 C        2.5410     0.9710    -1.0780 C.ar  1 <1>  -0.1500 
  4 C        3.4130     2.8340    -2.3110 C.ar  1 <1>  -0.1500 
  5 C        3.4510     1.2080    -0.0560 C.ar  1 <1>  -0.1440 
  6 C        4.3200     3.0670    -1.2920 C.ar  1 <1>  -0.1500 
  7 C        4.3720     2.2590    -0.1540 C.ar  1 <1>  -0.0090 
  8 C        3.4110     0.2960     1.1650 C.3   1 <1>  -0.0960 
  9 S        5.5910     2.6060     1.1590 S.o2  1 <1>   1.4470 
 10 O        6.2810     1.4000     1.5670 O.2   1 <1>  -0.6500 
 11 O        4.9730     3.4270     2.1770 O.2   1 <1>  -0.6500 
 12 N        6.7680     3.5580     0.3910 N.am  1 <1>  -0.8490 
 13 C        7.4000     4.5290     1.3070 C.3   1 <1>   0.1960 
 14 C        7.7080     2.7660    -0.4140 C.3   1 <1>   0.1960 
 15 C        8.4420     5.4720     0.6610 C.3   1 <1>   0.2200 
 16 C        8.4430     3.5670    -1.5100 C.3   1 <1>  -0.0190 
 17 N        7.9970     5.8930    -0.7090 N.am  1 <1>  -0.6600 
 18 C        9.8670     4.8560     0.7030 C.3   1 <1>   0.1200 
 19 C        7.9060     4.9740    -1.7230 C.2   1 <1>   0.5690 
 20 C        9.9700     3.5730    -1.3140 C.3   1 <1>   0.1200 
 21 C        7.5560     7.3030    -0.8680 C.3   1 <1>   0.0600 
 22 O       10.4350     4.6500    -0.5570 O.3   1 <1>  -0.5600 
 23 O        7.4010     5.2320    -2.7920 O.2   1 <1>  -0.5700 
 24 H        1.8330     0.1640    -1.0180 H     1 <1>   0.1500 
 25 H        3.3910     3.4620    -3.1840 H     1 <1>   0.1500 
 26 H        4.9950     3.9010    -1.3960 H     1 <1>   0.1500 
 27 H        2.5420    -0.3370     1.1470 H     1 <1>   0.0800 
 28 H        3.3760     0.8770     2.0700 H     1 <1>   0.0800 
 29 H        4.2840    -0.3330     1.1880 H     1 <1>   0.0800 
 30 H        6.6250     5.1610     1.7080 H     1 <1>   0.0800 
 31 H        7.8390     4.0090     2.1420 H     1 <1>   0.0800 
 32 H        8.4100     2.2720     0.2370 H     1 <1>   0.0800 
 33 H        7.1530     1.9890    -0.9140 H     1 <1>   0.0800 
 34 H        8.4820     6.3460     1.2860 H     1 <1>   0.0800 
 35 H        8.2750     3.0270    -2.4230 H     1 <1>   0.0800 
 36 H        9.8880     3.9270     1.2450 H     1 <1>   0.0800 
 37 H       10.5170     5.5410     1.2190 H     1 <1>   0.0800 
 38 H       10.4420     3.6640    -2.2780 H     1 <1>   0.0800 
 39 H       10.3160     2.6610    -0.8600 H     1 <1>   0.0800 
 40 H        8.3600     7.9670    -0.6040 H     1 <1>   0.0800 
 41 H        6.7080     7.4930    -0.2330 H     1 <1>   0.0800 
 42 H        7.2730     7.4980    -1.8880 H     1 <1>   0.0800 
@<TRIPOS>BOND
  1   1   2  1   
  2   2   3  ar  
  3   2   4  ar  
  4   3   5  ar  
  5   3  24  1   
  6   4   6  ar  
  7   4  25  1   
  8   5   7  ar  
  9   5   8  1   
 10   6   7  ar  
 11   6  26  1   
 12   7   9  1   
 13   8  27  1   
 14   8  28  1   
 15   8  29  1   
 16   9  10  2   
 17   9  11  2   
 18   9  12  am  
 19  12  13  1   
 20  12  14  1   
 21  13  15  1   
 22  13  30  1   
 23  13  31  1   
 24  14  16  1   
 25  14  32  1   
 26  14  33  1   
 27  15  17  1   
 28  15  18  1   
 29  15  34  1   
 30  16  19  1   
 31  16  20  1   
 32  16  35  1   
 33  17  19  am  
 34  17  21  1   
 35  18  22  1   
 36  18  36  1   
 37  18  37  1   
 38  19  23  2   
 39  20  22  1   
 40  20  38  1   
 41  20  39  1   
 42  21  40  1   
 43  21  41  1   
 44  21  42  1   
@<TRIPOS>SUBSTRUCTURE
  1 ****  12 GROUP 4 **** **** 0

# MOE 2024.06 (io_trps.svl 2023.06)
