@<TRIPOS>MOLECULE
NONAME
50 53 1 0 0 
SMALL
USER_CHARGES


@<TRIPOS>ATOM
  1 CL      -1.0260    -0.0830     0.3430 Cl    1 <1>  -0.1770 
  2 C       -0.4530    -1.7220     0.1380 C.ar  1 <1>   0.1770 
  3 C       -1.2110    -2.6730    -0.5330 C.ar  1 <1>  -0.0090 
  4 C        0.7850    -2.0210     0.6780 C.ar  1 <1>  -0.1500 
  5 S       -2.8310    -2.2780    -1.2270 S.o2  1 <1>   1.4470 
  6 C       -0.6750    -3.9530    -0.6460 C.ar  1 <1>  -0.1500 
  7 C        1.2970    -3.2990     0.5540 C.ar  1 <1>  -0.1500 
  8 O       -3.4440    -3.4900    -1.7280 O.2   1 <1>  -0.6500 
  9 O       -2.7150    -1.1430    -2.1160 O.2   1 <1>  -0.6500 
 10 N       -3.7450    -1.8050     0.1190 N.am  1 <1>  -0.8490 
 11 C        0.5640    -4.2660    -0.1100 C.ar  1 <1>  -0.1500 
 12 C       -4.9330    -1.0230    -0.2770 C.3   1 <1>   0.1960 
 13 C       -4.1290    -2.9360     0.9700 C.3   1 <1>   0.1960 
 14 C       -5.6540    -0.4290     0.9490 C.3   1 <1>   0.1440 
 15 C       -4.7990    -2.4290     2.2530 C.3   1 <1>  -0.1600 
 16 C       -6.8680     0.3410     0.4660 C.ar  1 <1>   0.1670 
 17 C       -6.0250    -1.5580     1.9330 C.3   1 <1>  -0.1600 
 18 C       -4.8020     0.6790     1.6250 C.3   1 <1>  -0.1600 
 19 N       -7.9760    -0.1930     0.0160 N.ar  1 <1>  -0.6200 
 20 C       -6.6670     1.6860     0.5350 C.ar  1 <1>  -0.1430 
 21 C       -5.2970     2.0250     1.0680 C.3   1 <1>  -0.0170 
 22 C       -8.9150     0.6770    -0.3630 C.ar  1 <1>   0.7200 
 23 C       -7.6870     2.5040     0.1220 C.ar  1 <1>   0.1600 
 24 N       -8.8170     2.0100    -0.3260 N.ar  1 <1>  -0.6200 
 25 N      -10.0990     0.1480    -0.8410 N.pl3 1 <1>  -0.8380 
 26 C      -11.3210     0.9800    -1.0140 C.3   1 <1>   0.1290 
 27 C      -10.2220    -1.2800    -1.2430 C.3   1 <1>   0.1290 
 28 H        1.3420    -1.2560     1.1890 H     1 <1>   0.1500 
 29 H       -1.2320    -4.7170    -1.1640 H     1 <1>   0.1500 
 30 H        2.2600    -3.5410     0.9710 H     1 <1>   0.1500 
 31 H        0.9580    -5.2640    -0.2110 H     1 <1>   0.1500 
 32 H       -5.6140    -1.6520    -0.8270 H     1 <1>   0.0800 
 33 H       -4.6400    -0.2130    -0.9230 H     1 <1>   0.0800 
 34 H       -3.2550    -3.5070     1.2330 H     1 <1>   0.0800 
 35 H       -4.8070    -3.5840     0.4370 H     1 <1>   0.0800 
 36 H       -4.0810    -1.8650     2.8220 H     1 <1>   0.0800 
 37 H       -5.1030    -3.2700     2.8500 H     1 <1>   0.0800 
 38 H       -6.7810    -2.1780     1.4820 H     1 <1>   0.0800 
 39 H       -6.4430    -1.1480     2.8360 H     1 <1>   0.0800 
 40 H       -3.7470     0.5470     1.4580 H     1 <1>   0.0800 
 41 H       -4.9780     0.6720     2.6860 H     1 <1>   0.0800 
 42 H       -4.6660     2.3560     0.2610 H     1 <1>   0.0800 
 43 H       -5.3400     2.7790     1.8340 H     1 <1>   0.0800 
 44 H       -7.5760     3.5740     0.1580 H     1 <1>   0.1500 
 45 H      -11.3330     1.7850    -0.3000 H     1 <1>   0.0800 
 46 H      -12.2010     0.3810    -0.8630 H     1 <1>   0.0800 
 47 H      -11.3360     1.3930    -2.0070 H     1 <1>   0.0800 
 48 H       -9.2720    -1.6620    -1.5750 H     1 <1>   0.0800 
 49 H      -10.9270    -1.3780    -2.0490 H     1 <1>   0.0800 
 50 H      -10.5580    -1.8610    -0.4020 H     1 <1>   0.0800 
@<TRIPOS>BOND
  1   1   2  1   
  2   2   3  ar  
  3   2   4  ar  
  4   3   5  1   
  5   3   6  ar  
  6   4   7  ar  
  7   4  28  1   
  8   5   8  2   
  9   5   9  2   
 10   5  10  am  
 11   6  11  ar  
 12   6  29  1   
 13   7  11  ar  
 14   7  30  1   
 15  10  12  1   
 16  10  13  1   
 17  11  31  1   
 18  12  14  1   
 19  12  32  1   
 20  12  33  1   
 21  13  15  1   
 22  13  34  1   
 23  13  35  1   
 24  14  16  1   
 25  14  17  1   
 26  14  18  1   
 27  15  17  1   
 28  15  36  1   
 29  15  37  1   
 30  16  19  ar  
 31  16  20  ar  
 32  17  38  1   
 33  17  39  1   
 34  18  21  1   
 35  18  40  1   
 36  18  41  1   
 37  19  22  ar  
 38  20  21  1   
 39  20  23  ar  
 40  21  42  1   
 41  21  43  1   
 42  22  24  ar  
 43  22  25  1   
 44  23  24  ar  
 45  23  44  1   
 46  25  26  1   
 47  25  27  1   
 48  26  45  1   
 49  26  46  1   
 50  26  47  1   
 51  27  48  1   
 52  27  49  1   
 53  27  50  1   
@<TRIPOS>SUBSTRUCTURE
  1 ****  12 GROUP 4 **** **** 0

# MOE 2024.06 (io_trps.svl 2023.06)
