@<TRIPOS>MOLECULE
NONAME
45 48 1 0 0 
SMALL
USER_CHARGES


@<TRIPOS>ATOM
  1 N        0.3510     0.0690     0.8380 N.ar  1 <1>  -0.6200 
  2 C        1.4410    -0.4050     0.2450 C.ar  1 <1>   0.4100 
  3 C       -0.7500    -0.6410     0.6600 C.ar  1 <1>   0.1600 
  4 N        2.6150     0.2990     0.4210 N.pl3 1 <1>  -0.8380 
  5 C        1.4540    -1.5690    -0.5190 C.ar  1 <1>  -0.1500 
  6 C       -0.8310    -1.8080    -0.0800 C.ar  1 <1>  -0.1500 
  7 C        2.5270     1.7820     0.3790 C.3   1 <1>   0.2090 
  8 C        3.5150    -0.2140     1.4790 C.3   1 <1>   0.2090 
  9 C        0.3020    -2.3010    -0.6970 C.ar  1 <1>  -0.1430 
 10 C        3.9180     2.4020     0.1680 C.3   1 <1>  -0.0800 
 11 C        4.9210     0.3510     1.2660 C.3   1 <1>  -0.1600 
 12 C        0.2650    -3.5740    -1.5210 C.3   1 <1>  -0.0970 
 13 C        4.9180     1.8870     1.2240 C.3   1 <1>  -0.1600 
 14 C        3.8030     3.9370     0.1670 C.3   1 <1>   0.0200 
 15 C        5.1190     4.6250    -0.1500 C.2   1 <1>   0.0070 
 16 N        5.5250     4.8740    -1.3460 N.2   1 <1>  -0.5650 
 17 N        5.9780     5.0410     0.8170 N.pl3 1 <1>   0.0330 
 18 C        6.7290     5.4870    -1.1750 C.ar  1 <1>   0.2270 
 19 C        7.0290     5.6000     0.1700 C.ar  1 <1>  -0.1520 
 20 C        7.6220     5.9740    -2.1280 C.ar  1 <1>  -0.1500 
 21 C        8.2160     6.1950     0.6020 C.ar  1 <1>  -0.1500 
 22 C        8.7960     6.5630    -1.7120 C.ar  1 <1>  -0.1500 
 23 C        9.0920     6.6730    -0.3470 C.ar  1 <1>  -0.1500 
 24 H       -1.6420    -0.2710     1.1330 H     1 <1>   0.1500 
 25 H        2.3820    -1.8700    -0.9640 H     1 <1>   0.1500 
 26 H       -1.7700    -2.3220    -0.1710 H     1 <1>   0.1500 
 27 H        2.0990     2.1320     1.3020 H     1 <1>   0.0800 
 28 H        1.8720     2.0710    -0.4260 H     1 <1>   0.0800 
 29 H        3.5430    -1.2890     1.4430 H     1 <1>   0.0800 
 30 H        3.1340     0.0840     2.4410 H     1 <1>   0.0800 
 31 H        4.2630     2.0990    -0.8070 H     1 <1>   0.0800 
 32 H        5.3080    -0.0340     0.3380 H     1 <1>   0.0800 
 33 H        5.5640     0.0110     2.0570 H     1 <1>   0.0800 
 34 H        1.2370    -3.7950    -1.9240 H     1 <1>   0.0800 
 35 H       -0.4280    -3.4630    -2.3360 H     1 <1>   0.0800 
 36 H       -0.0480    -4.3990    -0.9060 H     1 <1>   0.0800 
 37 H        4.6460     2.2640     2.1950 H     1 <1>   0.0800 
 38 H        5.9110     2.2270     0.9900 H     1 <1>   0.0800 
 39 H        3.4320     4.2830     1.1150 H     1 <1>   0.0800 
 40 H        3.0910     4.2310    -0.5850 H     1 <1>   0.0800 
 41 H        5.8650     4.9490     1.8280 H     1 <1>   0.2700 
 42 H        7.3680     5.8750    -3.1670 H     1 <1>   0.1500 
 43 H        8.4340     6.2740     1.6520 H     1 <1>   0.1500 
 44 H        9.4970     6.9440    -2.4350 H     1 <1>   0.1500 
 45 H       10.0160     7.1370    -0.0480 H     1 <1>   0.1500 
@<TRIPOS>BOND
  1   1   2  ar  
  2   1   3  ar  
  3   2   4  1   
  4   2   5  ar  
  5   3   6  ar  
  6   3  24  1   
  7   4   7  1   
  8   4   8  1   
  9   5   9  ar  
 10   5  25  1   
 11   6   9  ar  
 12   6  26  1   
 13   7  10  1   
 14   7  27  1   
 15   7  28  1   
 16   8  11  1   
 17   8  29  1   
 18   8  30  1   
 19   9  12  1   
 20  10  13  1   
 21  10  14  1   
 22  10  31  1   
 23  11  13  1   
 24  11  32  1   
 25  11  33  1   
 26  12  34  1   
 27  12  35  1   
 28  12  36  1   
 29  13  37  1   
 30  13  38  1   
 31  14  15  1   
 32  14  39  1   
 33  14  40  1   
 34  15  16  2   
 35  15  17  1   
 36  16  18  1   
 37  17  19  1   
 38  17  41  1   
 39  18  19  ar  
 40  18  20  ar  
 41  19  21  ar  
 42  20  22  ar  
 43  20  42  1   
 44  21  23  ar  
 45  21  43  1   
 46  22  23  ar  
 47  22  44  1   
 48  23  45  1   
@<TRIPOS>SUBSTRUCTURE
  1 ****  10 GROUP 4 **** **** 0

# MOE 2024.06 (io_trps.svl 2023.06)
