@<TRIPOS>MOLECULE
NONAME
44 46 1 0 0 
SMALL
USER_CHARGES


@<TRIPOS>ATOM
  1 O        0.2490    -0.4600    -1.4340 O.2   1 <1>  -0.5700 
  2 C        1.2310    -0.8320    -0.8330 C.2   1 <1>   0.5690 
  3 N        2.2290     0.0090    -0.4280 N.am  1 <1>  -0.4930 
  4 C        1.3110    -2.3350    -0.5110 C.3   1 <1>   0.4040 
  5 C        2.3050     1.4160    -0.5900 C.2   1 <1>   0.0630 
  6 N       -0.0370    -3.0260    -0.5310 N.4   1 <1>  -0.9590 
  7 C        3.2910     2.2190    -0.1310 C.2   1 <1>  -0.3320 
  8 C        1.4170     2.2810    -1.2330 C.2   1 <1>   0.1390 
  9 C       -0.9290    -2.5440     0.5640 C.3   1 <1>   0.3430 
 10 C        0.0700    -4.5090    -0.5870 C.3   1 <1>   0.3430 
 11 N        2.9640     3.4830    -0.5030 N.pl3 1 <1>   0.3140 
 12 C        4.5530     1.8790     0.6520 C.3   1 <1>  -0.0600 
 13 N        1.8080     3.5170    -1.1810 N.2   1 <1>  -0.7070 
 14 C       -2.3300    -3.1160     0.3650 C.3   1 <1>  -0.1600 
 15 C       -1.3160    -5.1110    -0.8040 C.3   1 <1>  -0.1600 
 16 C        3.7200     4.7160    -0.2410 C.3   1 <1>   0.0160 
 17 C       -2.3270    -4.6490     0.2590 C.3   1 <1>   0.1000 
 18 C       -3.7200    -5.1430    -0.1040 C.2   1 <1>   0.0060 
 19 N       -4.3180    -4.8570    -1.2090 N.2   1 <1>  -0.3380 
 20 N       -4.4830    -5.9220     0.6680 N.pl3 1 <1>   0.0330 
 21 N       -5.5090    -5.4570    -1.1810 N.2   1 <1>  -0.3380 
 22 C       -5.5870    -6.0820    -0.0590 C.2   1 <1>   0.0360 
 23 H        3.0460    -0.3690     0.0490 H     1 <1>   0.3700 
 24 H        1.7680    -2.4620     0.4550 H     1 <1>   0.0800 
 25 H        1.9510    -2.7880    -1.2480 H     1 <1>   0.0800 
 26 H       -0.4900    -2.6970    -1.4050 H     1 <1>   0.4500 
 27 H        0.5080     1.9760    -1.7220 H     1 <1>   0.1500 
 28 H       -0.9850    -1.4660     0.5480 H     1 <1>   0.0800 
 29 H       -0.5410    -2.8540     1.5210 H     1 <1>   0.0800 
 30 H        0.4880    -4.8820     0.3340 H     1 <1>   0.0800 
 31 H        0.7150    -4.8040    -1.4000 H     1 <1>   0.0800 
 32 H        4.6190     0.8250     0.8430 H     1 <1>   0.0800 
 33 H        4.5510     2.3950     1.5970 H     1 <1>   0.0800 
 34 H        5.4240     2.1780     0.0960 H     1 <1>   0.0800 
 35 H       -2.7550    -2.6870    -0.5280 H     1 <1>   0.0800 
 36 H       -2.9560    -2.8140     1.1860 H     1 <1>   0.0800 
 37 H       -1.2450    -6.1840    -0.7850 H     1 <1>   0.0800 
 38 H       -1.6630    -4.8340    -1.7850 H     1 <1>   0.0800 
 39 H        4.6910     4.6380    -0.6920 H     1 <1>   0.0800 
 40 H        3.8130     4.8550     0.8190 H     1 <1>   0.0800 
 41 H        3.1920     5.5490    -0.6680 H     1 <1>   0.0800 
 42 H       -2.0430    -5.0630     1.2120 H     1 <1>   0.0800 
 43 H       -4.2880    -6.3100     1.5930 H     1 <1>   0.2700 
 44 H       -6.4320    -6.6650     0.2620 H     1 <1>   0.1500 
@<TRIPOS>BOND
  1   1   2  2   
  2   2   3  am  
  3   2   4  1   
  4   3   5  1   
  5   3  23  1   
  6   4   6  1   
  7   4  24  1   
  8   4  25  1   
  9   5   7  2   
 10   5   8  1   
 11   6   9  1   
 12   6  10  1   
 13   6  26  1   
 14   7  11  1   
 15   7  12  1   
 16   8  13  2   
 17   8  27  1   
 18   9  14  1   
 19   9  28  1   
 20   9  29  1   
 21  10  15  1   
 22  10  30  1   
 23  10  31  1   
 24  11  13  1   
 25  11  16  1   
 26  12  32  1   
 27  12  33  1   
 28  12  34  1   
 29  14  17  1   
 30  14  35  1   
 31  14  36  1   
 32  15  17  1   
 33  15  37  1   
 34  15  38  1   
 35  16  39  1   
 36  16  40  1   
 37  16  41  1   
 38  17  18  1   
 39  17  42  1   
 40  18  19  2   
 41  18  20  1   
 42  19  21  1   
 43  20  22  1   
 44  20  43  1   
 45  21  22  2   
 46  22  44  1   
@<TRIPOS>SUBSTRUCTURE
  1 ****   6 GROUP 4 **** **** 0

# MOE 2024.06 (io_trps.svl 2023.06)
