@<TRIPOS>MOLECULE
NONAME
51 53 1 0 0 
SMALL
USER_CHARGES


@<TRIPOS>ATOM
  1 F       -1.1930    -1.2020     1.9940 F     1 <1>  -0.1900 
  2 C       -1.9190    -1.3720     0.9220 C.ar  1 <1>   0.1900 
  3 C       -2.4800    -0.2720     0.2940 C.ar  1 <1>  -0.1440 
  4 C       -2.0960    -2.6640     0.4630 C.ar  1 <1>  -0.1500 
  5 C       -3.2430    -0.4970    -0.8410 C.ar  1 <1>  -0.1500 
  6 C       -2.2640     1.1390     0.8230 C.3   1 <1>  -0.0960 
  7 C       -2.8710    -2.8770    -0.6680 C.ar  1 <1>  -0.1430 
  8 C       -3.4350    -1.7850    -1.3180 C.ar  1 <1>  -0.1500 
  9 C       -3.1030    -4.2830    -1.1840 C.3   1 <1>   0.4870 
 10 N       -4.1050    -4.9480    -0.2940 N.4   1 <1>  -0.9590 
 11 C       -4.1570    -6.4420    -0.5130 C.3   1 <1>   0.3430 
 12 C       -5.4390    -4.2800    -0.4330 C.3   1 <1>   0.3430 
 13 C       -5.2780    -7.1800     0.2990 C.3   1 <1>   0.4230 
 14 C       -6.4410    -4.9710     0.4890 C.3   1 <1>  -0.1600 
 15 N       -5.3520    -8.6960     0.0840 N.4   1 <1>  -0.9590 
 16 C       -6.6480    -6.4680     0.1260 C.3   1 <1>   0.0000 
 17 C       -6.6700    -9.3110     0.4770 C.3   1 <1>   0.3430 
 18 C       -4.9780    -9.2080    -1.2800 C.3   1 <1>   0.2630 
 19 C       -7.6830    -7.0640     1.1200 C.3   1 <1>  -0.1600 
 20 C       -7.1520    -6.6400    -1.3400 C.3   1 <1>   0.1200 
 21 C       -7.3510    -8.4970     1.5750 C.3   1 <1>  -0.1600 
 22 O       -7.9780    -5.5990    -1.7150 O.3   1 <1>  -0.6800 
 23 H       -1.6180    -3.4660     0.9970 H     1 <1>   0.1500 
 24 H       -3.6890     0.3350    -1.3620 H     1 <1>   0.1500 
 25 H       -2.7800     1.8640     0.2200 H     1 <1>   0.0800 
 26 H       -1.2150     1.3750     0.8190 H     1 <1>   0.0800 
 27 H       -2.6290     1.2130     1.8330 H     1 <1>   0.0800 
 28 H       -4.0290    -1.9140    -2.2080 H     1 <1>   0.1500 
 29 H       -2.1680    -4.8190    -1.1670 H     1 <1>   0.0800 
 30 H       -3.4610    -4.2490    -2.2010 H     1 <1>   0.0800 
 31 H       -3.7800    -4.7330     0.6610 H     1 <1>   0.4500 
 32 H       -4.3240    -6.6220    -1.5610 H     1 <1>   0.0800 
 33 H       -3.2020    -6.8680    -0.2490 H     1 <1>   0.0800 
 34 H       -5.3630    -3.2370    -0.1630 H     1 <1>   0.0800 
 35 H       -5.7870    -4.3350    -1.4540 H     1 <1>   0.0800 
 36 H       -5.0200    -7.0420     1.3360 H     1 <1>   0.0800 
 37 H       -6.1060    -4.8650     1.5070 H     1 <1>   0.0800 
 38 H       -7.3770    -4.4400     0.4270 H     1 <1>   0.0800 
 39 H       -4.6750    -9.1120     0.7450 H     1 <1>   0.4500 
 40 H       -7.3270    -9.3490    -0.3770 H     1 <1>   0.0800 
 41 H       -6.5170   -10.3240     0.8170 H     1 <1>   0.0800 
 42 H       -5.6560    -8.8300    -2.0290 H     1 <1>   0.0800 
 43 H       -5.0270   -10.2860    -1.2970 H     1 <1>   0.0800 
 44 H       -3.9730    -8.9190    -1.5390 H     1 <1>   0.0800 
 45 H       -7.7600    -6.4570     2.0080 H     1 <1>   0.0800 
 46 H       -8.6630    -7.0510     0.6720 H     1 <1>   0.0800 
 47 H       -7.6960    -7.5590    -1.4760 H     1 <1>   0.0800 
 48 H       -6.3370    -6.6300    -2.0400 H     1 <1>   0.0800 
 49 H       -8.2620    -8.9920     1.8660 H     1 <1>   0.0800 
 50 H       -6.7180    -8.4770     2.4450 H     1 <1>   0.0800 
 51 H       -8.9120    -5.7470    -1.4500 H     1 <1>   0.4000 
@<TRIPOS>BOND
  1   1   2  1   
  2   2   3  ar  
  3   2   4  ar  
  4   3   5  ar  
  5   3   6  1   
  6   4   7  ar  
  7   4  23  1   
  8   5   8  ar  
  9   5  24  1   
 10   6  25  1   
 11   6  26  1   
 12   6  27  1   
 13   7   8  ar  
 14   7   9  1   
 15   8  28  1   
 16   9  10  1   
 17   9  29  1   
 18   9  30  1   
 19  10  11  1   
 20  10  12  1   
 21  10  31  1   
 22  11  13  1   
 23  11  32  1   
 24  11  33  1   
 25  12  14  1   
 26  12  34  1   
 27  12  35  1   
 28  13  15  1   
 29  13  16  1   
 30  13  36  1   
 31  14  16  1   
 32  14  37  1   
 33  14  38  1   
 34  15  17  1   
 35  15  18  1   
 36  15  39  1   
 37  16  19  1   
 38  16  20  1   
 39  17  21  1   
 40  17  40  1   
 41  17  41  1   
 42  18  42  1   
 43  18  43  1   
 44  18  44  1   
 45  19  21  1   
 46  19  45  1   
 47  19  46  1   
 48  20  22  1   
 49  20  47  1   
 50  20  48  1   
 51  21  49  1   
 52  21  50  1   
 53  22  51  1   
@<TRIPOS>SUBSTRUCTURE
  1 ****  10 GROUP 4 **** **** 0

# MOE 2024.06 (io_trps.svl 2023.06)
