@<TRIPOS>MOLECULE
NONAME
55 59 1 0 0 
SMALL
USER_CHARGES


@<TRIPOS>ATOM
  1 O        4.4340    -0.4540     0.8570 O.2   1 <1>  -0.5700 
  2 C        3.3490    -0.8370     0.4630 C.2   1 <1>   0.6160 
  3 N        2.7300    -0.0400    -0.4660 N.am  1 <1>  -0.6600 
  4 C        2.8350    -2.1370     0.8300 C.2   1 <1>   0.0290 
  5 C        2.7490    -0.4410    -1.9050 C.3   1 <1>   0.1400 
  6 C        2.4950     1.4110    -0.2040 C.3   1 <1>   0.1400 
  7 C        1.5110    -2.4790     0.9890 C.2   1 <1>  -0.1690 
  8 C        3.8210    -3.1610     1.0140 C.2   1 <1>   0.3760 
  9 C        4.1750    -0.3470    -2.5000 C.3   1 <1>   0.3430 
 10 C        3.7340     2.2830    -0.4680 C.3   1 <1>  -0.1600 
 11 N        1.2180    -3.8090     1.2420 N.pl3 1 <1>   0.6010 
 12 C        0.3150    -1.5260     0.9240 C.3   1 <1>  -0.1020 
 13 N        3.5630    -4.4010     1.2500 N.2   1 <1>  -0.5760 
 14 N        5.0220     0.6570    -1.7790 N.4   1 <1>  -0.9590 
 15 C        4.4520     2.0310    -1.7950 C.3   1 <1>   0.3430 
 16 N        0.0090    -4.4010     1.3680 N.2   1 <1>  -0.7070 
 17 C        2.2340    -4.7310     1.3530 C.2   1 <1>  -0.0260 
 18 C        6.4580     0.6020    -2.1620 C.3   1 <1>   0.4860 
 19 C        0.2780    -5.6610     1.5650 C.2   1 <1>   0.1390 
 20 C        1.6360    -5.9280     1.5670 C.2   1 <1>  -0.1500 
 21 C        7.2490     1.5020    -1.2320 C.ar  1 <1>  -0.1440 
 22 C        7.3650     1.1810     0.1180 C.ar  1 <1>  -0.1500 
 23 C        7.8480     2.6590    -1.7280 C.ar  1 <1>  -0.1500 
 24 C        8.0660     2.0340     0.9480 C.ar  1 <1>  -0.1440 
 25 C        8.5490     3.5050    -0.8840 C.ar  1 <1>  -0.1500 
 26 C        8.6410     3.1720     0.4530 C.ar  1 <1>   0.0820 
 27 C        8.3500     1.9560     2.4190 C.3   1 <1>  -0.0170 
 28 O        9.2790     3.8880     1.3910 O.3   1 <1>  -0.3620 
 29 C        9.1810     3.2320     2.6480 C.3   1 <1>   0.1200 
 30 H        2.0860     0.1950    -2.4650 H     1 <1>   0.0800 
 31 H        2.3840    -1.4490    -2.0090 H     1 <1>   0.0800 
 32 H        2.1970     1.5370     0.8250 H     1 <1>   0.0800 
 33 H        1.6750     1.7500    -0.8160 H     1 <1>   0.0800 
 34 H        4.8550    -2.8760     0.9360 H     1 <1>   0.0600 
 35 H        4.1130    -0.1050    -3.5480 H     1 <1>   0.0800 
 36 H        4.6360    -1.3180    -2.4170 H     1 <1>   0.0800 
 37 H        4.4340     2.1680     0.3420 H     1 <1>   0.0800 
 38 H        3.4210     3.3110    -0.4470 H     1 <1>   0.0800 
 39 H       -0.3440    -1.7090     1.7570 H     1 <1>   0.0800 
 40 H       -0.2400    -1.6920     0.0180 H     1 <1>   0.0800 
 41 H        0.6080    -0.4960     0.9730 H     1 <1>   0.0800 
 42 H        4.9860     0.3860    -0.7730 H     1 <1>   0.4500 
 43 H        5.2400     2.7600    -1.8990 H     1 <1>   0.0800 
 44 H        3.7710     2.1520    -2.6210 H     1 <1>   0.0800 
 45 H        6.5850     0.9270    -3.1820 H     1 <1>   0.0800 
 46 H        6.8270    -0.4060    -2.0740 H     1 <1>   0.0800 
 47 H       -0.4870    -6.4070     1.7090 H     1 <1>   0.1500 
 48 H        2.1120    -6.8810     1.7070 H     1 <1>   0.1500 
 49 H        6.9240     0.2900     0.5310 H     1 <1>   0.1500 
 50 H        7.7790     2.9160    -2.7710 H     1 <1>   0.1500 
 51 H        9.0200     4.4030    -1.2410 H     1 <1>   0.1500 
 52 H        8.9190     1.0770     2.6640 H     1 <1>   0.0800 
 53 H        7.4430     1.9790     2.9960 H     1 <1>   0.0800 
 54 H       10.1770     3.0000     2.9820 H     1 <1>   0.0800 
 55 H        8.7010     3.9010     3.3390 H     1 <1>   0.0800 
@<TRIPOS>BOND
  1   1   2  2   
  2   2   3  am  
  3   2   4  1   
  4   3   5  1   
  5   3   6  1   
  6   4   7  2   
  7   4   8  1   
  8   5   9  1   
  9   5  30  1   
 10   5  31  1   
 11   6  10  1   
 12   6  32  1   
 13   6  33  1   
 14   7  11  1   
 15   7  12  1   
 16   8  13  2   
 17   8  34  1   
 18   9  14  1   
 19   9  35  1   
 20   9  36  1   
 21  10  15  1   
 22  10  37  1   
 23  10  38  1   
 24  11  16  1   
 25  11  17  1   
 26  12  39  1   
 27  12  40  1   
 28  12  41  1   
 29  13  17  1   
 30  14  15  1   
 31  14  18  1   
 32  14  42  1   
 33  15  43  1   
 34  15  44  1   
 35  16  19  2   
 36  17  20  2   
 37  18  21  1   
 38  18  45  1   
 39  18  46  1   
 40  19  20  1   
 41  19  47  1   
 42  20  48  1   
 43  21  22  ar  
 44  21  23  ar  
 45  22  24  ar  
 46  22  49  1   
 47  23  25  ar  
 48  23  50  1   
 49  24  26  ar  
 50  24  27  1   
 51  25  26  ar  
 52  25  51  1   
 53  26  28  1   
 54  27  29  1   
 55  27  52  1   
 56  27  53  1   
 57  28  29  1   
 58  29  54  1   
 59  29  55  1   
@<TRIPOS>SUBSTRUCTURE
  1 ****   1 GROUP 4 **** **** 0

# MOE 2024.06 (io_trps.svl 2023.06)
