@<TRIPOS>MOLECULE
NONAME
55 59 1 0 0 
SMALL
USER_CHARGES


@<TRIPOS>ATOM
  1 O       -1.8860     1.4250     2.1320 O.2   1 <1>  -0.5700 
  2 C       -2.5130     1.3690     1.0900 C.2   1 <1>   0.7160 
  3 N       -3.6090     0.5520     1.0380 N.am  1 <1>  -0.5100 
  4 C       -2.0840     2.1280    -0.0430 C.2   1 <1>  -0.0860 
  5 C       -3.8280    -0.6830     1.8600 C.3   1 <1>   0.2250 
  6 C       -4.1320    -0.1620    -0.1740 C.3   1 <1>   0.2250 
  7 C       -2.8990     2.9100    -0.8710 C.2   1 <1>   0.3720 
  8 C       -0.8430     2.2850    -0.5790 C.2   1 <1>   0.0870 
  9 C       -3.8050    -1.5010     0.5400 C.3   1 <1>   0.2100 
 10 N       -2.2100     3.4570    -1.8110 N.2   1 <1>  -0.4100 
 11 N       -4.2780     3.1020    -0.7100 N.pl3 1 <1>  -0.8210 
 12 O       -0.9790     3.0740    -1.6140 O.3   1 <1>  -0.0190 
 13 C        0.4620     1.7670    -0.2420 C.ar  1 <1>   0.0530 
 14 N       -4.8560    -2.5340     0.4310 N.3   1 <1>  -0.7500 
 15 C       -4.6810     3.8490     0.5240 C.3   1 <1>   0.2090 
 16 C       -5.0410     3.5870    -1.9060 C.3   1 <1>   0.2090 
 17 C        0.6340     0.5510     0.4220 C.ar  1 <1>  -0.1500 
 18 C        1.6160     2.4720    -0.5870 C.ar  1 <1>  -0.1500 
 19 C       -4.9360    -3.0580    -0.9480 C.3   1 <1>   0.1100 
 20 C       -4.5940    -3.6500     1.3620 C.3   1 <1>   0.1100 
 21 C       -4.6820     5.3710     0.2900 C.3   1 <1>   0.1200 
 22 C       -5.0380     5.1250    -2.0080 C.3   1 <1>   0.1200 
 23 C        1.8910     0.0670     0.7310 C.ar  1 <1>  -0.1500 
 24 C        2.8770     1.9940    -0.2830 C.ar  1 <1>  -0.1500 
 25 C       -5.9640    -4.1980    -1.0500 C.3   1 <1>   0.1200 
 26 C       -5.6320    -4.7730     1.1900 C.3   1 <1>   0.1200 
 27 O       -5.4780     5.7070    -0.8120 O.3   1 <1>  -0.5600 
 28 C        3.0180     0.7880     0.3790 C.ar  1 <1>  -0.1500 
 29 O       -5.6570    -5.2130    -0.1370 O.3   1 <1>  -0.5600 
 30 H       -4.7880    -0.6550     2.3460 H     1 <1>   0.0000 
 31 H       -3.0010    -0.8950     2.5130 H     1 <1>   0.0000 
 32 H       -3.5310     0.0180    -1.0470 H     1 <1>   0.0000 
 33 H       -5.1830     0.0260    -0.3060 H     1 <1>   0.0000 
 34 H       -2.8260    -1.8780     0.2970 H     1 <1>   0.0000 
 35 H       -4.0130     3.6200     1.3340 H     1 <1>   0.0800 
 36 H       -5.6680     3.5360     0.8180 H     1 <1>   0.0800 
 37 H       -6.0580     3.2440    -1.8350 H     1 <1>   0.0800 
 38 H       -4.6200     3.1670    -2.8040 H     1 <1>   0.0800 
 39 H       -0.2230    -0.0310     0.7040 H     1 <1>   0.1500 
 40 H        1.5250     3.4130    -1.1000 H     1 <1>   0.1500 
 41 H       -3.9740    -3.4280    -1.2600 H     1 <1>   0.0800 
 42 H       -5.2270    -2.2680    -1.6180 H     1 <1>   0.0800 
 43 H       -4.6370    -3.2920     2.3760 H     1 <1>   0.0800 
 44 H       -3.6120    -4.0550     1.1880 H     1 <1>   0.0800 
 45 H       -3.6810     5.7240     0.1130 H     1 <1>   0.0800 
 46 H       -5.0820     5.8770     1.1500 H     1 <1>   0.0800 
 47 H       -5.6990     5.4450    -2.7920 H     1 <1>   0.0800 
 48 H       -4.0470     5.4850    -2.2230 H     1 <1>   0.0800 
 49 H        1.9950    -0.8710     1.2480 H     1 <1>   0.1500 
 50 H        3.7500     2.5590    -0.5600 H     1 <1>   0.1500 
 51 H       -5.9490    -4.6280    -2.0360 H     1 <1>   0.0800 
 52 H       -6.9550    -3.8340    -0.8430 H     1 <1>   0.0800 
 53 H       -6.6150    -4.4260     1.4580 H     1 <1>   0.0800 
 54 H       -5.3790    -5.6150     1.8100 H     1 <1>   0.0800 
 55 H        3.9980     0.4130     0.6190 H     1 <1>   0.1500 
@<TRIPOS>BOND
  1   1   2  2   
  2   2   3  am  
  3   2   4  1   
  4   3   5  1   
  5   3   6  1   
  6   4   7  1   
  7   4   8  2   
  8   5   9  1   
  9   5  30  1   
 10   5  31  1   
 11   6   9  1   
 12   6  32  1   
 13   6  33  1   
 14   7  10  2   
 15   7  11  1   
 16   8  12  1   
 17   8  13  1   
 18   9  14  1   
 19   9  34  1   
 20  10  12  1   
 21  11  15  1   
 22  11  16  1   
 23  13  17  ar  
 24  13  18  ar  
 25  14  19  1   
 26  14  20  1   
 27  15  21  1   
 28  15  35  1   
 29  15  36  1   
 30  16  22  1   
 31  16  37  1   
 32  16  38  1   
 33  17  23  ar  
 34  17  39  1   
 35  18  24  ar  
 36  18  40  1   
 37  19  25  1   
 38  19  41  1   
 39  19  42  1   
 40  20  26  1   
 41  20  43  1   
 42  20  44  1   
 43  21  27  1   
 44  21  45  1   
 45  21  46  1   
 46  22  27  1   
 47  22  47  1   
 48  22  48  1   
 49  23  28  ar  
 50  23  49  1   
 51  24  28  ar  
 52  24  50  1   
 53  25  29  1   
 54  25  51  1   
 55  25  52  1   
 56  26  29  1   
 57  26  53  1   
 58  26  54  1   
 59  28  55  1   
@<TRIPOS>SUBSTRUCTURE
  1 ****   2 GROUP 4 **** **** 0

# MOE 2024.06 (io_trps.svl 2023.06)
