@<TRIPOS>MOLECULE
NONAME
41 43 1 0 0 
SMALL
USER_CHARGES


@<TRIPOS>ATOM
  1 S       -1.8370     0.4100     0.3070 S.3   1 <1>  -0.4600 
  2 C       -1.5210    -0.5990    -1.1860 C.3   1 <1>   0.1310 
  3 C       -0.5100    -0.1000     1.4350 C.3   1 <1>  -0.0100 
  4 C       -1.5060    -2.0930    -0.8690 C.2   1 <1>   0.5690 
  5 O       -0.4560    -2.6730    -1.0140 O.2   1 <1>  -0.5700 
  6 N       -2.6330    -2.7540    -0.4460 N.am  1 <1>  -0.6600 
  7 C       -2.6020    -4.2070    -0.0830 C.3   1 <1>   0.1400 
  8 C       -3.9760    -2.1310    -0.2260 C.3   1 <1>   0.1400 
  9 C       -3.7990    -4.9620    -0.6880 C.3   1 <1>   0.3440 
 10 C       -5.1040    -3.0020    -0.8270 C.3   1 <1>   0.2950 
 11 O       -5.0000    -4.3150    -0.3580 O.3   1 <1>  -0.5600 
 12 C       -3.8380    -6.4010    -0.1800 C.ar  1 <1>  -0.1440 
 13 C       -6.5300    -2.5240    -0.4980 C.3   1 <1>  -0.1950 
 14 C       -4.5000    -6.7360     0.9940 C.ar  1 <1>  -0.1500 
 15 C       -3.1870    -7.3980    -0.8930 C.ar  1 <1>  -0.1500 
 16 C       -6.8960    -1.0860    -0.2810 C.3   1 <1>  -0.2000 
 17 C       -6.9610    -2.0630     0.8600 C.3   1 <1>  -0.2000 
 18 C       -4.5100    -8.0440     1.4470 C.ar  1 <1>  -0.1500 
 19 C       -3.1960    -8.7060    -0.4410 C.ar  1 <1>  -0.1500 
 20 C       -3.8580    -9.0300     0.7300 C.ar  1 <1>  -0.1500 
 21 H       -2.2860    -0.3680    -1.9020 H     1 <1>   0.0800 
 22 H       -0.5660    -0.2940    -1.5730 H     1 <1>   0.0800 
 23 H       -0.5900     0.4970     2.3260 H     1 <1>   0.0800 
 24 H        0.4310     0.0690     0.9430 H     1 <1>   0.0800 
 25 H       -0.6440    -1.1430     1.6610 H     1 <1>   0.0800 
 26 H       -1.6920    -4.6650    -0.4270 H     1 <1>   0.0800 
 27 H       -2.6330    -4.3040     0.9880 H     1 <1>   0.0800 
 28 H       -4.1340    -2.0170     0.8310 H     1 <1>   0.0800 
 29 H       -4.0210    -1.1560    -0.6730 H     1 <1>   0.0800 
 30 H       -3.7140    -4.9710    -1.7610 H     1 <1>   0.0800 
 31 H       -4.9940    -3.0220    -1.8980 H     1 <1>   0.0800 
 32 H       -7.2470    -3.1120    -1.0440 H     1 <1>   0.1000 
 33 H       -5.0140    -5.9760     1.5570 H     1 <1>   0.1500 
 34 H       -2.6660    -7.1630    -1.8050 H     1 <1>   0.1500 
 35 H       -6.1440    -0.3180    -0.2370 H     1 <1>   0.1000 
 36 H       -7.8210    -0.7230    -0.6960 H     1 <1>   0.1000 
 37 H       -7.9240    -2.3820     1.2210 H     1 <1>   0.1000 
 38 H       -6.2370    -1.9920     1.6530 H     1 <1>   0.1000 
 39 H       -5.0280    -8.2920     2.3570 H     1 <1>   0.1500 
 40 H       -2.6890    -9.4730    -1.0010 H     1 <1>   0.1500 
 41 H       -3.8660   -10.0470     1.0810 H     1 <1>   0.1500 
@<TRIPOS>BOND
  1   1   2  1   
  2   1   3  1   
  3   2   4  1   
  4   2  21  1   
  5   2  22  1   
  6   3  23  1   
  7   3  24  1   
  8   3  25  1   
  9   4   5  2   
 10   4   6  am  
 11   6   7  1   
 12   6   8  1   
 13   7   9  1   
 14   7  26  1   
 15   7  27  1   
 16   8  10  1   
 17   8  28  1   
 18   8  29  1   
 19   9  11  1   
 20   9  12  1   
 21   9  30  1   
 22  10  11  1   
 23  10  13  1   
 24  10  31  1   
 25  12  14  ar  
 26  12  15  ar  
 27  13  16  1   
 28  13  17  1   
 29  13  32  1   
 30  14  18  ar  
 31  14  33  1   
 32  15  19  ar  
 33  15  34  1   
 34  16  17  1   
 35  16  35  1   
 36  16  36  1   
 37  17  37  1   
 38  17  38  1   
 39  18  20  ar  
 40  18  39  1   
 41  19  20  ar  
 42  19  40  1   
 43  20  41  1   
@<TRIPOS>SUBSTRUCTURE
  1 ****   7 GROUP 4 **** **** 0

# MOE 2024.06 (io_trps.svl 2023.06)
