@<TRIPOS>MOLECULE
NONAME
45 47 1 0 0 
SMALL
USER_CHARGES


@<TRIPOS>ATOM
  1 O        5.2700    -2.0470    -0.2540 O.2   1 <1>  -0.5700 
  2 C        4.0910    -1.8190    -0.0520 C.2   1 <1>   0.5440 
  3 N        3.7820    -0.5370     0.3250 N.am  1 <1>  -0.6600 
  4 C        3.0680    -2.8260    -0.2780 C.ar  1 <1>   0.0860 
  5 C        4.6650     0.1790     1.3230 C.3   1 <1>   0.2200 
  6 C        2.9030     0.2890    -0.5580 C.3   1 <1>   0.1400 
  7 C        1.8060    -2.7430     0.3090 C.ar  1 <1>  -0.1500 
  8 C        3.3050    -3.9280    -1.0980 C.ar  1 <1>  -0.1500 
  9 C        3.9090     1.2230     2.1760 C.3   1 <1>   0.1200 
 10 C        5.9240     0.7970     0.6600 C.3   1 <1>   0.3430 
 11 C        3.5200     1.6680    -0.8800 C.3   1 <1>  -0.0800 
 12 C        0.8320    -3.6970     0.0790 C.ar  1 <1>  -0.1500 
 13 C        2.3320    -4.8800    -1.3280 C.ar  1 <1>  -0.1500 
 14 O        3.0210     2.0370     1.4610 O.3   1 <1>  -0.5600 
 15 N        5.8930     0.6850    -0.8340 N.4   1 <1>  -0.9590 
 16 C        3.4740     2.6610     0.3030 C.3   1 <1>   0.1200 
 17 C        4.9200     1.5920    -1.5240 C.3   1 <1>   0.3430 
 18 C        1.0630    -4.7980    -0.7510 C.ar  1 <1>   0.0860 
 19 C        7.2570     0.7450    -1.4330 C.3   1 <1>   0.2630 
 20 C        0.0690    -5.8170    -1.0220 C.2   1 <1>   0.4230 
 21 O        0.2540    -6.7280    -1.7860 O.2   1 <1>  -0.5700 
 22 C       -1.2820    -5.7760    -0.3330 C.3   1 <1>  -0.1790 
 23 H        5.0320    -0.5580     2.0170 H     1 <1>   0.0800 
 24 H        2.7260    -0.2420    -1.4790 H     1 <1>   0.0800 
 25 H        1.9460     0.4210    -0.0780 H     1 <1>   0.0800 
 26 H        1.5830    -1.9180     0.9640 H     1 <1>   0.1500 
 27 H        4.2710    -4.0400    -1.5630 H     1 <1>   0.1500 
 28 H        4.5990     1.8620     2.7010 H     1 <1>   0.0800 
 29 H        3.3210     0.7070     2.9150 H     1 <1>   0.0800 
 30 H        6.7810     0.2620     1.0340 H     1 <1>   0.0800 
 31 H        6.0330     1.8260     0.9570 H     1 <1>   0.0800 
 32 H        2.8890     2.1080    -1.6320 H     1 <1>   0.0800 
 33 H       -0.1220    -3.5760     0.5600 H     1 <1>   0.1500 
 34 H        2.5550    -5.7170    -1.9710 H     1 <1>   0.1500 
 35 H        5.5410    -0.2920    -0.9580 H     1 <1>   0.4500 
 36 H        2.7640     3.4420     0.0850 H     1 <1>   0.0800 
 37 H        4.4230     3.1280     0.5030 H     1 <1>   0.0800 
 38 H        5.3310     2.5880    -1.5680 H     1 <1>   0.0800 
 39 H        4.8040     1.2500    -2.5390 H     1 <1>   0.0800 
 40 H        7.6920     1.7190    -1.2820 H     1 <1>   0.0800 
 41 H        7.2080     0.5460    -2.4910 H     1 <1>   0.0800 
 42 H        7.8940     0.0040    -0.9780 H     1 <1>   0.0800 
 43 H       -1.1550    -5.7900     0.7330 H     1 <1>   0.0800 
 44 H       -1.8610    -6.6370    -0.6180 H     1 <1>   0.0800 
 45 H       -1.8190    -4.8930    -0.6270 H     1 <1>   0.0800 
@<TRIPOS>BOND
  1   1   2  2   
  2   2   3  am  
  3   2   4  1   
  4   3   5  1   
  5   3   6  1   
  6   4   7  ar  
  7   4   8  ar  
  8   5   9  1   
  9   5  10  1   
 10   5  23  1   
 11   6  11  1   
 12   6  24  1   
 13   6  25  1   
 14   7  12  ar  
 15   7  26  1   
 16   8  13  ar  
 17   8  27  1   
 18   9  14  1   
 19   9  28  1   
 20   9  29  1   
 21  10  15  1   
 22  10  30  1   
 23  10  31  1   
 24  11  16  1   
 25  11  17  1   
 26  11  32  1   
 27  12  18  ar  
 28  12  33  1   
 29  13  18  ar  
 30  13  34  1   
 31  14  16  1   
 32  15  17  1   
 33  15  19  1   
 34  15  35  1   
 35  16  36  1   
 36  16  37  1   
 37  17  38  1   
 38  17  39  1   
 39  18  20  1   
 40  19  40  1   
 41  19  41  1   
 42  19  42  1   
 43  20  21  2   
 44  20  22  1   
 45  22  43  1   
 46  22  44  1   
 47  22  45  1   
@<TRIPOS>SUBSTRUCTURE
  1 ****   2 GROUP 4 **** **** 0

# MOE 2024.06 (io_trps.svl 2023.06)
