@<TRIPOS>MOLECULE
NONAME
43 45 1 0 0 
SMALL
USER_CHARGES


@<TRIPOS>ATOM
  1 S        0.3540     0.9060    -1.0190 S.o2  1 <1>   1.4470 
  2 O        0.0380     2.2620    -0.6160 O.2   1 <1>  -0.6500 
  3 O        0.8200     0.7410    -2.3770 O.2   1 <1>  -0.6500 
  4 N        1.6260     0.4360     0.0070 N.am  1 <1>  -0.8490 
  5 C       -1.0150    -0.2010    -0.6220 C.ar  1 <1>  -0.0090 
  6 C        1.9360     1.2900     1.1880 C.3   1 <1>   0.1960 
  7 C        2.7840    -0.2210    -0.6250 C.3   1 <1>   0.1960 
  8 C       -0.9220    -1.5640    -0.8490 C.ar  1 <1>   0.1900 
  9 C       -2.2050     0.2660    -0.0710 C.ar  1 <1>  -0.1500 
 10 C        2.8770     2.5060     0.9260 C.3   1 <1>   0.4230 
 11 C        3.9080     0.7200    -1.1260 C.3   1 <1>  -0.0800 
 12 F        0.1710    -2.0590    -1.3630 F     1 <1>  -0.1900 
 13 C       -1.9430    -2.4500    -0.5550 C.ar  1 <1>  -0.1500 
 14 C       -3.2430    -0.6020     0.2330 C.ar  1 <1>  -0.1500 
 15 N        2.7620     2.9540    -0.5140 N.4   1 <1>  -0.9590 
 16 C        4.3110     2.2030     1.4420 C.3   1 <1>   0.1200 
 17 C        5.1260     0.7300    -0.1910 C.3   1 <1>   0.1200 
 18 C        3.5220     2.1540    -1.5290 C.3   1 <1>   0.3430 
 19 C       -3.1150    -1.9600    -0.0080 C.ar  1 <1>  -0.1500 
 20 C        3.0780     4.4380    -0.6820 C.3   1 <1>   0.2370 
 21 O        4.7310     0.9090     1.1260 O.3   1 <1>  -0.5600 
 22 C        4.4940     4.8700    -0.2990 C.2   1 <1>   0.9060 
 23 O        5.4190     4.5790    -1.0640 O.co2 1 <1>  -0.9000 
 24 O        4.6600     5.3450     0.8260 O.co2 1 <1>  -0.9000 
 25 H        1.0140     1.6610     1.6020 H     1 <1>   0.0800 
 26 H        2.3690     0.6700     1.9540 H     1 <1>   0.0800 
 27 H        3.2040    -0.9160     0.0830 H     1 <1>   0.0800 
 28 H        2.4410    -0.8200    -1.4530 H     1 <1>   0.0800 
 29 H       -2.3260     1.3190     0.1220 H     1 <1>   0.1500 
 30 H        2.5210     3.3170     1.5390 H     1 <1>   0.0800 
 31 H        4.2770     0.2740    -2.0320 H     1 <1>   0.0800 
 32 H       -1.8200    -3.5010    -0.7520 H     1 <1>   0.1500 
 33 H       -4.1570    -0.2190     0.6580 H     1 <1>   0.1500 
 34 H        1.7580     2.8490    -0.7360 H     1 <1>   0.4500 
 35 H        4.3000     2.2600     2.5160 H     1 <1>   0.0800 
 36 H        5.0490     2.9050     1.1000 H     1 <1>   0.0800 
 37 H        5.8350     1.4990    -0.4580 H     1 <1>   0.0800 
 38 H        5.6280    -0.2210    -0.2370 H     1 <1>   0.0800 
 39 H        2.9340     2.1060    -2.4310 H     1 <1>   0.0800 
 40 H        4.4330     2.6760    -1.7770 H     1 <1>   0.0800 
 41 H       -3.9240    -2.6300     0.2290 H     1 <1>   0.1500 
 42 H        2.9300     4.7220    -1.7070 H     1 <1>   0.0800 
 43 H        2.4060     5.0180    -0.0770 H     1 <1>   0.0800 
@<TRIPOS>BOND
  1   1   2  2   
  2   1   3  2   
  3   1   4  am  
  4   1   5  1   
  5   4   6  1   
  6   4   7  1   
  7   5   8  ar  
  8   5   9  ar  
  9   6  10  1   
 10   6  25  1   
 11   6  26  1   
 12   7  11  1   
 13   7  27  1   
 14   7  28  1   
 15   8  12  1   
 16   8  13  ar  
 17   9  14  ar  
 18   9  29  1   
 19  10  15  1   
 20  10  16  1   
 21  10  30  1   
 22  11  17  1   
 23  11  18  1   
 24  11  31  1   
 25  13  19  ar  
 26  13  32  1   
 27  14  19  ar  
 28  14  33  1   
 29  15  18  1   
 30  15  20  1   
 31  15  34  1   
 32  16  21  1   
 33  16  35  1   
 34  16  36  1   
 35  17  21  1   
 36  17  37  1   
 37  17  38  1   
 38  18  39  1   
 39  18  40  1   
 40  19  41  1   
 41  20  22  1   
 42  20  42  1   
 43  20  43  1   
 44  22  23  ar  
 45  22  24  ar  
@<TRIPOS>SUBSTRUCTURE
  1 ****   4 GROUP 4 **** **** 0

# MOE 2024.06 (io_trps.svl 2023.06)
