@<TRIPOS>MOLECULE
NONAME
42 44 1 0 0 
SMALL
USER_CHARGES


@<TRIPOS>ATOM
  1 F       -2.1970     1.6800    -1.1490 F     1 <1>  -0.1900 
  2 C       -1.3490     2.1670    -0.2840 C.ar  1 <1>   0.1900 
  3 C       -1.7940     2.5970     0.9540 C.ar  1 <1>   0.0860 
  4 C       -0.0140     2.2390    -0.6390 C.ar  1 <1>   0.1600 
  5 C       -3.1750     2.5510     1.3700 C.2   1 <1>   0.5440 
  6 C       -0.7890     3.0740     1.7850 C.ar  1 <1>  -0.1500 
  7 N        0.9370     2.7110     0.1550 N.ar  1 <1>  -0.6200 
  8 O       -3.4840     1.7720     2.2510 O.2   1 <1>  -0.5700 
  9 N       -4.1320     3.3820     0.8260 N.am  1 <1>  -0.6600 
 10 C        0.5250     3.1110     1.3510 C.ar  1 <1>   0.1600 
 11 C       -5.5840     3.2430     1.1650 C.3   1 <1>   0.1400 
 12 C       -3.8590     4.4640    -0.1570 C.3   1 <1>   0.1400 
 13 C       -6.4160     2.9370    -0.1050 C.3   1 <1>   0.0000 
 14 C       -4.6450     4.2000    -1.4470 C.3   1 <1>  -0.1600 
 15 C       -7.9150     2.8260     0.2220 C.3   1 <1>   0.2000 
 16 C       -6.1490     4.0230    -1.1710 C.3   1 <1>  -0.1600 
 17 C       -6.1050     1.5210    -0.6210 C.3   1 <1>  -0.1600 
 18 O       -8.3110     3.8000     1.1410 O.3   1 <1>  -0.5600 
 19 C       -8.1140     1.4130     0.7800 C.3   1 <1>  -0.1600 
 20 C       -6.9450     0.5760     0.2440 C.3   1 <1>  -0.1600 
 21 C       -9.6880     3.9640     1.2660 C.3   1 <1>   0.0400 
 22 H        0.2800     1.8930    -1.6150 H     1 <1>   0.1500 
 23 H       -1.0430     3.4120     2.7740 H     1 <1>   0.1500 
 24 H        1.2800     3.4880     2.0210 H     1 <1>   0.1500 
 25 H       -5.7320     2.4690     1.8980 H     1 <1>   0.0800 
 26 H       -5.9170     4.1660     1.6050 H     1 <1>   0.0800 
 27 H       -4.1710     5.4020     0.2680 H     1 <1>   0.0800 
 28 H       -2.8090     4.5340    -0.3790 H     1 <1>   0.0800 
 29 H       -4.5000     5.0240    -2.1230 H     1 <1>   0.0800 
 30 H       -4.2550     3.3180    -1.9220 H     1 <1>   0.0800 
 31 H       -8.4840     2.9450    -0.6850 H     1 <1>   0.0800 
 32 H       -6.6580     3.7810    -2.0870 H     1 <1>   0.0800 
 33 H       -6.5480     4.9580    -0.8140 H     1 <1>   0.0800 
 34 H       -6.4240     1.4290    -1.6450 H     1 <1>   0.0800 
 35 H       -5.0580     1.2760    -0.5690 H     1 <1>   0.0800 
 36 H       -8.0780     1.4290     1.8560 H     1 <1>   0.0800 
 37 H       -9.0560     1.0080     0.4550 H     1 <1>   0.0800 
 38 H       -6.3500     0.2180     1.0680 H     1 <1>   0.0800 
 39 H       -7.2880    -0.2690    -0.3280 H     1 <1>   0.0800 
 40 H       -9.8660     4.7500     1.9790 H     1 <1>   0.0800 
 41 H      -10.1290     3.0490     1.6210 H     1 <1>   0.0800 
 42 H      -10.1020     4.2410     0.3120 H     1 <1>   0.0800 
@<TRIPOS>BOND
  1   1   2  1   
  2   2   3  ar  
  3   2   4  ar  
  4   3   5  1   
  5   3   6  ar  
  6   4   7  ar  
  7   4  22  1   
  8   5   8  2   
  9   5   9  am  
 10   6  10  ar  
 11   6  23  1   
 12   7  10  ar  
 13   9  11  1   
 14   9  12  1   
 15  10  24  1   
 16  11  13  1   
 17  11  25  1   
 18  11  26  1   
 19  12  14  1   
 20  12  27  1   
 21  12  28  1   
 22  13  15  1   
 23  13  16  1   
 24  13  17  1   
 25  14  16  1   
 26  14  29  1   
 27  14  30  1   
 28  15  18  1   
 29  15  19  1   
 30  15  31  1   
 31  16  32  1   
 32  16  33  1   
 33  17  20  1   
 34  17  34  1   
 35  17  35  1   
 36  18  21  1   
 37  19  20  1   
 38  19  36  1   
 39  19  37  1   
 40  20  38  1   
 41  20  39  1   
 42  21  40  1   
 43  21  41  1   
 44  21  42  1   
@<TRIPOS>SUBSTRUCTURE
  1 ****   9 GROUP 4 **** **** 0

# MOE 2024.06 (io_trps.svl 2023.06)
