@<TRIPOS>MOLECULE
NONAME
44 46 1 0 0 
SMALL
USER_CHARGES


@<TRIPOS>ATOM
  1 CL       3.2100     0.4740     0.8640 Cl    1 <1>  -0.1770 
  2 C        2.8120    -0.8500    -0.2070 C.ar  1 <1>   0.1770 
  3 C        2.9390    -0.7120    -1.5800 C.ar  1 <1>   0.1770 
  4 C        2.3670    -2.0370     0.3460 C.ar  1 <1>  -0.1500 
  5 CL       3.5000     0.7890    -2.2820 Cl    1 <1>  -0.1770 
  6 C        2.6220    -1.7640    -2.4200 C.ar  1 <1>  -0.1500 
  7 C        2.0430    -3.0990    -0.4970 C.ar  1 <1>   0.0830 
  8 C        2.1750    -2.9560    -1.8720 C.ar  1 <1>  -0.1500 
  9 O        1.5940    -4.2980    -0.0540 O.3   1 <1>  -0.3630 
 10 C        1.3880    -4.5480     1.3300 C.3   1 <1>   0.1810 
 11 C        0.8560    -5.9590     1.5720 C.2   1 <1>   0.5690 
 12 O        1.5910    -6.7140     2.1680 O.2   1 <1>  -0.5700 
 13 N       -0.4050    -6.3520     1.1730 N.am  1 <1>  -0.6600 
 14 C       -1.3290    -5.4690     0.3940 C.3   1 <1>   0.2200 
 15 C       -0.8630    -7.7440     1.4810 C.3   1 <1>   0.0600 
 16 C       -1.9270    -6.1270    -0.8480 C.3   1 <1>  -0.1600 
 17 C       -2.5370    -5.0180     1.2080 C.3   1 <1>  -0.1600 
 18 C       -3.1500    -5.2630    -1.1790 C.3   1 <1>  -0.0800 
 19 C       -3.5830    -4.6130     0.1600 C.3   1 <1>  -0.0800 
 20 C       -4.2460    -6.0420    -1.9360 C.3   1 <1>   0.1400 
 21 C       -5.0250    -4.9500     0.5880 C.3   1 <1>  -0.0990 
 22 N       -5.5510    -5.3710    -1.7660 N.am  1 <1>  -0.7300 
 23 C       -5.9650    -4.8500    -0.5920 C.2   1 <1>   0.5690 
 24 O       -7.0440    -4.3300    -0.4790 O.2   1 <1>  -0.5700 
 25 H        2.2870    -2.1040     1.4140 H     1 <1>   0.1500 
 26 H        2.7250    -1.6500    -3.4850 H     1 <1>   0.1500 
 27 H        1.9270    -3.7860    -2.5100 H     1 <1>   0.1500 
 28 H        2.3320    -4.4370     1.8330 H     1 <1>   0.0800 
 29 H        0.6870    -3.8290     1.7110 H     1 <1>   0.0800 
 30 H       -0.8170    -4.5850     0.0610 H     1 <1>   0.0800 
 31 H       -1.9240    -7.7760     1.6410 H     1 <1>   0.0800 
 32 H       -0.3800    -8.1120     2.3700 H     1 <1>   0.0800 
 33 H       -0.6080    -8.3940     0.6620 H     1 <1>   0.0800 
 34 H       -1.2190    -6.1440    -1.6580 H     1 <1>   0.0800 
 35 H       -2.2490    -7.1290    -0.6310 H     1 <1>   0.0800 
 36 H       -2.9080    -5.8300     1.8050 H     1 <1>   0.0800 
 37 H       -2.2870    -4.1930     1.8510 H     1 <1>   0.0800 
 38 H       -2.8200    -4.4680    -1.8260 H     1 <1>   0.0800 
 39 H       -3.5310    -3.5450     0.0230 H     1 <1>   0.0800 
 40 H       -4.3300    -7.0430    -1.5480 H     1 <1>   0.0800 
 41 H       -3.9990    -6.1020    -2.9830 H     1 <1>   0.0800 
 42 H       -5.3490    -4.2800     1.3640 H     1 <1>   0.0800 
 43 H       -5.0820    -5.9550     0.9630 H     1 <1>   0.0800 
 44 H       -6.2000    -5.3360    -2.5550 H     1 <1>   0.3700 
@<TRIPOS>BOND
  1   1   2  1   
  2   2   3  ar  
  3   2   4  ar  
  4   3   5  1   
  5   3   6  ar  
  6   4   7  ar  
  7   4  25  1   
  8   6   8  ar  
  9   6  26  1   
 10   7   8  ar  
 11   7   9  1   
 12   8  27  1   
 13   9  10  1   
 14  10  11  1   
 15  10  28  1   
 16  10  29  1   
 17  11  12  2   
 18  11  13  am  
 19  13  14  1   
 20  13  15  1   
 21  14  16  1   
 22  14  17  1   
 23  14  30  1   
 24  15  31  1   
 25  15  32  1   
 26  15  33  1   
 27  16  18  1   
 28  16  34  1   
 29  16  35  1   
 30  17  19  1   
 31  17  36  1   
 32  17  37  1   
 33  18  19  1   
 34  18  20  1   
 35  18  38  1   
 36  19  21  1   
 37  19  39  1   
 38  20  22  1   
 39  20  40  1   
 40  20  41  1   
 41  21  23  1   
 42  21  42  1   
 43  21  43  1   
 44  22  23  am  
 45  22  44  1   
 46  23  24  2   
@<TRIPOS>SUBSTRUCTURE
  1 ****  14 GROUP 4 **** **** 0

# MOE 2024.06 (io_trps.svl 2023.06)
