@<TRIPOS>MOLECULE
NONAME
42 44 1 0 0 
SMALL
USER_CHARGES


@<TRIPOS>ATOM
  1 S       -0.5520    -0.1640    -0.4400 S.3   1 <1>  -0.0800 
  2 C        0.2220    -1.3640     0.6000 C.2   1 <1>  -0.0130 
  3 C       -1.7700     0.2000     0.7660 C.2   1 <1>  -0.1100 
  4 C        1.3730    -2.0780     0.1110 C.ar  1 <1>   0.0530 
  5 C       -0.4580    -1.4270     1.7720 C.2   1 <1>  -0.1500 
  6 C       -1.5790    -0.5490     1.8660 C.2   1 <1>  -0.1500 
  7 C        1.5700    -3.4140     0.4580 C.ar  1 <1>  -0.1500 
  8 C        2.3240    -1.4740    -0.7120 C.ar  1 <1>  -0.1500 
  9 C        2.6620    -4.1330    -0.0060 C.ar  1 <1>  -0.1440 
 10 C        3.4270    -2.1720    -1.1640 C.ar  1 <1>  -0.1500 
 11 C        3.6050    -3.4970    -0.8070 C.ar  1 <1>   0.0830 
 12 C        2.8810    -5.5920     0.3470 C.3   1 <1>   0.4860 
 13 O        4.6880    -4.1520    -1.2850 O.3   1 <1>  -0.3630 
 14 N        1.6850    -6.4370     0.1310 N.4   1 <1>  -0.9590 
 15 C        5.8470    -4.2770    -0.4440 C.3   1 <1>   0.0140 
 16 C        2.0960    -7.8460     0.4310 C.3   1 <1>   0.3430 
 17 C        1.2130    -6.3250    -1.2860 C.3   1 <1>   0.3430 
 18 C        5.7070    -5.3780     0.6010 C.2   1 <1>   0.9060 
 19 C        0.9780    -8.8400     0.0610 C.3   1 <1>   0.1200 
 20 C        0.1180    -7.3670    -1.5830 C.3   1 <1>   0.1200 
 21 O        5.4220    -5.0700     1.7620 O.co2 1 <1>  -0.9000 
 22 O        5.6530    -6.5610     0.2410 O.co2 1 <1>  -0.9000 
 23 O        0.5610    -8.6570    -1.2650 O.3   1 <1>  -0.5600 
 24 H       -2.5080     0.9440     0.5200 H     1 <1>   0.1500 
 25 H       -0.1990    -2.0700     2.5940 H     1 <1>   0.1500 
 26 H       -2.1870    -0.5160     2.7540 H     1 <1>   0.1500 
 27 H        0.8500    -3.8800     1.1030 H     1 <1>   0.1500 
 28 H        2.2030    -0.4430    -0.9930 H     1 <1>   0.1500 
 29 H        4.1570    -1.6960    -1.7940 H     1 <1>   0.1500 
 30 H        3.2280    -5.6710     1.3660 H     1 <1>   0.0800 
 31 H        3.6530    -5.9720    -0.2960 H     1 <1>   0.0800 
 32 H        0.9560    -6.1330     0.7790 H     1 <1>   0.4500 
 33 H        6.0200    -3.3380     0.0480 H     1 <1>   0.0800 
 34 H        6.6830    -4.5120    -1.0730 H     1 <1>   0.0800 
 35 H        2.3440    -7.9450     1.4750 H     1 <1>   0.0800 
 36 H        2.9810    -8.0940    -0.1360 H     1 <1>   0.0800 
 37 H        2.0400    -6.4930    -1.9570 H     1 <1>   0.0800 
 38 H        0.8350    -5.3330    -1.4720 H     1 <1>   0.0800 
 39 H        0.1270    -8.7200     0.7090 H     1 <1>   0.0800 
 40 H        1.3390    -9.8490     0.1540 H     1 <1>   0.0800 
 41 H       -0.1260    -7.3550    -2.6310 H     1 <1>   0.0800 
 42 H       -0.7750    -7.1590    -1.0200 H     1 <1>   0.0800 
@<TRIPOS>BOND
  1   1   2  1   
  2   1   3  1   
  3   2   4  1   
  4   2   5  2   
  5   3   6  2   
  6   3  24  1   
  7   4   7  ar  
  8   4   8  ar  
  9   5   6  1   
 10   5  25  1   
 11   6  26  1   
 12   7   9  ar  
 13   7  27  1   
 14   8  10  ar  
 15   8  28  1   
 16   9  11  ar  
 17   9  12  1   
 18  10  11  ar  
 19  10  29  1   
 20  11  13  1   
 21  12  14  1   
 22  12  30  1   
 23  12  31  1   
 24  13  15  1   
 25  14  16  1   
 26  14  17  1   
 27  14  32  1   
 28  15  18  1   
 29  15  33  1   
 30  15  34  1   
 31  16  19  1   
 32  16  35  1   
 33  16  36  1   
 34  17  20  1   
 35  17  37  1   
 36  17  38  1   
 37  18  21  ar  
 38  18  22  ar  
 39  19  23  1   
 40  19  39  1   
 41  19  40  1   
 42  20  23  1   
 43  20  41  1   
 44  20  42  1   
@<TRIPOS>SUBSTRUCTURE
  1 ****   9 GROUP 4 **** **** 0

# MOE 2024.06 (io_trps.svl 2023.06)
