@<TRIPOS>MOLECULE
NONAME
49 52 1 0 0 
SMALL
USER_CHARGES


@<TRIPOS>ATOM
  1 F       -0.6800     0.4810     1.8670 F     1 <1>  -0.3400 
  2 C       -1.5970     1.2310     2.4570 C.3   1 <1>   1.0200 
  3 F       -0.9720     2.0270     3.3040 F     1 <1>  -0.3400 
  4 F       -2.3540     0.4110     3.1690 F     1 <1>  -0.3400 
  5 C       -2.4220     2.0010     1.4390 C.3   1 <1>  -0.1600 
  6 C       -3.1110     1.0020     0.5140 C.3   1 <1>   0.3430 
  7 N       -3.8850     1.7000    -0.5560 N.4   1 <1>  -0.9590 
  8 C       -5.1010     2.4080    -0.0100 C.3   1 <1>   0.3430 
  9 C       -4.2890     0.7200    -1.6110 C.3   1 <1>   0.3430 
 10 C       -5.8680     3.1800    -1.0980 C.3   1 <1>   0.1430 
 11 C       -4.9970     1.4460    -2.7590 C.3   1 <1>  -0.1600 
 12 C       -7.1270     3.7440    -0.4850 C.ar  1 <1>   0.1670 
 13 C       -6.2220     2.2410    -2.2700 C.3   1 <1>  -0.1600 
 14 C       -5.1290     4.4580    -1.5790 C.3   1 <1>  -0.1600 
 15 N       -7.9460     3.0690     0.2810 N.ar  1 <1>  -0.6200 
 16 C       -7.3070     5.0520    -0.8100 C.ar  1 <1>  -0.1440 
 17 C       -6.1950     5.5670    -1.6890 C.3   1 <1>  -0.0170 
 18 C       -9.0190     3.7480     0.7190 C.ar  1 <1>   0.6200 
 19 C       -8.4190     5.6800    -0.3130 C.ar  1 <1>   0.1600 
 20 N       -9.2730     5.0360     0.4490 N.ar  1 <1>  -0.6200 
 21 C       -9.9790     3.0330     1.5480 C.ar  1 <1>   0.0000 
 22 C       -9.5890     1.9930     2.3970 C.ar  1 <1>  -0.1500 
 23 C      -11.3390     3.3550     1.5310 C.ar  1 <1>  -0.1500 
 24 C      -10.5030     1.3130     3.1820 C.ar  1 <1>  -0.1500 
 25 C      -12.2580     2.6800     2.3130 C.ar  1 <1>  -0.1500 
 26 C      -11.8420     1.6550     3.1420 C.ar  1 <1>  -0.1500 
 27 H       -1.7610     2.6400     0.8850 H     1 <1>   0.0800 
 28 H       -3.1370     2.5940     1.9770 H     1 <1>   0.0800 
 29 H       -3.7690     0.3660     1.0860 H     1 <1>   0.0800 
 30 H       -2.3590     0.3740     0.0590 H     1 <1>   0.0800 
 31 H       -3.2810     2.3990    -1.0100 H     1 <1>   0.4500 
 32 H       -4.8190     3.1000     0.7650 H     1 <1>   0.0800 
 33 H       -5.7720     1.6850     0.4250 H     1 <1>   0.0800 
 34 H       -4.9570    -0.0150    -1.1900 H     1 <1>   0.0800 
 35 H       -3.4210     0.2080    -1.9950 H     1 <1>   0.0800 
 36 H       -5.3220     0.7170    -3.4820 H     1 <1>   0.0800 
 37 H       -4.3000     2.0950    -3.2590 H     1 <1>   0.0800 
 38 H       -6.6480     2.8050    -3.0830 H     1 <1>   0.0800 
 39 H       -6.9760     1.5440    -1.9410 H     1 <1>   0.0800 
 40 H       -4.6170     4.3250    -2.5160 H     1 <1>   0.0800 
 41 H       -4.4120     4.7650    -0.8370 H     1 <1>   0.0800 
 42 H       -6.5500     5.6610    -2.7010 H     1 <1>   0.0800 
 43 H       -5.8220     6.5170    -1.3450 H     1 <1>   0.0800 
 44 H       -8.6130     6.7160    -0.5380 H     1 <1>   0.1500 
 45 H       -8.5530     1.7130     2.4460 H     1 <1>   0.1500 
 46 H      -11.6830     4.1510     0.8930 H     1 <1>   0.1500 
 47 H      -10.1750     0.5160     3.8270 H     1 <1>   0.1500 
 48 H      -13.2990     2.9530     2.2770 H     1 <1>   0.1500 
 49 H      -12.5550     1.1280     3.7520 H     1 <1>   0.1500 
@<TRIPOS>BOND
  1   1   2  1   
  2   2   3  1   
  3   2   4  1   
  4   2   5  1   
  5   5   6  1   
  6   5  27  1   
  7   5  28  1   
  8   6   7  1   
  9   6  29  1   
 10   6  30  1   
 11   7   8  1   
 12   7   9  1   
 13   7  31  1   
 14   8  10  1   
 15   8  32  1   
 16   8  33  1   
 17   9  11  1   
 18   9  34  1   
 19   9  35  1   
 20  10  12  1   
 21  10  13  1   
 22  10  14  1   
 23  11  13  1   
 24  11  36  1   
 25  11  37  1   
 26  12  15  ar  
 27  12  16  ar  
 28  13  38  1   
 29  13  39  1   
 30  14  17  1   
 31  14  40  1   
 32  14  41  1   
 33  15  18  ar  
 34  16  17  1   
 35  16  19  ar  
 36  17  42  1   
 37  17  43  1   
 38  18  20  ar  
 39  18  21  1   
 40  19  20  ar  
 41  19  44  1   
 42  21  22  ar  
 43  21  23  ar  
 44  22  24  ar  
 45  22  45  1   
 46  23  25  ar  
 47  23  46  1   
 48  24  26  ar  
 49  24  47  1   
 50  25  26  ar  
 51  25  48  1   
 52  26  49  1   
@<TRIPOS>SUBSTRUCTURE
  1 ****   8 GROUP 4 **** **** 0

# MOE 2024.06 (io_trps.svl 2023.06)
