@<TRIPOS>MOLECULE
NONAME
34 35 1 0 0 
SMALL
USER_CHARGES


@<TRIPOS>ATOM
  1 F       -0.8390     2.5190     2.3170 F     1 <1>  -0.1900 
  2 C       -1.5770     2.1430     1.2970 C.ar  1 <1>   0.1900 
  3 C       -1.7640     3.0210     0.2360 C.ar  1 <1>   0.1000 
  4 C       -2.1460     0.8850     1.3070 C.ar  1 <1>   0.1600 
  5 N       -1.2000     4.2950     0.2050 N.pl3 1 <1>  -0.8690 
  6 C       -2.5680     2.5220    -0.7770 C.ar  1 <1>  -0.1500 
  7 N       -2.9100     0.4090     0.3290 N.ar  1 <1>  -0.6200 
  8 C       -0.5030     4.7860    -1.0010 C.3   1 <1>   0.4690 
  9 C       -3.1000     1.2460    -0.6850 C.ar  1 <1>   0.1600 
 10 C        0.9050     5.2770    -0.6560 C.2   1 <1>   0.0070 
 11 C       -1.3690     5.8340    -1.6930 C.3   1 <1>  -0.2400 
 12 N        1.9260     4.6720    -1.1670 N.2   1 <1>  -0.3380 
 13 N        1.2940     6.2980     0.1410 N.pl3 1 <1>   0.0480 
 14 N        3.0200     5.2770    -0.7220 N.2   1 <1>  -0.3380 
 15 C        2.6260     6.2280     0.0440 C.2   1 <1>   0.0370 
 16 C        0.6550     7.3630     0.9740 C.3   1 <1>   0.1760 
 17 C       -0.5290     6.8820     1.8200 C.3   1 <1>  -0.2400 
 18 C        0.2960     8.5860     0.1210 C.3   1 <1>  -0.2400 
 19 H       -1.9660     0.2450     2.1520 H     1 <1>   0.1500 
 20 H       -0.5930     4.4580     1.0160 H     1 <1>   0.4000 
 21 H       -2.7880     3.1260    -1.6360 H     1 <1>   0.1500 
 22 H       -0.3840     3.9610    -1.6840 H     1 <1>   0.0800 
 23 H       -3.7190     0.8900    -1.4900 H     1 <1>   0.1500 
 24 H       -1.7030     6.5790    -1.0020 H     1 <1>   0.0800 
 25 H       -2.2310     5.3630    -2.1260 H     1 <1>   0.0800 
 26 H       -0.8090     6.3020    -2.4810 H     1 <1>   0.0800 
 27 H        3.2890     6.9030     0.5530 H     1 <1>   0.1500 
 28 H        1.4050     7.6860     1.6750 H     1 <1>   0.0800 
 29 H       -1.3990     6.6990     1.2210 H     1 <1>   0.0800 
 30 H       -0.7880     7.6420     2.5350 H     1 <1>   0.0800 
 31 H       -0.2660     5.9930     2.3660 H     1 <1>   0.0800 
 32 H       -0.4560     8.3540    -0.6070 H     1 <1>   0.0800 
 33 H        1.1700     8.9520    -0.3880 H     1 <1>   0.0800 
 34 H       -0.0780     9.3740     0.7500 H     1 <1>   0.0800 
@<TRIPOS>BOND
  1   1   2  1   
  2   2   3  ar  
  3   2   4  ar  
  4   3   5  1   
  5   3   6  ar  
  6   4   7  ar  
  7   4  19  1   
  8   5   8  1   
  9   5  20  1   
 10   6   9  ar  
 11   6  21  1   
 12   7   9  ar  
 13   8  10  1   
 14   8  11  1   
 15   8  22  1   
 16   9  23  1   
 17  10  12  2   
 18  10  13  1   
 19  11  24  1   
 20  11  25  1   
 21  11  26  1   
 22  12  14  1   
 23  13  15  1   
 24  13  16  1   
 25  14  15  2   
 26  15  27  1   
 27  16  17  1   
 28  16  18  1   
 29  16  28  1   
 30  17  29  1   
 31  17  30  1   
 32  17  31  1   
 33  18  32  1   
 34  18  33  1   
 35  18  34  1   
@<TRIPOS>SUBSTRUCTURE
  1 ****   5 GROUP 4 **** **** 0

# MOE 2024.06 (io_trps.svl 2023.06)
