@<TRIPOS>MOLECULE
NONAME
46 48 1 0 0 
SMALL
USER_CHARGES


@<TRIPOS>ATOM
  1 S        0.2920     0.6600    -1.1020 S.o2  1 <1>   1.3330 
  2 O        0.0590     1.4720    -2.2750 O.2   1 <1>  -0.6500 
  3 O        0.2330    -0.7780    -1.2240 O.2   1 <1>  -0.6500 
  4 N        1.8330     1.0400    -0.5020 N.am  1 <1>  -0.8490 
  5 C       -0.8690     1.1570     0.1840 C.3   1 <1>  -0.0550 
  6 C        2.3210     0.0900     0.5040 C.3   1 <1>   0.1160 
  7 C        2.8190     1.1470    -1.5800 C.3   1 <1>   0.1160 
  8 C       -0.9570     2.6440     0.6110 C.3   1 <1>  -0.0800 
  9 C       -1.1470     3.6360    -0.5470 C.3   1 <1>   0.2000 
 10 C        0.2650     3.1550     1.3920 C.3   1 <1>   0.1400 
 11 O       -2.0130     4.6240    -0.1060 O.3   1 <1>  -0.6800 
 12 C        0.2240     4.2780    -0.7590 C.3   1 <1>   0.1400 
 13 N        0.8410     4.2540     0.5860 N.am  1 <1>  -0.6600 
 14 C        1.9440     4.9670     0.9880 C.2   1 <1>   0.7150 
 15 O        2.5030     4.6350     2.0170 O.2   1 <1>  -0.5700 
 16 C        2.4200     6.0930     0.2370 C.2   1 <1>  -0.2370 
 17 N        3.7410     6.2650    -0.0780 N.pl3 1 <1>   0.2940 
 18 C        1.7270     7.1680    -0.2660 C.2   1 <1>  -0.1500 
 19 C        3.8580     7.4280    -0.7660 C.2   1 <1>  -0.3020 
 20 C        4.8580     5.3440     0.2380 C.3   1 <1>  -0.0910 
 21 C        2.6360     8.0080    -0.9000 C.2   1 <1>  -0.1500 
 22 C        5.9200     5.0460    -0.7810 C.3   1 <1>  -0.2000 
 23 C        4.8980     4.0080    -0.4400 C.3   1 <1>  -0.2000 
 24 H       -1.8470     0.8730    -0.1530 H     1 <1>   0.0800 
 25 H       -0.6740     0.5710     1.0610 H     1 <1>   0.0800 
 26 H        3.2580     0.4320     0.9090 H     1 <1>   0.0800 
 27 H        2.4620    -0.8850     0.0670 H     1 <1>   0.0800 
 28 H        1.6160     0.0070     1.3130 H     1 <1>   0.0800 
 29 H        3.7920     1.3690    -1.1770 H     1 <1>   0.0800 
 30 H        2.5440     1.9400    -2.2550 H     1 <1>   0.0800 
 31 H        2.8700     0.2240    -2.1350 H     1 <1>   0.0800 
 32 H       -1.8100     2.7020     1.2660 H     1 <1>   0.0800 
 33 H       -1.5620     3.2050    -1.4430 H     1 <1>   0.0800 
 34 H        1.0040     2.3910     1.5490 H     1 <1>   0.0800 
 35 H       -0.0340     3.5440     2.3510 H     1 <1>   0.0800 
 36 H       -1.5750     5.1230     0.6140 H     1 <1>   0.4000 
 37 H        0.1330     5.2710    -1.1590 H     1 <1>   0.0800 
 38 H        0.8210     3.6840    -1.4260 H     1 <1>   0.0800 
 39 H        0.6700     7.3540    -0.1850 H     1 <1>   0.1500 
 40 H        4.8070     7.7840    -1.1240 H     1 <1>   0.1500 
 41 H        5.1260     5.3890     1.2790 H     1 <1>   0.1000 
 42 H        2.3970     8.9370    -1.3910 H     1 <1>   0.1500 
 43 H        5.8710     5.5160    -1.7480 H     1 <1>   0.1000 
 44 H        6.9310     4.8920    -0.4460 H     1 <1>   0.1000 
 45 H        5.2000     3.1530     0.1390 H     1 <1>   0.1000 
 46 H        4.1290     3.7780    -1.1560 H     1 <1>   0.1000 
@<TRIPOS>BOND
  1   1   2  2   
  2   1   3  2   
  3   1   4  am  
  4   1   5  1   
  5   4   6  1   
  6   4   7  1   
  7   5   8  1   
  8   5  24  1   
  9   5  25  1   
 10   6  26  1   
 11   6  27  1   
 12   6  28  1   
 13   7  29  1   
 14   7  30  1   
 15   7  31  1   
 16   8   9  1   
 17   8  10  1   
 18   8  32  1   
 19   9  11  1   
 20   9  12  1   
 21   9  33  1   
 22  10  13  1   
 23  10  34  1   
 24  10  35  1   
 25  11  36  1   
 26  12  13  1   
 27  12  37  1   
 28  12  38  1   
 29  13  14  am  
 30  14  15  2   
 31  14  16  1   
 32  16  17  1   
 33  16  18  2   
 34  17  19  1   
 35  17  20  1   
 36  18  21  1   
 37  18  39  1   
 38  19  21  2   
 39  19  40  1   
 40  20  22  1   
 41  20  23  1   
 42  20  41  1   
 43  21  42  1   
 44  22  23  1   
 45  22  43  1   
 46  22  44  1   
 47  23  45  1   
 48  23  46  1   
@<TRIPOS>SUBSTRUCTURE
  1 ****  13 GROUP 4 **** **** 0

# MOE 2024.06 (io_trps.svl 2023.06)
