@<TRIPOS>MOLECULE
NONAME
48 50 1 0 0 
SMALL
USER_CHARGES


@<TRIPOS>ATOM
  1 O        1.8260    -0.2490    -2.5870 O.2   1 <1>  -0.5700 
  2 C        2.3260    -0.5930    -1.5360 C.2   1 <1>   0.5440 
  3 N        3.0610     0.3260    -0.8210 N.am  1 <1>  -0.6600 
  4 C        2.1540    -1.9410    -1.0400 C.ar  1 <1>   0.0860 
  5 C        3.1800     0.2340     0.6790 C.3   1 <1>   0.2200 
  6 C        3.7650     1.4070    -1.5740 C.3   1 <1>   0.1400 
  7 C        0.9520    -2.3590    -0.4750 C.ar  1 <1>  -0.1500 
  8 C        3.2050    -2.8520    -1.0790 C.ar  1 <1>  -0.1500 
  9 C        2.8370     1.5610     1.3730 C.3   1 <1>   0.1200 
 10 C        4.5630    -0.2920     1.1240 C.3   1 <1>   0.3430 
 11 C        4.8480     2.1660    -0.7850 C.3   1 <1>  -0.0800 
 12 C        0.8030    -3.6260     0.0660 C.ar  1 <1>  -0.1440 
 13 C        3.0690    -4.1180    -0.5440 C.ar  1 <1>  -0.1500 
 14 O        3.9520     2.3980     1.4500 O.3   1 <1>  -0.5600 
 15 N        5.6210    -0.0970     0.0910 N.4   1 <1>  -0.9590 
 16 C        4.2570     3.0940     0.2870 C.3   1 <1>   0.1200 
 17 C        6.0030     1.3010    -0.2440 C.3   1 <1>   0.3430 
 18 C        1.8740    -4.5130     0.0370 C.ar  1 <1>  -0.1430 
 19 C       -0.5370    -4.0200     0.6700 C.3   1 <1>  -0.0970 
 20 C        6.8330    -0.9860     0.2710 C.3   1 <1>   0.2370 
 21 C        1.7640    -5.9170     0.6150 C.3   1 <1>  -0.0970 
 22 C        7.2460    -1.6020    -1.0660 C.2   1 <1>   0.9060 
 23 O        8.3530    -2.1200    -1.1880 O.co2 1 <1>  -0.9000 
 24 O        6.4100    -1.5100    -1.9780 O.co2 1 <1>  -0.9000 
 25 H        2.4450    -0.4670     1.0320 H     1 <1>   0.0800 
 26 H        4.2210     0.9620    -2.4450 H     1 <1>   0.0800 
 27 H        3.0260     2.1050    -1.9310 H     1 <1>   0.0800 
 28 H        0.1280    -1.6680    -0.4700 H     1 <1>   0.1500 
 29 H        4.1350    -2.5670    -1.5450 H     1 <1>   0.1500 
 30 H        2.5390     1.3600     2.3870 H     1 <1>   0.0800 
 31 H        2.0260     2.0680     0.8780 H     1 <1>   0.0800 
 32 H        4.4630    -1.3470     1.3200 H     1 <1>   0.0800 
 33 H        4.8520     0.1860     2.0450 H     1 <1>   0.0800 
 34 H        5.2980     2.8320    -1.4980 H     1 <1>   0.0800 
 35 H        3.9040    -4.7960    -0.5940 H     1 <1>   0.1500 
 36 H        5.2400    -0.4780    -0.8100 H     1 <1>   0.4500 
 37 H        3.3730     3.5990    -0.0660 H     1 <1>   0.0800 
 38 H        4.9830     3.8410     0.5570 H     1 <1>   0.0800 
 39 H        6.4310     1.7780     0.6220 H     1 <1>   0.0800 
 40 H        6.7650     1.2580    -1.0070 H     1 <1>   0.0800 
 41 H       -1.2480    -3.2160     0.5960 H     1 <1>   0.0800 
 42 H       -0.4170    -4.2690     1.7090 H     1 <1>   0.0800 
 43 H       -0.9390    -4.8700     0.1500 H     1 <1>   0.0800 
 44 H        7.6640    -0.4330     0.6680 H     1 <1>   0.0800 
 45 H        6.6070    -1.7990     0.9350 H     1 <1>   0.0800 
 46 H        2.6930    -6.4490     0.5160 H     1 <1>   0.0800 
 47 H        1.0030    -6.4700     0.0930 H     1 <1>   0.0800 
 48 H        1.5120    -5.8700     1.6580 H     1 <1>   0.0800 
@<TRIPOS>BOND
  1   1   2  2   
  2   2   3  am  
  3   2   4  1   
  4   3   5  1   
  5   3   6  1   
  6   4   7  ar  
  7   4   8  ar  
  8   5   9  1   
  9   5  10  1   
 10   5  25  1   
 11   6  11  1   
 12   6  26  1   
 13   6  27  1   
 14   7  12  ar  
 15   7  28  1   
 16   8  13  ar  
 17   8  29  1   
 18   9  14  1   
 19   9  30  1   
 20   9  31  1   
 21  10  15  1   
 22  10  32  1   
 23  10  33  1   
 24  11  16  1   
 25  11  17  1   
 26  11  34  1   
 27  12  18  ar  
 28  12  19  1   
 29  13  18  ar  
 30  13  35  1   
 31  14  16  1   
 32  15  17  1   
 33  15  20  1   
 34  15  36  1   
 35  16  37  1   
 36  16  38  1   
 37  17  39  1   
 38  17  40  1   
 39  18  21  1   
 40  19  41  1   
 41  19  42  1   
 42  19  43  1   
 43  20  22  1   
 44  20  44  1   
 45  20  45  1   
 46  21  46  1   
 47  21  47  1   
 48  21  48  1   
 49  22  23  ar  
 50  22  24  ar  
@<TRIPOS>SUBSTRUCTURE
  1 ****   3 GROUP 4 **** **** 0

# MOE 2024.06 (io_trps.svl 2023.06)
