@<TRIPOS>MOLECULE
NONAME
47 48 1 0 0 
SMALL
USER_CHARGES


@<TRIPOS>ATOM
  1 S        0.6210     0.5710    -1.5270 S.o2  1 <1>   1.3330 
  2 O        0.7620    -0.7760    -2.0330 O.2   1 <1>  -0.6500 
  3 O       -0.0210     1.5760    -2.3420 O.2   1 <1>  -0.6500 
  4 N       -0.2430     0.4870    -0.0660 N.am  1 <1>  -0.8490 
  5 C        2.2460     1.1520    -1.0340 C.3   1 <1>  -0.0550 
  6 C       -1.3630    -0.4550    -0.1440 C.3   1 <1>   0.1160 
  7 C       -0.7250     1.7930     0.3990 C.3   1 <1>   0.1160 
  8 C        3.0740     0.1220    -0.2350 C.3   1 <1>  -0.0800 
  9 C        4.4970     0.5540     0.0810 C.3   1 <1>   0.2200 
 10 C        2.5180    -0.2280     1.1500 C.3   1 <1>   0.1200 
 11 N        4.5310     1.9650     0.5210 N.am  1 <1>  -0.7300 
 12 C        4.8100    -0.3480     1.2670 C.3   1 <1>   0.1200 
 13 O        3.6170    -0.4480     1.9860 O.3   1 <1>  -0.5600 
 14 C        4.9120     3.0510    -0.2130 C.2   1 <1>   0.7160 
 15 O        5.2690     2.8580    -1.3630 O.2   1 <1>  -0.5700 
 16 C        4.8420     4.3720     0.4020 C.2   1 <1>   0.2030 
 17 N        4.3430     4.5860     1.6100 N.2   1 <1>  -0.7070 
 18 C        5.2720     5.5900    -0.1610 C.2   1 <1>  -0.1810 
 19 N        4.4570     5.9030     1.8140 N.pl3 1 <1>   0.3000 
 20 C        5.0140     6.5380     0.7650 C.2   1 <1>  -0.3320 
 21 C        5.8940     5.7660    -1.5380 C.3   1 <1>  -0.0590 
 22 C        5.2530     8.0390     0.7550 C.3   1 <1>   0.0200 
 23 C        3.9260     8.7900     0.6440 C.3   1 <1>  -0.2400 
 24 H        2.7970     1.4000    -1.9220 H     1 <1>   0.0800 
 25 H        2.1380     2.0550    -0.4670 H     1 <1>   0.0800 
 26 H       -1.8810    -0.4980     0.7980 H     1 <1>   0.0800 
 27 H       -0.9990    -1.4420    -0.3730 H     1 <1>   0.0800 
 28 H       -2.0520    -0.1530    -0.9160 H     1 <1>   0.0800 
 29 H       -1.1930     1.6920     1.3640 H     1 <1>   0.0800 
 30 H       -1.4410     2.2010    -0.2960 H     1 <1>   0.0800 
 31 H        0.0960     2.4830     0.4930 H     1 <1>   0.0800 
 32 H        3.1240    -0.7900    -0.8040 H     1 <1>   0.0800 
 33 H        5.1750     0.3960    -0.7420 H     1 <1>   0.0800 
 34 H        1.9090    -1.1160     1.1260 H     1 <1>   0.0800 
 35 H        1.9540     0.5870     1.5690 H     1 <1>   0.0800 
 36 H        4.2180     2.1550     1.4790 H     1 <1>   0.3700 
 37 H        5.5840     0.0480     1.9010 H     1 <1>   0.0800 
 38 H        5.0760    -1.3360     0.9350 H     1 <1>   0.0800 
 39 H        4.1460     6.3550     2.6820 H     1 <1>   0.2700 
 40 H        6.7930     5.1810    -1.6090 H     1 <1>   0.0800 
 41 H        6.1370     6.7930    -1.7300 H     1 <1>   0.0800 
 42 H        5.2060     5.4310    -2.2930 H     1 <1>   0.0800 
 43 H        5.7650     8.3300     1.6560 H     1 <1>   0.0800 
 44 H        5.8810     8.3090    -0.0740 H     1 <1>   0.0800 
 45 H        3.2940     8.5740     1.4860 H     1 <1>   0.0800 
 46 H        3.4140     8.4980    -0.2560 H     1 <1>   0.0800 
 47 H        4.1040     9.8500     0.6100 H     1 <1>   0.0800 
@<TRIPOS>BOND
  1   1   2  2   
  2   1   3  2   
  3   1   4  am  
  4   1   5  1   
  5   4   6  1   
  6   4   7  1   
  7   5   8  1   
  8   5  24  1   
  9   5  25  1   
 10   6  26  1   
 11   6  27  1   
 12   6  28  1   
 13   7  29  1   
 14   7  30  1   
 15   7  31  1   
 16   8   9  1   
 17   8  10  1   
 18   8  32  1   
 19   9  11  1   
 20   9  12  1   
 21   9  33  1   
 22  10  13  1   
 23  10  34  1   
 24  10  35  1   
 25  11  14  am  
 26  11  36  1   
 27  12  13  1   
 28  12  37  1   
 29  12  38  1   
 30  14  15  2   
 31  14  16  1   
 32  16  17  2   
 33  16  18  1   
 34  17  19  1   
 35  18  20  2   
 36  18  21  1   
 37  19  20  1   
 38  19  39  1   
 39  20  22  1   
 40  21  40  1   
 41  21  41  1   
 42  21  42  1   
 43  22  23  1   
 44  22  43  1   
 45  22  44  1   
 46  23  45  1   
 47  23  46  1   
 48  23  47  1   
@<TRIPOS>SUBSTRUCTURE
  1 ****  11 GROUP 4 **** **** 0

# MOE 2024.06 (io_trps.svl 2023.06)
