@<TRIPOS>MOLECULE
NONAME
50 51 1 0 0 
SMALL
USER_CHARGES


@<TRIPOS>ATOM
  1 S        1.3590     1.0810    -1.7030 S.o2  1 <1>   1.3330 
  2 O        1.0960     2.0610    -2.7320 O.2   1 <1>  -0.6500 
  3 O        1.2170    -0.3270    -2.0010 O.2   1 <1>  -0.6500 
  4 N        0.3360     1.4420    -0.3950 N.am  1 <1>  -0.8490 
  5 C        3.0050     1.3470    -1.0400 C.3   1 <1>  -0.0550 
  6 C       -0.9630     0.7720    -0.5130 C.3   1 <1>   0.1160 
  7 C        0.1320     2.8830    -0.1960 C.3   1 <1>   0.1160 
  8 C        3.4600     0.2850    -0.0150 C.3   1 <1>  -0.0800 
  9 C        4.8900     0.4460     0.4780 C.3   1 <1>   0.2200 
 10 C        2.6590     0.2450     1.2920 C.3   1 <1>   0.1200 
 11 N        5.1780     1.8650     0.7910 N.am  1 <1>  -0.7300 
 12 C        4.8240    -0.3400     1.7790 C.3   1 <1>   0.1200 
 13 O        3.5690    -0.0470     2.3140 O.3   1 <1>  -0.5600 
 14 C        5.8580     2.7190    -0.0080 C.2   1 <1>   0.5690 
 15 O        6.3010     2.3790    -1.0760 O.2   1 <1>  -0.5700 
 16 C        6.0100     4.1520     0.4360 C.3   1 <1>  -0.0990 
 17 C        4.9420     5.0270    -0.2240 C.3   1 <1>   0.0210 
 18 C        4.9700     6.4240     0.3600 C.2   1 <1>   0.1080 
 19 N        4.3380     6.7120     1.4530 N.2   1 <1>  -0.7070 
 20 C        5.6490     7.5210    -0.1680 C.2   1 <1>  -0.1810 
 21 N        4.5960     8.0170     1.6560 N.pl3 1 <1>   0.3000 
 22 C        5.3870     8.5310     0.6910 C.2   1 <1>  -0.3320 
 23 C        6.4890     7.5260    -1.4330 C.3   1 <1>  -0.0590 
 24 C        5.8290     9.9850     0.6840 C.3   1 <1>  -0.0600 
 25 H        3.7020     1.3360    -1.8560 H     1 <1>   0.0800 
 26 H        3.0480     2.3220    -0.6000 H     1 <1>   0.0800 
 27 H       -1.5820     1.0070     0.3360 H     1 <1>   0.0800 
 28 H       -0.8260    -0.2960    -0.5440 H     1 <1>   0.0800 
 29 H       -1.4630     1.0830    -1.4150 H     1 <1>   0.0800 
 30 H       -0.4540     3.0540     0.6910 H     1 <1>   0.0800 
 31 H       -0.3790     3.3130    -1.0420 H     1 <1>   0.0800 
 32 H        1.0780     3.3820    -0.0750 H     1 <1>   0.0800 
 33 H        3.3760    -0.6850    -0.4750 H     1 <1>   0.0800 
 34 H        5.6200     0.0500    -0.2090 H     1 <1>   0.0800 
 35 H        1.8950    -0.5130     1.2710 H     1 <1>   0.0800 
 36 H        2.2170     1.2000     1.5190 H     1 <1>   0.0800 
 37 H        4.7830     2.1820     1.6810 H     1 <1>   0.3700 
 38 H        5.5930    -0.0600     2.4770 H     1 <1>   0.0800 
 39 H        4.8640    -1.3980     1.5900 H     1 <1>   0.0800 
 40 H        5.9170     4.2130     1.5050 H     1 <1>   0.0800 
 41 H        6.9880     4.5050     0.1650 H     1 <1>   0.0800 
 42 H        3.9670     4.6090    -0.0470 H     1 <1>   0.0800 
 43 H        5.0990     5.0640    -1.2870 H     1 <1>   0.0800 
 44 H        4.2170     8.5270     2.4620 H     1 <1>   0.2700 
 45 H        7.2500     6.7700    -1.3700 H     1 <1>   0.0800 
 46 H        6.9650     8.4770    -1.5760 H     1 <1>   0.0800 
 47 H        5.8650     7.3230    -2.2850 H     1 <1>   0.0800 
 48 H        6.4380    10.1970    -0.1750 H     1 <1>   0.0800 
 49 H        6.4020    10.2010     1.5680 H     1 <1>   0.0800 
 50 H        4.9700    10.6320     0.6560 H     1 <1>   0.0800 
@<TRIPOS>BOND
  1   1   2  2   
  2   1   3  2   
  3   1   4  am  
  4   1   5  1   
  5   4   6  1   
  6   4   7  1   
  7   5   8  1   
  8   5  25  1   
  9   5  26  1   
 10   6  27  1   
 11   6  28  1   
 12   6  29  1   
 13   7  30  1   
 14   7  31  1   
 15   7  32  1   
 16   8   9  1   
 17   8  10  1   
 18   8  33  1   
 19   9  11  1   
 20   9  12  1   
 21   9  34  1   
 22  10  13  1   
 23  10  35  1   
 24  10  36  1   
 25  11  14  am  
 26  11  37  1   
 27  12  13  1   
 28  12  38  1   
 29  12  39  1   
 30  14  15  2   
 31  14  16  1   
 32  16  17  1   
 33  16  40  1   
 34  16  41  1   
 35  17  18  1   
 36  17  42  1   
 37  17  43  1   
 38  18  19  2   
 39  18  20  1   
 40  19  21  1   
 41  20  22  2   
 42  20  23  1   
 43  21  22  1   
 44  21  44  1   
 45  22  24  1   
 46  23  45  1   
 47  23  46  1   
 48  23  47  1   
 49  24  48  1   
 50  24  49  1   
 51  24  50  1   
@<TRIPOS>SUBSTRUCTURE
  1 ****  17 GROUP 4 **** **** 0

# MOE 2024.06 (io_trps.svl 2023.06)
