@<TRIPOS>MOLECULE
NONAME
51 53 1 0 0 
SMALL
USER_CHARGES


@<TRIPOS>ATOM
  1 O        0.3150    -0.1790     0.5150 O.2   1 <1>  -0.5700 
  2 C        1.2120    -0.7790    -0.0440 C.2   1 <1>   0.5440 
  3 N        2.4310    -0.1590    -0.2310 N.am  1 <1>  -0.6600 
  4 C        0.9640    -2.1340    -0.4910 C.ar  1 <1>   0.0860 
  5 C        3.6960    -0.8870    -0.5340 C.3   1 <1>   0.1400 
  6 C        2.6190     1.2930     0.0530 C.3   1 <1>   0.1400 
  7 C        0.5070    -3.1160     0.3660 C.ar  1 <1>  -0.1500 
  8 C        1.1540    -2.5410    -1.8050 C.ar  1 <1>  -0.1500 
  9 C        4.6780    -0.7240     0.6320 C.3   1 <1>  -0.1600 
 10 C        3.5880     1.4700     1.2260 C.3   1 <1>  -0.1600 
 11 C        0.2800    -4.4080    -0.0830 C.ar  1 <1>   0.4100 
 12 C        0.9000    -3.8480    -2.1660 C.ar  1 <1>   0.1600 
 13 C        4.9210     0.7540     0.9700 C.3   1 <1>  -0.1600 
 14 N        0.4680    -4.7860    -1.3410 N.ar  1 <1>  -0.6200 
 15 N       -0.1690    -5.3500     0.8130 N.pl3 1 <1>  -0.8690 
 16 C       -0.5770    -6.7340     0.3900 C.3   1 <1>   0.3500 
 17 C       -2.0010    -6.7540    -0.2170 C.2   1 <1>   0.5690 
 18 C       -0.3930    -7.6880     1.5780 C.3   1 <1>  -0.0170 
 19 O       -2.9560    -7.1510     0.4090 O.2   1 <1>  -0.5700 
 20 N       -2.1850    -6.2560    -1.4570 N.am  1 <1>  -0.8000 
 21 C       -0.3150    -9.1370     1.1160 C.ar  1 <1>  -0.1440 
 22 C       -1.4520    -9.9320     1.0890 C.ar  1 <1>  -0.1500 
 23 C        0.9010    -9.6710     0.7150 C.ar  1 <1>  -0.1500 
 24 C       -1.3750   -11.2470     0.6640 C.ar  1 <1>  -0.1500 
 25 C        0.9840   -10.9860     0.2890 C.ar  1 <1>  -0.1500 
 26 C       -0.1580   -11.7700     0.2660 C.ar  1 <1>   0.0820 
 27 O       -0.0930   -13.0450    -0.1430 O.3   1 <1>  -0.5330 
 28 H        3.5140    -1.9350    -0.6910 H     1 <1>   0.0800 
 29 H        4.1270    -0.4800    -1.4330 H     1 <1>   0.0800 
 30 H        3.0160     1.7710    -0.8250 H     1 <1>   0.0800 
 31 H        1.6780     1.7620     0.2860 H     1 <1>   0.0800 
 32 H        0.3270    -2.8730     1.3960 H     1 <1>   0.1500 
 33 H        1.4970    -1.8300    -2.5350 H     1 <1>   0.1500 
 34 H        4.2800    -1.2310     1.4940 H     1 <1>   0.0800 
 35 H        5.6120    -1.1940     0.3790 H     1 <1>   0.0800 
 36 H        3.7640     2.5190     1.3850 H     1 <1>   0.0800 
 37 H        3.1260     1.0780     2.1150 H     1 <1>   0.0800 
 38 H        1.0600    -4.1390    -3.1910 H     1 <1>   0.1500 
 39 H        5.4310     1.2300     0.1500 H     1 <1>   0.0800 
 40 H        5.5470     0.8290     1.8420 H     1 <1>   0.0800 
 41 H       -0.7790    -4.9810     1.5460 H     1 <1>   0.4000 
 42 H        0.0990    -7.0640    -0.3790 H     1 <1>   0.0800 
 43 H        0.5240    -7.4440     2.0830 H     1 <1>   0.0800 
 44 H       -1.1990    -7.5660     2.2800 H     1 <1>   0.0800 
 45 H       -3.1200    -6.1800    -1.8530 H     1 <1>   0.3700 
 46 H       -1.4280    -5.7330    -1.9130 H     1 <1>   0.3700 
 47 H       -2.4040    -9.5300     1.3930 H     1 <1>   0.1500 
 48 H        1.7900    -9.0640     0.7310 H     1 <1>   0.1500 
 49 H       -2.2530   -11.8660     0.6390 H     1 <1>   0.1500 
 50 H        1.9300   -11.3890    -0.0190 H     1 <1>   0.1500 
 51 H        0.8040   -13.3130    -0.4080 H     1 <1>   0.4500 
@<TRIPOS>BOND
  1   1   2  2   
  2   2   3  am  
  3   2   4  1   
  4   3   5  1   
  5   3   6  1   
  6   4   7  ar  
  7   4   8  ar  
  8   5   9  1   
  9   5  28  1   
 10   5  29  1   
 11   6  10  1   
 12   6  30  1   
 13   6  31  1   
 14   7  11  ar  
 15   7  32  1   
 16   8  12  ar  
 17   8  33  1   
 18   9  13  1   
 19   9  34  1   
 20   9  35  1   
 21  10  13  1   
 22  10  36  1   
 23  10  37  1   
 24  11  14  ar  
 25  11  15  1   
 26  12  14  ar  
 27  12  38  1   
 28  13  39  1   
 29  13  40  1   
 30  15  16  1   
 31  15  41  1   
 32  16  17  1   
 33  16  18  1   
 34  16  42  1   
 35  17  19  2   
 36  17  20  am  
 37  18  21  1   
 38  18  43  1   
 39  18  44  1   
 40  20  45  1   
 41  20  46  1   
 42  21  22  ar  
 43  21  23  ar  
 44  22  24  ar  
 45  22  47  1   
 46  23  25  ar  
 47  23  48  1   
 48  24  26  ar  
 49  24  49  1   
 50  25  26  ar  
 51  25  50  1   
 52  26  27  1   
 53  27  51  1   
@<TRIPOS>SUBSTRUCTURE
  1 ****  11 GROUP 4 **** **** 0

# MOE 2024.06 (io_trps.svl 2023.06)
