@<TRIPOS>MOLECULE
NONAME
49 52 1 0 0 
SMALL
USER_CHARGES


@<TRIPOS>ATOM
  1 O       -0.2020     1.3260     1.6610 O.3   1 <1>  -0.0190 
  2 N       -0.7660     0.1730     1.8480 N.2   1 <1>  -0.4100 
  3 C       -0.8810     1.8570     0.6720 C.2   1 <1>   0.2980 
  4 C       -1.7140     0.0820     1.0050 C.2   1 <1>   0.3350 
  5 N       -1.8390     1.1440     0.2260 N.2   1 <1>  -0.5650 
  6 C       -0.4910     3.2510     0.1850 C.3   1 <1>   0.2900 
  7 C       -2.6410    -1.1000     0.8600 C.3   1 <1>  -0.0590 
  8 N        0.6690     3.2840    -0.7400 N.3   1 <1>  -0.8100 
  9 C        1.9160     2.7970    -0.0960 C.3   1 <1>   0.1100 
 10 C        0.8650     4.6650    -1.2500 C.3   1 <1>   0.1100 
 11 C        3.1430     2.8860    -1.0260 C.3   1 <1>   0.2090 
 12 C        2.0630     4.7710    -2.2080 C.3   1 <1>   0.2090 
 13 N        3.3010     4.2720    -1.5400 N.pl3 1 <1>  -0.7880 
 14 C        4.2290     5.1340    -1.0410 C.2   1 <1>   0.4860 
 15 N        3.8120     6.3340    -0.6670 N.2   1 <1>  -0.6210 
 16 C        5.5770     4.7470    -0.9240 C.2   1 <1>  -0.1360 
 17 C        4.7070     7.1980    -0.2040 C.2   1 <1>   0.2710 
 18 C        6.4830     5.6240    -0.4280 C.2   1 <1>  -0.0380 
 19 N        6.0210     6.8430    -0.0760 N.pl3 1 <1>  -0.6000 
 20 C        4.3060     8.4940     0.2050 C.2   1 <1>   0.0140 
 21 C        7.9590     5.3330    -0.2600 C.3   1 <1>  -0.1020 
 22 C        3.5210     9.3480    -0.6160 C.2   1 <1>   0.5410 
 23 C        4.6840     8.9760     1.4730 C.2   1 <1>  -0.1500 
 24 O        3.1590     9.0570    -1.7750 O.2   1 <1>  -0.5700 
 25 C        3.1490    10.6170    -0.1210 C.2   1 <1>  -0.1360 
 26 C        4.3150    10.2190     1.9240 C.2   1 <1>  -0.1500 
 27 C        3.5350    11.0510     1.1170 C.2   1 <1>  -0.1500 
 28 H       -0.2920     3.8730     1.0400 H     1 <1>   0.0800 
 29 H       -1.3450     3.6590    -0.3260 H     1 <1>   0.0800 
 30 H       -2.3840    -1.8610     1.5730 H     1 <1>   0.0800 
 31 H       -2.5560    -1.5020    -0.1320 H     1 <1>   0.0800 
 32 H       -3.6540    -0.7850     1.0280 H     1 <1>   0.0800 
 33 H        1.7960     1.7670     0.1910 H     1 <1>   0.0800 
 34 H        2.1180     3.3730     0.7910 H     1 <1>   0.0800 
 35 H        1.0340     5.3420    -0.4290 H     1 <1>   0.0800 
 36 H       -0.0190     4.9830    -1.7730 H     1 <1>   0.0800 
 37 H        3.0140     2.2100    -1.8530 H     1 <1>   0.0800 
 38 H        4.0190     2.5870    -0.4790 H     1 <1>   0.0800 
 39 H        2.1910     5.7940    -2.5170 H     1 <1>   0.0800 
 40 H        1.8710     4.1830    -3.0880 H     1 <1>   0.0800 
 41 H        5.8550     3.7650    -1.2460 H     1 <1>   0.1500 
 42 H        6.6700     7.5530     0.2660 H     1 <1>   0.4000 
 43 H        8.5360     6.0220    -0.8490 H     1 <1>   0.0800 
 44 H        8.1850     4.3330    -0.5820 H     1 <1>   0.0800 
 45 H        8.2380     5.4330     0.7740 H     1 <1>   0.0800 
 46 H        5.2700     8.3340     2.1080 H     1 <1>   0.1500 
 47 H        2.5490    11.2290    -0.7680 H     1 <1>   0.1500 
 48 H        4.6150    10.5630     2.9000 H     1 <1>   0.1500 
 49 H        3.2470    12.0230     1.4810 H     1 <1>   0.1500 
@<TRIPOS>BOND
  1   1   2  1   
  2   1   3  1   
  3   2   4  2   
  4   3   5  2   
  5   3   6  1   
  6   4   5  1   
  7   4   7  1   
  8   6   8  1   
  9   6  28  1   
 10   6  29  1   
 11   7  30  1   
 12   7  31  1   
 13   7  32  1   
 14   8   9  1   
 15   8  10  1   
 16   9  11  1   
 17   9  33  1   
 18   9  34  1   
 19  10  12  1   
 20  10  35  1   
 21  10  36  1   
 22  11  13  1   
 23  11  37  1   
 24  11  38  1   
 25  12  13  1   
 26  12  39  1   
 27  12  40  1   
 28  13  14  1   
 29  14  15  2   
 30  14  16  1   
 31  15  17  1   
 32  16  18  2   
 33  16  41  1   
 34  17  19  1   
 35  17  20  2   
 36  18  19  1   
 37  18  21  1   
 38  19  42  1   
 39  20  22  1   
 40  20  23  1   
 41  21  43  1   
 42  21  44  1   
 43  21  45  1   
 44  22  24  2   
 45  22  25  1   
 46  23  26  2   
 47  23  46  1   
 48  25  27  2   
 49  25  47  1   
 50  26  27  1   
 51  26  48  1   
 52  27  49  1   
@<TRIPOS>SUBSTRUCTURE
  1 ****  15 GROUP 4 **** **** 0

# MOE 2024.06 (io_trps.svl 2023.06)
