@<TRIPOS>MOLECULE
NONAME
53 55 1 0 0 
SMALL
USER_CHARGES


@<TRIPOS>ATOM
  1 O        1.3390    -0.5040     2.2200 O.2   1 <1>  -0.5700 
  2 C        1.5980    -0.6290     1.0350 C.2   1 <1>   0.5440 
  3 N        0.5550    -0.6970     0.1390 N.am  1 <1>  -0.6600 
  4 C        2.9730    -0.6470     0.6090 C.ar  1 <1>   0.0860 
  5 C       -0.8670    -0.5660     0.5260 C.3   1 <1>   0.1400 
  6 C        0.6820    -1.1650    -1.2560 C.3   1 <1>   0.1400 
  7 C        3.6230    -1.8150     0.1580 C.ar  1 <1>   0.4100 
  8 C        3.6990     0.5350     0.6350 C.ar  1 <1>  -0.1500 
  9 C       -1.6560    -1.0690    -0.6790 C.3   1 <1>  -0.1600 
 10 C       -0.6980    -0.9460    -1.8600 C.3   1 <1>  -0.1600 
 11 N        4.8860    -1.8230    -0.2780 N.ar  1 <1>  -0.6200 
 12 N        2.9960    -3.0520     0.1410 N.pl3 1 <1>  -0.8380 
 13 C        5.0030     0.5140     0.2000 C.ar  1 <1>  -0.1500 
 14 C        5.5390    -0.6790    -0.2450 C.ar  1 <1>   0.1600 
 15 C        2.5610    -3.6640     1.4360 C.3   1 <1>   0.2090 
 16 C        3.3610    -4.0460    -0.9090 C.3   1 <1>   0.1290 
 17 C        1.0430    -3.8900     1.5370 C.3   1 <1>   0.1200 
 18 O        0.5550    -4.6650     0.4570 O.3   1 <1>  -0.3630 
 19 C       -0.7770    -4.6990     0.1910 C.ar  1 <1>   0.0820 
 20 C       -1.1770    -4.9990    -1.1080 C.ar  1 <1>  -0.1430 
 21 C       -1.7370    -4.4380     1.1660 C.ar  1 <1>  -0.1500 
 22 C       -2.5280    -5.0280    -1.4140 C.ar  1 <1>  -0.1500 
 23 C       -0.1490    -5.2860    -2.1910 C.3   1 <1>  -0.0970 
 24 C       -3.0850    -4.4640     0.8530 C.ar  1 <1>  -0.1430 
 25 C       -3.4760    -4.7620    -0.4420 C.ar  1 <1>  -0.1500 
 26 C       -4.1280    -4.1760     1.9170 C.3   1 <1>  -0.0970 
 27 H       -1.0810     0.4710     0.7170 H     1 <1>   0.0800 
 28 H       -1.0800    -1.1470     1.4070 H     1 <1>   0.0800 
 29 H        0.9180    -2.2150    -1.2510 H     1 <1>   0.0800 
 30 H        1.4450    -0.6190    -1.7850 H     1 <1>   0.0800 
 31 H        3.2400     1.4420     0.9910 H     1 <1>   0.1500 
 32 H       -2.5630    -0.5100    -0.8240 H     1 <1>   0.0800 
 33 H       -1.9070    -2.1020    -0.5230 H     1 <1>   0.0800 
 34 H       -0.9120    -1.6620    -2.6340 H     1 <1>   0.0800 
 35 H       -0.7470     0.0470    -2.2720 H     1 <1>   0.0800 
 36 H        5.6000     1.4090     0.2030 H     1 <1>   0.1500 
 37 H        6.5590    -0.6910    -0.5900 H     1 <1>   0.1500 
 38 H        2.8600    -3.0230     2.2470 H     1 <1>   0.0800 
 39 H        3.0640    -4.6050     1.5750 H     1 <1>   0.0800 
 40 H        3.5270    -3.5420    -1.8450 H     1 <1>   0.0800 
 41 H        2.5700    -4.7620    -1.0370 H     1 <1>   0.0800 
 42 H        4.2630    -4.5590    -0.6260 H     1 <1>   0.0800 
 43 H        0.5290    -2.9490     1.5370 H     1 <1>   0.0800 
 44 H        0.8160    -4.4110     2.4490 H     1 <1>   0.0800 
 45 H       -1.4450    -4.2180     2.1740 H     1 <1>   0.1500 
 46 H       -2.8520    -5.2580    -2.4140 H     1 <1>   0.1500 
 47 H        0.4820    -6.1010    -1.8840 H     1 <1>   0.0800 
 48 H        0.4610    -4.4160    -2.3490 H     1 <1>   0.0800 
 49 H       -0.6230    -5.5490    -3.1180 H     1 <1>   0.0800 
 50 H       -4.5200    -4.7910    -0.6980 H     1 <1>   0.1500 
 51 H       -3.7240    -3.5300     2.6760 H     1 <1>   0.0800 
 52 H       -4.4430    -5.0960     2.3760 H     1 <1>   0.0800 
 53 H       -4.9840    -3.6930     1.4820 H     1 <1>   0.0800 
@<TRIPOS>BOND
  1   1   2  2   
  2   2   3  am  
  3   2   4  1   
  4   3   5  1   
  5   3   6  1   
  6   4   7  ar  
  7   4   8  ar  
  8   5   9  1   
  9   5  27  1   
 10   5  28  1   
 11   6  10  1   
 12   6  29  1   
 13   6  30  1   
 14   7  11  ar  
 15   7  12  1   
 16   8  13  ar  
 17   8  31  1   
 18   9  10  1   
 19   9  32  1   
 20   9  33  1   
 21  10  34  1   
 22  10  35  1   
 23  11  14  ar  
 24  12  15  1   
 25  12  16  1   
 26  13  14  ar  
 27  13  36  1   
 28  14  37  1   
 29  15  17  1   
 30  15  38  1   
 31  15  39  1   
 32  16  40  1   
 33  16  41  1   
 34  16  42  1   
 35  17  18  1   
 36  17  43  1   
 37  17  44  1   
 38  18  19  1   
 39  19  20  ar  
 40  19  21  ar  
 41  20  22  ar  
 42  20  23  1   
 43  21  24  ar  
 44  21  45  1   
 45  22  25  ar  
 46  22  46  1   
 47  23  47  1   
 48  23  48  1   
 49  23  49  1   
 50  24  25  ar  
 51  24  26  1   
 52  25  50  1   
 53  26  51  1   
 54  26  52  1   
 55  26  53  1   
@<TRIPOS>SUBSTRUCTURE
  1 ****   3 GROUP 4 **** **** 0

# MOE 2024.06 (io_trps.svl 2023.06)
