@<TRIPOS>MOLECULE
NONAME
38 39 1 0 0 
SMALL
USER_CHARGES


@<TRIPOS>ATOM
  1 CL       3.7960    -0.1770     0.1850 Cl    1 <1>  -0.1770 
  2 C        3.2020    -1.7890     0.4780 C.ar  1 <1>   0.1770 
  3 C        3.5830    -2.4540     1.6270 C.ar  1 <1>  -0.1500 
  4 C        2.3540    -2.3720    -0.4510 C.ar  1 <1>  -0.1500 
  5 C        3.0870    -3.7280     1.8180 C.ar  1 <1>   0.1900 
  6 C        1.8630    -3.6560    -0.2370 C.ar  1 <1>  -0.1440 
  7 F        3.4280    -4.3810     2.8940 F     1 <1>  -0.1900 
  8 C        2.2390    -4.3410     0.9120 C.ar  1 <1>  -0.1500 
  9 C        0.9260    -4.3090    -1.2360 C.3   1 <1>   0.4870 
 10 N       -0.4370    -4.3180    -0.6530 N.4   1 <1>  -0.9590 
 11 C       -1.2920    -5.3620    -1.2780 C.3   1 <1>   0.5240 
 12 C       -1.0650    -2.9660    -0.5600 C.3   1 <1>   0.3430 
 13 C       -0.8550    -6.6860    -0.6680 C.2   1 <1>   0.0460 
 14 C       -2.1920    -2.9200     0.4810 C.3   1 <1>   0.1200 
 15 N       -0.4720    -6.7260     0.6280 N.2   1 <1>  -0.5650 
 16 C       -0.7570    -7.9080    -1.2350 C.2   1 <1>  -0.3020 
 17 O       -2.8030    -1.6830     0.3810 O.3   1 <1>  -0.6800 
 18 C       -0.1610    -7.9660     0.8240 C.2   1 <1>   0.0060 
 19 N       -0.3140    -8.7400    -0.2730 N.pl3 1 <1>   0.0330 
 20 C        0.3260    -8.5160     2.1480 C.3   1 <1>  -0.0600 
 21 H        4.2400    -1.9980     2.3440 H     1 <1>   0.1500 
 22 H        2.0950    -1.8080    -1.3310 H     1 <1>   0.1500 
 23 H        1.8930    -5.3400     1.1200 H     1 <1>   0.1500 
 24 H        1.2590    -5.3200    -1.4120 H     1 <1>   0.0800 
 25 H        0.9350    -3.7740    -2.1710 H     1 <1>   0.0800 
 26 H       -0.3020    -4.7030     0.3010 H     1 <1>   0.4500 
 27 H       -1.1840    -5.3740    -2.3490 H     1 <1>   0.0800 
 28 H       -2.3260    -5.1960    -1.0270 H     1 <1>   0.0800 
 29 H       -1.4600    -2.6810    -1.5210 H     1 <1>   0.0800 
 30 H       -0.3210    -2.2410    -0.2700 H     1 <1>   0.0800 
 31 H       -1.7970    -3.0210     1.4780 H     1 <1>   0.0800 
 32 H       -2.9400    -3.6700     0.2970 H     1 <1>   0.0800 
 33 H       -0.9710    -8.2390    -2.2370 H     1 <1>   0.1500 
 34 H       -3.4980    -1.5660     1.0640 H     1 <1>   0.4000 
 35 H       -0.1340    -9.7480    -0.3440 H     1 <1>   0.2700 
 36 H        0.3680    -7.7300     2.8810 H     1 <1>   0.0800 
 37 H        1.3100    -8.9350     2.0380 H     1 <1>   0.0800 
 38 H       -0.3450    -9.2780     2.5020 H     1 <1>   0.0800 
@<TRIPOS>BOND
  1   1   2  1   
  2   2   3  ar  
  3   2   4  ar  
  4   3   5  ar  
  5   3  21  1   
  6   4   6  ar  
  7   4  22  1   
  8   5   7  1   
  9   5   8  ar  
 10   6   8  ar  
 11   6   9  1   
 12   8  23  1   
 13   9  10  1   
 14   9  24  1   
 15   9  25  1   
 16  10  11  1   
 17  10  12  1   
 18  10  26  1   
 19  11  13  1   
 20  11  27  1   
 21  11  28  1   
 22  12  14  1   
 23  12  29  1   
 24  12  30  1   
 25  13  15  1   
 26  13  16  2   
 27  14  17  1   
 28  14  31  1   
 29  14  32  1   
 30  15  18  2   
 31  16  19  1   
 32  16  33  1   
 33  17  34  1   
 34  18  19  1   
 35  18  20  1   
 36  19  35  1   
 37  20  36  1   
 38  20  37  1   
 39  20  38  1   
@<TRIPOS>SUBSTRUCTURE
  1 ****  10 GROUP 4 **** **** 0

# MOE 2024.06 (io_trps.svl 2023.06)
