@<TRIPOS>MOLECULE
NONAME
50 53 1 0 0 
SMALL
USER_CHARGES


@<TRIPOS>ATOM
  1 O       -0.6990     0.0460     0.3260 O.2   1 <1>  -0.5700 
  2 C       -1.5480     0.8140     0.7400 C.2   1 <1>   0.5440 
  3 N       -2.6070     0.3200     1.4710 N.am  1 <1>  -0.6600 
  4 C       -1.4170     2.2280     0.4650 C.ar  1 <1>   0.0860 
  5 C       -2.7300    -1.1450     1.7480 C.3   1 <1>   0.3210 
  6 C       -3.7650     1.1620     1.9170 C.3   1 <1>   0.1400 
  7 C       -1.1040     3.1360     1.4650 C.ar  1 <1>  -0.1500 
  8 C       -1.6240     2.7160    -0.8410 C.ar  1 <1>  -0.1500 
  9 C       -3.8310    -1.7710     0.8990 C.2   1 <1>   0.0460 
 10 C       -4.6080     1.7520     0.7670 C.3   1 <1>   0.1200 
 11 C       -1.0220     4.4970     1.1760 C.ar  1 <1>  -0.1520 
 12 C       -1.5440     4.0570    -1.1340 C.ar  1 <1>  -0.1500 
 13 N       -5.1230    -1.7340     1.2950 N.2   1 <1>  -0.5650 
 14 C       -3.7170    -2.3890    -0.3010 C.2   1 <1>  -0.3320 
 15 O       -4.8500     0.8150    -0.2260 O.3   1 <1>  -0.6800 
 16 N       -0.7390     5.5720     1.9840 N.pl3 1 <1>   0.0330 
 17 C       -1.2450     4.9670    -0.1160 C.ar  1 <1>   0.0000 
 18 C       -5.7590    -2.3300     0.3400 C.2   1 <1>   0.0360 
 19 N       -4.9610    -2.7520    -0.6610 N.pl3 1 <1>   0.0330 
 20 C       -2.4960    -2.6480    -1.1670 C.3   1 <1>  -0.0600 
 21 C       -0.7860     6.6980     1.2170 C.2   1 <1>  -0.3320 
 22 C       -1.0960     6.3670    -0.0560 C.2   1 <1>  -0.1810 
 23 C       -0.5370     8.1100     1.7110 C.3   1 <1>   0.0200 
 24 C       -1.2370     7.3690    -1.1840 C.3   1 <1>   0.0210 
 25 C       -0.3370     9.0570     0.5130 C.3   1 <1>  -0.1600 
 26 C       -1.3590     8.7960    -0.6130 C.3   1 <1>  -0.1600 
 27 H       -2.9580    -1.2950     2.7880 H     1 <1>   0.0800 
 28 H       -1.8010    -1.6470     1.5480 H     1 <1>   0.0800 
 29 H       -3.4020     1.9680     2.5290 H     1 <1>   0.0800 
 30 H       -4.4150     0.5710     2.5400 H     1 <1>   0.0800 
 31 H       -0.9230     2.7880     2.4660 H     1 <1>   0.1500 
 32 H       -1.8570     2.0020    -1.6120 H     1 <1>   0.1500 
 33 H       -4.1140     2.5940     0.3160 H     1 <1>   0.0800 
 34 H       -5.5580     2.0830     1.1470 H     1 <1>   0.0800 
 35 H       -1.7070     4.4220    -2.1310 H     1 <1>   0.1500 
 36 H       -4.8190    -0.0940     0.1710 H     1 <1>   0.4000 
 37 H       -0.5180     5.5230     2.9830 H     1 <1>   0.2700 
 38 H       -6.8240    -2.4830     0.3240 H     1 <1>   0.1500 
 39 H       -5.2460    -3.2330    -1.5190 H     1 <1>   0.2700 
 40 H       -1.6080    -2.2680    -0.6960 H     1 <1>   0.0800 
 41 H       -2.6070    -2.1540    -2.1160 H     1 <1>   0.0800 
 42 H       -2.3710    -3.7030    -1.3320 H     1 <1>   0.0800 
 43 H        0.3350     8.1370     2.3400 H     1 <1>   0.0800 
 44 H       -1.3870     8.4310     2.2890 H     1 <1>   0.0800 
 45 H       -2.1050     7.1370    -1.7740 H     1 <1>   0.0800 
 46 H       -0.3670     7.3000    -1.8130 H     1 <1>   0.0800 
 47 H        0.6540     8.9110     0.1190 H     1 <1>   0.0800 
 48 H       -0.4130    10.0760     0.8470 H     1 <1>   0.0800 
 49 H       -2.3510     8.9250    -0.2170 H     1 <1>   0.0800 
 50 H       -1.2220     9.5100    -1.4060 H     1 <1>   0.0800 
@<TRIPOS>BOND
  1   1   2  2   
  2   2   3  am  
  3   2   4  1   
  4   3   5  1   
  5   3   6  1   
  6   4   7  ar  
  7   4   8  ar  
  8   5   9  1   
  9   5  27  1   
 10   5  28  1   
 11   6  10  1   
 12   6  29  1   
 13   6  30  1   
 14   7  11  ar  
 15   7  31  1   
 16   8  12  ar  
 17   8  32  1   
 18   9  13  1   
 19   9  14  2   
 20  10  15  1   
 21  10  33  1   
 22  10  34  1   
 23  11  16  1   
 24  11  17  ar  
 25  12  17  ar  
 26  12  35  1   
 27  13  18  2   
 28  14  19  1   
 29  14  20  1   
 30  15  36  1   
 31  16  21  1   
 32  16  37  1   
 33  17  22  1   
 34  18  19  1   
 35  18  38  1   
 36  19  39  1   
 37  20  40  1   
 38  20  41  1   
 39  20  42  1   
 40  21  22  2   
 41  21  23  1   
 42  22  24  1   
 43  23  25  1   
 44  23  43  1   
 45  23  44  1   
 46  24  26  1   
 47  24  45  1   
 48  24  46  1   
 49  25  26  1   
 50  25  47  1   
 51  25  48  1   
 52  26  49  1   
 53  26  50  1   
@<TRIPOS>SUBSTRUCTURE
  1 ****   4 GROUP 4 **** **** 0

# MOE 2024.06 (io_trps.svl 2023.06)
