@<TRIPOS>MOLECULE
NONAME
41 43 1 0 0 
SMALL
USER_CHARGES


@<TRIPOS>ATOM
  1 S       -0.1180     0.0810    -0.2850 S.3   1 <1>  -0.0800 
  2 C        1.5840    -0.3180    -0.4660 C.2   1 <1>  -0.1400 
  3 C       -0.4250    -1.4150     0.5750 C.2   1 <1>  -0.1100 
  4 C        1.8540    -1.5100     0.1070 C.2   1 <1>  -0.1810 
  5 C        2.4440     0.6930    -1.2000 C.3   1 <1>   0.3890 
  6 C        0.7060    -2.1320     0.6960 C.2   1 <1>  -0.1500 
  7 C        3.2050    -2.1980     0.1790 C.3   1 <1>  -0.0590 
  8 N        2.6550     1.8440    -0.3010 N.pl3 1 <1>  -0.8690 
  9 C        3.8550     2.4820    -0.1600 C.ar  1 <1>   0.4100 
 10 N        4.7690     2.2920    -1.1040 N.ar  1 <1>  -0.6200 
 11 C        4.0750     3.2950     0.9490 C.ar  1 <1>  -0.1500 
 12 C        5.9190     2.9220    -0.9370 C.ar  1 <1>   0.1600 
 13 C        5.2750     3.9450     1.1020 C.ar  1 <1>  -0.1500 
 14 C        6.2460     3.7690     0.1190 C.ar  1 <1>   0.0860 
 15 C        7.5400     4.4080     0.1700 C.2   1 <1>   0.5440 
 16 O        8.5270     3.7690    -0.1450 O.2   1 <1>  -0.5700 
 17 N        7.6980     5.7240     0.5520 N.am  1 <1>  -0.6600 
 18 C        6.6510     6.7750     0.3660 C.3   1 <1>   0.1400 
 19 C        9.0380     6.2910     0.8960 C.3   1 <1>   0.1400 
 20 C        7.1630     7.8970    -0.5550 C.3   1 <1>   0.1200 
 21 C        9.4080     7.4300    -0.0660 C.3   1 <1>   0.1200 
 22 O        8.3910     8.3920    -0.1020 O.3   1 <1>  -0.5600 
 23 H       -1.4330    -1.6000     0.9020 H     1 <1>   0.1500 
 24 H        1.9490     1.0210    -2.0970 H     1 <1>   0.0800 
 25 H        3.3840     0.2470    -1.4720 H     1 <1>   0.0800 
 26 H        0.7830    -3.0880     1.1830 H     1 <1>   0.1500 
 27 H        3.9750    -1.5870    -0.2540 H     1 <1>   0.0800 
 28 H        3.1680    -3.1340    -0.3500 H     1 <1>   0.0800 
 29 H        3.4610    -2.3890     1.2060 H     1 <1>   0.0800 
 30 H        2.0290     1.8080     0.5030 H     1 <1>   0.4000 
 31 H        3.2950     3.4020     1.6780 H     1 <1>   0.1500 
 32 H        6.6700     2.7630    -1.6920 H     1 <1>   0.1500 
 33 H        5.4710     4.5700     1.9550 H     1 <1>   0.1500 
 34 H        6.3950     7.1940     1.3230 H     1 <1>   0.0800 
 35 H        5.7610     6.3540    -0.0660 H     1 <1>   0.0800 
 36 H        9.7980     5.5300     0.8560 H     1 <1>   0.0800 
 37 H        9.0120     6.6730     1.9010 H     1 <1>   0.0800 
 38 H        6.4650     8.7140    -0.5690 H     1 <1>   0.0800 
 39 H        7.2900     7.5330    -1.5600 H     1 <1>   0.0800 
 40 H        9.5620     7.0480    -1.0610 H     1 <1>   0.0800 
 41 H       10.3100     7.9160     0.2620 H     1 <1>   0.0800 
@<TRIPOS>BOND
  1   1   2  1   
  2   1   3  1   
  3   2   4  2   
  4   2   5  1   
  5   3   6  2   
  6   3  23  1   
  7   4   6  1   
  8   4   7  1   
  9   5   8  1   
 10   5  24  1   
 11   5  25  1   
 12   6  26  1   
 13   7  27  1   
 14   7  28  1   
 15   7  29  1   
 16   8   9  1   
 17   8  30  1   
 18   9  10  ar  
 19   9  11  ar  
 20  10  12  ar  
 21  11  13  ar  
 22  11  31  1   
 23  12  14  ar  
 24  12  32  1   
 25  13  14  ar  
 26  13  33  1   
 27  14  15  1   
 28  15  16  2   
 29  15  17  am  
 30  17  18  1   
 31  17  19  1   
 32  18  20  1   
 33  18  34  1   
 34  18  35  1   
 35  19  21  1   
 36  19  36  1   
 37  19  37  1   
 38  20  22  1   
 39  20  38  1   
 40  20  39  1   
 41  21  22  1   
 42  21  40  1   
 43  21  41  1   
@<TRIPOS>SUBSTRUCTURE
  1 ****   9 GROUP 4 **** **** 0

# MOE 2024.06 (io_trps.svl 2023.06)
