@<TRIPOS>MOLECULE
NONAME
54 57 1 0 0 
SMALL
USER_CHARGES


@<TRIPOS>ATOM
  1 S       -0.6670     1.3390     2.4750 S.3   1 <1>  -0.0800 
  2 C       -0.3260     1.4570     0.7590 C.2   1 <1>  -0.0450 
  3 C       -2.3610     1.1420     2.1230 C.2   1 <1>   0.2280 
  4 C       -1.5100     1.3230     0.1130 C.2   1 <1>   0.0460 
  5 C        1.0350     1.6300     0.3180 C.2   1 <1>   0.7150 
  6 N       -2.6420     1.1600     0.8830 N.2   1 <1>  -0.5650 
  7 C       -1.7410     1.3290    -1.3850 C.3   1 <1>  -0.0590 
  8 O        1.4120     1.1300    -0.7270 O.2   1 <1>  -0.5700 
  9 N        1.9600     2.3840     1.0130 N.am  1 <1>  -0.6600 
 10 C        3.4160     2.0950     0.8600 C.3   1 <1>   0.1400 
 11 C        1.5890     3.6080     1.7710 C.3   1 <1>   0.1400 
 12 C        3.9650     2.6820    -0.4550 C.3   1 <1>   0.3430 
 13 C        2.3660     4.8360     1.2800 C.3   1 <1>  -0.1600 
 14 N        3.9670     4.1850    -0.5110 N.4   1 <1>  -0.9590 
 15 C        2.6460     4.8300    -0.2260 C.3   1 <1>   0.3430 
 16 C        4.5010     4.6440    -1.8240 C.3   1 <1>   0.4860 
 17 C        4.7730     6.1340    -1.7390 C.ar  1 <1>  -0.1440 
 18 C        5.6280     6.6230    -0.7640 C.ar  1 <1>  -0.1500 
 19 C        4.1640     7.0180    -2.6160 C.ar  1 <1>  -0.1500 
 20 C        5.8650     7.9850    -0.6330 C.ar  1 <1>  -0.1440 
 21 C        4.4030     8.3760    -2.5030 C.ar  1 <1>  -0.1500 
 22 C        5.2440     8.8560    -1.5150 C.ar  1 <1>  -0.1500 
 23 C        6.7690     8.5530     0.4670 C.3   1 <1>   0.2390 
 24 N        7.7820     7.5880     0.9600 N.pl3 1 <1>   0.3140 
 25 N        7.5040     6.6610     1.9060 N.2   1 <1>  -0.7070 
 26 C        9.0730     7.5150     0.5770 C.2   1 <1>  -0.3020 
 27 C        8.6290     6.0420     2.1060 C.2   1 <1>   0.1390 
 28 C        9.6480     6.5300     1.2980 C.2   1 <1>  -0.1500 
 29 H       -3.0310     1.0250     2.9570 H     1 <1>   0.1500 
 30 H       -0.8290     1.4910    -1.9260 H     1 <1>   0.0800 
 31 H       -2.4390     2.1060    -1.6400 H     1 <1>   0.0800 
 32 H       -2.1560     0.3840    -1.6860 H     1 <1>   0.0800 
 33 H        3.5490     1.0260     0.8360 H     1 <1>   0.0800 
 34 H        3.9670     2.4700     1.7040 H     1 <1>   0.0800 
 35 H        1.7680     3.4510     2.8220 H     1 <1>   0.0800 
 36 H        0.5360     3.8000     1.6440 H     1 <1>   0.0800 
 37 H        3.3760     2.2890    -1.2680 H     1 <1>   0.0800 
 38 H        4.9730     2.3240    -0.5850 H     1 <1>   0.0800 
 39 H        3.2790     4.9490     1.8360 H     1 <1>   0.0800 
 40 H        1.7660     5.7000     1.5060 H     1 <1>   0.0800 
 41 H        4.6220     4.5440     0.1950 H     1 <1>   0.4500 
 42 H        2.6720     5.8560    -0.5600 H     1 <1>   0.0800 
 43 H        1.8540     4.3260    -0.7560 H     1 <1>   0.0800 
 44 H        3.7910     4.4380    -2.6080 H     1 <1>   0.0800 
 45 H        5.4220     4.1320    -2.0500 H     1 <1>   0.0800 
 46 H        6.1130     5.9340    -0.0960 H     1 <1>   0.1500 
 47 H        3.5030     6.6680    -3.3910 H     1 <1>   0.1500 
 48 H        3.9320     9.0650    -3.1840 H     1 <1>   0.1500 
 49 H        5.4090     9.9180    -1.4400 H     1 <1>   0.1500 
 50 H        6.1650     8.8500     1.3040 H     1 <1>   0.0800 
 51 H        7.2860     9.4200     0.1020 H     1 <1>   0.0800 
 52 H        9.5070     8.1570    -0.1680 H     1 <1>   0.1500 
 53 H        8.7520     5.2440     2.8200 H     1 <1>   0.1500 
 54 H       10.6660     6.1800     1.2780 H     1 <1>   0.1500 
@<TRIPOS>BOND
  1   1   2  1   
  2   1   3  1   
  3   2   4  2   
  4   2   5  1   
  5   3   6  2   
  6   3  29  1   
  7   4   6  1   
  8   4   7  1   
  9   5   8  2   
 10   5   9  am  
 11   7  30  1   
 12   7  31  1   
 13   7  32  1   
 14   9  10  1   
 15   9  11  1   
 16  10  12  1   
 17  10  33  1   
 18  10  34  1   
 19  11  13  1   
 20  11  35  1   
 21  11  36  1   
 22  12  14  1   
 23  12  37  1   
 24  12  38  1   
 25  13  15  1   
 26  13  39  1   
 27  13  40  1   
 28  14  15  1   
 29  14  16  1   
 30  14  41  1   
 31  15  42  1   
 32  15  43  1   
 33  16  17  1   
 34  16  44  1   
 35  16  45  1   
 36  17  18  ar  
 37  17  19  ar  
 38  18  20  ar  
 39  18  46  1   
 40  19  21  ar  
 41  19  47  1   
 42  20  22  ar  
 43  20  23  1   
 44  21  22  ar  
 45  21  48  1   
 46  22  49  1   
 47  23  24  1   
 48  23  50  1   
 49  23  51  1   
 50  24  25  1   
 51  24  26  1   
 52  25  27  2   
 53  26  28  2   
 54  26  52  1   
 55  27  28  1   
 56  27  53  1   
 57  28  54  1   
@<TRIPOS>SUBSTRUCTURE
  1 ****  14 GROUP 4 **** **** 0

# MOE 2024.06 (io_trps.svl 2023.06)
