@<TRIPOS>MOLECULE
NONAME
47 48 1 0 0 
SMALL
USER_CHARGES


@<TRIPOS>ATOM
  1 O       -1.3340    -0.2980    -0.5310 O.2   1 <1>  -0.5700 
  2 C       -1.9710     0.5520     0.0470 C.2   1 <1>   0.5690 
  3 N       -2.8390     0.2210     1.0560 N.am  1 <1>  -0.6600 
  4 C       -1.7530     1.9870    -0.3900 C.3   1 <1>  -0.0990 
  5 C       -2.9620    -1.2080     1.4790 C.3   1 <1>   0.3200 
  6 C       -3.8440     1.1460     1.6710 C.3   1 <1>   0.1400 
  7 C       -0.7580     2.6800     0.5410 C.3   1 <1>   0.1100 
  8 C       -3.9060    -1.9610     0.5570 C.2   1 <1>   0.0060 
  9 C       -5.1970     1.1160     0.9400 C.3   1 <1>   0.1200 
 10 N       -0.4580     4.0420     0.0640 N.3   1 <1>  -0.8100 
 11 N       -5.0080    -2.5380     0.9190 N.2   1 <1>  -0.5650 
 12 N       -3.6420    -2.0740    -0.7610 N.pl3 1 <1>   0.0330 
 13 O       -5.0680     1.6300    -0.3440 O.3   1 <1>  -0.6800 
 14 C       -1.5630     5.0040     0.3180 C.3   1 <1>   0.1100 
 15 C        0.8100     4.5490     0.6430 C.3   1 <1>   0.1100 
 16 C       -5.4860    -3.0600    -0.2280 C.2   1 <1>   0.0770 
 17 C       -4.6660    -2.7850    -1.2660 C.2   1 <1>  -0.3020 
 18 C       -1.2200     6.4380    -0.1570 C.3   1 <1>   0.3430 
 19 C        1.1820     5.9530     0.1050 C.3   1 <1>   0.3430 
 20 N        0.1240     6.4770    -0.8210 N.4   1 <1>  -0.9590 
 21 C        0.4550     7.7970    -1.4250 C.3   1 <1>   0.2630 
 22 H       -2.6880     2.5050    -0.4180 H     1 <1>   0.0800 
 23 H       -1.3510     1.9770    -1.3860 H     1 <1>   0.0800 
 24 H       -3.3280    -1.2660     2.4890 H     1 <1>   0.0800 
 25 H       -1.9950    -1.6800     1.4540 H     1 <1>   0.0800 
 26 H       -3.4730     2.1540     1.6830 H     1 <1>   0.0800 
 27 H       -4.0010     0.8560     2.6950 H     1 <1>   0.0800 
 28 H        0.1480     2.0940     0.5450 H     1 <1>   0.0800 
 29 H       -1.1390     2.7080     1.5490 H     1 <1>   0.0800 
 30 H       -5.9180     1.7180     1.4650 H     1 <1>   0.0800 
 31 H       -5.5720     0.1090     0.8740 H     1 <1>   0.0800 
 32 H       -2.8220    -1.6640    -1.2300 H     1 <1>   0.2700 
 33 H       -5.8210     1.3390    -0.8980 H     1 <1>   0.4000 
 34 H       -1.7960     5.0270     1.3690 H     1 <1>   0.0800 
 35 H       -2.4500     4.6830    -0.2010 H     1 <1>   0.0800 
 36 H        1.6100     3.8670     0.4040 H     1 <1>   0.0800 
 37 H        0.7310     4.5890     1.7170 H     1 <1>   0.0800 
 38 H       -6.4090    -3.6160    -0.2470 H     1 <1>   0.1500 
 39 H       -4.7490    -3.0460    -2.3050 H     1 <1>   0.1500 
 40 H       -1.2300     7.1040     0.6900 H     1 <1>   0.0800 
 41 H       -1.9810     6.7690    -0.8440 H     1 <1>   0.0800 
 42 H        2.1230     5.8870    -0.4160 H     1 <1>   0.0800 
 43 H        1.3140     6.6270     0.9350 H     1 <1>   0.0800 
 44 H        0.0560     5.7440    -1.5490 H     1 <1>   0.4500 
 45 H        0.5230     8.5530    -0.6600 H     1 <1>   0.0800 
 46 H       -0.3070     8.0860    -2.1310 H     1 <1>   0.0800 
 47 H        1.3990     7.7440    -1.9440 H     1 <1>   0.0800 
@<TRIPOS>BOND
  1   1   2  2   
  2   2   3  am  
  3   2   4  1   
  4   3   5  1   
  5   3   6  1   
  6   4   7  1   
  7   4  22  1   
  8   4  23  1   
  9   5   8  1   
 10   5  24  1   
 11   5  25  1   
 12   6   9  1   
 13   6  26  1   
 14   6  27  1   
 15   7  10  1   
 16   7  28  1   
 17   7  29  1   
 18   8  11  2   
 19   8  12  1   
 20   9  13  1   
 21   9  30  1   
 22   9  31  1   
 23  10  14  1   
 24  10  15  1   
 25  11  16  1   
 26  12  17  1   
 27  12  32  1   
 28  13  33  1   
 29  14  18  1   
 30  14  34  1   
 31  14  35  1   
 32  15  19  1   
 33  15  36  1   
 34  15  37  1   
 35  16  17  2   
 36  16  38  1   
 37  17  39  1   
 38  18  20  1   
 39  18  40  1   
 40  18  41  1   
 41  19  20  1   
 42  19  42  1   
 43  19  43  1   
 44  20  21  1   
 45  20  44  1   
 46  21  45  1   
 47  21  46  1   
 48  21  47  1   
@<TRIPOS>SUBSTRUCTURE
  1 ****   4 GROUP 4 **** **** 0

# MOE 2024.06 (io_trps.svl 2023.06)
