@<TRIPOS>MOLECULE
NONAME
39 41 1 0 0 
SMALL
USER_CHARGES


@<TRIPOS>ATOM
  1 O        0.4770    -0.8310     1.5320 O.3   1 <1>  -0.5600 
  2 C        0.3670    -1.4490     0.2840 C.3   1 <1>   0.2000 
  3 C       -0.7320    -0.4560     2.1110 C.3   1 <1>   0.0400 
  4 C        1.7200    -1.4840    -0.4470 C.3   1 <1>   0.0000 
  5 C       -0.0710    -2.9100     0.4310 C.3   1 <1>  -0.1600 
  6 C        2.8830    -1.7670     0.5350 C.3   1 <1>   0.2090 
  7 C        2.0000    -0.1600    -1.1930 C.3   1 <1>  -0.1600 
  8 C        1.5270    -2.6680    -1.4120 C.3   1 <1>  -0.1600 
  9 C        0.6920    -3.6960    -0.6430 C.3   1 <1>  -0.1600 
 10 N        4.1900    -1.7920    -0.1890 N.pl3 1 <1>  -0.8380 
 11 C        3.3880    -0.1640    -1.8590 C.3   1 <1>  -0.1600 
 12 C        5.2140    -2.5710     0.3280 C.ar  1 <1>   0.4100 
 13 C        4.5050    -0.5070    -0.8660 C.3   1 <1>   0.2090 
 14 N        6.3340    -1.9470     0.6780 N.ar  1 <1>  -0.6200 
 15 C        5.0570    -3.9610     0.4750 C.ar  1 <1>   0.1600 
 16 C        7.2390    -2.7720     1.1750 C.ar  1 <1>   0.1600 
 17 N        5.9590    -4.7870     0.9730 N.ar  1 <1>  -0.6200 
 18 C        7.0620    -4.1410     1.3210 C.ar  1 <1>   0.1600 
 19 H       -0.3460    -0.9090    -0.3170 H     1 <1>   0.0800 
 20 H       -0.5180     0.0160     3.0540 H     1 <1>   0.0800 
 21 H       -1.3390    -1.3290     2.2750 H     1 <1>   0.0800 
 22 H       -1.2350     0.2410     1.4640 H     1 <1>   0.0800 
 23 H        0.1920    -3.2840     1.4050 H     1 <1>   0.0800 
 24 H       -1.1320    -2.9980     0.2850 H     1 <1>   0.0800 
 25 H        2.7190    -2.6980     1.0480 H     1 <1>   0.0800 
 26 H        2.9250    -0.9910     1.2800 H     1 <1>   0.0800 
 27 H        1.2430     0.0200    -1.9360 H     1 <1>   0.0800 
 28 H        1.9590     0.6490    -0.4840 H     1 <1>   0.0800 
 29 H        0.9680    -2.3430    -2.2730 H     1 <1>   0.0800 
 30 H        2.4600    -3.0840    -1.7520 H     1 <1>   0.0800 
 31 H        1.3430    -4.4130    -0.1710 H     1 <1>   0.0800 
 32 H        0.0220    -4.2200    -1.3040 H     1 <1>   0.0800 
 33 H        3.5860     0.8030    -2.2860 H     1 <1>   0.0800 
 34 H        3.4100    -0.8830    -2.6580 H     1 <1>   0.0800 
 35 H        4.5970     0.2680    -0.1240 H     1 <1>   0.0800 
 36 H        5.4430    -0.5900    -1.3880 H     1 <1>   0.0800 
 37 H        4.1250    -4.3810     0.1490 H     1 <1>   0.1500 
 38 H        8.1730    -2.3380     1.4850 H     1 <1>   0.1500 
 39 H        7.8600    -4.7260     1.7400 H     1 <1>   0.1500 
@<TRIPOS>BOND
  1   1   2  1   
  2   1   3  1   
  3   2   4  1   
  4   2   5  1   
  5   2  19  1   
  6   3  20  1   
  7   3  21  1   
  8   3  22  1   
  9   4   6  1   
 10   4   7  1   
 11   4   8  1   
 12   5   9  1   
 13   5  23  1   
 14   5  24  1   
 15   6  10  1   
 16   6  25  1   
 17   6  26  1   
 18   7  11  1   
 19   7  27  1   
 20   7  28  1   
 21   8   9  1   
 22   8  29  1   
 23   8  30  1   
 24   9  31  1   
 25   9  32  1   
 26  10  12  1   
 27  10  13  1   
 28  11  13  1   
 29  11  33  1   
 30  11  34  1   
 31  12  14  ar  
 32  12  15  ar  
 33  13  35  1   
 34  13  36  1   
 35  14  16  ar  
 36  15  17  ar  
 37  15  37  1   
 38  16  18  ar  
 39  16  38  1   
 40  17  18  ar  
 41  18  39  1   
@<TRIPOS>SUBSTRUCTURE
  1 ****   6 GROUP 4 **** **** 0

# MOE 2024.06 (io_trps.svl 2023.06)
