@<TRIPOS>MOLECULE
NONAME
50 52 1 0 0 
SMALL
USER_CHARGES


@<TRIPOS>ATOM
  1 O       -0.5870    -1.7500    -1.6700 O.co2 1 <1>  -0.9000 
  2 C        0.0500    -2.6770    -1.1450 C.2   1 <1>   1.0330 
  3 O        0.3270    -3.6770    -1.8330 O.co2 1 <1>  -0.9000 
  4 C        0.3850    -2.6320     0.2410 C.2   1 <1>  -0.2330 
  5 C       -0.3570    -3.2280     1.2630 C.2   1 <1>   0.3720 
  6 C        1.4280    -2.0590     0.8920 C.2   1 <1>   0.0870 
  7 N        0.1950    -3.0420     2.4080 N.2   1 <1>  -0.4100 
  8 N       -1.5590    -3.9330     1.1130 N.pl3 1 <1>  -0.8210 
  9 O        1.2710    -2.3360     2.1670 O.3   1 <1>  -0.0190 
 10 C        2.5590    -1.2770     0.4490 C.ar  1 <1>   0.0530 
 11 C       -1.4560    -4.9880     0.0800 C.3   1 <1>   0.2090 
 12 C       -2.6850    -2.9930     0.8560 C.3   1 <1>   0.1290 
 13 C        3.7150    -1.1850     1.2280 C.ar  1 <1>  -0.1500 
 14 C        2.5500    -0.5810    -0.7600 C.ar  1 <1>  -0.1500 
 15 C       -2.1750    -6.2420     0.5520 C.3   1 <1>  -0.1600 
 16 C        4.8070    -0.4410     0.8200 C.ar  1 <1>  -0.1500 
 17 C        3.6390     0.1630    -1.1750 C.ar  1 <1>  -0.1500 
 18 C       -2.0990    -7.3290    -0.5230 C.3   1 <1>   0.4230 
 19 C        4.7720     0.2360    -0.3850 C.ar  1 <1>  -0.1500 
 20 N       -3.0130    -8.4350    -0.1260 N.4   1 <1>  -0.9590 
 21 C       -0.6690    -7.8370    -0.7550 C.3   1 <1>  -0.2400 
 22 C       -2.5850    -9.2470     1.0410 C.3   1 <1>   0.3430 
 23 C       -3.3180    -9.3970    -1.2120 C.3   1 <1>   0.3430 
 24 C       -3.4670   -10.4850     0.9710 C.3   1 <1>  -0.1600 
 25 C       -3.9120   -10.6010    -0.4920 C.3   1 <1>  -0.1600 
 26 H       -0.4160    -5.2200    -0.0780 H     1 <1>   0.0800 
 27 H       -1.8670    -4.6380    -0.8540 H     1 <1>   0.0800 
 28 H       -2.6770    -2.2110     1.5970 H     1 <1>   0.0800 
 29 H       -3.6240    -3.5130     0.9140 H     1 <1>   0.0800 
 30 H       -2.5850    -2.5410    -0.1180 H     1 <1>   0.0800 
 31 H        3.7560    -1.7100     2.1660 H     1 <1>   0.1500 
 32 H        1.6760    -0.6160    -1.3880 H     1 <1>   0.1500 
 33 H       -3.2000    -5.9850     0.7420 H     1 <1>   0.0800 
 34 H       -1.7120    -6.5710     1.4640 H     1 <1>   0.0800 
 35 H        5.6850    -0.3900     1.4410 H     1 <1>   0.1500 
 36 H        3.5980     0.6850    -2.1150 H     1 <1>   0.1500 
 37 H       -2.4590    -6.9040    -1.4480 H     1 <1>   0.0800 
 38 H        5.6190     0.8140    -0.7080 H     1 <1>   0.1500 
 39 H       -3.9040    -7.9990     0.1370 H     1 <1>   0.4500 
 40 H       -0.1850    -8.0880     0.1710 H     1 <1>   0.0800 
 41 H       -0.0850    -7.0640    -1.2240 H     1 <1>   0.0800 
 42 H       -0.6480    -8.6830    -1.4150 H     1 <1>   0.0800 
 43 H       -2.7110    -8.7120     1.9690 H     1 <1>   0.0800 
 44 H       -1.5530    -9.5380     0.9310 H     1 <1>   0.0800 
 45 H       -2.4100    -9.6930    -1.7120 H     1 <1>   0.0800 
 46 H       -4.0040    -8.9820    -1.9330 H     1 <1>   0.0800 
 47 H       -4.3210   -10.3580     1.6140 H     1 <1>   0.0800 
 48 H       -2.9220   -11.3550     1.2950 H     1 <1>   0.0800 
 49 H       -3.5600   -11.5130    -0.9430 H     1 <1>   0.0800 
 50 H       -4.9860   -10.5790    -0.5630 H     1 <1>   0.0800 
@<TRIPOS>BOND
  1   1   2  ar  
  2   2   3  ar  
  3   2   4  1   
  4   4   5  1   
  5   4   6  2   
  6   5   7  2   
  7   5   8  1   
  8   6   9  1   
  9   6  10  1   
 10   7   9  1   
 11   8  11  1   
 12   8  12  1   
 13  10  13  ar  
 14  10  14  ar  
 15  11  15  1   
 16  11  26  1   
 17  11  27  1   
 18  12  28  1   
 19  12  29  1   
 20  12  30  1   
 21  13  16  ar  
 22  13  31  1   
 23  14  17  ar  
 24  14  32  1   
 25  15  18  1   
 26  15  33  1   
 27  15  34  1   
 28  16  19  ar  
 29  16  35  1   
 30  17  19  ar  
 31  17  36  1   
 32  18  20  1   
 33  18  21  1   
 34  18  37  1   
 35  19  38  1   
 36  20  22  1   
 37  20  23  1   
 38  20  39  1   
 39  21  40  1   
 40  21  41  1   
 41  21  42  1   
 42  22  24  1   
 43  22  43  1   
 44  22  44  1   
 45  23  25  1   
 46  23  45  1   
 47  23  46  1   
 48  24  25  1   
 49  24  47  1   
 50  24  48  1   
 51  25  49  1   
 52  25  50  1   
@<TRIPOS>SUBSTRUCTURE
  1 ****   5 GROUP 4 **** **** 0

# MOE 2024.06 (io_trps.svl 2023.06)
