@<TRIPOS>MOLECULE
NONAME
52 55 1 0 0 
SMALL
USER_CHARGES


@<TRIPOS>ATOM
  1 O       -1.4420     0.2290     0.3950 O.2   1 <1>  -0.5700 
  2 C       -2.2810     1.0830     0.6240 C.2   1 <1>   0.5440 
  3 N       -3.5380     0.6580     0.9930 N.am  1 <1>  -0.6600 
  4 C       -1.9520     2.4910     0.4830 C.ar  1 <1>   0.0860 
  5 C       -3.7430    -0.7370     1.4810 C.3   1 <1>   0.1400 
  6 C       -4.7740     1.2640     0.4200 C.3   1 <1>   0.1400 
  7 C       -2.5140     3.4670     1.3060 C.ar  1 <1>  -0.1500 
  8 C       -1.0480     2.9290    -0.4830 C.ar  1 <1>  -0.1500 
  9 C       -4.1550    -1.6230     0.2820 C.3   1 <1>   0.4230 
 10 C       -5.2550     0.3890    -0.7480 C.3   1 <1>  -0.1600 
 11 C       -2.2020     4.8060     1.1600 C.ar  1 <1>  -0.1500 
 12 C       -0.7350     4.2680    -0.6290 C.ar  1 <1>  -0.1500 
 13 N       -4.2750    -3.0860     0.6020 N.4   1 <1>  -0.9590 
 14 C       -5.4730    -1.0940    -0.3280 C.3   1 <1>  -0.1060 
 15 C       -1.3050     5.2480     0.1850 C.ar  1 <1>   0.0540 
 16 C       -4.5500    -3.8960    -0.6110 C.3   1 <1>   0.3430 
 17 C       -3.1620    -3.6430     1.4150 C.3   1 <1>   0.2630 
 18 C       -6.5840    -1.2040     0.7350 C.2   1 <1>   0.9060 
 19 C       -5.8310    -1.9200    -1.5860 C.3   1 <1>  -0.1600 
 20 C       -0.9760     6.6540     0.0210 C.2   1 <1>   0.4620 
 21 C       -5.8420    -3.4270    -1.2860 C.3   1 <1>  -0.1600 
 22 O       -6.5460    -2.1420     1.5490 O.co2 1 <1>  -0.9000 
 23 O       -7.4750    -0.3570     0.7720 O.co2 1 <1>  -0.9000 
 24 N       -1.5030     7.6170     0.7900 N.2   1 <1>  -0.2270 
 25 N       -0.1590     7.1220    -0.8670 N.2   1 <1>  -0.7070 
 26 N       -1.0130     8.7180     0.3870 N.2   1 <1>  -0.4180 
 27 N       -0.2070     8.4060    -0.6070 N.pl3 1 <1>   0.5800 
 28 C        0.5610     9.4000    -1.3610 C.3   1 <1>   0.0160 
 29 H       -2.8260    -1.0890     1.9150 H     1 <1>   0.0800 
 30 H       -4.5020    -0.7390     2.2440 H     1 <1>   0.0800 
 31 H       -5.5350     1.3220     1.1830 H     1 <1>   0.0800 
 32 H       -4.5850     2.2610     0.0640 H     1 <1>   0.0800 
 33 H       -3.2040     3.1660     2.0750 H     1 <1>   0.1500 
 34 H       -0.5830     2.2020    -1.1260 H     1 <1>   0.1500 
 35 H       -3.3790    -1.5110    -0.4560 H     1 <1>   0.0800 
 36 H       -6.1800     0.7960    -1.1210 H     1 <1>   0.0800 
 37 H       -4.5330     0.4530    -1.5420 H     1 <1>   0.0800 
 38 H       -2.6640     5.5220     1.8180 H     1 <1>   0.1500 
 39 H       -0.0320     4.5640    -1.3890 H     1 <1>   0.1500 
 40 H       -5.1660    -3.0890     1.1700 H     1 <1>   0.4500 
 41 H       -3.7290    -3.8000    -1.3010 H     1 <1>   0.0800 
 42 H       -4.6520    -4.9340    -0.3400 H     1 <1>   0.0800 
 43 H       -2.2250    -3.5280     0.8950 H     1 <1>   0.0800 
 44 H       -3.3330    -4.6900     1.6070 H     1 <1>   0.0800 
 45 H       -3.1020    -3.1330     2.3620 H     1 <1>   0.0800 
 46 H       -6.8010    -1.6190    -1.9450 H     1 <1>   0.0800 
 47 H       -5.1150    -1.7250    -2.3660 H     1 <1>   0.0800 
 48 H       -5.9800    -3.9730    -2.2020 H     1 <1>   0.0800 
 49 H       -6.6760    -3.6650    -0.6470 H     1 <1>   0.0800 
 50 H        1.5230     8.9900    -1.6010 H     1 <1>   0.0800 
 51 H        0.6800    10.2830    -0.7620 H     1 <1>   0.0800 
 52 H        0.0300     9.6370    -2.2620 H     1 <1>   0.0800 
@<TRIPOS>BOND
  1   1   2  2   
  2   2   3  am  
  3   2   4  1   
  4   3   5  1   
  5   3   6  1   
  6   4   7  ar  
  7   4   8  ar  
  8   5   9  1   
  9   5  29  1   
 10   5  30  1   
 11   6  10  1   
 12   6  31  1   
 13   6  32  1   
 14   7  11  ar  
 15   7  33  1   
 16   8  12  ar  
 17   8  34  1   
 18   9  13  1   
 19   9  14  1   
 20   9  35  1   
 21  10  14  1   
 22  10  36  1   
 23  10  37  1   
 24  11  15  ar  
 25  11  38  1   
 26  12  15  ar  
 27  12  39  1   
 28  13  16  1   
 29  13  17  1   
 30  13  40  1   
 31  14  18  1   
 32  14  19  1   
 33  15  20  1   
 34  16  21  1   
 35  16  41  1   
 36  16  42  1   
 37  17  43  1   
 38  17  44  1   
 39  17  45  1   
 40  18  22  ar  
 41  18  23  ar  
 42  19  21  1   
 43  19  46  1   
 44  19  47  1   
 45  20  24  1   
 46  20  25  2   
 47  21  48  1   
 48  21  49  1   
 49  24  26  2   
 50  25  27  1   
 51  26  27  1   
 52  27  28  1   
 53  28  50  1   
 54  28  51  1   
 55  28  52  1   
@<TRIPOS>SUBSTRUCTURE
  1 ****   2 GROUP 4 **** **** 0

# MOE 2024.06 (io_trps.svl 2023.06)
