@<TRIPOS>MOLECULE
NONAME
45 47 1 0 0 
SMALL
USER_CHARGES


@<TRIPOS>ATOM
  1 S       -2.1040     1.6490     0.5610 S.3   1 <1>  -0.0800 
  2 C       -2.0740     0.5400    -0.8030 C.2   1 <1>  -0.1400 
  3 C       -0.3510     1.7140     0.6070 C.2   1 <1>  -0.1100 
  4 C       -0.8030     0.2710    -1.1580 C.2   1 <1>  -0.1500 
  5 C       -3.4000     0.0580    -1.3730 C.3   1 <1>   0.0810 
  6 C        0.1770     0.9390    -0.3570 C.2   1 <1>  -0.1500 
  7 C       -4.1470    -0.8790    -0.4270 C.2   1 <1>   0.5690 
  8 O       -3.7890    -2.0350    -0.4250 O.2   1 <1>  -0.5700 
  9 N       -5.1940    -0.4570     0.3650 N.am  1 <1>  -0.6600 
 10 C       -5.9060    -1.4490     1.2400 C.3   1 <1>   0.1400 
 11 C       -5.6570     0.9580     0.4600 C.3   1 <1>   0.1400 
 12 C       -7.4280    -1.2380     1.3480 C.3   1 <1>   0.1400 
 13 C       -6.7770     1.2320    -0.5510 C.3   1 <1>  -0.1600 
 14 N       -8.0430    -0.8270     0.0500 N.am  1 <1>  -0.6600 
 15 C       -8.1370     0.6390    -0.1650 C.3   1 <1>   0.1400 
 16 C       -8.2740    -1.7210    -0.9740 C.2   1 <1>   0.7160 
 17 O       -8.5160    -1.3050    -2.0910 O.2   1 <1>  -0.5700 
 18 C       -8.2430    -3.1380    -0.7300 C.2   1 <1>  -0.0860 
 19 C       -7.3280    -4.0800    -1.0330 C.2   1 <1>  -0.0400 
 20 C       -9.2030    -3.8930    -0.0790 C.2   1 <1>   0.1080 
 21 O       -7.6740    -5.2660    -0.5940 O.3   1 <1>  -0.0190 
 22 C       -6.0160    -3.9360    -1.7760 C.3   1 <1>  -0.0600 
 23 N       -8.8400    -5.1170    -0.0050 N.2   1 <1>  -0.4100 
 24 C      -10.5140    -3.3630     0.4660 C.3   1 <1>  -0.0590 
 25 H        0.1020     2.3330     1.3610 H     1 <1>   0.1500 
 26 H       -0.5030    -0.3810    -1.9600 H     1 <1>   0.1500 
 27 H       -3.2000    -0.4920    -2.2740 H     1 <1>   0.0800 
 28 H       -4.0050     0.8970    -1.6510 H     1 <1>   0.0800 
 29 H        1.2280     0.8020    -0.5430 H     1 <1>   0.1500 
 30 H       -5.4750    -1.4150     2.2240 H     1 <1>   0.0800 
 31 H       -5.7430    -2.4440     0.8630 H     1 <1>   0.0800 
 32 H       -4.8370     1.6240     0.2650 H     1 <1>   0.0800 
 33 H       -5.9940     1.1660     1.4610 H     1 <1>   0.0800 
 34 H       -7.6250    -0.4860     2.0910 H     1 <1>   0.0800 
 35 H       -7.8800    -2.1490     1.7000 H     1 <1>   0.0800 
 36 H       -6.4950     0.8680    -1.5230 H     1 <1>   0.0800 
 37 H       -6.9010     2.2960    -0.6360 H     1 <1>   0.0800 
 38 H       -8.8480     0.8450    -0.9480 H     1 <1>   0.0800 
 39 H       -8.5020     1.1080     0.7320 H     1 <1>   0.0800 
 40 H       -5.8630    -2.9160    -2.0770 H     1 <1>   0.0800 
 41 H       -6.0230    -4.5580    -2.6520 H     1 <1>   0.0800 
 42 H       -5.2010    -4.2370    -1.1420 H     1 <1>   0.0800 
 43 H      -11.0760    -2.9030    -0.3270 H     1 <1>   0.0800 
 44 H      -10.3290    -2.6380     1.2350 H     1 <1>   0.0800 
 45 H      -11.0930    -4.1700     0.8770 H     1 <1>   0.0800 
@<TRIPOS>BOND
  1   1   2  1   
  2   1   3  1   
  3   2   4  2   
  4   2   5  1   
  5   3   6  2   
  6   3  25  1   
  7   4   6  1   
  8   4  26  1   
  9   5   7  1   
 10   5  27  1   
 11   5  28  1   
 12   6  29  1   
 13   7   8  2   
 14   7   9  am  
 15   9  10  1   
 16   9  11  1   
 17  10  12  1   
 18  10  30  1   
 19  10  31  1   
 20  11  13  1   
 21  11  32  1   
 22  11  33  1   
 23  12  14  1   
 24  12  34  1   
 25  12  35  1   
 26  13  15  1   
 27  13  36  1   
 28  13  37  1   
 29  14  15  1   
 30  14  16  am  
 31  15  38  1   
 32  15  39  1   
 33  16  17  2   
 34  16  18  1   
 35  18  19  2   
 36  18  20  1   
 37  19  21  1   
 38  19  22  1   
 39  20  23  2   
 40  20  24  1   
 41  21  23  1   
 42  22  40  1   
 43  22  41  1   
 44  22  42  1   
 45  24  43  1   
 46  24  44  1   
 47  24  45  1   
@<TRIPOS>SUBSTRUCTURE
  1 ****   9 GROUP 4 **** **** 0

# MOE 2024.06 (io_trps.svl 2023.06)
