@<TRIPOS>MOLECULE
NONAME
39 41 1 0 0 
SMALL
USER_CHARGES


@<TRIPOS>ATOM
  1 CL      -0.1720    -1.0350     2.3840 Cl    1 <1>  -0.1770 
  2 C       -0.4060    -2.4930     1.4600 C.ar  1 <1>   0.1770 
  3 C       -0.6610    -3.6790     2.1150 C.ar  1 <1>  -0.1500 
  4 C       -0.3350    -2.4430     0.0790 C.ar  1 <1>  -0.1500 
  5 C       -0.8420    -4.8190     1.3550 C.ar  1 <1>   0.1900 
  6 C       -0.5200    -3.6020    -0.6570 C.ar  1 <1>  -0.1500 
  7 F       -1.0970    -5.9200     2.0090 F     1 <1>  -0.1900 
  8 C       -0.7750    -4.8340    -0.0430 C.ar  1 <1>   0.0860 
  9 C       -0.9570    -6.0270    -0.8500 C.2   1 <1>   0.5440 
 10 O       -1.3690    -5.9370    -1.9900 O.2   1 <1>  -0.5700 
 11 N       -0.6710    -7.2730    -0.3750 N.am  1 <1>  -0.7300 
 12 C       -0.8500    -8.5450    -1.1130 C.3   1 <1>   0.2200 
 13 C       -2.0950    -9.2840    -0.6410 C.3   1 <1>  -0.0800 
 14 C        0.2350    -9.5210    -0.6790 C.3   1 <1>   0.1200 
 15 C       -1.5990   -10.0420     0.5960 C.3   1 <1>   0.1200 
 16 C       -3.3410    -8.4140    -0.3920 C.3   1 <1>  -0.0160 
 17 O       -0.2010   -10.0310     0.5450 O.3   1 <1>  -0.5600 
 18 C       -4.5360    -9.2740    -0.0100 C.ar  1 <1>  -0.1430 
 19 C       -4.9230    -9.4500     1.3030 C.ar  1 <1>  -0.1500 
 20 C       -5.2960    -9.9230    -0.9620 C.ar  1 <1>  -0.1500 
 21 C       -6.0160   -10.2500     1.5930 C.ar  1 <1>   0.1600 
 22 C       -6.3710   -10.7010    -0.5650 C.ar  1 <1>   0.1600 
 23 N       -6.7480   -10.8820     0.6900 N.ar  1 <1>  -0.6200 
 24 H       -0.7190    -3.7120     3.1880 H     1 <1>   0.1500 
 25 H       -0.1390    -1.5050    -0.4100 H     1 <1>   0.1500 
 26 H       -0.4670    -3.5590    -1.7340 H     1 <1>   0.1500 
 27 H       -0.4020    -7.3990     0.6060 H     1 <1>   0.3700 
 28 H       -0.8430    -8.3740    -2.1770 H     1 <1>   0.0800 
 29 H       -2.3430   -10.0180    -1.3880 H     1 <1>   0.0800 
 30 H        1.1950    -9.0510    -0.5580 H     1 <1>   0.0800 
 31 H        0.3100   -10.3410    -1.3710 H     1 <1>   0.0800 
 32 H       -1.9420   -11.0620     0.6030 H     1 <1>   0.0800 
 33 H       -1.8930    -9.5510     1.5070 H     1 <1>   0.0800 
 34 H       -3.5720    -7.8580    -1.2840 H     1 <1>   0.0800 
 35 H       -3.1540    -7.7020     0.3910 H     1 <1>   0.0800 
 36 H       -4.3870    -8.9740     2.1040 H     1 <1>   0.1500 
 37 H       -5.0610    -9.8310    -2.0060 H     1 <1>   0.1500 
 38 H       -6.3020   -10.3770     2.6230 H     1 <1>   0.1500 
 39 H       -6.9520   -11.2000    -1.3220 H     1 <1>   0.1500 
@<TRIPOS>BOND
  1   1   2  1   
  2   2   3  ar  
  3   2   4  ar  
  4   3   5  ar  
  5   3  24  1   
  6   4   6  ar  
  7   4  25  1   
  8   5   7  1   
  9   5   8  ar  
 10   6   8  ar  
 11   6  26  1   
 12   8   9  1   
 13   9  10  2   
 14   9  11  am  
 15  11  12  1   
 16  11  27  1   
 17  12  13  1   
 18  12  14  1   
 19  12  28  1   
 20  13  15  1   
 21  13  16  1   
 22  13  29  1   
 23  14  17  1   
 24  14  30  1   
 25  14  31  1   
 26  15  17  1   
 27  15  32  1   
 28  15  33  1   
 29  16  18  1   
 30  16  34  1   
 31  16  35  1   
 32  18  19  ar  
 33  18  20  ar  
 34  19  21  ar  
 35  19  36  1   
 36  20  22  ar  
 37  20  37  1   
 38  21  23  ar  
 39  21  38  1   
 40  22  23  ar  
 41  22  39  1   
@<TRIPOS>SUBSTRUCTURE
  1 ****  11 GROUP 4 **** **** 0

# MOE 2024.06 (io_trps.svl 2023.06)
