@<TRIPOS>MOLECULE
NONAME
43 45 1 0 0 
SMALL
USER_CHARGES


@<TRIPOS>ATOM
  1 O        0.9420     0.6450    -1.2570 O.3   1 <1>  -0.0190 
  2 N        0.0060     1.5110    -1.0170 N.2   1 <1>  -0.4100 
  3 C        1.5780     0.5400    -0.1170 C.2   1 <1>   0.2980 
  4 C        0.1220     1.8650     0.2030 C.2   1 <1>   0.3350 
  5 N        1.1250     1.2640     0.8310 N.2   1 <1>  -0.5650 
  6 C        2.7640    -0.4210    -0.0120 C.3   1 <1>   0.3700 
  7 C       -0.7640     2.8760     0.9330 C.3   1 <1>   0.1010 
  8 N        2.4320    -1.8030    -0.3710 N.3   1 <1>  -0.8100 
  9 C        3.9210    -0.0830    -0.9480 C.3   1 <1>  -0.1600 
 10 C       -2.1990     2.9030     0.3830 C.3   1 <1>  -0.2400 
 11 C       -0.1470     4.2800     0.8650 C.3   1 <1>  -0.2400 
 12 C        3.7000    -2.4850    -0.6150 C.3   1 <1>   0.1100 
 13 C        1.5800    -2.4680     0.6230 C.3   1 <1>   0.2910 
 14 C        4.6160    -1.4200    -1.2150 C.3   1 <1>  -0.1600 
 15 C        1.1740    -3.8400     0.1220 C.2   1 <1>  -0.1810 
 16 C        0.5000    -4.1690    -0.9910 C.2   1 <1>  -0.0400 
 17 C        1.4180    -5.0760     0.7230 C.2   1 <1>   0.1080 
 18 O        0.3740    -5.4680    -1.0180 O.3   1 <1>  -0.0190 
 19 C       -0.0740    -3.3290    -2.1130 C.3   1 <1>  -0.0600 
 20 N        0.9270    -6.0310     0.0170 N.2   1 <1>  -0.4100 
 21 C        2.1570    -5.2990     2.0240 C.3   1 <1>  -0.0590 
 22 H        3.1310    -0.4040     1.0010 H     1 <1>   0.0800 
 23 H       -0.8110     2.5770     1.9650 H     1 <1>   0.0800 
 24 H        3.5360     0.3150    -1.8710 H     1 <1>   0.0800 
 25 H        4.5790     0.6420    -0.5040 H     1 <1>   0.0800 
 26 H       -2.2020     3.2240    -0.6440 H     1 <1>   0.0800 
 27 H       -2.8090     3.5760     0.9580 H     1 <1>   0.0800 
 28 H       -2.6290     1.9190     0.4350 H     1 <1>   0.0800 
 29 H       -0.0770     4.6070    -0.1570 H     1 <1>   0.0800 
 30 H        0.8420     4.2660     1.2880 H     1 <1>   0.0800 
 31 H       -0.7460     4.9820     1.4170 H     1 <1>   0.0800 
 32 H        4.1140    -2.8430     0.3130 H     1 <1>   0.0800 
 33 H        3.5590    -3.3150    -1.2880 H     1 <1>   0.0800 
 34 H        2.0980    -2.5460     1.5620 H     1 <1>   0.0800 
 35 H        0.6870    -1.8860     0.7770 H     1 <1>   0.0800 
 36 H        5.5860    -1.4630    -0.7530 H     1 <1>   0.0800 
 37 H        4.7270    -1.5820    -2.2730 H     1 <1>   0.0800 
 38 H        0.1170    -2.2860    -1.9350 H     1 <1>   0.0800 
 39 H       -1.1350    -3.4840    -2.1790 H     1 <1>   0.0800 
 40 H        0.3820    -3.6100    -3.0440 H     1 <1>   0.0800 
 41 H        3.1560    -4.9120     1.9480 H     1 <1>   0.0800 
 42 H        2.2080    -6.3510     2.2400 H     1 <1>   0.0800 
 43 H        1.6410    -4.8060     2.8270 H     1 <1>   0.0800 
@<TRIPOS>BOND
  1   1   2  1   
  2   1   3  1   
  3   2   4  2   
  4   3   5  2   
  5   3   6  1   
  6   4   5  1   
  7   4   7  1   
  8   6   8  1   
  9   6   9  1   
 10   6  22  1   
 11   7  10  1   
 12   7  11  1   
 13   7  23  1   
 14   8  12  1   
 15   8  13  1   
 16   9  14  1   
 17   9  24  1   
 18   9  25  1   
 19  10  26  1   
 20  10  27  1   
 21  10  28  1   
 22  11  29  1   
 23  11  30  1   
 24  11  31  1   
 25  12  14  1   
 26  12  32  1   
 27  12  33  1   
 28  13  15  1   
 29  13  34  1   
 30  13  35  1   
 31  14  36  1   
 32  14  37  1   
 33  15  16  2   
 34  15  17  1   
 35  16  18  1   
 36  16  19  1   
 37  17  20  2   
 38  17  21  1   
 39  18  20  1   
 40  19  38  1   
 41  19  39  1   
 42  19  40  1   
 43  21  41  1   
 44  21  42  1   
 45  21  43  1   
@<TRIPOS>SUBSTRUCTURE
  1 ****   8 GROUP 4 **** **** 0

# MOE 2024.06 (io_trps.svl 2023.06)
