@<TRIPOS>MOLECULE
NONAME
46 47 1 0 0 
SMALL
USER_CHARGES


@<TRIPOS>ATOM
  1 O       -0.0940     0.0550     0.9450 O.2   1 <1>  -0.5700 
  2 C       -1.0000     0.5560     0.3260 C.2   1 <1>   0.5690 
  3 N       -1.9050    -0.1960    -0.3430 N.am  1 <1>  -0.7300 
  4 C       -1.1370     2.0760     0.3070 C.3   1 <1>  -0.0190 
  5 C       -1.9640    -1.6630    -0.3170 C.3   1 <1>   0.2840 
  6 C       -2.5140     2.5390     0.8240 C.3   1 <1>  -0.1600 
  7 C       -0.8350     2.6650    -1.0930 C.3   1 <1>  -0.1600 
  8 C       -3.4130    -2.0630    -0.5190 C.ar  1 <1>  -0.1440 
  9 C       -2.5990     4.0740     0.9580 C.3   1 <1>   0.2000 
 10 C       -1.4520     4.0590    -1.3250 C.3   1 <1>  -0.1600 
 11 C       -4.2800    -2.1050     0.5600 C.ar  1 <1>  -0.1500 
 12 C       -3.8890    -2.3730    -1.7810 C.ar  1 <1>  -0.1500 
 13 O       -3.9230     4.4620     0.6860 O.3   1 <1>  -0.5600 
 14 C       -1.6400     4.8180    -0.0100 C.3   1 <1>   0.2000 
 15 C       -5.6110    -2.4560     0.3940 C.ar  1 <1>  -0.1430 
 16 C       -5.2150    -2.7230    -1.9560 C.ar  1 <1>  -0.1500 
 17 C       -4.8190     4.2990     1.7420 C.3   1 <1>   0.0400 
 18 O       -2.1680     6.0580    -0.3050 O.3   1 <1>  -0.6800 
 19 C       -6.0830    -2.7680    -0.8770 C.ar  1 <1>  -0.1430 
 20 C       -6.5240    -2.4910     1.6110 C.3   1 <1>  -0.0970 
 21 C       -7.5350    -3.1590    -1.1120 C.3   1 <1>  -0.0970 
 22 H       -2.6970     0.2420    -0.8170 H     1 <1>   0.3700 
 23 H       -0.3970     2.4580     0.9900 H     1 <1>   0.0800 
 24 H       -1.3480    -2.0620    -1.1040 H     1 <1>   0.0800 
 25 H       -1.5980    -2.0320     0.6260 H     1 <1>   0.0800 
 26 H       -2.7040     2.0900     1.7830 H     1 <1>   0.0800 
 27 H       -3.2710     2.2020     0.1370 H     1 <1>   0.0800 
 28 H        0.2340     2.7230    -1.2080 H     1 <1>   0.0800 
 29 H       -1.1990     2.0050    -1.8620 H     1 <1>   0.0800 
 30 H       -2.3480     4.3740     1.9610 H     1 <1>   0.0800 
 31 H       -2.4150     3.9420    -1.7910 H     1 <1>   0.0800 
 32 H       -0.8230     4.6260    -1.9890 H     1 <1>   0.0800 
 33 H       -3.9090    -1.8600     1.5400 H     1 <1>   0.1500 
 34 H       -3.2320    -2.3440    -2.6330 H     1 <1>   0.1500 
 35 H       -0.6810     4.9690     0.4560 H     1 <1>   0.0800 
 36 H       -5.5670    -2.9620    -2.9440 H     1 <1>   0.1500 
 37 H       -5.7850     4.6420     1.4170 H     1 <1>   0.0800 
 38 H       -4.4900     4.8870     2.5810 H     1 <1>   0.0800 
 39 H       -4.8780     3.2580     2.0080 H     1 <1>   0.0800 
 40 H       -3.1450     5.9500    -0.2550 H     1 <1>   0.4000 
 41 H       -5.9880    -2.2260     2.5040 H     1 <1>   0.0800 
 42 H       -6.9250    -3.4800     1.7410 H     1 <1>   0.0800 
 43 H       -7.3340    -1.7970     1.4850 H     1 <1>   0.0800 
 44 H       -7.7170    -3.3620    -2.1520 H     1 <1>   0.0800 
 45 H       -8.1860    -2.3600    -0.8060 H     1 <1>   0.0800 
 46 H       -7.7740    -4.0430    -0.5490 H     1 <1>   0.0800 
@<TRIPOS>BOND
  1   1   2  2   
  2   2   3  am  
  3   2   4  1   
  4   3   5  1   
  5   3  22  1   
  6   4   6  1   
  7   4   7  1   
  8   4  23  1   
  9   5   8  1   
 10   5  24  1   
 11   5  25  1   
 12   6   9  1   
 13   6  26  1   
 14   6  27  1   
 15   7  10  1   
 16   7  28  1   
 17   7  29  1   
 18   8  11  ar  
 19   8  12  ar  
 20   9  13  1   
 21   9  14  1   
 22   9  30  1   
 23  10  14  1   
 24  10  31  1   
 25  10  32  1   
 26  11  15  ar  
 27  11  33  1   
 28  12  16  ar  
 29  12  34  1   
 30  13  17  1   
 31  14  18  1   
 32  14  35  1   
 33  15  19  ar  
 34  15  20  1   
 35  16  19  ar  
 36  16  36  1   
 37  17  37  1   
 38  17  38  1   
 39  17  39  1   
 40  18  40  1   
 41  19  21  1   
 42  20  41  1   
 43  20  42  1   
 44  20  43  1   
 45  21  44  1   
 46  21  45  1   
 47  21  46  1   
@<TRIPOS>SUBSTRUCTURE
  1 ****   3 GROUP 4 **** **** 0

# MOE 2024.06 (io_trps.svl 2023.06)
