@<TRIPOS>MOLECULE
NONAME
50 53 1 0 0 
SMALL
USER_CHARGES


@<TRIPOS>ATOM
  1 O        0.6280    -1.5650    -2.7400 O.2   1 <1>  -0.5700 
  2 C        0.9420    -1.9970    -1.6420 C.2   1 <1>   0.5440 
  3 N        1.0190    -1.0820    -0.6080 N.am  1 <1>  -0.6600 
  4 C        1.2410    -3.4250    -1.5010 C.ar  1 <1>   0.3960 
  5 C        1.5120    -1.3500     0.7620 C.3   1 <1>   0.1400 
  6 C        0.6940     0.3510    -0.7810 C.3   1 <1>   0.1400 
  7 N        1.0190    -4.0760    -0.3440 N.ar  1 <1>  -0.6200 
  8 C        1.7590    -4.0910    -2.6190 C.ar  1 <1>   0.1600 
  9 C        1.7550     0.0290     1.3640 C.3   1 <1>  -0.1600 
 10 C        0.7920     0.9480     0.6180 C.3   1 <1>  -0.1600 
 11 C        1.3470    -5.3490    -0.3810 C.ar  1 <1>   0.4100 
 12 N        2.1000    -5.3720    -2.6700 N.ar  1 <1>  -0.6200 
 13 N        1.1060    -5.9970     0.8030 N.pl3 1 <1>  -0.8690 
 14 C        1.8840    -5.9720    -1.5180 C.ar  1 <1>   0.1600 
 15 C        0.4630    -7.3350     0.8590 C.3   1 <1>   0.2090 
 16 C       -1.0290    -7.2320     0.5310 C.3   1 <1>   0.0210 
 17 C       -1.7110    -8.5850     0.5780 C.2   1 <1>   0.3350 
 18 N       -1.1430    -9.7040     0.7940 N.2   1 <1>  -0.4100 
 19 N       -3.0150    -8.6850     0.3820 N.2   1 <1>  -0.5650 
 20 O       -2.0660   -10.6160     0.7480 O.3   1 <1>  -0.0190 
 21 C       -3.1640    -9.9460     0.4950 C.2   1 <1>   0.2980 
 22 C       -4.4660   -10.7320     0.3700 C.3   1 <1>   0.1000 
 23 C       -4.4490   -11.7410    -0.7780 C.3   1 <1>  -0.1600 
 24 C       -5.7080    -9.8900     0.0740 C.3   1 <1>  -0.1600 
 25 C       -5.9210   -12.0340    -1.0900 C.3   1 <1>  -0.1600 
 26 C       -6.7310   -10.8820    -0.4830 C.3   1 <1>  -0.1600 
 27 H        2.4130    -1.9390     0.7450 H     1 <1>   0.0800 
 28 H        0.7480    -1.8700     1.3140 H     1 <1>   0.0800 
 29 H       -0.2910     0.4710    -1.2000 H     1 <1>   0.0800 
 30 H        1.4210     0.7970    -1.4380 H     1 <1>   0.0800 
 31 H        1.9010    -3.5220    -3.5220 H     1 <1>   0.1500 
 32 H        2.7710     0.3240     1.1620 H     1 <1>   0.0800 
 33 H        1.5920     0.0360     2.4270 H     1 <1>   0.0800 
 34 H       -0.1800     0.9130     1.0800 H     1 <1>   0.0800 
 35 H        1.1310     1.9680     0.5930 H     1 <1>   0.0800 
 36 H        0.7490    -5.3430     1.5070 H     1 <1>   0.4000 
 37 H        2.1420    -7.0120    -1.4480 H     1 <1>   0.1500 
 38 H        0.5870    -7.7420     1.8490 H     1 <1>   0.0800 
 39 H        0.9440    -8.0050     0.1660 H     1 <1>   0.0800 
 40 H       -1.1570    -6.8250    -0.4550 H     1 <1>   0.0800 
 41 H       -1.5100    -6.5830     1.2380 H     1 <1>   0.0800 
 42 H       -4.6300   -11.2640     1.2920 H     1 <1>   0.0800 
 43 H       -3.9060   -12.6340    -0.5190 H     1 <1>   0.0800 
 44 H       -3.9880   -11.2880    -1.6400 H     1 <1>   0.0800 
 45 H       -5.4770    -9.1610    -0.6840 H     1 <1>   0.0800 
 46 H       -6.0680    -9.3810     0.9510 H     1 <1>   0.0800 
 47 H       -6.2190   -12.9650    -0.6380 H     1 <1>   0.0800 
 48 H       -6.0760   -12.1000    -2.1540 H     1 <1>   0.0800 
 49 H       -7.3660   -10.4140    -1.2160 H     1 <1>   0.0800 
 50 H       -7.3450   -11.2580     0.3180 H     1 <1>   0.0800 
@<TRIPOS>BOND
  1   1   2  2   
  2   2   3  am  
  3   2   4  1   
  4   3   5  1   
  5   3   6  1   
  6   4   7  ar  
  7   4   8  ar  
  8   5   9  1   
  9   5  27  1   
 10   5  28  1   
 11   6  10  1   
 12   6  29  1   
 13   6  30  1   
 14   7  11  ar  
 15   8  12  ar  
 16   8  31  1   
 17   9  10  1   
 18   9  32  1   
 19   9  33  1   
 20  10  34  1   
 21  10  35  1   
 22  11  13  1   
 23  11  14  ar  
 24  12  14  ar  
 25  13  15  1   
 26  13  36  1   
 27  14  37  1   
 28  15  16  1   
 29  15  38  1   
 30  15  39  1   
 31  16  17  1   
 32  16  40  1   
 33  16  41  1   
 34  17  18  2   
 35  17  19  1   
 36  18  20  1   
 37  19  21  2   
 38  20  21  1   
 39  21  22  1   
 40  22  23  1   
 41  22  24  1   
 42  22  42  1   
 43  23  25  1   
 44  23  43  1   
 45  23  44  1   
 46  24  26  1   
 47  24  45  1   
 48  24  46  1   
 49  25  26  1   
 50  25  47  1   
 51  25  48  1   
 52  26  49  1   
 53  26  50  1   
@<TRIPOS>SUBSTRUCTURE
  1 ****  16 GROUP 4 **** **** 0

# MOE 2024.06 (io_trps.svl 2023.06)
