@<TRIPOS>MOLECULE
NONAME
45 48 1 0 0 
SMALL
USER_CHARGES


@<TRIPOS>ATOM
  1 O       -0.8350    -0.0340     1.2880 O.2   1 <1>  -0.5700 
  2 C       -1.7260     0.5140     0.6930 C.2   1 <1>   0.4230 
  3 C       -2.9780    -0.1330     0.4150 C.ar  1 <1>   0.0860 
  4 C       -1.4390     1.9110     0.1780 C.3   1 <1>  -0.1790 
  5 C       -4.2450     0.4370     0.5140 C.ar  1 <1>   0.1660 
  6 C       -2.9710    -1.4550     0.0030 C.ar  1 <1>   0.1600 
  7 N       -5.3330    -0.2100     0.1800 N.ar  1 <1>  -0.6200 
  8 C       -4.4770     1.8420     1.0440 C.3   1 <1>  -0.0960 
  9 N       -4.0460    -2.1240    -0.3250 N.ar  1 <1>  -0.6200 
 10 C       -5.2030    -1.4710    -0.2320 C.ar  1 <1>   0.7200 
 11 N       -6.3370    -2.1430    -0.5880 N.pl3 1 <1>  -0.8380 
 12 C       -6.3470    -3.6400    -0.7060 C.3   1 <1>   0.3900 
 13 C       -7.6490    -1.4640    -0.8560 C.3   1 <1>   0.2090 
 14 C       -7.6780    -4.2030    -0.2270 C.2   1 <1>  -0.1810 
 15 C       -8.7430    -1.9460     0.1120 C.3   1 <1>   0.0200 
 16 C       -8.0260    -5.5620    -0.0750 C.ar  1 <1>   0.0000 
 17 C       -8.7440    -3.4610     0.1460 C.2   1 <1>  -0.3320 
 18 C       -9.3320    -5.5770     0.4090 C.ar  1 <1>  -0.1520 
 19 C       -7.3600    -6.7710    -0.3000 C.ar  1 <1>  -0.1500 
 20 N       -9.7610    -4.2780     0.5460 N.pl3 1 <1>   0.0330 
 21 C       -9.9840    -6.7840     0.6720 C.ar  1 <1>  -0.1500 
 22 C       -7.9970    -7.9630    -0.0440 C.ar  1 <1>   0.0820 
 23 C       -9.3190    -7.9670     0.4450 C.ar  1 <1>  -0.1500 
 24 O       -7.2890    -9.1020    -0.2860 O.3   1 <1>  -0.3620 
 25 C       -7.8430   -10.3710    -0.0220 C.3   1 <1>   0.0400 
 26 H       -2.0990     2.1670    -0.6290 H     1 <1>   0.0800 
 27 H       -0.4270     1.9540    -0.1840 H     1 <1>   0.0800 
 28 H       -1.5430     2.6230     0.9760 H     1 <1>   0.0800 
 29 H       -2.0250    -1.9680    -0.0590 H     1 <1>   0.1500 
 30 H       -3.7760     2.0820     1.8210 H     1 <1>   0.0800 
 31 H       -5.4660     1.9180     1.4620 H     1 <1>   0.0800 
 32 H       -4.3940     2.5560     0.2450 H     1 <1>   0.0800 
 33 H       -5.5640    -4.0710    -0.1080 H     1 <1>   0.0800 
 34 H       -6.1870    -3.9170    -1.7330 H     1 <1>   0.0800 
 35 H       -7.9480    -1.7040    -1.8620 H     1 <1>   0.0800 
 36 H       -7.5590    -0.3950    -0.7920 H     1 <1>   0.0800 
 37 H       -9.6960    -1.5780    -0.2210 H     1 <1>   0.0800 
 38 H       -8.5470    -1.5580     1.0950 H     1 <1>   0.0800 
 39 H       -6.3540    -6.7630    -0.6700 H     1 <1>   0.1500 
 40 H      -10.6800    -3.9900     0.8940 H     1 <1>   0.2700 
 41 H      -10.9920    -6.7770     1.0450 H     1 <1>   0.1500 
 42 H       -9.8250    -8.8910     0.6480 H     1 <1>   0.1500 
 43 H       -7.1080   -11.1140    -0.2720 H     1 <1>   0.0800 
 44 H       -8.7190   -10.5030    -0.6320 H     1 <1>   0.0800 
 45 H       -8.0850   -10.4340     1.0240 H     1 <1>   0.0800 
@<TRIPOS>BOND
  1   1   2  2   
  2   2   3  1   
  3   2   4  1   
  4   3   5  ar  
  5   3   6  ar  
  6   4  26  1   
  7   4  27  1   
  8   4  28  1   
  9   5   7  ar  
 10   5   8  1   
 11   6   9  ar  
 12   6  29  1   
 13   7  10  ar  
 14   8  30  1   
 15   8  31  1   
 16   8  32  1   
 17   9  10  ar  
 18  10  11  1   
 19  11  12  1   
 20  11  13  1   
 21  12  14  1   
 22  12  33  1   
 23  12  34  1   
 24  13  15  1   
 25  13  35  1   
 26  13  36  1   
 27  14  16  1   
 28  14  17  2   
 29  15  17  1   
 30  15  37  1   
 31  15  38  1   
 32  16  18  ar  
 33  16  19  ar  
 34  17  20  1   
 35  18  20  1   
 36  18  21  ar  
 37  19  22  ar  
 38  19  39  1   
 39  20  40  1   
 40  21  23  ar  
 41  21  41  1   
 42  22  23  ar  
 43  22  24  1   
 44  23  42  1   
 45  24  25  1   
 46  25  43  1   
 47  25  44  1   
 48  25  45  1   
@<TRIPOS>SUBSTRUCTURE
  1 ****  12 GROUP 4 **** **** 0

# MOE 2024.06 (io_trps.svl 2023.06)
