@<TRIPOS>MOLECULE
NONAME
51 53 1 0 0 
SMALL
USER_CHARGES


@<TRIPOS>ATOM
  1 O       -0.0150    -0.5690    -0.4840 O.3   1 <1>  -0.5600 
  2 C        0.2590    -1.8900    -0.1810 C.3   1 <1>   0.2000 
  3 C       -0.3990     0.1420     0.6550 C.3   1 <1>   0.1200 
  4 C        0.7950    -1.8550     1.2450 C.3   1 <1>  -0.1600 
  5 C        1.2570    -2.4200    -1.2230 C.3   1 <1>   0.3430 
  6 C        0.0240    -0.6990     1.8570 C.3   1 <1>  -0.1600 
  7 N        1.6500    -3.8480    -0.9690 N.4   1 <1>  -0.9590 
  8 C        3.0080    -4.1120    -1.5160 C.3   1 <1>   0.4860 
  9 C        0.6150    -4.8080    -1.4410 C.3   1 <1>   0.3430 
 10 C        3.9840    -3.5190    -0.5240 C.ar  1 <1>  -0.1440 
 11 C        0.7970    -6.1520    -0.7360 C.3   1 <1>  -0.1600 
 12 C        4.2280    -4.1720     0.6770 C.ar  1 <1>  -0.1500 
 13 C        4.6240    -2.3190    -0.7930 C.ar  1 <1>  -0.1500 
 14 C       -0.3230    -7.1360    -1.1040 C.3   1 <1>   0.0960 
 15 C        5.0890    -3.6240     1.6120 C.ar  1 <1>  -0.1440 
 16 C        5.4850    -1.7700     0.1390 C.ar  1 <1>  -0.1500 
 17 N       -0.1110    -8.4030    -0.3830 N.pl3 1 <1>   0.0480 
 18 C        5.7130    -2.4190     1.3390 C.ar  1 <1>  -0.1500 
 19 C        5.3580    -4.3320     2.9280 C.3   1 <1>  -0.0970 
 20 C       -0.5830    -8.7530     0.8340 C.2   1 <1>   0.0360 
 21 C        0.6520    -9.4430    -0.7660 C.2   1 <1>  -0.3020 
 22 N       -0.1780    -9.9100     1.2410 N.2   1 <1>  -0.5650 
 23 C        0.5970   -10.3500     0.2330 C.2   1 <1>   0.0770 
 24 H       -0.6770    -2.4210    -0.2280 H     1 <1>   0.0800 
 25 H       -1.4660     0.2870     0.6270 H     1 <1>   0.0800 
 26 H        0.1000     1.0960     0.6390 H     1 <1>   0.0800 
 27 H        1.8490    -1.6270     1.2410 H     1 <1>   0.0800 
 28 H        0.6300    -2.7760     1.7740 H     1 <1>   0.0800 
 29 H        2.1310    -1.7910    -1.1700 H     1 <1>   0.0800 
 30 H        0.8300    -2.3210    -2.2060 H     1 <1>   0.0800 
 31 H       -0.8530    -1.0510     2.3710 H     1 <1>   0.0800 
 32 H        0.6240    -0.1290     2.5450 H     1 <1>   0.0800 
 33 H        1.7660    -3.9360     0.0500 H     1 <1>   0.4500 
 34 H        3.1270    -3.6620    -2.4880 H     1 <1>   0.0800 
 35 H        3.1910    -5.1700    -1.5960 H     1 <1>   0.0800 
 36 H        0.6810    -4.9310    -2.5110 H     1 <1>   0.0800 
 37 H       -0.3650    -4.4230    -1.2070 H     1 <1>   0.0800 
 38 H        0.7800    -6.0000     0.3300 H     1 <1>   0.0800 
 39 H        1.7380    -6.5920    -1.0140 H     1 <1>   0.0800 
 40 H        3.7550    -5.1140     0.8980 H     1 <1>   0.1500 
 41 H        4.4660    -1.7950    -1.7210 H     1 <1>   0.1500 
 42 H       -0.3230    -7.3410    -2.1600 H     1 <1>   0.0800 
 43 H       -1.2860    -6.7430    -0.8280 H     1 <1>   0.0800 
 44 H        5.9820    -0.8360    -0.0650 H     1 <1>   0.1500 
 45 H        6.3850    -1.9820     2.0590 H     1 <1>   0.1500 
 46 H        5.1560    -5.3850     2.8470 H     1 <1>   0.0800 
 47 H        4.7360    -3.9180     3.7010 H     1 <1>   0.0800 
 48 H        6.3880    -4.2100     3.2130 H     1 <1>   0.0800 
 49 H       -1.2340    -8.1150     1.4060 H     1 <1>   0.1500 
 50 H        1.1800    -9.4930    -1.7010 H     1 <1>   0.1500 
 51 H        1.0810   -11.3130     0.2820 H     1 <1>   0.1500 
@<TRIPOS>BOND
  1   1   2  1   
  2   1   3  1   
  3   2   4  1   
  4   2   5  1   
  5   2  24  1   
  6   3   6  1   
  7   3  25  1   
  8   3  26  1   
  9   4   6  1   
 10   4  27  1   
 11   4  28  1   
 12   5   7  1   
 13   5  29  1   
 14   5  30  1   
 15   6  31  1   
 16   6  32  1   
 17   7   8  1   
 18   7   9  1   
 19   7  33  1   
 20   8  10  1   
 21   8  34  1   
 22   8  35  1   
 23   9  11  1   
 24   9  36  1   
 25   9  37  1   
 26  10  12  ar  
 27  10  13  ar  
 28  11  14  1   
 29  11  38  1   
 30  11  39  1   
 31  12  15  ar  
 32  12  40  1   
 33  13  16  ar  
 34  13  41  1   
 35  14  17  1   
 36  14  42  1   
 37  14  43  1   
 38  15  18  ar  
 39  15  19  1   
 40  16  18  ar  
 41  16  44  1   
 42  17  20  1   
 43  17  21  1   
 44  18  45  1   
 45  19  46  1   
 46  19  47  1   
 47  19  48  1   
 48  20  22  2   
 49  20  49  1   
 50  21  23  2   
 51  21  50  1   
 52  22  23  1   
 53  23  51  1   
@<TRIPOS>SUBSTRUCTURE
  1 ****   7 GROUP 4 **** **** 0

# MOE 2024.06 (io_trps.svl 2023.06)
