@<TRIPOS>MOLECULE
NONAME
39 41 1 0 0 
SMALL
USER_CHARGES


@<TRIPOS>ATOM
  1 F        0.3370    -0.4900    -0.4680 F     1 <1>  -0.1900 
  2 C       -0.3220    -1.6210    -0.4470 C.ar  1 <1>   0.1900 
  3 C        0.2950    -2.8450    -0.7280 C.ar  1 <1>   0.0820 
  4 C       -1.6650    -1.5450    -0.1370 C.ar  1 <1>  -0.1500 
  5 O        1.6080    -3.0490    -1.0440 O.3   1 <1>  -0.3630 
  6 C       -0.4910    -3.9850    -0.6850 C.ar  1 <1>  -0.1500 
  7 C       -2.4190    -2.7030    -0.1050 C.ar  1 <1>  -0.1500 
  8 C        2.5660    -2.0150    -1.0510 C.3   1 <1>   0.0400 
  9 C       -1.8550    -3.9530    -0.3770 C.ar  1 <1>   0.0530 
 10 C       -2.6350    -5.1720    -0.3520 C.2   1 <1>   0.0870 
 11 O       -2.1650    -6.2590    -0.9180 O.3   1 <1>  -0.0190 
 12 C       -3.8530    -5.4960     0.1550 C.2   1 <1>  -0.2330 
 13 N       -2.9790    -7.2760    -0.8240 N.2   1 <1>  -0.4100 
 14 C       -4.0110    -6.8440    -0.1800 C.2   1 <1>   0.3720 
 15 C       -4.7680    -4.6750     0.8800 C.2   1 <1>   1.0330 
 16 N       -5.1150    -7.6540     0.1400 N.pl3 1 <1>  -0.8210 
 17 O       -4.4650    -4.2280     1.9990 O.co2 1 <1>  -0.9000 
 18 O       -5.8310    -4.2890     0.3580 O.co2 1 <1>  -0.9000 
 19 C       -5.0520    -9.0990    -0.1560 C.3   1 <1>   0.2890 
 20 C       -6.4390    -7.1200    -0.2720 C.3   1 <1>   0.2090 
 21 C       -6.5050    -9.5250    -0.3340 C.3   1 <1>  -0.1600 
 22 C       -4.3660    -9.8270     0.9960 C.3   1 <1>  -0.2400 
 23 C       -7.1830    -8.2890    -0.9060 C.3   1 <1>  -0.1600 
 24 H       -2.1190    -0.5950     0.0790 H     1 <1>   0.1500 
 25 H       -0.0240    -4.9300    -0.8950 H     1 <1>   0.1500 
 26 H       -3.4650    -2.6280     0.1390 H     1 <1>   0.1500 
 27 H        3.5220    -2.4460    -1.2870 H     1 <1>   0.0800 
 28 H        2.6000    -1.5620    -0.0760 H     1 <1>   0.0800 
 29 H        2.2970    -1.2940    -1.8030 H     1 <1>   0.0800 
 30 H       -4.5180    -9.2600    -1.0780 H     1 <1>   0.0800 
 31 H       -6.3350    -6.3100    -0.9750 H     1 <1>   0.0800 
 32 H       -6.9560    -6.7610     0.6020 H     1 <1>   0.0800 
 33 H       -6.9340    -9.7570     0.6250 H     1 <1>   0.0800 
 34 H       -6.5930   -10.3800    -0.9790 H     1 <1>   0.0800 
 35 H       -4.8730    -9.6180     1.9200 H     1 <1>   0.0800 
 36 H       -3.3470    -9.4940     1.0730 H     1 <1>   0.0800 
 37 H       -4.3710   -10.8860     0.8190 H     1 <1>   0.0800 
 38 H       -7.0410    -8.2490    -1.9720 H     1 <1>   0.0800 
 39 H       -8.2350    -8.2520    -0.6870 H     1 <1>   0.0800 
@<TRIPOS>BOND
  1   1   2  1   
  2   2   3  ar  
  3   2   4  ar  
  4   3   5  1   
  5   3   6  ar  
  6   4   7  ar  
  7   4  24  1   
  8   5   8  1   
  9   6   9  ar  
 10   6  25  1   
 11   7   9  ar  
 12   7  26  1   
 13   8  27  1   
 14   8  28  1   
 15   8  29  1   
 16   9  10  1   
 17  10  11  1   
 18  10  12  2   
 19  11  13  1   
 20  12  14  1   
 21  12  15  1   
 22  13  14  2   
 23  14  16  1   
 24  15  17  ar  
 25  15  18  ar  
 26  16  19  1   
 27  16  20  1   
 28  19  21  1   
 29  19  22  1   
 30  19  30  1   
 31  20  23  1   
 32  20  31  1   
 33  20  32  1   
 34  21  23  1   
 35  21  33  1   
 36  21  34  1   
 37  22  35  1   
 38  22  36  1   
 39  22  37  1   
 40  23  38  1   
 41  23  39  1   
@<TRIPOS>SUBSTRUCTURE
  1 ****  10 GROUP 4 **** **** 0

# MOE 2024.06 (io_trps.svl 2023.06)
