@<TRIPOS>MOLECULE
NONAME
49 52 1 0 0 
SMALL
USER_CHARGES


@<TRIPOS>ATOM
  1 S       -0.0990    -0.9130     0.2660 S.o2  1 <1>   1.4470 
  2 O       -1.1030    -0.4900     1.2250 O.2   1 <1>  -0.6500 
  3 O        0.4750    -2.2260     0.4340 O.2   1 <1>  -0.6500 
  4 N       -0.9130    -0.9540    -1.2310 N.am  1 <1>  -0.8490 
  5 C        1.1800     0.3510     0.0410 C.ar  1 <1>  -0.0090 
  6 C       -1.9770     0.0690    -1.3800 C.3   1 <1>   0.1960 
  7 C       -1.4390    -2.2880    -1.5810 C.3   1 <1>   0.1960 
  8 C        1.3900     1.3410     0.9950 C.ar  1 <1>  -0.1500 
  9 C        1.9880     0.3580    -1.0900 C.ar  1 <1>  -0.1500 
 10 C       -3.3690    -0.3400    -0.7980 C.3   1 <1>   0.4230 
 11 C       -2.5930    -2.7440    -0.6520 C.3   1 <1>   0.3430 
 12 C        2.3620     2.3120     0.8260 C.ar  1 <1>  -0.1500 
 13 C        2.9620     1.3240    -1.2690 C.ar  1 <1>  -0.1500 
 14 N       -3.3070    -1.6000     0.0360 N.4   1 <1>  -0.9590 
 15 C       -4.4380    -0.4860    -1.9040 C.3   1 <1>   0.1200 
 16 C        3.1560     2.3090    -0.3160 C.ar  1 <1>   0.0830 
 17 C       -4.6610    -1.9450     0.5690 C.3   1 <1>   0.5180 
 18 O       -5.6760    -0.8250    -1.3440 O.3   1 <1>  -0.5600 
 19 O        4.1260     3.2200    -0.5650 O.3   1 <1>  -0.3620 
 20 C       -4.5630    -3.2300     1.4150 C.3   1 <1>  -0.1950 
 21 C       -5.6950    -2.0070    -0.5840 C.3   1 <1>   0.1200 
 22 C        4.4330     4.2420     0.3560 C.3   1 <1>   0.0400 
 23 C       -4.6770    -4.6270     0.8770 C.3   1 <1>  -0.2000 
 24 C       -5.7560    -4.0690     1.7620 C.3   1 <1>  -0.2000 
 25 H       -1.6600     0.9870    -0.9130 H     1 <1>   0.0800 
 26 H       -2.0880     0.2940    -2.4270 H     1 <1>   0.0800 
 27 H       -1.8020    -2.2610    -2.5940 H     1 <1>   0.0800 
 28 H       -0.6490    -3.0220    -1.5640 H     1 <1>   0.0800 
 29 H        0.7860     1.3560     1.8880 H     1 <1>   0.1500 
 30 H        1.8590    -0.4020    -1.8430 H     1 <1>   0.1500 
 31 H       -3.6940     0.4720    -0.1690 H     1 <1>   0.0800 
 32 H       -2.1870    -3.4040     0.0980 H     1 <1>   0.0800 
 33 H       -3.2920    -3.3190    -1.2350 H     1 <1>   0.0800 
 34 H        2.4890     3.0580     1.5890 H     1 <1>   0.1500 
 35 H        3.5820     1.3220    -2.1480 H     1 <1>   0.1500 
 36 H       -2.7070    -1.3420     0.8440 H     1 <1>   0.4500 
 37 H       -4.1660    -1.2400    -2.6220 H     1 <1>   0.0800 
 38 H       -4.5670     0.4490    -2.4230 H     1 <1>   0.0800 
 39 H       -4.9790    -1.1540     1.2280 H     1 <1>   0.0800 
 40 H       -3.8790    -3.0810     2.2350 H     1 <1>   0.1000 
 41 H       -6.6880    -2.1100    -0.1820 H     1 <1>   0.0800 
 42 H       -5.5060    -2.8370    -1.2390 H     1 <1>   0.0800 
 43 H        5.2390     4.8260    -0.0510 H     1 <1>   0.0800 
 44 H        4.7390     3.7950     1.2850 H     1 <1>   0.0800 
 45 H        3.5660     4.8630     0.4910 H     1 <1>   0.0800 
 46 H       -4.9440    -4.8270    -0.1460 H     1 <1>   0.1000 
 47 H       -4.0450    -5.3990     1.2860 H     1 <1>   0.1000 
 48 H       -5.8430    -4.4580     2.7640 H     1 <1>   0.1000 
 49 H       -6.7210    -3.8860     1.3220 H     1 <1>   0.1000 
@<TRIPOS>BOND
  1   1   2  2   
  2   1   3  2   
  3   1   4  am  
  4   1   5  1   
  5   4   6  1   
  6   4   7  1   
  7   5   8  ar  
  8   5   9  ar  
  9   6  10  1   
 10   6  25  1   
 11   6  26  1   
 12   7  11  1   
 13   7  27  1   
 14   7  28  1   
 15   8  12  ar  
 16   8  29  1   
 17   9  13  ar  
 18   9  30  1   
 19  10  14  1   
 20  10  15  1   
 21  10  31  1   
 22  11  14  1   
 23  11  32  1   
 24  11  33  1   
 25  12  16  ar  
 26  12  34  1   
 27  13  16  ar  
 28  13  35  1   
 29  14  17  1   
 30  14  36  1   
 31  15  18  1   
 32  15  37  1   
 33  15  38  1   
 34  16  19  1   
 35  17  20  1   
 36  17  21  1   
 37  17  39  1   
 38  18  21  1   
 39  19  22  1   
 40  20  23  1   
 41  20  24  1   
 42  20  40  1   
 43  21  41  1   
 44  21  42  1   
 45  22  43  1   
 46  22  44  1   
 47  22  45  1   
 48  23  24  1   
 49  23  46  1   
 50  23  47  1   
 51  24  48  1   
 52  24  49  1   
@<TRIPOS>SUBSTRUCTURE
  1 ****   4 GROUP 4 **** **** 0

# MOE 2024.06 (io_trps.svl 2023.06)
