@<TRIPOS>MOLECULE
NONAME
53 57 1 0 0 
SMALL
USER_CHARGES


@<TRIPOS>ATOM
  1 O       -0.3950    -0.4860    -0.0980 O.3   1 <1>  -0.5600 
  2 C       -0.0630    -1.8000     0.2640 C.3   1 <1>   0.1200 
  3 C        0.5550     0.1640    -0.8950 C.3   1 <1>   0.1200 
  4 C        1.2640    -1.8270     1.0580 C.3   1 <1>   0.5660 
  5 C        1.9220     0.2290    -0.1760 C.3   1 <1>   0.4230 
  6 N        2.3600    -1.1350     0.3090 N.4   1 <1>  -0.9590 
  7 C        1.7380    -3.2190     1.4700 C.ar  1 <1>  -0.1440 
  8 C        3.0030     0.8880    -1.0750 C.3   1 <1>   0.1100 
  9 C        2.9890    -1.9460    -0.7880 C.3   1 <1>   0.3430 
 10 C        2.5140    -3.3310     2.6170 C.ar  1 <1>  -0.1500 
 11 C        1.4430    -4.3700     0.7450 C.ar  1 <1>  -0.1500 
 12 N        4.3160     0.2000    -0.9610 N.3   1 <1>  -0.8100 
 13 C        4.2040    -1.2100    -1.4080 C.3   1 <1>   0.1100 
 14 C        2.9920    -4.5620     3.0290 C.ar  1 <1>  -0.1500 
 15 C        1.9220    -5.6010     1.1590 C.ar  1 <1>  -0.1500 
 16 C        5.4050     0.9120    -1.6580 C.3   1 <1>   0.2530 
 17 C        2.6970    -5.6980     2.2980 C.ar  1 <1>  -0.1500 
 18 C        5.6220     2.2730    -1.0240 C.ar  1 <1>  -0.1440 
 19 C        5.5780     3.4350    -1.7560 C.ar  1 <1>   0.1600 
 20 C        5.8610     2.4010     0.3220 C.ar  1 <1>   0.1600 
 21 N        5.7360     4.6140    -1.2070 N.ar  1 <1>  -0.6200 
 22 N        6.0200     3.5660     0.8990 N.ar  1 <1>  -0.6200 
 23 C        5.9560     4.6490     0.1140 C.ar  1 <1>   0.6730 
 24 C        6.1280     5.9570     0.7170 C.2   1 <1>   0.0870 
 25 O        6.2860     6.1110     2.0320 O.3   1 <1>  -0.2800 
 26 C        6.1610     7.1930     0.1410 C.2   1 <1>  -0.1500 
 27 C        6.4160     7.3910     2.3000 C.2   1 <1>  -0.0100 
 28 C        6.3480     8.1200     1.1680 C.2   1 <1>  -0.1500 
 29 H       -0.8620    -2.1830     0.8750 H     1 <1>   0.0800 
 30 H       -0.0030    -2.3900    -0.6320 H     1 <1>   0.0800 
 31 H        0.6300    -0.3580    -1.8340 H     1 <1>   0.0800 
 32 H        0.1910     1.1590    -1.0860 H     1 <1>   0.0800 
 33 H        1.0780    -1.2780     1.9670 H     1 <1>   0.0800 
 34 H        1.7920     0.8680     0.6820 H     1 <1>   0.0800 
 35 H        3.1320    -0.9520     0.9600 H     1 <1>   0.4500 
 36 H        3.0920     1.9190    -0.7770 H     1 <1>   0.0800 
 37 H        2.6850     0.8810    -2.1040 H     1 <1>   0.0800 
 38 H        3.3210    -2.8980    -0.4060 H     1 <1>   0.0800 
 39 H        2.2630    -2.1400    -1.5590 H     1 <1>   0.0800 
 40 H        2.7560    -2.4650     3.2110 H     1 <1>   0.1500 
 41 H        0.8420    -4.3460    -0.1460 H     1 <1>   0.1500 
 42 H        4.1260    -1.2550    -2.4810 H     1 <1>   0.0800 
 43 H        5.1020    -1.7370    -1.1290 H     1 <1>   0.0800 
 44 H        3.5920    -4.6420     3.9200 H     1 <1>   0.1500 
 45 H        1.6890    -6.4910     0.5970 H     1 <1>   0.1500 
 46 H        6.3180     0.3450    -1.5730 H     1 <1>   0.0800 
 47 H        5.1700     1.0160    -2.7040 H     1 <1>   0.0800 
 48 H        3.0670    -6.6570     2.6200 H     1 <1>   0.1500 
 49 H        5.4040     3.4030    -2.8190 H     1 <1>   0.1500 
 50 H        5.9150     1.5220     0.9430 H     1 <1>   0.1500 
 51 H        6.0630     7.4250    -0.9040 H     1 <1>   0.1500 
 52 H        6.5540     7.6970     3.3230 H     1 <1>   0.1500 
 53 H        6.4180     9.1870     1.0480 H     1 <1>   0.1500 
@<TRIPOS>BOND
  1   1   2  1   
  2   1   3  1   
  3   2   4  1   
  4   2  29  1   
  5   2  30  1   
  6   3   5  1   
  7   3  31  1   
  8   3  32  1   
  9   4   6  1   
 10   4   7  1   
 11   4  33  1   
 12   5   6  1   
 13   5   8  1   
 14   5  34  1   
 15   6   9  1   
 16   6  35  1   
 17   7  10  ar  
 18   7  11  ar  
 19   8  12  1   
 20   8  36  1   
 21   8  37  1   
 22   9  13  1   
 23   9  38  1   
 24   9  39  1   
 25  10  14  ar  
 26  10  40  1   
 27  11  15  ar  
 28  11  41  1   
 29  12  13  1   
 30  12  16  1   
 31  13  42  1   
 32  13  43  1   
 33  14  17  ar  
 34  14  44  1   
 35  15  17  ar  
 36  15  45  1   
 37  16  18  1   
 38  16  46  1   
 39  16  47  1   
 40  17  48  1   
 41  18  19  ar  
 42  18  20  ar  
 43  19  21  ar  
 44  19  49  1   
 45  20  22  ar  
 46  20  50  1   
 47  21  23  ar  
 48  22  23  ar  
 49  23  24  1   
 50  24  25  1   
 51  24  26  2   
 52  25  27  1   
 53  26  28  1   
 54  26  51  1   
 55  27  28  2   
 56  27  52  1   
 57  28  53  1   
@<TRIPOS>SUBSTRUCTURE
  1 ****  12 GROUP 4 **** **** 0

# MOE 2024.06 (io_trps.svl 2023.06)
