@<TRIPOS>MOLECULE
NONAME
47 49 1 0 0 
SMALL
USER_CHARGES


@<TRIPOS>ATOM
  1 S       -0.9320     0.7040     0.9200 S.o2  1 <1>   1.4470 
  2 O       -0.7840    -0.3790     1.8690 O.2   1 <1>  -0.6500 
  3 O       -1.7510     1.8450     1.2710 O.2   1 <1>  -0.6500 
  4 N       -1.5220     0.0820    -0.5420 N.am  1 <1>  -0.8490 
  5 C        0.7110     1.3080     0.4440 C.ar  1 <1>  -0.0090 
  6 C       -0.8090    -1.1070    -1.0620 C.3   1 <1>   0.1960 
  7 C       -2.9760    -0.0400    -0.6290 C.3   1 <1>   0.1960 
  8 C        0.8570     2.2400    -0.5760 C.ar  1 <1>  -0.1500 
  9 C        1.8640     0.8500     1.0740 C.ar  1 <1>  -0.1500 
 10 C       -1.5890    -2.4480    -1.0060 C.3   1 <1>  -0.1060 
 11 C       -3.4920    -1.2030     0.2240 C.3   1 <1>  -0.1600 
 12 C        2.1120     2.6880    -0.9410 C.ar  1 <1>   0.1900 
 13 C        3.1220     1.2990     0.7040 C.ar  1 <1>  -0.1500 
 14 C       -2.3530    -2.6200    -2.3280 C.2   1 <1>   0.9060 
 15 C       -2.5520    -2.4200     0.2090 C.3   1 <1>   0.2000 
 16 C       -0.5960    -3.6420    -0.9180 C.3   1 <1>  -0.0650 
 17 F        2.1550     3.5680    -1.9090 F     1 <1>  -0.1900 
 18 C        3.2750     2.2280    -0.3120 C.ar  1 <1>   0.0820 
 19 O       -3.5300    -3.0120    -2.3260 O.co2 1 <1>  -0.9000 
 20 O       -1.7640    -2.3970    -3.3920 O.co2 1 <1>  -0.9000 
 21 O       -3.3360    -3.5560     0.2160 O.3   1 <1>  -0.6800 
 22 C        0.3210    -3.6810     0.3200 C.3   1 <1>  -0.1950 
 23 O        4.5590     2.5890    -0.5850 O.3   1 <1>  -0.3630 
 24 C        1.6850    -3.0650     0.3240 C.3   1 <1>  -0.2000 
 25 C        1.5330    -4.5570     0.3070 C.3   1 <1>  -0.2000 
 26 C        4.9030     3.5000    -1.6060 C.3   1 <1>   0.0400 
 27 H       -0.5130    -0.9020    -2.0770 H     1 <1>   0.0800 
 28 H        0.1050    -1.2110    -0.5120 H     1 <1>   0.0800 
 29 H       -3.4490     0.8790    -0.3260 H     1 <1>   0.0800 
 30 H       -3.2450    -0.2120    -1.6590 H     1 <1>   0.0800 
 31 H       -0.0140     2.6140    -1.0870 H     1 <1>   0.1500 
 32 H        1.7760     0.1250     1.8680 H     1 <1>   0.1500 
 33 H       -4.4620    -1.4760    -0.1530 H     1 <1>   0.0800 
 34 H       -3.6140    -0.8730     1.2390 H     1 <1>   0.0800 
 35 H        3.9980     0.9280     1.2070 H     1 <1>   0.1500 
 36 H       -1.9880    -2.4210     1.1240 H     1 <1>   0.0800 
 37 H       -1.1650    -4.5560    -0.9370 H     1 <1>   0.0800 
 38 H        0.0150    -3.6470    -1.8050 H     1 <1>   0.0800 
 39 H       -3.6930    -3.6200    -0.7180 H     1 <1>   0.4000 
 40 H       -0.2330    -3.6820     1.2440 H     1 <1>   0.1000 
 41 H        2.0520    -2.5830    -0.5660 H     1 <1>   0.1000 
 42 H        2.0210    -2.5820     1.2250 H     1 <1>   0.1000 
 43 H        1.7700    -5.1160     1.1960 H     1 <1>   0.1000 
 44 H        1.7770    -5.0920    -0.5950 H     1 <1>   0.1000 
 45 H        5.9740     3.5960    -1.6210 H     1 <1>   0.0800 
 46 H        4.4550     4.4540    -1.3900 H     1 <1>   0.0800 
 47 H        4.5590     3.1150    -2.5490 H     1 <1>   0.0800 
@<TRIPOS>BOND
  1   1   2  2   
  2   1   3  2   
  3   1   4  am  
  4   1   5  1   
  5   4   6  1   
  6   4   7  1   
  7   5   8  ar  
  8   5   9  ar  
  9   6  10  1   
 10   6  27  1   
 11   6  28  1   
 12   7  11  1   
 13   7  29  1   
 14   7  30  1   
 15   8  12  ar  
 16   8  31  1   
 17   9  13  ar  
 18   9  32  1   
 19  10  14  1   
 20  10  15  1   
 21  10  16  1   
 22  11  15  1   
 23  11  33  1   
 24  11  34  1   
 25  12  17  1   
 26  12  18  ar  
 27  13  18  ar  
 28  13  35  1   
 29  14  19  ar  
 30  14  20  ar  
 31  15  21  1   
 32  15  36  1   
 33  16  22  1   
 34  16  37  1   
 35  16  38  1   
 36  18  23  1   
 37  21  39  1   
 38  22  24  1   
 39  22  25  1   
 40  22  40  1   
 41  23  26  1   
 42  24  25  1   
 43  24  41  1   
 44  24  42  1   
 45  25  43  1   
 46  25  44  1   
 47  26  45  1   
 48  26  46  1   
 49  26  47  1   
@<TRIPOS>SUBSTRUCTURE
  1 ****   6 GROUP 4 **** **** 0

# MOE 2024.06 (io_trps.svl 2023.06)
