@<TRIPOS>MOLECULE
NONAME
50 53 1 0 0 
SMALL
USER_CHARGES


@<TRIPOS>ATOM
  1 F       -1.0980    -0.2210     1.7430 F     1 <1>  -0.3400 
  2 C       -2.2980    -0.6900     1.4320 C.3   1 <1>   1.2400 
  3 F       -3.1980     0.1980     1.8300 F     1 <1>  -0.3400 
  4 O       -2.5210    -1.9310     2.0870 O.3   1 <1>  -0.3630 
  5 O       -2.3970    -0.8880     0.0300 O.3   1 <1>  -0.3630 
  6 C       -2.7420    -2.8090     1.1010 C.ar  1 <1>   0.0820 
  7 C       -2.6670    -2.1910    -0.1170 C.ar  1 <1>   0.0820 
  8 C       -3.0090    -4.1590     1.2110 C.ar  1 <1>  -0.1500 
  9 C       -2.8530    -2.8940    -1.2890 C.ar  1 <1>  -0.1500 
 10 C       -3.2090    -4.8900     0.0420 C.ar  1 <1>  -0.1440 
 11 C       -3.1220    -4.2540    -1.1980 C.ar  1 <1>  -0.1500 
 12 C       -3.5030    -6.3830     0.1200 C.3   1 <1>   0.4870 
 13 N       -4.9610    -6.6370     0.1270 N.4   1 <1>  -0.9590 
 14 C       -5.6770    -6.2740    -1.1350 C.3   1 <1>   0.3430 
 15 C       -5.6810    -6.1440     1.3460 C.3   1 <1>   0.3430 
 16 C       -7.0670    -6.9550    -1.2090 C.3   1 <1>   0.2000 
 17 C       -7.2110    -6.2090     1.1630 C.3   1 <1>  -0.1600 
 18 O       -6.9750    -8.0750    -2.0200 O.3   1 <1>  -0.6800 
 19 C       -7.6220    -7.3510     0.1940 C.3   1 <1>  -0.1060 
 20 C       -6.9720    -8.6360     0.7400 C.2   1 <1>   0.9060 
 21 C       -9.1570    -7.5580     0.1570 C.3   1 <1>  -0.0160 
 22 O       -7.2840    -9.0280     1.8610 O.co2 1 <1>  -0.9000 
 23 O       -6.0010    -9.1260     0.1360 O.co2 1 <1>  -0.9000 
 24 C       -9.9480    -6.3380    -0.3070 C.ar  1 <1>  -0.1440 
 25 C      -10.2930    -6.1940    -1.6430 C.ar  1 <1>  -0.1500 
 26 C      -10.3440    -5.3680     0.6010 C.ar  1 <1>  -0.1500 
 27 C      -11.0040    -5.0860    -2.0690 C.ar  1 <1>  -0.1500 
 28 C      -11.0550    -4.2580     0.1770 C.ar  1 <1>  -0.1500 
 29 C      -11.3830    -4.1150    -1.1590 C.ar  1 <1>  -0.1500 
 30 H       -3.0520    -4.6120     2.1870 H     1 <1>   0.1500 
 31 H       -2.7850    -2.3920    -2.2400 H     1 <1>   0.1500 
 32 H       -3.2580    -4.8130    -2.1090 H     1 <1>   0.1500 
 33 H       -3.0640    -6.7920     1.0160 H     1 <1>   0.0800 
 34 H       -3.0550    -6.8820    -0.7240 H     1 <1>   0.0800 
 35 H       -5.0750    -7.6850     0.1660 H     1 <1>   0.4500 
 36 H       -5.8110    -5.2060    -1.1610 H     1 <1>   0.0800 
 37 H       -5.1030    -6.5690    -1.9980 H     1 <1>   0.0800 
 38 H       -5.4090    -6.7690     2.1830 H     1 <1>   0.0800 
 39 H       -5.3940    -5.1310     1.5700 H     1 <1>   0.0800 
 40 H       -7.7250    -6.2700    -1.7080 H     1 <1>   0.0800 
 41 H       -7.6610    -6.3670     2.1280 H     1 <1>   0.0800 
 42 H       -7.5630    -5.2610     0.7970 H     1 <1>   0.0800 
 43 H       -6.5650    -8.7990    -1.4630 H     1 <1>   0.4000 
 44 H       -9.3790    -8.3890    -0.4900 H     1 <1>   0.0800 
 45 H       -9.5010    -7.8400     1.1380 H     1 <1>   0.0800 
 46 H      -10.0060    -6.9490    -2.3570 H     1 <1>   0.1500 
 47 H      -10.1020    -5.4760     1.6440 H     1 <1>   0.1500 
 48 H      -11.2640    -4.9820    -3.1080 H     1 <1>   0.1500 
 49 H      -11.3560    -3.5090     0.8880 H     1 <1>   0.1500 
 50 H      -11.9360    -3.2540    -1.4890 H     1 <1>   0.1500 
@<TRIPOS>BOND
  1   1   2  1   
  2   2   3  1   
  3   2   4  1   
  4   2   5  1   
  5   4   6  1   
  6   5   7  1   
  7   6   7  ar  
  8   6   8  ar  
  9   7   9  ar  
 10   8  10  ar  
 11   8  30  1   
 12   9  11  ar  
 13   9  31  1   
 14  10  11  ar  
 15  10  12  1   
 16  11  32  1   
 17  12  13  1   
 18  12  33  1   
 19  12  34  1   
 20  13  14  1   
 21  13  15  1   
 22  13  35  1   
 23  14  16  1   
 24  14  36  1   
 25  14  37  1   
 26  15  17  1   
 27  15  38  1   
 28  15  39  1   
 29  16  18  1   
 30  16  19  1   
 31  16  40  1   
 32  17  19  1   
 33  17  41  1   
 34  17  42  1   
 35  18  43  1   
 36  19  20  1   
 37  19  21  1   
 38  20  22  ar  
 39  20  23  ar  
 40  21  24  1   
 41  21  44  1   
 42  21  45  1   
 43  24  25  ar  
 44  24  26  ar  
 45  25  27  ar  
 46  25  46  1   
 47  26  28  ar  
 48  26  47  1   
 49  27  29  ar  
 50  27  48  1   
 51  28  29  ar  
 52  28  49  1   
 53  29  50  1   
@<TRIPOS>SUBSTRUCTURE
  1 ****  15 GROUP 4 **** **** 0

# MOE 2024.06 (io_trps.svl 2023.06)
