@<TRIPOS>MOLECULE
NONAME
47 50 1 0 0 
SMALL
USER_CHARGES


@<TRIPOS>ATOM
  1 O        0.1960     1.1360    -0.0580 O.2   1 <1>  -0.5700 
  2 C       -0.4920     2.0970     0.2440 C.2   1 <1>   0.5440 
  3 N       -1.8540     2.0070    -0.0010 N.am  1 <1>  -0.6600 
  4 C        0.1600     3.2410     0.8800 C.ar  1 <1>   0.3960 
  5 C       -2.8690     3.0020     0.4680 C.3   1 <1>   0.1400 
  6 C       -2.4120     0.8180    -0.7170 C.3   1 <1>   0.1400 
  7 N       -0.0960     4.5080     0.5010 N.ar  1 <1>  -0.6200 
  8 C        1.0790     2.9690     1.9000 C.ar  1 <1>   0.1600 
  9 C       -3.7260     3.5210    -0.7070 C.3   1 <1>   0.1440 
 10 C       -3.9050     0.9780    -1.0510 C.3   1 <1>  -0.1600 
 11 C        0.5860     5.4070     1.1850 C.ar  1 <1>   0.1600 
 12 N        1.7560     3.8710     2.5950 N.ar  1 <1>  -0.6200 
 13 C       -4.8720     4.3030    -0.0900 C.ar  1 <1>   0.1670 
 14 C       -4.1990     2.3690    -1.6370 C.3   1 <1>  -0.1600 
 15 C       -2.9870     4.6230    -1.5100 C.3   1 <1>  -0.1600 
 16 C        1.4810     5.1010     2.2010 C.ar  1 <1>   0.1600 
 17 N       -5.9230     3.7810     0.4920 N.ar  1 <1>  -0.6200 
 18 C       -4.6660     5.6470    -0.1810 C.ar  1 <1>  -0.1430 
 19 C       -3.3670     5.9700    -0.8740 C.3   1 <1>  -0.0170 
 20 C       -6.7980     4.6610     0.9860 C.ar  1 <1>   0.7200 
 21 C       -5.6200     6.4760     0.3530 C.ar  1 <1>   0.1600 
 22 N       -6.6900     5.9930     0.9390 N.ar  1 <1>  -0.6200 
 23 N       -7.9170     4.1430     1.6090 N.pl3 1 <1>  -0.8380 
 24 C       -8.3200     2.7180     1.4550 C.3   1 <1>   0.1290 
 25 C       -8.8100     4.9820     2.4540 C.3   1 <1>   0.1290 
 26 H       -2.4170     3.8270     0.9840 H     1 <1>   0.0800 
 27 H       -3.5130     2.5120     1.1780 H     1 <1>   0.0800 
 28 H       -2.2650    -0.0610    -0.1130 H     1 <1>   0.0800 
 29 H       -1.8590     0.6850    -1.6320 H     1 <1>   0.0800 
 30 H        1.2550     1.9360     2.1470 H     1 <1>   0.1500 
 31 H       -4.4910     0.8290    -0.1600 H     1 <1>   0.0800 
 32 H       -4.1940     0.2170    -1.7540 H     1 <1>   0.0800 
 33 H        0.4310     6.4410     0.9340 H     1 <1>   0.1500 
 34 H       -3.6880     2.4300    -2.5820 H     1 <1>   0.0800 
 35 H       -5.2520     2.4640    -1.8370 H     1 <1>   0.0800 
 36 H       -3.3480     4.6350    -2.5230 H     1 <1>   0.0800 
 37 H       -1.9230     4.4690    -1.5340 H     1 <1>   0.0800 
 38 H        1.9900     5.9040     2.7060 H     1 <1>   0.1500 
 39 H       -3.4850     6.7400    -1.6150 H     1 <1>   0.0800 
 40 H       -2.6300     6.2660    -0.1470 H     1 <1>   0.0800 
 41 H       -5.5030     7.5440     0.3030 H     1 <1>   0.1500 
 42 H       -7.9870     2.3320     0.5060 H     1 <1>   0.0800 
 43 H       -9.3910     2.6290     1.4980 H     1 <1>   0.0800 
 44 H       -7.8800     2.1340     2.2430 H     1 <1>   0.0800 
 45 H       -8.2550     5.7850     2.9080 H     1 <1>   0.0800 
 46 H       -9.2450     4.3880     3.2370 H     1 <1>   0.0800 
 47 H       -9.5930     5.3990     1.8450 H     1 <1>   0.0800 
@<TRIPOS>BOND
  1   1   2  2   
  2   2   3  am  
  3   2   4  1   
  4   3   5  1   
  5   3   6  1   
  6   4   7  ar  
  7   4   8  ar  
  8   5   9  1   
  9   5  26  1   
 10   5  27  1   
 11   6  10  1   
 12   6  28  1   
 13   6  29  1   
 14   7  11  ar  
 15   8  12  ar  
 16   8  30  1   
 17   9  13  1   
 18   9  14  1   
 19   9  15  1   
 20  10  14  1   
 21  10  31  1   
 22  10  32  1   
 23  11  16  ar  
 24  11  33  1   
 25  12  16  ar  
 26  13  17  ar  
 27  13  18  ar  
 28  14  34  1   
 29  14  35  1   
 30  15  19  1   
 31  15  36  1   
 32  15  37  1   
 33  16  38  1   
 34  17  20  ar  
 35  18  19  1   
 36  18  21  ar  
 37  19  39  1   
 38  19  40  1   
 39  20  22  ar  
 40  20  23  1   
 41  21  22  ar  
 42  21  41  1   
 43  23  24  1   
 44  23  25  1   
 45  24  42  1   
 46  24  43  1   
 47  24  44  1   
 48  25  45  1   
 49  25  46  1   
 50  25  47  1   
@<TRIPOS>SUBSTRUCTURE
  1 ****   5 GROUP 4 **** **** 0

# MOE 2024.06 (io_trps.svl 2023.06)
