@<TRIPOS>MOLECULE
NONAME
14 14 1 0 0 
SMALL
USER_CHARGES


@<TRIPOS>ATOM
  1 F        0.3490    -0.1870     0.2320 F     1 <1>  -0.3400 
  2 C        1.3840    -0.9870     0.4590 C.3   1 <1>   0.6000 
  3 F        2.4500    -0.2750     0.1140 F     1 <1>  -0.3400 
  4 C        1.2750    -2.2440    -0.4280 C.3   1 <1>   0.2200 
  5 N        2.3780    -3.1980    -0.2260 N.am  1 <1>  -0.7300 
  6 C        0.0690    -3.1150    -0.0360 C.3   1 <1>   0.1200 
  7 C        1.9410    -4.3060     0.3840 C.2   1 <1>   0.7800 
  8 O        0.6260    -4.2830     0.5410 O.3   1 <1>  -0.4300 
  9 O        2.6370    -5.2050     0.7890 O.2   1 <1>  -0.5700 
 10 H        1.4320    -1.1910     1.5130 H     1 <1>   0.0800 
 11 H        1.2120    -1.9510    -1.4620 H     1 <1>   0.0800 
 12 H        3.3700    -2.9660    -0.2990 H     1 <1>   0.3700 
 13 H       -0.4960    -3.4050    -0.9050 H     1 <1>   0.0800 
 14 H       -0.5810    -2.6430     0.6810 H     1 <1>   0.0800 
@<TRIPOS>BOND
  1   1   2  1   
  2   2   3  1   
  3   2   4  1   
  4   2  10  1   
  5   4   5  1   
  6   4   6  1   
  7   4  11  1   
  8   5   7  am  
  9   5  12  1   
 10   6   8  1   
 11   6  13  1   
 12   6  14  1   
 13   7   8  1   
 14   7   9  2   
@<TRIPOS>SUBSTRUCTURE
  1 ****   4 GROUP 4 **** **** 0

# MOE 2024.06 (io_trps.svl 2023.06)
