@<TRIPOS>MOLECULE
NONAME
39 42 1 0 0 
SMALL
USER_CHARGES


@<TRIPOS>ATOM
  1 CL      -1.1840     0.1980    -0.3700 Cl    1 <1>  -0.1770 
  2 C       -1.6120    -1.4770    -0.1420 C.ar  1 <1>   0.1770 
  3 C       -2.8740    -1.9140    -0.4940 C.ar  1 <1>  -0.1500 
  4 C       -0.6810    -2.3510     0.3870 C.ar  1 <1>  -0.1500 
  5 C       -3.2040    -3.2450    -0.3140 C.ar  1 <1>  -0.1500 
  6 C       -1.0260    -3.6790     0.5640 C.ar  1 <1>  -0.1500 
  7 C       -2.2920    -4.1590     0.2190 C.ar  1 <1>   0.0530 
  8 C       -2.6160    -5.5550     0.3960 C.2   1 <1>   0.0870 
  9 O       -1.6700    -6.4490     0.2200 O.3   1 <1>  -0.0190 
 10 C       -3.7500    -6.2400     0.7090 C.2   1 <1>  -0.2330 
 11 N       -2.0870    -7.6750     0.3850 N.2   1 <1>  -0.4100 
 12 C       -3.3340    -7.5700     0.6820 C.2   1 <1>   0.3720 
 13 C       -5.0850    -5.8180     1.0130 C.2   1 <1>   1.0330 
 14 N       -4.1620    -8.6500     0.9400 N.pl3 1 <1>  -0.8520 
 15 O       -5.3370    -4.6370     1.2970 O.co2 1 <1>  -0.9000 
 16 O       -6.0310    -6.6300     0.9820 O.co2 1 <1>  -0.9000 
 17 C       -4.2640    -9.6410    -0.1430 C.3   1 <1>   0.2890 
 18 C       -5.6970    -9.7740    -0.6980 C.3   1 <1>  -0.0800 
 19 C       -3.9630   -11.0580     0.3680 C.3   1 <1>  -0.1600 
 20 C       -5.6310   -11.1630    -1.3180 C.3   1 <1>  -0.1600 
 21 C       -6.7170   -10.0200     0.4330 C.3   1 <1>  -0.1600 
 22 C       -5.2230   -11.8530    -0.0260 C.3   1 <1>  -0.0800 
 23 C       -6.3660   -11.4380     0.9150 C.3   1 <1>  -0.1600 
 24 H       -3.5910    -1.2230    -0.8980 H     1 <1>   0.1500 
 25 H        0.2950    -1.9920     0.6570 H     1 <1>   0.1500 
 26 H       -4.1890    -3.5850    -0.5850 H     1 <1>   0.1500 
 27 H       -0.3060    -4.3630     0.9800 H     1 <1>   0.1500 
 28 H       -5.1100    -8.2430     1.0860 H     1 <1>   0.4000 
 29 H       -3.5890    -9.3950    -0.9470 H     1 <1>   0.0800 
 30 H       -5.9680    -8.9820    -1.3740 H     1 <1>   0.0800 
 31 H       -3.1020   -11.4450    -0.1440 H     1 <1>   0.0800 
 32 H       -3.7860   -11.0740     1.4280 H     1 <1>   0.0800 
 33 H       -6.5840   -11.5000    -1.6900 H     1 <1>   0.0800 
 34 H       -4.8830   -11.2420    -2.0890 H     1 <1>   0.0800 
 35 H       -6.6530    -9.2920     1.2230 H     1 <1>   0.0800 
 36 H       -7.7170    -9.9980     0.0350 H     1 <1>   0.0800 
 37 H       -5.0710   -12.9160    -0.0920 H     1 <1>   0.0800 
 38 H       -7.2120   -12.0920     0.7960 H     1 <1>   0.0800 
 39 H       -6.0570   -11.4400     1.9470 H     1 <1>   0.0800 
@<TRIPOS>BOND
  1   1   2  1   
  2   2   3  ar  
  3   2   4  ar  
  4   3   5  ar  
  5   3  24  1   
  6   4   6  ar  
  7   4  25  1   
  8   5   7  ar  
  9   5  26  1   
 10   6   7  ar  
 11   6  27  1   
 12   7   8  1   
 13   8   9  1   
 14   8  10  2   
 15   9  11  1   
 16  10  12  1   
 17  10  13  1   
 18  11  12  2   
 19  12  14  1   
 20  13  15  ar  
 21  13  16  ar  
 22  14  17  1   
 23  14  28  1   
 24  17  18  1   
 25  17  19  1   
 26  17  29  1   
 27  18  20  1   
 28  18  21  1   
 29  18  30  1   
 30  19  22  1   
 31  19  31  1   
 32  19  32  1   
 33  20  22  1   
 34  20  33  1   
 35  20  34  1   
 36  21  23  1   
 37  21  35  1   
 38  21  36  1   
 39  22  23  1   
 40  22  37  1   
 41  23  38  1   
 42  23  39  1   
@<TRIPOS>SUBSTRUCTURE
  1 ****  10 GROUP 4 **** **** 0

# MOE 2024.06 (io_trps.svl 2023.06)
