@<TRIPOS>MOLECULE
NONAME
48 50 1 0 0 
SMALL
USER_CHARGES


@<TRIPOS>ATOM
  1 O        0.4090     0.2450    -2.1040 O.2   1 <1>  -0.5700 
  2 C        0.9110    -0.4620    -1.2610 C.2   1 <1>   0.5690 
  3 N        1.5920     0.0700    -0.2140 N.am  1 <1>  -0.7300 
  4 C        0.7750    -1.9880    -1.3810 C.3   1 <1>   0.2610 
  5 C        1.8660     1.4950    -0.0140 C.3   1 <1>   0.3200 
  6 O        1.1080    -2.6020    -0.1390 O.3   1 <1>  -0.3630 
  7 C        1.7060    -2.5530    -2.4640 C.3   1 <1>  -0.2400 
  8 C        3.2000     1.6420     0.6930 C.2   1 <1>  -0.3320 
  9 C        0.7200    -3.8620     0.1920 C.ar  1 <1>   0.0830 
 10 N        3.6150     2.7800     1.2900 N.pl3 1 <1>   0.0480 
 11 C        4.1980     0.7420     0.8620 C.2   1 <1>   0.0770 
 12 C       -0.1410    -4.6410    -0.5860 C.ar  1 <1>  -0.1500 
 13 C        1.2320    -4.3680     1.3860 C.ar  1 <1>  -0.1500 
 14 C        4.8350     2.4800     1.7900 C.2   1 <1>   0.0360 
 15 C        2.9150     4.0810     1.4080 C.3   1 <1>   0.0960 
 16 N        5.2210     1.2690     1.5560 N.2   1 <1>  -0.5650 
 17 C       -0.4510    -5.9060    -0.1300 C.ar  1 <1>   0.0830 
 18 C        0.9050    -5.6440     1.8260 C.ar  1 <1>  -0.1500 
 19 C        3.0070     4.9090     0.1120 C.3   1 <1>  -0.0800 
 20 O       -1.2430    -6.8180    -0.7040 O.3   1 <1>  -0.3630 
 21 C        0.0550    -6.3950     1.0390 C.ar  1 <1>   0.0830 
 22 C        4.4570     5.2730    -0.2420 C.3   1 <1>  -0.2400 
 23 C        2.1780     6.1920     0.2540 C.3   1 <1>  -0.2400 
 24 C       -1.2430    -7.9580     0.1540 C.3   1 <1>   0.4000 
 25 O       -0.3960    -7.6370     1.2550 O.3   1 <1>  -0.3620 
 26 H        1.9480    -0.5550     0.5120 H     1 <1>   0.3700 
 27 H       -0.2540    -2.1980    -1.6060 H     1 <1>   0.0800 
 28 H        1.0780     1.9150     0.5870 H     1 <1>   0.0800 
 29 H        1.8890     2.0030    -0.9630 H     1 <1>   0.0800 
 30 H        2.7300    -2.3290    -2.2230 H     1 <1>   0.0800 
 31 H        1.4740    -2.0980    -3.4100 H     1 <1>   0.0800 
 32 H        1.5860    -3.6160    -2.5610 H     1 <1>   0.0800 
 33 H        4.2380    -0.2760     0.5110 H     1 <1>   0.1500 
 34 H       -0.5670    -4.3090    -1.5110 H     1 <1>   0.1500 
 35 H        1.8920    -3.7540     1.9720 H     1 <1>   0.1500 
 36 H        5.4210     3.2020     2.3320 H     1 <1>   0.1500 
 37 H        3.3510     4.6310     2.2220 H     1 <1>   0.0800 
 38 H        1.8860     3.8910     1.6500 H     1 <1>   0.0800 
 39 H        1.2940    -6.0450     2.7440 H     1 <1>   0.1500 
 40 H        2.5890     4.3350    -0.6980 H     1 <1>   0.0800 
 41 H        4.9200     5.8260     0.5570 H     1 <1>   0.0800 
 42 H        4.4830     5.8750    -1.1340 H     1 <1>   0.0800 
 43 H        5.0370     4.3860    -0.4280 H     1 <1>   0.0800 
 44 H        2.5610     6.8100     1.0480 H     1 <1>   0.0800 
 45 H        1.1500     5.9560     0.4660 H     1 <1>   0.0800 
 46 H        2.2080     6.7580    -0.6610 H     1 <1>   0.0800 
 47 H       -0.8440    -8.8060    -0.3730 H     1 <1>   0.0800 
 48 H       -2.2420    -8.1420     0.5090 H     1 <1>   0.0800 
@<TRIPOS>BOND
  1   1   2  2   
  2   2   3  am  
  3   2   4  1   
  4   3   5  1   
  5   3  26  1   
  6   4   6  1   
  7   4   7  1   
  8   4  27  1   
  9   5   8  1   
 10   5  28  1   
 11   5  29  1   
 12   6   9  1   
 13   7  30  1   
 14   7  31  1   
 15   7  32  1   
 16   8  10  1   
 17   8  11  2   
 18   9  12  ar  
 19   9  13  ar  
 20  10  14  1   
 21  10  15  1   
 22  11  16  1   
 23  11  33  1   
 24  12  17  ar  
 25  12  34  1   
 26  13  18  ar  
 27  13  35  1   
 28  14  16  2   
 29  14  36  1   
 30  15  19  1   
 31  15  37  1   
 32  15  38  1   
 33  17  20  1   
 34  17  21  ar  
 35  18  21  ar  
 36  18  39  1   
 37  19  22  1   
 38  19  23  1   
 39  19  40  1   
 40  20  24  1   
 41  21  25  1   
 42  22  41  1   
 43  22  42  1   
 44  22  43  1   
 45  23  44  1   
 46  23  45  1   
 47  23  46  1   
 48  24  25  1   
 49  24  47  1   
 50  24  48  1   
@<TRIPOS>SUBSTRUCTURE
  1 ****   3 GROUP 4 **** **** 0

# MOE 2024.06 (io_trps.svl 2023.06)
