@<TRIPOS>MOLECULE
NONAME
46 49 1 0 0 
SMALL
USER_CHARGES


@<TRIPOS>ATOM
  1 CL       0.4890     0.3280     1.8850 Cl    1 <1>  -0.1770 
  2 C        1.9760     0.0560     1.0100 C.ar  1 <1>   0.1770 
  3 C        2.4200    -1.2580     0.8150 C.ar  1 <1>   0.0000 
  4 C        2.6930     1.1200     0.5200 C.ar  1 <1>  -0.1500 
  5 C        3.6000    -1.4770     0.1130 C.ar  1 <1>  -0.1520 
  6 C        1.9380    -2.5230     1.1840 C.2   1 <1>  -0.1500 
  7 C        3.8830     0.8910    -0.1820 C.ar  1 <1>  -0.1500 
  8 N        3.8210    -2.8320     0.0530 N.pl3 1 <1>   0.0480 
  9 C        4.3370    -0.3930    -0.3850 C.ar  1 <1>  -0.1500 
 10 C        2.7900    -3.4790     0.7060 C.2   1 <1>  -0.2370 
 11 C        4.9880    -3.4810    -0.5820 C.3   1 <1>   0.0160 
 12 C        2.7120    -4.9140     0.8340 C.2   1 <1>   0.7150 
 13 O        3.7060    -5.5560     1.1180 O.2   1 <1>  -0.5700 
 14 N        1.5340    -5.5890     0.6180 N.am  1 <1>  -0.6600 
 15 C        0.3360    -5.0250    -0.0560 C.3   1 <1>   0.1400 
 16 C        1.4500    -7.0720     0.6520 C.3   1 <1>   0.1400 
 17 C       -0.6800    -6.1660    -0.0480 C.3   1 <1>   0.2000 
 18 C        0.1880    -7.4240    -0.1420 C.3   1 <1>  -0.0800 
 19 O       -1.3380    -6.1470     1.1730 O.3   1 <1>  -0.6800 
 20 C       -0.4910    -8.7300     0.3110 C.3   1 <1>  -0.0170 
 21 C        0.4300    -9.9220     0.1010 C.ar  1 <1>  -0.1430 
 22 C        0.5440   -10.5440    -1.1260 C.ar  1 <1>  -0.1500 
 23 C        1.2010   -10.4420     1.1210 C.ar  1 <1>  -0.1500 
 24 C        1.4010   -11.6220    -1.2710 C.ar  1 <1>   0.1600 
 25 C        2.0280   -11.5250     0.8700 C.ar  1 <1>   0.1600 
 26 N        2.1470   -12.1270    -0.3020 N.ar  1 <1>  -0.6200 
 27 H        2.3440     2.1240     0.6740 H     1 <1>   0.1500 
 28 H        1.0430    -2.6690     1.7630 H     1 <1>   0.1500 
 29 H        4.4390     1.7320    -0.5600 H     1 <1>   0.1500 
 30 H        5.2530    -0.5650    -0.9220 H     1 <1>   0.1500 
 31 H        4.6660    -4.3550    -1.1180 H     1 <1>   0.0800 
 32 H        5.6860    -3.7710     0.1820 H     1 <1>   0.0800 
 33 H        5.4610    -2.8040    -1.2670 H     1 <1>   0.0800 
 34 H       -0.0500    -4.1590     0.4500 H     1 <1>   0.0800 
 35 H        0.5940    -4.7650    -1.0680 H     1 <1>   0.0800 
 36 H        2.3260    -7.5220     0.2130 H     1 <1>   0.0800 
 37 H        1.3640    -7.3910     1.6760 H     1 <1>   0.0800 
 38 H       -1.4130    -6.0880    -0.8330 H     1 <1>   0.0800 
 39 H        0.4810    -7.5380    -1.1710 H     1 <1>   0.0800 
 40 H       -0.6740    -6.0370     1.8840 H     1 <1>   0.4000 
 41 H       -1.3960    -8.8760    -0.2510 H     1 <1>   0.0800 
 42 H       -0.7660    -8.6710     1.3500 H     1 <1>   0.0800 
 43 H       -0.0250   -10.2010    -1.9710 H     1 <1>   0.1500 
 44 H        1.1690   -10.0190     2.1070 H     1 <1>   0.1500 
 45 H        1.4760   -12.0950    -2.2350 H     1 <1>   0.1500 
 46 H        2.6230   -11.9170     1.6770 H     1 <1>   0.1500 
@<TRIPOS>BOND
  1   1   2  1   
  2   2   3  ar  
  3   2   4  ar  
  4   3   5  ar  
  5   3   6  1   
  6   4   7  ar  
  7   4  27  1   
  8   5   8  1   
  9   5   9  ar  
 10   6  10  2   
 11   6  28  1   
 12   7   9  ar  
 13   7  29  1   
 14   8  10  1   
 15   8  11  1   
 16   9  30  1   
 17  10  12  1   
 18  11  31  1   
 19  11  32  1   
 20  11  33  1   
 21  12  13  2   
 22  12  14  am  
 23  14  15  1   
 24  14  16  1   
 25  15  17  1   
 26  15  34  1   
 27  15  35  1   
 28  16  18  1   
 29  16  36  1   
 30  16  37  1   
 31  17  18  1   
 32  17  19  1   
 33  17  38  1   
 34  18  20  1   
 35  18  39  1   
 36  19  40  1   
 37  20  21  1   
 38  20  41  1   
 39  20  42  1   
 40  21  22  ar  
 41  21  23  ar  
 42  22  24  ar  
 43  22  43  1   
 44  23  25  ar  
 45  23  44  1   
 46  24  26  ar  
 47  24  45  1   
 48  25  26  ar  
 49  25  46  1   
@<TRIPOS>SUBSTRUCTURE
  1 ****  14 GROUP 4 **** **** 0

# MOE 2024.06 (io_trps.svl 2023.06)
