@<TRIPOS>MOLECULE
NONAME
51 53 1 0 0 
SMALL
USER_CHARGES


@<TRIPOS>ATOM
  1 O        0.9210    -0.0850     1.3740 O.2   1 <1>  -0.5700 
  2 C        1.7770    -0.5850     0.6630 C.2   1 <1>   0.5440 
  3 N        2.6490     0.2790     0.0070 N.am  1 <1>  -0.6600 
  4 C        1.7910    -2.0460     0.5350 C.ar  1 <1>   0.3960 
  5 C        3.5430    -0.1640    -1.1100 C.3   1 <1>   0.1400 
  6 C        2.5930     1.7510     0.2770 C.3   1 <1>   0.1400 
  7 N        2.9410    -2.7350     0.4120 N.ar  1 <1>  -0.6200 
  8 C        0.5590    -2.7120     0.5570 C.ar  1 <1>   0.1600 
  9 C        4.9740    -0.4340    -0.6200 C.3   1 <1>   0.1400 
 10 C        3.9530     2.4650     0.2340 C.3   1 <1>  -0.1600 
 11 C        2.7660    -4.0410     0.3190 C.ar  1 <1>   0.1600 
 12 N        0.3800    -4.0200     0.4540 N.ar  1 <1>  -0.6200 
 13 N        5.7080     0.8330    -0.3160 N.am  1 <1>  -0.6600 
 14 C        5.1180     1.6380     0.7870 C.3   1 <1>   0.1400 
 15 C        1.5260    -4.6640     0.3370 C.ar  1 <1>   0.1600 
 16 C        6.7850     1.2250    -1.0820 C.2   1 <1>   0.5690 
 17 O        7.1770     0.5460    -2.0080 O.2   1 <1>  -0.5700 
 18 C        7.5350     2.5500    -0.8070 C.3   1 <1>   0.2610 
 19 O        8.0810     3.0540    -1.9900 O.3   1 <1>  -0.6800 
 20 C        8.6510     2.3940     0.2560 C.3   1 <1>  -0.0800 
 21 C        9.2450     3.7610     0.6530 C.3   1 <1>  -0.1600 
 22 C        9.7750     1.4250    -0.1720 C.3   1 <1>  -0.1600 
 23 C       10.3120     3.6170     1.7470 C.3   1 <1>  -0.1600 
 24 C       10.8420     1.2840     0.9220 C.3   1 <1>  -0.1600 
 25 C       11.4200     2.6500     1.3140 C.3   1 <1>  -0.1600 
 26 H        3.1520    -1.0630    -1.5500 H     1 <1>   0.0800 
 27 H        3.5640     0.5810    -1.8860 H     1 <1>   0.0800 
 28 H        1.9230     2.2100    -0.4300 H     1 <1>   0.0800 
 29 H        2.1780     1.9100     1.2580 H     1 <1>   0.0800 
 30 H       -0.3300    -2.1130     0.6670 H     1 <1>   0.1500 
 31 H        5.4930    -0.9880    -1.3820 H     1 <1>   0.0800 
 32 H        4.9490    -1.0520     0.2600 H     1 <1>   0.0800 
 33 H        3.8590     3.3590     0.8240 H     1 <1>   0.0800 
 34 H        4.1680     2.7810    -0.7710 H     1 <1>   0.0800 
 35 H        3.6460    -4.6530     0.2230 H     1 <1>   0.1500 
 36 H        4.7780     0.9890     1.5780 H     1 <1>   0.0800 
 37 H        5.8590     2.2930     1.2080 H     1 <1>   0.0800 
 38 H        1.4820    -5.7360     0.2530 H     1 <1>   0.1500 
 39 H        6.8290     3.2870    -0.4720 H     1 <1>   0.0800 
 40 H        8.2960     2.2810    -2.5570 H     1 <1>   0.4000 
 41 H        8.1910     1.9780     1.1350 H     1 <1>   0.0800 
 42 H        9.6910     4.2230    -0.2120 H     1 <1>   0.0800 
 43 H        8.4630     4.4110     1.0040 H     1 <1>   0.0800 
 44 H        9.3660     0.4520    -0.3850 H     1 <1>   0.0800 
 45 H       10.2430     1.7880    -1.0710 H     1 <1>   0.0800 
 46 H       10.7400     4.5810     1.9600 H     1 <1>   0.0800 
 47 H        9.8530     3.2520     2.6500 H     1 <1>   0.0800 
 48 H       10.4060     0.8190     1.7890 H     1 <1>   0.0800 
 49 H       11.6350     0.6470     0.5700 H     1 <1>   0.0800 
 50 H       12.1260     2.5270     2.1160 H     1 <1>   0.0800 
 51 H       11.9460     3.0670     0.4720 H     1 <1>   0.0800 
@<TRIPOS>BOND
  1   1   2  2   
  2   2   3  am  
  3   2   4  1   
  4   3   5  1   
  5   3   6  1   
  6   4   7  ar  
  7   4   8  ar  
  8   5   9  1   
  9   5  26  1   
 10   5  27  1   
 11   6  10  1   
 12   6  28  1   
 13   6  29  1   
 14   7  11  ar  
 15   8  12  ar  
 16   8  30  1   
 17   9  13  1   
 18   9  31  1   
 19   9  32  1   
 20  10  14  1   
 21  10  33  1   
 22  10  34  1   
 23  11  15  ar  
 24  11  35  1   
 25  12  15  ar  
 26  13  14  1   
 27  13  16  am  
 28  14  36  1   
 29  14  37  1   
 30  15  38  1   
 31  16  17  2   
 32  16  18  1   
 33  18  19  1   
 34  18  20  1   
 35  18  39  1   
 36  19  40  1   
 37  20  21  1   
 38  20  22  1   
 39  20  41  1   
 40  21  23  1   
 41  21  42  1   
 42  21  43  1   
 43  22  24  1   
 44  22  44  1   
 45  22  45  1   
 46  23  25  1   
 47  23  46  1   
 48  23  47  1   
 49  24  25  1   
 50  24  48  1   
 51  24  49  1   
 52  25  50  1   
 53  25  51  1   
@<TRIPOS>SUBSTRUCTURE
  1 ****  13 GROUP 4 **** **** 0

# MOE 2024.06 (io_trps.svl 2023.06)
