@<TRIPOS>MOLECULE
NONAME
50 53 1 0 0 
SMALL
USER_CHARGES


@<TRIPOS>ATOM
  1 O       -0.4980     0.3120    -0.2290 O.2   1 <1>  -0.5700 
  2 C       -1.5250     0.8850     0.0540 C.2   1 <1>   0.5690 
  3 N       -2.6550     0.1880     0.3960 N.am  1 <1>  -0.6600 
  4 C       -1.5510     2.4040     0.0160 C.3   1 <1>  -0.0990 
  5 C       -2.6590    -1.3070     0.4840 C.3   1 <1>   0.1400 
  6 C       -4.0110     0.7790     0.6260 C.3   1 <1>   0.1400 
  7 C       -0.1680     3.0210    -0.2010 C.3   1 <1>   0.1100 
  8 C       -3.7950    -1.9110    -0.3640 C.3   1 <1>   0.3440 
  9 C       -5.0750     0.0600    -0.2290 C.3   1 <1>   0.2950 
 10 N       -0.2810     4.4790    -0.2780 N.3   1 <1>  -0.6400 
 11 O       -5.0220    -1.3210    -0.0210 O.3   1 <1>  -0.5600 
 12 C       -3.8740    -3.4210    -0.1570 C.ar  1 <1>  -0.1440 
 13 C       -6.4900     0.5240     0.1290 C.3   1 <1>  -0.1950 
 14 O       -0.5400     4.9680     0.9690 O.3   1 <1>  -0.1800 
 15 C        0.9780     5.0960    -0.6600 C.3   1 <1>   0.1100 
 16 C       -4.6730    -3.9800     0.8320 C.ar  1 <1>  -0.1500 
 17 C       -3.1190    -4.2600    -0.9650 C.ar  1 <1>  -0.1500 
 18 C       -7.6230     0.3690    -0.8360 C.3   1 <1>  -0.2000 
 19 C       -7.0920     1.7370    -0.5100 C.3   1 <1>  -0.2000 
 20 C       -0.2070     6.3130     1.0030 C.3   1 <1>   0.1200 
 21 C        0.8730     6.4820    -0.0580 C.3   1 <1>  -0.1600 
 22 C       -4.7160    -5.3520     1.0090 C.ar  1 <1>  -0.1500 
 23 C       -3.1610    -5.6330    -0.7890 C.ar  1 <1>  -0.1500 
 24 C       -3.9600    -6.1800     0.1990 C.ar  1 <1>  -0.1500 
 25 H       -2.1940     2.7150    -0.7860 H     1 <1>   0.0800 
 26 H       -1.9470     2.7600     0.9470 H     1 <1>   0.0800 
 27 H       -1.7210    -1.7120     0.1480 H     1 <1>   0.0800 
 28 H       -2.7920    -1.6020     1.5090 H     1 <1>   0.0800 
 29 H       -4.2670     0.6750     1.6660 H     1 <1>   0.0800 
 30 H       -4.0280     1.8250     0.3860 H     1 <1>   0.0800 
 31 H        0.2430     2.6490    -1.1250 H     1 <1>   0.0800 
 32 H        0.4920     2.7430     0.6040 H     1 <1>   0.0800 
 33 H       -3.6110    -1.7090    -1.4050 H     1 <1>   0.0800 
 34 H       -4.8900     0.2490    -1.2730 H     1 <1>   0.0800 
 35 H       -6.7140     0.3600     1.1690 H     1 <1>   0.1000 
 36 H        1.8030     4.5650    -0.2140 H     1 <1>   0.0800 
 37 H        1.0860     5.1190    -1.7310 H     1 <1>   0.0800 
 38 H       -5.2680    -3.3460     1.4660 H     1 <1>   0.1500 
 39 H       -2.4910    -3.8500    -1.7370 H     1 <1>   0.1500 
 40 H       -7.4200    -0.0580    -1.8030 H     1 <1>   0.1000 
 41 H       -8.5840     0.0730    -0.4510 H     1 <1>   0.1000 
 42 H       -7.7000     2.3930     0.0890 H     1 <1>   0.1000 
 43 H       -6.5490     2.2650    -1.2750 H     1 <1>   0.1000 
 44 H       -1.0890     6.8770     0.7590 H     1 <1>   0.0800 
 45 H        0.1400     6.5540     1.9910 H     1 <1>   0.0800 
 46 H        0.5580     7.1950    -0.7980 H     1 <1>   0.0800 
 47 H        1.8080     6.7990     0.3660 H     1 <1>   0.0800 
 48 H       -5.3410    -5.7740     1.7770 H     1 <1>   0.1500 
 49 H       -2.5730    -6.2750    -1.4200 H     1 <1>   0.1500 
 50 H       -3.9940    -7.2460     0.3370 H     1 <1>   0.1500 
@<TRIPOS>BOND
  1   1   2  2   
  2   2   3  am  
  3   2   4  1   
  4   3   5  1   
  5   3   6  1   
  6   4   7  1   
  7   4  25  1   
  8   4  26  1   
  9   5   8  1   
 10   5  27  1   
 11   5  28  1   
 12   6   9  1   
 13   6  29  1   
 14   6  30  1   
 15   7  10  1   
 16   7  31  1   
 17   7  32  1   
 18   8  11  1   
 19   8  12  1   
 20   8  33  1   
 21   9  11  1   
 22   9  13  1   
 23   9  34  1   
 24  10  14  1   
 25  10  15  1   
 26  12  16  ar  
 27  12  17  ar  
 28  13  18  1   
 29  13  19  1   
 30  13  35  1   
 31  14  20  1   
 32  15  21  1   
 33  15  36  1   
 34  15  37  1   
 35  16  22  ar  
 36  16  38  1   
 37  17  23  ar  
 38  17  39  1   
 39  18  19  1   
 40  18  40  1   
 41  18  41  1   
 42  19  42  1   
 43  19  43  1   
 44  20  21  1   
 45  20  44  1   
 46  20  45  1   
 47  21  46  1   
 48  21  47  1   
 49  22  24  ar  
 50  22  48  1   
 51  23  24  ar  
 52  23  49  1   
 53  24  50  1   
@<TRIPOS>SUBSTRUCTURE
  1 ****   3 GROUP 4 **** **** 0

# MOE 2024.06 (io_trps.svl 2023.06)
