@<TRIPOS>MOLECULE
Untitled Document
41 42 1 0 0 
SMALL
USER_CHARGES


@<TRIPOS>ATOM
  1 CL      -0.9860    -0.7440    -2.3940 Cl    1 <1>  -0.1770 
  2 C       -2.1410    -1.1020    -1.1360 C.ar  1 <1>   0.1770 
  3 C       -3.2190    -0.2580    -0.9480 C.ar  1 <1>  -0.1500 
  4 C       -1.9580    -2.2230    -0.3480 C.ar  1 <1>  -0.1500 
  5 C       -4.1400    -0.5350     0.0520 C.ar  1 <1>  -0.1440 
  6 C       -2.8770    -2.5030     0.6480 C.ar  1 <1>  -0.1500 
  7 C       -3.9620    -1.6630     0.8430 C.ar  1 <1>  -0.1500 
  8 C       -5.3300     0.3810     0.2860 C.3   1 <1>   0.2640 
  9 O       -6.5060    -0.2950    -0.0980 O.3   1 <1>  -0.3630 
 10 C       -7.7210     0.3040    -0.0010 C.ar  1 <1>   0.0830 
 11 C       -7.9200     1.5820     0.5160 C.ar  1 <1>  -0.1500 
 12 C       -8.8090    -0.4250    -0.4530 C.ar  1 <1>  -0.1500 
 13 C       -9.1980     2.1090     0.5740 C.ar  1 <1>  -0.1500 
 14 C      -10.0870     0.1030    -0.3950 C.ar  1 <1>  -0.1500 
 15 C      -10.2860     1.3790     0.1240 C.ar  1 <1>   0.0830 
 16 O      -11.5020     1.9760     0.2250 O.3   1 <1>  -0.3630 
 17 C      -12.6770     1.3160    -0.2030 C.3   1 <1>   0.1200 
 18 C      -13.9030     2.2100     0.0290 C.3   1 <1>   0.2000 
 19 O      -13.8850     3.2870    -0.8440 O.3   1 <1>  -0.6800 
 20 C      -15.2200     1.4520    -0.1910 C.3   1 <1>   0.1200 
 21 O      -16.2870     2.3560    -0.1690 O.3   1 <1>  -0.5600 
 22 C      -17.5290     1.7700    -0.3910 C.3   1 <1>   0.0400 
 23 H       -3.3300     0.6020    -1.5840 H     1 <1>   0.1500 
 24 H       -1.1100    -2.8620    -0.5160 H     1 <1>   0.1500 
 25 H       -2.7520    -3.3740     1.2680 H     1 <1>   0.1500 
 26 H       -4.6770    -1.8910     1.6150 H     1 <1>   0.1500 
 27 H       -5.2480     1.2770    -0.3040 H     1 <1>   0.0800 
 28 H       -5.4080     0.6320     1.3290 H     1 <1>   0.0800 
 29 H       -7.1050     2.1800     0.8760 H     1 <1>   0.1500 
 30 H       -8.6460    -1.4100    -0.8530 H     1 <1>   0.1500 
 31 H       -9.3640     3.0950     0.9700 H     1 <1>   0.1500 
 32 H      -10.9040    -0.4900    -0.7570 H     1 <1>   0.1500 
 33 H      -12.5820     1.0810    -1.2480 H     1 <1>   0.0800 
 34 H      -12.7690     0.4120     0.3720 H     1 <1>   0.0800 
 35 H      -13.8840     2.5930     1.0350 H     1 <1>   0.0800 
 36 H      -14.7880     3.6730    -0.8350 H     1 <1>   0.4000 
 37 H      -15.3650     0.7240     0.5890 H     1 <1>   0.0800 
 38 H      -15.2050     0.9580    -1.1470 H     1 <1>   0.0800 
 39 H      -18.2760     2.5440    -0.3510 H     1 <1>   0.0800 
 40 H      -17.7220     1.0410     0.3770 H     1 <1>   0.0800 
 41 H      -17.5370     1.3100    -1.3640 H     1 <1>   0.0800 
@<TRIPOS>BOND
  1   1   2  1   
  2   2   3  ar  
  3   2   4  ar  
  4   3   5  ar  
  5   3  23  1   
  6   4   6  ar  
  7   4  24  1   
  8   5   7  ar  
  9   5   8  1   
 10   6   7  ar  
 11   6  25  1   
 12   7  26  1   
 13   8   9  1   
 14   8  27  1   
 15   8  28  1   
 16   9  10  1   
 17  10  11  ar  
 18  10  12  ar  
 19  11  13  ar  
 20  11  29  1   
 21  12  14  ar  
 22  12  30  1   
 23  13  15  ar  
 24  13  31  1   
 25  14  15  ar  
 26  14  32  1   
 27  15  16  1   
 28  16  17  1   
 29  17  18  1   
 30  17  33  1   
 31  17  34  1   
 32  18  19  1   
 33  18  20  1   
 34  18  35  1   
 35  19  36  1   
 36  20  21  1   
 37  20  37  1   
 38  20  38  1   
 39  21  22  1   
 40  22  39  1   
 41  22  40  1   
 42  22  41  1   
@<TRIPOS>SUBSTRUCTURE
  1 ****  10 GROUP 4 **** **** 0

# MOE 2024.06 (io_trps.svl 2023.06)
