@<TRIPOS>MOLECULE
NONAME
49 51 1 0 0 
SMALL
USER_CHARGES


@<TRIPOS>ATOM
  1 O       -0.7560     0.3360     1.8050 O.2   1 <1>  -0.5700 
  2 C       -1.6790     0.9580     1.3090 C.2   1 <1>   0.7150 
  3 N       -2.6840     0.2490     0.6860 N.am  1 <1>  -0.6600 
  4 C       -1.7290     2.4010     1.3880 C.2   1 <1>   0.0550 
  5 C       -3.6920     0.8410    -0.2300 C.3   1 <1>   0.1400 
  6 C       -2.6240    -1.2240     0.4910 C.3   1 <1>   0.1400 
  7 O       -0.7090     3.1470     0.9740 O.3   1 <1>  -0.2800 
  8 C       -2.7110     3.2320     1.8360 C.2   1 <1>  -0.1500 
  9 C       -4.5910    -0.3330    -0.6120 C.3   1 <1>   0.2000 
 10 C       -3.6310    -1.5250    -0.6260 C.3   1 <1>  -0.0800 
 11 C       -1.0030     4.4220     1.1330 C.2   1 <1>   0.1600 
 12 C       -2.2410     4.5330     1.6690 C.2   1 <1>  -0.1500 
 13 O       -5.5250    -0.4980     0.4010 O.3   1 <1>  -0.6800 
 14 C       -4.2900    -2.9120    -0.5140 C.3   1 <1>   0.0210 
 15 C       -0.0650     5.4280     0.7500 C.1   1 <1>  -0.0200 
 16 C       -3.2440    -4.0090    -0.5250 C.2   1 <1>   0.1080 
 17 C        0.7110     6.2720     0.4270 C.1   1 <1>  -0.2000 
 18 N       -2.4300    -4.1950    -1.5180 N.2   1 <1>  -0.7070 
 19 C       -3.0290    -4.9160     0.5070 C.2   1 <1>  -0.1500 
 20 C        1.6870     7.3190     0.0220 C.3   1 <1>   0.4800 
 21 N       -1.6670    -5.2380    -1.1410 N.pl3 1 <1>   0.3000 
 22 C       -2.0100    -5.6910     0.0830 C.2   1 <1>  -0.3320 
 23 O        1.0250     8.5180     0.0000 O.3   1 <1>  -0.6800 
 24 C        2.8140     7.4420     1.0410 C.3   1 <1>  -0.2400 
 25 C        2.2130     7.0660    -1.3850 C.3   1 <1>  -0.2400 
 26 C       -1.3320    -6.8550     0.7820 C.3   1 <1>  -0.0600 
 27 H       -4.2550     1.6310     0.2360 H     1 <1>   0.0800 
 28 H       -3.1910     1.2200    -1.1040 H     1 <1>   0.0800 
 29 H       -1.6310    -1.5400     0.2110 H     1 <1>   0.0800 
 30 H       -2.9030    -1.7130     1.4080 H     1 <1>   0.0800 
 31 H       -3.6670     2.9600     2.2460 H     1 <1>   0.1500 
 32 H       -5.1120    -0.1880    -1.5430 H     1 <1>   0.0800 
 33 H       -3.0880    -1.4940    -1.5550 H     1 <1>   0.0800 
 34 H       -2.7660     5.4370     1.9210 H     1 <1>   0.1500 
 35 H       -5.0530    -0.5140     1.2580 H     1 <1>   0.4000 
 36 H       -4.9540    -3.0620    -1.3460 H     1 <1>   0.0800 
 37 H       -4.8670    -2.9880     0.3900 H     1 <1>   0.0800 
 38 H       -3.5730    -4.9650     1.4330 H     1 <1>   0.1500 
 39 H       -0.9220    -5.6140    -1.7400 H     1 <1>   0.2700 
 40 H        1.6450     9.2160    -0.2660 H     1 <1>   0.4000 
 41 H        3.3470     6.5110     1.1040 H     1 <1>   0.0800 
 42 H        2.4100     7.6640     2.0120 H     1 <1>   0.0800 
 43 H        3.5070     8.2120     0.7560 H     1 <1>   0.0800 
 44 H        2.7240     6.1210    -1.4150 H     1 <1>   0.0800 
 45 H        2.9020     7.8350    -1.6830 H     1 <1>   0.0800 
 46 H        1.3950     7.0260    -2.0820 H     1 <1>   0.0800 
 47 H       -1.7830    -7.0230     1.7430 H     1 <1>   0.0800 
 48 H       -0.2870    -6.6450     0.9270 H     1 <1>   0.0800 
 49 H       -1.4320    -7.7510     0.1950 H     1 <1>   0.0800 
@<TRIPOS>BOND
  1   1   2  2   
  2   2   3  am  
  3   2   4  1   
  4   3   5  1   
  5   3   6  1   
  6   4   7  1   
  7   4   8  2   
  8   5   9  1   
  9   5  27  1   
 10   5  28  1   
 11   6  10  1   
 12   6  29  1   
 13   6  30  1   
 14   7  11  1   
 15   8  12  1   
 16   8  31  1   
 17   9  10  1   
 18   9  13  1   
 19   9  32  1   
 20  10  14  1   
 21  10  33  1   
 22  11  12  2   
 23  11  15  1   
 24  12  34  1   
 25  13  35  1   
 26  14  16  1   
 27  14  36  1   
 28  14  37  1   
 29  15  17  3   
 30  16  18  2   
 31  16  19  1   
 32  17  20  1   
 33  18  21  1   
 34  19  22  2   
 35  19  38  1   
 36  20  23  1   
 37  20  24  1   
 38  20  25  1   
 39  21  22  1   
 40  21  39  1   
 41  22  26  1   
 42  23  40  1   
 43  24  41  1   
 44  24  42  1   
 45  24  43  1   
 46  25  44  1   
 47  25  45  1   
 48  25  46  1   
 49  26  47  1   
 50  26  48  1   
 51  26  49  1   
@<TRIPOS>SUBSTRUCTURE
  1 ****   2 GROUP 4 **** **** 0

# MOE 2024.06 (io_trps.svl 2023.06)
