@<TRIPOS>MOLECULE
NONAME
62 65 1 0 0 
SMALL
USER_CHARGES


@<TRIPOS>ATOM
  1 O       -2.8430     0.9500    -2.6050 O.2   1 <1>  -0.5700 
  2 C       -3.2930     0.0990    -1.8780 C.2   1 <1>   0.5690 
  3 N       -3.3510     0.1490    -0.5280 N.am  1 <1>  -0.6600 
  4 C       -3.8570    -1.1920    -2.3940 C.3   1 <1>  -0.0990 
  5 C       -2.8540     1.2930     0.2810 C.3   1 <1>   0.2200 
  6 C       -3.9700    -1.0580     0.0490 C.3   1 <1>   0.1400 
  7 C       -4.5570    -1.7980    -1.1630 C.3   1 <1>  -0.0800 
  8 C       -1.8310     0.8400     1.3200 C.3   1 <1>  -0.1600 
  9 C       -3.9800     1.9210     1.1010 C.3   1 <1>  -0.1600 
 10 C       -4.4130    -3.3240    -1.0380 C.3   1 <1>   0.2090 
 11 C       -2.6170     0.5110     2.5920 C.3   1 <1>  -0.1600 
 12 C       -3.9350     1.2880     2.4980 C.3   1 <1>  -0.1600 
 13 N       -5.0010    -4.0260    -2.2140 N.pl3 1 <1>  -0.8380 
 14 C       -6.3280    -3.8130    -2.5520 C.ar  1 <1>   0.4100 
 15 C       -4.0480    -4.6450    -3.1780 C.3   1 <1>   0.1290 
 16 N       -7.2060    -4.0780    -1.5980 N.ar  1 <1>  -0.6200 
 17 C       -6.7050    -3.3340    -3.8180 C.ar  1 <1>   0.1600 
 18 C       -8.4780    -3.8470    -1.9670 C.ar  1 <1>   0.3960 
 19 N       -7.9420    -3.0900    -4.1980 N.ar  1 <1>  -0.6200 
 20 C       -9.5630    -4.1260    -1.0330 C.2   1 <1>   0.5440 
 21 C       -8.8070    -3.3510    -3.2300 C.ar  1 <1>   0.1600 
 22 O      -10.4370    -3.2960    -0.8700 O.2   1 <1>  -0.5700 
 23 N       -9.6500    -5.2990    -0.2980 N.am  1 <1>  -0.6600 
 24 C       -8.7430    -6.4710    -0.4860 C.3   1 <1>   0.1400 
 25 C      -10.4440    -5.3680     0.9640 C.3   1 <1>   0.1400 
 26 C       -7.7700    -6.5600     0.7040 C.3   1 <1>   0.3430 
 27 C       -9.4900    -5.4840     2.1700 C.3   1 <1>   0.3430 
 28 N       -8.5050    -6.6230     2.0240 N.4   1 <1>  -0.9590 
 29 C       -7.5430    -6.6440     3.1670 C.3   1 <1>   0.2630 
 30 H       -3.0400    -1.8010    -2.7310 H     1 <1>   0.0800 
 31 H       -4.5460    -1.0140    -3.1980 H     1 <1>   0.0800 
 32 H       -2.4180     2.0250    -0.3800 H     1 <1>   0.0800 
 33 H       -4.7440    -0.7970     0.7490 H     1 <1>   0.0800 
 34 H       -3.2100    -1.6430     0.5380 H     1 <1>   0.0800 
 35 H       -5.6020    -1.5470    -1.2020 H     1 <1>   0.0800 
 36 H       -1.1790     1.6710     1.5270 H     1 <1>   0.0800 
 37 H       -1.2330     0.0170     0.9710 H     1 <1>   0.0800 
 38 H       -4.9370     1.8060     0.6230 H     1 <1>   0.0800 
 39 H       -3.7760     2.9730     1.1970 H     1 <1>   0.0800 
 40 H       -4.9190    -3.6580    -0.1490 H     1 <1>   0.0800 
 41 H       -3.3720    -3.5840    -0.9450 H     1 <1>   0.0800 
 42 H       -2.0600     0.7870     3.4720 H     1 <1>   0.0800 
 43 H       -2.8200    -0.5440     2.6350 H     1 <1>   0.0800 
 44 H       -4.7690     0.6220     2.6380 H     1 <1>   0.0800 
 45 H       -3.9790     2.0540     3.2530 H     1 <1>   0.0800 
 46 H       -3.3810    -5.3100    -2.6560 H     1 <1>   0.0800 
 47 H       -3.4690    -3.8850    -3.6730 H     1 <1>   0.0800 
 48 H       -4.5830    -5.2150    -3.9180 H     1 <1>   0.0800 
 49 H       -5.9250    -3.1400    -4.5310 H     1 <1>   0.1500 
 50 H       -9.8470    -3.1690    -3.4440 H     1 <1>   0.1500 
 51 H       -8.1910    -6.3940    -1.4050 H     1 <1>   0.0800 
 52 H       -9.3310    -7.3710    -0.5440 H     1 <1>   0.0800 
 53 H      -11.1040    -6.2160     0.9280 H     1 <1>   0.0800 
 54 H      -11.0550    -4.4880     1.0820 H     1 <1>   0.0800 
 55 H       -7.1310    -5.6920     0.6790 H     1 <1>   0.0800 
 56 H       -7.1480    -7.4320     0.5870 H     1 <1>   0.0800 
 57 H      -10.0730    -5.6150     3.0670 H     1 <1>   0.0800 
 58 H       -8.9540    -4.5530     2.2600 H     1 <1>   0.0800 
 59 H       -9.0460    -7.4990     2.0330 H     1 <1>   0.4500 
 60 H       -6.9650    -5.7340     3.1860 H     1 <1>   0.0800 
 61 H       -6.8680    -7.4790     3.0730 H     1 <1>   0.0800 
 62 H       -8.0730    -6.7350     4.1020 H     1 <1>   0.0800 
@<TRIPOS>BOND
  1   1   2  2   
  2   2   3  am  
  3   2   4  1   
  4   3   5  1   
  5   3   6  1   
  6   4   7  1   
  7   4  30  1   
  8   4  31  1   
  9   5   8  1   
 10   5   9  1   
 11   5  32  1   
 12   6   7  1   
 13   6  33  1   
 14   6  34  1   
 15   7  10  1   
 16   7  35  1   
 17   8  11  1   
 18   8  36  1   
 19   8  37  1   
 20   9  12  1   
 21   9  38  1   
 22   9  39  1   
 23  10  13  1   
 24  10  40  1   
 25  10  41  1   
 26  11  12  1   
 27  11  42  1   
 28  11  43  1   
 29  12  44  1   
 30  12  45  1   
 31  13  14  1   
 32  13  15  1   
 33  14  16  ar  
 34  14  17  ar  
 35  15  46  1   
 36  15  47  1   
 37  15  48  1   
 38  16  18  ar  
 39  17  19  ar  
 40  17  49  1   
 41  18  20  1   
 42  18  21  ar  
 43  19  21  ar  
 44  20  22  2   
 45  20  23  am  
 46  21  50  1   
 47  23  24  1   
 48  23  25  1   
 49  24  26  1   
 50  24  51  1   
 51  24  52  1   
 52  25  27  1   
 53  25  53  1   
 54  25  54  1   
 55  26  28  1   
 56  26  55  1   
 57  26  56  1   
 58  27  28  1   
 59  27  57  1   
 60  27  58  1   
 61  28  29  1   
 62  28  59  1   
 63  29  60  1   
 64  29  61  1   
 65  29  62  1   
@<TRIPOS>SUBSTRUCTURE
  1 ****  10 GROUP 4 **** **** 0

# MOE 2024.06 (io_trps.svl 2023.06)
