@<TRIPOS>MOLECULE
NONAME
42 44 1 0 0 
SMALL
USER_CHARGES


@<TRIPOS>ATOM
  1 S        0.4040     0.0690     2.2260 S.o2  1 <1>   1.4470 
  2 O       -0.1720     1.1460     3.0010 O.2   1 <1>  -0.6500 
  3 O        1.1030    -0.9970     2.9110 O.2   1 <1>  -0.6500 
  4 N        1.5330     0.7590     1.1660 N.am  1 <1>  -0.8490 
  5 C       -0.8510    -0.6150     1.1070 C.ar  1 <1>  -0.0090 
  6 C        2.2850     1.8630     1.7970 C.3   1 <1>   0.1960 
  7 C        2.3680    -0.2430     0.4910 C.3   1 <1>   0.1960 
  8 C       -1.5360    -1.7780     1.4330 C.ar  1 <1>  -0.1500 
  9 C       -1.1680     0.0100    -0.0980 C.ar  1 <1>  -0.1500 
 10 C        3.3150     2.5740     0.8890 C.3   1 <1>   0.2200 
 11 C        3.0420     0.2530    -0.8060 C.3   1 <1>  -0.0190 
 12 C       -2.4880    -2.2810     0.5670 C.ar  1 <1>   0.1900 
 13 C       -2.1250    -0.5050    -0.9590 C.ar  1 <1>  -0.1500 
 14 N        2.7790     2.7210    -0.5050 N.am  1 <1>  -0.6600 
 15 C        4.7070     1.8890     0.9640 C.3   1 <1>   0.1200 
 16 C        2.5610     1.6150    -1.2850 C.2   1 <1>   0.5690 
 17 C        4.5780     0.2000    -0.7290 C.3   1 <1>   0.1200 
 18 F       -3.1070    -3.3800     0.9090 F     1 <1>  -0.1900 
 19 C       -2.8040    -1.6680    -0.6350 C.ar  1 <1>  -0.1440 
 20 C        2.4020     4.0910    -0.9390 C.3   1 <1>   0.0600 
 21 O        5.1570     1.3800    -0.2570 O.3   1 <1>  -0.5600 
 22 O        1.9930     1.6720    -2.3520 O.2   1 <1>  -0.5700 
 23 C       -3.8560    -2.2450    -1.5700 C.3   1 <1>  -0.0970 
 24 H        1.5770     2.6140     2.1040 H     1 <1>   0.0800 
 25 H        2.7680     1.5080     2.6920 H     1 <1>   0.0800 
 26 H        3.1010    -0.6240     1.1840 H     1 <1>   0.0800 
 27 H        1.7410    -1.0770     0.2180 H     1 <1>   0.0800 
 28 H       -1.3310    -2.2940     2.3540 H     1 <1>   0.1500 
 29 H       -0.6550     0.9180    -0.3740 H     1 <1>   0.1500 
 30 H        3.4500     3.5580     1.3030 H     1 <1>   0.0800 
 31 H        2.7680    -0.4580    -1.5630 H     1 <1>   0.0800 
 32 H       -2.3340     0.0090    -1.8820 H     1 <1>   0.1500 
 33 H        4.7270     1.0990     1.6930 H     1 <1>   0.0800 
 34 H        5.4300     2.6240     1.2690 H     1 <1>   0.0800 
 35 H        4.9690     0.0550    -1.7210 H     1 <1>   0.0800 
 36 H        4.9170    -0.6160    -0.1150 H     1 <1>   0.0800 
 37 H        3.2590     4.7390    -0.8830 H     1 <1>   0.0800 
 38 H        1.6200     4.4720    -0.3060 H     1 <1>   0.0800 
 39 H        2.0480     4.0810    -1.9560 H     1 <1>   0.0800 
 40 H       -3.9680    -1.6360    -2.4490 H     1 <1>   0.0800 
 41 H       -4.8050    -2.2960    -1.0660 H     1 <1>   0.0800 
 42 H       -3.5720    -3.2370    -1.8740 H     1 <1>   0.0800 
@<TRIPOS>BOND
  1   1   2  2   
  2   1   3  2   
  3   1   4  am  
  4   1   5  1   
  5   4   6  1   
  6   4   7  1   
  7   5   8  ar  
  8   5   9  ar  
  9   6  10  1   
 10   6  24  1   
 11   6  25  1   
 12   7  11  1   
 13   7  26  1   
 14   7  27  1   
 15   8  12  ar  
 16   8  28  1   
 17   9  13  ar  
 18   9  29  1   
 19  10  14  1   
 20  10  15  1   
 21  10  30  1   
 22  11  16  1   
 23  11  17  1   
 24  11  31  1   
 25  12  18  1   
 26  12  19  ar  
 27  13  19  ar  
 28  13  32  1   
 29  14  16  am  
 30  14  20  1   
 31  15  21  1   
 32  15  33  1   
 33  15  34  1   
 34  16  22  2   
 35  17  21  1   
 36  17  35  1   
 37  17  36  1   
 38  19  23  1   
 39  20  37  1   
 40  20  38  1   
 41  20  39  1   
 42  23  40  1   
 43  23  41  1   
 44  23  42  1   
@<TRIPOS>SUBSTRUCTURE
  1 ****   4 GROUP 4 **** **** 0

# MOE 2024.06 (io_trps.svl 2023.06)
