@<TRIPOS>MOLECULE
NONAME
33 34 1 0 0 
SMALL
USER_CHARGES


@<TRIPOS>ATOM
  1 S        0.7450     0.2000     1.6390 S.o2  1 <1>   1.0900 
  2 O        0.8080    -1.2000     1.9910 O.2   1 <1>  -0.6500 
  3 O        0.9540     1.1780     2.6840 O.2   1 <1>  -0.6500 
  4 C        2.0220     0.5390     0.4290 C.3   1 <1>   0.0860 
  5 C       -0.8740     0.5440     0.9180 C.3   1 <1>  -0.0550 
  6 C        1.7380     1.9120    -0.1350 C.2   1 <1>   0.5690 
  7 C        2.2440    -0.5510    -0.6500 C.3   1 <1>  -0.2400 
  8 C       -1.3100    -0.3520    -0.2540 C.3   1 <1>  -0.2400 
  9 O        1.1150     1.9970    -1.1620 O.2   1 <1>  -0.5700 
 10 N        2.1650     3.0020     0.5730 N.am  1 <1>  -0.4940 
 11 C        2.1890     4.3410     0.2650 C.2   1 <1>   0.4420 
 12 S        1.7780     4.9260    -1.3530 S.3   1 <1>  -0.0800 
 13 N        2.5180     5.2620     1.0850 N.2   1 <1>  -0.5650 
 14 C        2.0800     6.5670    -0.8310 C.ar  1 <1>   0.0400 
 15 C        2.4630     6.5270     0.4980 C.ar  1 <1>   0.2270 
 16 C        1.9710     7.7300    -1.5740 C.ar  1 <1>  -0.1500 
 17 C        2.7480     7.7580     1.0880 C.ar  1 <1>   0.1900 
 18 C        2.2640     8.9330    -0.9500 C.ar  1 <1>  -0.1500 
 19 F        3.1170     7.8030     2.3410 F     1 <1>  -0.1900 
 20 C        2.6540     8.9490     0.3870 C.ar  1 <1>  -0.1500 
 21 H        2.9490     0.6080     0.9630 H     1 <1>   0.0800 
 22 H       -0.9230     1.5700     0.6030 H     1 <1>   0.0800 
 23 H       -1.6050     0.4290     1.6960 H     1 <1>   0.0800 
 24 H        1.3800    -0.6750    -1.2730 H     1 <1>   0.0800 
 25 H        2.4650    -1.4940    -0.1820 H     1 <1>   0.0800 
 26 H        3.0730    -0.2800    -1.2800 H     1 <1>   0.0800 
 27 H       -0.7580    -0.1140    -1.1440 H     1 <1>   0.0800 
 28 H       -2.3530    -0.1940    -0.4620 H     1 <1>   0.0800 
 29 H       -1.1640    -1.3910    -0.0100 H     1 <1>   0.0800 
 30 H        2.4390     2.8370     1.5430 H     1 <1>   0.3700 
 31 H        1.6680     7.6920    -2.6060 H     1 <1>   0.1500 
 32 H        2.1890     9.8580    -1.4990 H     1 <1>   0.1500 
 33 H        2.8830     9.8770     0.8800 H     1 <1>   0.1500 
@<TRIPOS>BOND
  1   1   2  2   
  2   1   3  2   
  3   1   4  1   
  4   1   5  1   
  5   4   6  1   
  6   4   7  1   
  7   4  21  1   
  8   5   8  1   
  9   5  22  1   
 10   5  23  1   
 11   6   9  2   
 12   6  10  am  
 13   7  24  1   
 14   7  25  1   
 15   7  26  1   
 16   8  27  1   
 17   8  28  1   
 18   8  29  1   
 19  10  11  1   
 20  10  30  1   
 21  11  12  1   
 22  11  13  2   
 23  12  14  1   
 24  13  15  1   
 25  14  15  ar  
 26  14  16  ar  
 27  15  17  ar  
 28  16  18  ar  
 29  16  31  1   
 30  17  19  1   
 31  17  20  ar  
 32  18  20  ar  
 33  18  32  1   
 34  20  33  1   
@<TRIPOS>SUBSTRUCTURE
  1 ****  11 GROUP 4 **** **** 0

# MOE 2024.06 (io_trps.svl 2023.06)
