@<TRIPOS>MOLECULE
NONAME
50 51 1 0 0 
SMALL
USER_CHARGES


@<TRIPOS>ATOM
  1 CL      -0.3120     0.7750    -1.6310 Cl    1 <1>  -0.1770 
  2 C       -1.4470     1.4710    -0.4930 C.ar  1 <1>   0.1770 
  3 C       -1.2600     2.7650    -0.0190 C.ar  1 <1>   0.0820 
  4 C       -2.5230     0.7030    -0.0890 C.ar  1 <1>  -0.1500 
  5 O       -0.1810     3.4660    -0.4610 O.3   1 <1>  -0.3630 
  6 C       -2.1880     3.2810     0.8830 C.ar  1 <1>  -0.1500 
  7 C       -3.4420     1.2220     0.8080 C.ar  1 <1>  -0.1430 
  8 C       -0.0040     4.8290    -0.1430 C.3   1 <1>   0.1200 
  9 C       -3.2670     2.5110     1.2890 C.ar  1 <1>  -0.1500 
 10 C       -4.6300     0.3920     1.2600 C.3   1 <1>  -0.0960 
 11 C        1.2740     5.3210    -0.8210 C.3   1 <1>   0.1400 
 12 N        1.3600     6.8130    -0.7630 N.am  1 <1>  -0.6600 
 13 C        1.7710     7.4230     0.4050 C.2   1 <1>   0.5690 
 14 C        0.9700     7.4810    -2.0390 C.3   1 <1>   0.0600 
 15 O        2.0000     6.7620     1.3910 O.2   1 <1>  -0.5700 
 16 C        1.9470     8.9400     0.5600 C.3   1 <1>  -0.0190 
 17 C        0.6130     9.7170     0.5000 C.3   1 <1>  -0.1600 
 18 C        3.0540     9.5340    -0.3480 C.3   1 <1>  -0.1600 
 19 C        0.7870    11.2130     0.8350 C.3   1 <1>   0.2000 
 20 C        2.8210    11.0130    -0.7060 C.3   1 <1>  -0.1600 
 21 O       -0.1930    11.9280     0.1220 O.3   1 <1>  -0.5600 
 22 C        2.1920    11.7640     0.4690 C.3   1 <1>   0.2000 
 23 C       -1.4490    11.9730     0.7250 C.3   1 <1>   0.0400 
 24 O        2.0820    13.0930     0.1140 O.3   1 <1>  -0.6800 
 25 H       -2.6320    -0.2920    -0.4810 H     1 <1>   0.1500 
 26 H       -2.0870     4.2720     1.2830 H     1 <1>   0.1500 
 27 H       -0.8580     5.3710    -0.5090 H     1 <1>   0.0800 
 28 H        0.0830     4.9260     0.9250 H     1 <1>   0.0800 
 29 H       -3.9760     2.9230     1.9860 H     1 <1>   0.1500 
 30 H       -4.8570     0.5940     2.2920 H     1 <1>   0.0800 
 31 H       -4.4190    -0.6580     1.1600 H     1 <1>   0.0800 
 32 H       -5.4900     0.6310     0.6620 H     1 <1>   0.0800 
 33 H        1.2840     4.9950    -1.8460 H     1 <1>   0.0800 
 34 H        2.1260     4.8930    -0.3210 H     1 <1>   0.0800 
 35 H        1.5370     7.0630    -2.8530 H     1 <1>   0.0800 
 36 H        1.1540     8.5370    -2.0170 H     1 <1>   0.0800 
 37 H       -0.0770     7.3180    -2.2260 H     1 <1>   0.0800 
 38 H        2.3000     9.0800     1.5680 H     1 <1>   0.0800 
 39 H       -0.0770     9.2790     1.1990 H     1 <1>   0.0800 
 40 H        0.1870     9.6310    -0.4810 H     1 <1>   0.0800 
 41 H        3.9920     9.4450     0.1740 H     1 <1>   0.0800 
 42 H        3.1600     8.9700    -1.2560 H     1 <1>   0.0800 
 43 H        0.6390    11.3750     1.8890 H     1 <1>   0.0800 
 44 H        2.1580    11.0760    -1.5520 H     1 <1>   0.0800 
 45 H        3.7580    11.4700    -0.9730 H     1 <1>   0.0800 
 46 H        2.8480    11.7040     1.3200 H     1 <1>   0.0800 
 47 H       -2.1050    12.5430     0.0910 H     1 <1>   0.0800 
 48 H       -1.3660    12.4560     1.6840 H     1 <1>   0.0800 
 49 H       -1.8330    10.9740     0.8350 H     1 <1>   0.0800 
 50 H        1.1660    13.2000    -0.2310 H     1 <1>   0.4000 
@<TRIPOS>BOND
  1   1   2  1   
  2   2   3  ar  
  3   2   4  ar  
  4   3   5  1   
  5   3   6  ar  
  6   4   7  ar  
  7   4  25  1   
  8   5   8  1   
  9   6   9  ar  
 10   6  26  1   
 11   7   9  ar  
 12   7  10  1   
 13   8  11  1   
 14   8  27  1   
 15   8  28  1   
 16   9  29  1   
 17  10  30  1   
 18  10  31  1   
 19  10  32  1   
 20  11  12  1   
 21  11  33  1   
 22  11  34  1   
 23  12  13  am  
 24  12  14  1   
 25  13  15  2   
 26  13  16  1   
 27  14  35  1   
 28  14  36  1   
 29  14  37  1   
 30  16  17  1   
 31  16  18  1   
 32  16  38  1   
 33  17  19  1   
 34  17  39  1   
 35  17  40  1   
 36  18  20  1   
 37  18  41  1   
 38  18  42  1   
 39  19  21  1   
 40  19  22  1   
 41  19  43  1   
 42  20  22  1   
 43  20  44  1   
 44  20  45  1   
 45  21  23  1   
 46  22  24  1   
 47  22  46  1   
 48  23  47  1   
 49  23  48  1   
 50  23  49  1   
 51  24  50  1   
@<TRIPOS>SUBSTRUCTURE
  1 ****   8 GROUP 4 **** **** 0

# MOE 2024.06 (io_trps.svl 2023.06)
