@<TRIPOS>MOLECULE
NONAME
53 55 1 0 0 
SMALL
USER_CHARGES


@<TRIPOS>ATOM
  1 O        0.5970     0.3590    -0.7540 O.2   1 <1>  -0.5700 
  2 C        1.4330    -0.1650    -0.0420 C.2   1 <1>   0.7160 
  3 N        2.2350     0.6680     0.7290 N.am  1 <1>  -0.6600 
  4 C        1.5940    -1.6130    -0.0760 C.2   1 <1>   0.2030 
  5 C        3.1000     0.1920     1.8520 C.3   1 <1>   0.1400 
  6 C        2.3460     2.1190     0.4340 C.3   1 <1>   0.1400 
  7 N        2.6680    -2.2910     0.2180 N.2   1 <1>  -0.4100 
  8 C        0.6140    -2.5110    -0.4690 C.2   1 <1>  -0.1500 
  9 C        4.5610    -0.0440     1.4100 C.3   1 <1>   0.3430 
 10 C        3.4280     2.3490    -0.6280 C.3   1 <1>  -0.1600 
 11 O        2.4560    -3.5740     0.0550 O.3   1 <1>  -0.0190 
 12 C        1.2150    -3.6980    -0.3620 C.2   1 <1>  -0.0400 
 13 N        5.1780     1.1210     0.6760 N.4   1 <1>  -0.9590 
 14 C        4.5470     1.3010    -0.6690 C.3   1 <1>   0.3430 
 15 C        0.6790    -5.0860    -0.6470 C.3   1 <1>  -0.0600 
 16 C        6.6480     0.9130     0.5590 C.3   1 <1>   0.3430 
 17 C        7.3450     2.2330     0.2300 C.3   1 <1>  -0.1600 
 18 C        8.8740     2.0750     0.2020 C.3   1 <1>   0.1000 
 19 C        9.5540     3.4260     0.0470 C.2   1 <1>  -0.0400 
 20 C        9.3330     1.1400    -0.9270 C.3   1 <1>  -0.2400 
 21 O       10.8420     3.4940     0.3190 O.3   1 <1>  -0.2800 
 22 C        9.0930     4.6410    -0.3290 C.2   1 <1>  -0.1500 
 23 C       11.2330     4.7360     0.1270 C.2   1 <1>  -0.0400 
 24 C       10.1970     5.5000    -0.2750 C.2   1 <1>  -0.1500 
 25 C       12.6840     5.0840     0.3720 C.3   1 <1>  -0.0600 
 26 H        2.7010    -0.7210     2.2590 H     1 <1>   0.0800 
 27 H        3.0800     0.9140     2.6500 H     1 <1>   0.0800 
 28 H        2.5910     2.6530     1.3360 H     1 <1>   0.0800 
 29 H        1.4010     2.5050     0.0840 H     1 <1>   0.0800 
 30 H       -0.3830    -2.2580    -0.7820 H     1 <1>   0.1500 
 31 H        4.5940    -0.9200     0.7830 H     1 <1>   0.0800 
 32 H        5.1420    -0.2620     2.2910 H     1 <1>   0.0800 
 33 H        3.8460     3.3330    -0.5070 H     1 <1>   0.0800 
 34 H        2.9460     2.3420    -1.5900 H     1 <1>   0.0800 
 35 H        5.0140     1.9750     1.2220 H     1 <1>   0.4500 
 36 H        5.2840     1.6150    -1.3900 H     1 <1>   0.0800 
 37 H        4.1420     0.3600    -1.0070 H     1 <1>   0.0800 
 38 H       -0.3410    -5.0310    -0.9800 H     1 <1>   0.0800 
 39 H        0.7240    -5.6850     0.2450 H     1 <1>   0.0800 
 40 H        1.2700    -5.5560    -1.4130 H     1 <1>   0.0800 
 41 H        6.8570     0.1800    -0.2040 H     1 <1>   0.0800 
 42 H        7.0370     0.5440     1.4950 H     1 <1>   0.0800 
 43 H        7.0990     2.9580     0.9860 H     1 <1>   0.0800 
 44 H        7.0220     2.6060    -0.7250 H     1 <1>   0.0800 
 45 H        9.2000     1.6660     1.1440 H     1 <1>   0.0800 
 46 H        9.0190     1.5220    -1.8830 H     1 <1>   0.0800 
 47 H        8.9540     0.1430    -0.7990 H     1 <1>   0.0800 
 48 H       10.4080     1.0850    -0.9310 H     1 <1>   0.0800 
 49 H        8.1040     4.9420    -0.6190 H     1 <1>   0.1500 
 50 H       10.1870     6.5490    -0.5140 H     1 <1>   0.1500 
 51 H       12.9400     4.8720     1.3940 H     1 <1>   0.0800 
 52 H       12.8550     6.1270     0.1750 H     1 <1>   0.0800 
 53 H       13.3110     4.4970    -0.2740 H     1 <1>   0.0800 
@<TRIPOS>BOND
  1   1   2  2   
  2   2   3  am  
  3   2   4  1   
  4   3   5  1   
  5   3   6  1   
  6   4   7  2   
  7   4   8  1   
  8   5   9  1   
  9   5  26  1   
 10   5  27  1   
 11   6  10  1   
 12   6  28  1   
 13   6  29  1   
 14   7  11  1   
 15   8  12  2   
 16   8  30  1   
 17   9  13  1   
 18   9  31  1   
 19   9  32  1   
 20  10  14  1   
 21  10  33  1   
 22  10  34  1   
 23  11  12  1   
 24  12  15  1   
 25  13  14  1   
 26  13  16  1   
 27  13  35  1   
 28  14  36  1   
 29  14  37  1   
 30  15  38  1   
 31  15  39  1   
 32  15  40  1   
 33  16  17  1   
 34  16  41  1   
 35  16  42  1   
 36  17  18  1   
 37  17  43  1   
 38  17  44  1   
 39  18  19  1   
 40  18  20  1   
 41  18  45  1   
 42  19  21  1   
 43  19  22  2   
 44  20  46  1   
 45  20  47  1   
 46  20  48  1   
 47  21  23  1   
 48  22  24  1   
 49  22  49  1   
 50  23  24  2   
 51  23  25  1   
 52  24  50  1   
 53  25  51  1   
 54  25  52  1   
 55  25  53  1   
@<TRIPOS>SUBSTRUCTURE
  1 ****  13 GROUP 4 **** **** 0

# MOE 2024.06 (io_trps.svl 2023.06)
