@<TRIPOS>MOLECULE
NONAME
56 58 1 0 0 
SMALL
USER_CHARGES


@<TRIPOS>ATOM
  1 O        0.6440     0.2870     0.4900 O.2   1 <1>  -0.5700 
  2 C        1.6200    -0.4260     0.4650 C.2   1 <1>   0.5690 
  3 N        2.8820     0.1010     0.3250 N.am  1 <1>  -0.6600 
  4 C        1.4180    -1.9320     0.6180 C.3   1 <1>  -0.0990 
  5 C        4.1560    -0.6490     0.5750 C.3   1 <1>   0.1400 
  6 C        3.0480     1.5340    -0.0570 C.3   1 <1>   0.1400 
  7 C        0.0100    -2.4530     0.2570 C.3   1 <1>  -0.0800 
  8 C        4.9950    -0.0180     1.6960 C.3   1 <1>   0.1400 
  9 C        3.3360     2.3820     1.1880 C.3   1 <1>  -0.1600 
 10 C       -0.1100    -3.9470     0.6110 C.3   1 <1>   0.1200 
 11 C       -0.3140    -2.2410    -1.2330 C.3   1 <1>  -0.1600 
 12 N        5.6080     1.2690     1.2500 N.am  1 <1>  -0.6600 
 13 C        4.8240     2.5030     1.5520 C.3   1 <1>   0.1400 
 14 O       -1.3720    -4.4270     0.2570 O.3   1 <1>  -0.5600 
 15 C       -1.6460    -2.9180    -1.5790 C.3   1 <1>  -0.1600 
 16 C        6.7970     1.2400     0.5640 C.2   1 <1>   0.5690 
 17 C       -1.6570    -4.3760    -1.1070 C.3   1 <1>   0.1200 
 18 O        7.2990     0.1900     0.2350 O.2   1 <1>  -0.5700 
 19 C        7.5110     2.5370     0.1900 C.3   1 <1>  -0.0990 
 20 C        8.9420     2.3390    -0.3460 C.3   1 <1>  -0.1600 
 21 C        9.6240     3.6720    -0.6830 C.3   1 <1>   0.0210 
 22 C       11.0350     3.4780    -1.2140 C.2   1 <1>  -0.1810 
 23 C       11.9070     4.4990    -1.5820 C.2   1 <1>   0.1390 
 24 C       11.7320     2.3430    -1.4410 C.2   1 <1>  -0.3020 
 25 N       13.0500     4.0490    -2.0030 N.2   1 <1>  -0.7070 
 26 N       12.9380     2.7110    -1.9150 N.pl3 1 <1>   0.3000 
 27 H        1.6290    -2.1780     1.6420 H     1 <1>   0.0800 
 28 H        2.1270    -2.4430    -0.0060 H     1 <1>   0.0800 
 29 H        4.7380    -0.6840    -0.3300 H     1 <1>   0.0800 
 30 H        3.9480    -1.6610     0.8640 H     1 <1>   0.0800 
 31 H        2.1400     1.8860    -0.5180 H     1 <1>   0.0800 
 32 H        3.8370     1.6340    -0.7820 H     1 <1>   0.0800 
 33 H       -0.7140    -1.9210     0.8510 H     1 <1>   0.0800 
 34 H        5.7810    -0.7030     1.9640 H     1 <1>   0.0800 
 35 H        4.3890     0.1350     2.5720 H     1 <1>   0.0800 
 36 H        2.7790     1.9930     2.0220 H     1 <1>   0.0800 
 37 H        2.9640     3.3750     1.0130 H     1 <1>   0.0800 
 38 H        0.0030    -4.0920     1.6710 H     1 <1>   0.0800 
 39 H        0.6320    -4.5320     0.0960 H     1 <1>   0.0800 
 40 H        0.4660    -2.6680    -1.8400 H     1 <1>   0.0800 
 41 H       -0.3780    -1.1900    -1.4580 H     1 <1>   0.0800 
 42 H        4.9170     2.7320     2.6000 H     1 <1>   0.0800 
 43 H        5.2270     3.3340     1.0020 H     1 <1>   0.0800 
 44 H       -1.8120    -2.8800    -2.6400 H     1 <1>   0.0800 
 45 H       -2.4540    -2.3940    -1.0990 H     1 <1>   0.0800 
 46 H       -2.6300    -4.8130    -1.2550 H     1 <1>   0.0800 
 47 H       -0.9240    -4.9630    -1.6340 H     1 <1>   0.0800 
 48 H        7.5560     3.1600     1.0640 H     1 <1>   0.0800 
 49 H        6.9240     3.0360    -0.5580 H     1 <1>   0.0800 
 50 H        8.9060     1.7270    -1.2320 H     1 <1>   0.0800 
 51 H        9.5270     1.8170     0.3920 H     1 <1>   0.0800 
 52 H        9.6710     4.2850     0.2000 H     1 <1>   0.0800 
 53 H        9.0470     4.1950    -1.4250 H     1 <1>   0.0800 
 54 H       11.6720     5.5490    -1.5290 H     1 <1>   0.1500 
 55 H       11.4470     1.3170    -1.2980 H     1 <1>   0.1500 
 56 H       13.7010     2.0780    -2.1840 H     1 <1>   0.2700 
@<TRIPOS>BOND
  1   1   2  2   
  2   2   3  am  
  3   2   4  1   
  4   3   5  1   
  5   3   6  1   
  6   4   7  1   
  7   4  27  1   
  8   4  28  1   
  9   5   8  1   
 10   5  29  1   
 11   5  30  1   
 12   6   9  1   
 13   6  31  1   
 14   6  32  1   
 15   7  10  1   
 16   7  11  1   
 17   7  33  1   
 18   8  12  1   
 19   8  34  1   
 20   8  35  1   
 21   9  13  1   
 22   9  36  1   
 23   9  37  1   
 24  10  14  1   
 25  10  38  1   
 26  10  39  1   
 27  11  15  1   
 28  11  40  1   
 29  11  41  1   
 30  12  13  1   
 31  12  16  am  
 32  13  42  1   
 33  13  43  1   
 34  14  17  1   
 35  15  17  1   
 36  15  44  1   
 37  15  45  1   
 38  16  18  2   
 39  16  19  1   
 40  17  46  1   
 41  17  47  1   
 42  19  20  1   
 43  19  48  1   
 44  19  49  1   
 45  20  21  1   
 46  20  50  1   
 47  20  51  1   
 48  21  22  1   
 49  21  52  1   
 50  21  53  1   
 51  22  23  1   
 52  22  24  2   
 53  23  25  2   
 54  23  54  1   
 55  24  26  1   
 56  24  55  1   
 57  25  26  1   
 58  26  56  1   
@<TRIPOS>SUBSTRUCTURE
  1 ****   5 GROUP 4 **** **** 0

# MOE 2024.06 (io_trps.svl 2023.06)
