@<TRIPOS>MOLECULE
NONAME
45 46 1 0 0 
SMALL
USER_CHARGES


@<TRIPOS>ATOM
  1 O       -0.1750     0.6440    -1.9000 O.3   1 <1>  -0.0190 
  2 N        0.2780     1.3500    -0.9110 N.2   1 <1>  -0.4100 
  3 C       -1.4250     0.4300    -1.5830 C.2   1 <1>   0.2980 
  4 C       -0.6770     1.5130    -0.0850 C.2   1 <1>   0.3350 
  5 N       -1.8070     0.9250    -0.4680 N.2   1 <1>  -0.5650 
  6 C       -2.2960    -0.3740    -2.5420 C.3   1 <1>   0.3890 
  7 C       -0.6040     2.2850     1.2210 C.3   1 <1>   0.0210 
  8 N       -2.5090    -1.7960    -2.0910 N.pl3 1 <1>  -0.8380 
  9 C        0.7610     2.9330     1.4470 C.3   1 <1>   0.1200 
 10 C       -3.2690    -2.1780    -1.0250 C.ar  1 <1>   0.7710 
 11 C       -1.9530    -2.8080    -3.0520 C.3   1 <1>   0.1290 
 12 O        0.7220     3.5850     2.6740 O.3   1 <1>  -0.5600 
 13 N       -3.7410    -3.4150    -0.9940 N.ar  1 <1>  -0.6200 
 14 N       -3.5280    -1.3050    -0.0310 N.ar  1 <1>  -0.1790 
 15 C        1.9080     4.2330     3.0060 C.3   1 <1>   0.0400 
 16 C       -4.5070    -3.7890     0.0160 C.ar  1 <1>   0.4100 
 17 C       -4.2920    -1.6430     1.0330 C.ar  1 <1>   0.2110 
 18 N       -5.0000    -5.0590     0.0030 N.pl3 1 <1>  -0.8380 
 19 C       -4.7970    -2.8970     1.0690 C.ar  1 <1>  -0.1500 
 20 C       -6.1880    -5.5110     0.7770 C.3   1 <1>   0.2090 
 21 C       -4.4760    -6.0990    -0.9380 C.3   1 <1>   0.1290 
 22 C       -5.7260    -6.2080     2.0540 C.3   1 <1>  -0.2400 
 23 H       -1.8410    -0.3570    -3.5190 H     1 <1>   0.0800 
 24 H       -3.2510     0.1130    -2.6310 H     1 <1>   0.0800 
 25 H       -0.8070     1.6110     2.0320 H     1 <1>   0.0800 
 26 H       -1.3550     3.0530     1.2090 H     1 <1>   0.0800 
 27 H        0.9730     3.6530     0.6740 H     1 <1>   0.0800 
 28 H        1.5380     2.1860     1.4750 H     1 <1>   0.0800 
 29 H       -0.9620    -2.5230    -3.3640 H     1 <1>   0.0800 
 30 H       -2.5880    -2.8800    -3.9190 H     1 <1>   0.0800 
 31 H       -1.8830    -3.7830    -2.5980 H     1 <1>   0.0800 
 32 H       -3.0530    -0.4000    -0.0860 H     1 <1>   0.4570 
 33 H        1.7760     4.7020     3.9650 H     1 <1>   0.0800 
 34 H        2.1250     4.9820     2.2640 H     1 <1>   0.0800 
 35 H        2.7050     3.5110     3.0620 H     1 <1>   0.0800 
 36 H       -4.4650    -0.9160     1.8100 H     1 <1>   0.1500 
 37 H       -5.4020    -3.2270     1.8910 H     1 <1>   0.1500 
 38 H       -6.7710    -6.1930     0.1800 H     1 <1>   0.0800 
 39 H       -6.8220    -4.6750     1.0170 H     1 <1>   0.0800 
 40 H       -3.4460    -5.9090    -1.1830 H     1 <1>   0.0800 
 41 H       -5.0570    -6.0930    -1.8440 H     1 <1>   0.0800 
 42 H       -4.5360    -7.0760    -0.4900 H     1 <1>   0.0800 
 43 H       -5.1450    -7.0800     1.8150 H     1 <1>   0.0800 
 44 H       -6.5810    -6.5180     2.6260 H     1 <1>   0.0800 
 45 H       -5.1330    -5.5440     2.6550 H     1 <1>   0.0800 
@<TRIPOS>BOND
  1   1   2  1   
  2   1   3  1   
  3   2   4  2   
  4   3   5  2   
  5   3   6  1   
  6   4   5  1   
  7   4   7  1   
  8   6   8  1   
  9   6  23  1   
 10   6  24  1   
 11   7   9  1   
 12   7  25  1   
 13   7  26  1   
 14   8  10  1   
 15   8  11  1   
 16   9  12  1   
 17   9  27  1   
 18   9  28  1   
 19  10  13  ar  
 20  10  14  ar  
 21  11  29  1   
 22  11  30  1   
 23  11  31  1   
 24  12  15  1   
 25  13  16  ar  
 26  14  17  ar  
 27  14  32  1   
 28  15  33  1   
 29  15  34  1   
 30  15  35  1   
 31  16  18  1   
 32  16  19  ar  
 33  17  19  ar  
 34  17  36  1   
 35  18  20  1   
 36  18  21  1   
 37  19  37  1   
 38  20  22  1   
 39  20  38  1   
 40  20  39  1   
 41  21  40  1   
 42  21  41  1   
 43  21  42  1   
 44  22  43  1   
 45  22  44  1   
 46  22  45  1   
@<TRIPOS>SUBSTRUCTURE
  1 ****  14 GROUP 4 **** **** 0

# MOE 2024.06 (io_trps.svl 2023.06)
