@<TRIPOS>MOLECULE
NONAME
51 55 1 0 0 
SMALL
USER_CHARGES


@<TRIPOS>ATOM
  1 F       -2.7810    -0.6370     3.1530 F     1 <1>  -0.3400 
  2 C       -2.4170    -1.1350     1.9800 C.3   1 <1>   0.7800 
  3 F       -1.9570    -0.0910     1.3050 F     1 <1>  -0.3400 
  4 C       -3.6410    -1.6750     1.2760 C.2   1 <1>  -0.3320 
  5 N       -4.6910    -0.8890     0.9960 N.pl3 1 <1>   0.3000 
  6 C       -3.9460    -2.9040     0.8130 C.2   1 <1>  -0.1500 
  7 N       -5.6650    -1.5620     0.3670 N.2   1 <1>  -0.7070 
  8 C       -5.2270    -2.8080     0.2480 C.2   1 <1>   0.2030 
  9 C       -5.8870    -3.9570    -0.3770 C.2   1 <1>   0.7160 
 10 O       -5.1900    -4.8920    -0.7430 O.2   1 <1>  -0.5700 
 11 N       -7.2570    -4.0700    -0.5760 N.am  1 <1>  -0.6600 
 12 C       -8.2900    -3.2480     0.1300 C.3   1 <1>   0.1400 
 13 C       -7.8400    -5.1140    -1.4670 C.3   1 <1>   0.1400 
 14 C       -9.2180    -2.5420    -0.8760 C.3   1 <1>   0.1430 
 15 C       -8.7750    -4.4610    -2.4940 C.3   1 <1>  -0.1600 
 16 C      -10.2590    -1.7570    -0.0980 C.ar  1 <1>   0.1670 
 17 C       -9.8490    -3.5890    -1.8200 C.3   1 <1>  -0.1600 
 18 C       -8.4810    -1.4230    -1.6610 C.3   1 <1>  -0.1600 
 19 N      -11.2800    -2.2710     0.5440 N.ar  1 <1>  -0.6200 
 20 C      -10.0000    -0.4210    -0.1260 C.ar  1 <1>  -0.1440 
 21 C       -8.7540    -0.1060    -0.9150 C.3   1 <1>  -0.0170 
 22 C      -12.0790    -1.3970     1.1690 C.ar  1 <1>   0.6200 
 23 C      -10.8620     0.4090     0.5410 C.ar  1 <1>   0.1600 
 24 N      -11.9030    -0.0670     1.1870 N.ar  1 <1>  -0.6200 
 25 C      -13.2280    -1.9330     1.8870 C.ar  1 <1>   0.0000 
 26 C      -13.2240    -3.2270     2.4190 C.ar  1 <1>  -0.1500 
 27 C      -14.3910    -1.1800     2.0780 C.ar  1 <1>  -0.1500 
 28 C      -14.3140    -3.7390     3.1000 C.ar  1 <1>  -0.1500 
 29 C      -15.4840    -1.6850     2.7580 C.ar  1 <1>  -0.1500 
 30 C      -15.4480    -2.9680     3.2710 C.ar  1 <1>  -0.1500 
 31 H       -1.6180    -1.8390     2.1290 H     1 <1>   0.0800 
 32 H       -4.7570     0.1130     1.2240 H     1 <1>   0.2700 
 33 H       -3.3620    -3.8090     0.8400 H     1 <1>   0.1500 
 34 H       -7.8450    -2.5270     0.7890 H     1 <1>   0.0800 
 35 H       -8.8840    -3.9040     0.7430 H     1 <1>   0.0800 
 36 H       -8.3910    -5.8170    -0.8650 H     1 <1>   0.0800 
 37 H       -7.0660    -5.6540    -1.9860 H     1 <1>   0.0800 
 38 H       -9.2510    -5.2310    -3.0750 H     1 <1>   0.0800 
 39 H       -8.1850    -3.8650    -3.1690 H     1 <1>   0.0800 
 40 H      -10.4540    -3.1010    -2.5640 H     1 <1>   0.0800 
 41 H      -10.4990    -4.2260    -1.2450 H     1 <1>   0.0800 
 42 H       -8.9030    -1.3400    -2.6470 H     1 <1>   0.0800 
 43 H       -7.4280    -1.6110    -1.7620 H     1 <1>   0.0800 
 44 H       -8.9040     0.7120    -1.5980 H     1 <1>   0.0800 
 45 H       -7.9450     0.1190    -0.2420 H     1 <1>   0.0800 
 46 H      -10.6990     1.4730     0.5470 H     1 <1>   0.1500 
 47 H      -12.3500    -3.8420     2.2970 H     1 <1>   0.1500 
 48 H      -14.4380    -0.1790     1.6850 H     1 <1>   0.1500 
 49 H      -14.2780    -4.7390     3.4960 H     1 <1>   0.1500 
 50 H      -16.3640    -1.0790     2.8880 H     1 <1>   0.1500 
 51 H      -16.2970    -3.3640     3.8010 H     1 <1>   0.1500 
@<TRIPOS>BOND
  1   1   2  1   
  2   2   3  1   
  3   2   4  1   
  4   2  31  1   
  5   4   5  1   
  6   4   6  2   
  7   5   7  1   
  8   5  32  1   
  9   6   8  1   
 10   6  33  1   
 11   7   8  2   
 12   8   9  1   
 13   9  10  2   
 14   9  11  am  
 15  11  12  1   
 16  11  13  1   
 17  12  14  1   
 18  12  34  1   
 19  12  35  1   
 20  13  15  1   
 21  13  36  1   
 22  13  37  1   
 23  14  16  1   
 24  14  17  1   
 25  14  18  1   
 26  15  17  1   
 27  15  38  1   
 28  15  39  1   
 29  16  19  ar  
 30  16  20  ar  
 31  17  40  1   
 32  17  41  1   
 33  18  21  1   
 34  18  42  1   
 35  18  43  1   
 36  19  22  ar  
 37  20  21  1   
 38  20  23  ar  
 39  21  44  1   
 40  21  45  1   
 41  22  24  ar  
 42  22  25  1   
 43  23  24  ar  
 44  23  46  1   
 45  25  26  ar  
 46  25  27  ar  
 47  26  28  ar  
 48  26  47  1   
 49  27  29  ar  
 50  27  48  1   
 51  28  30  ar  
 52  28  49  1   
 53  29  30  ar  
 54  29  50  1   
 55  30  51  1   
@<TRIPOS>SUBSTRUCTURE
  1 ****  12 GROUP 4 **** **** 0

# MOE 2024.06 (io_trps.svl 2023.06)
