@<TRIPOS>MOLECULE
NONAME
47 49 1 0 0 
SMALL
USER_CHARGES


@<TRIPOS>ATOM
  1 O       -0.5440    -0.5090     2.5830 O.2   1 <1>  -0.5700 
  2 C       -0.9750     0.3650     1.8690 C.2   1 <1>   0.5690 
  3 N       -1.8000     0.0750     0.8150 N.am  1 <1>  -0.6600 
  4 C       -0.5880     1.8030     2.1900 C.3   1 <1>   0.0440 
  5 C       -2.3710     1.0360    -0.1630 C.3   1 <1>   0.1400 
  6 C       -2.1390    -1.3160     0.4200 C.3   1 <1>   0.1400 
  7 C        0.1300     2.5060     1.0410 C.ar  1 <1>  -0.1440 
  8 C       -3.4830     0.2510    -0.8540 C.3   1 <1>   0.2000 
  9 C       -2.9380    -1.1800    -0.8820 C.3   1 <1>  -0.0800 
 10 C       -0.3510     3.7040     0.5360 C.ar  1 <1>  -0.1500 
 11 C        1.2690     1.9450     0.4840 C.ar  1 <1>  -0.1500 
 12 O       -4.6080     0.3040    -0.0430 O.3   1 <1>  -0.6800 
 13 C       -3.9880    -2.2870    -1.0850 C.3   1 <1>   0.0210 
 14 C        0.2870     4.3370    -0.5190 C.ar  1 <1>   0.0830 
 15 C        1.9150     2.5720    -0.5670 C.ar  1 <1>  -0.1500 
 16 C       -3.3350    -3.6550    -1.0850 C.2   1 <1>   0.1080 
 17 O       -0.2620     5.4980    -0.9520 O.3   1 <1>  -0.3630 
 18 C        1.4290     3.7640    -1.0720 C.ar  1 <1>  -0.1500 
 19 N       -2.4680    -4.0220    -1.9770 N.2   1 <1>  -0.7070 
 20 C       -3.5740    -4.6510    -0.1440 C.2   1 <1>  -0.1500 
 21 C        0.3420     6.2560    -1.9770 C.3   1 <1>   0.0400 
 22 N       -2.1280    -5.2760    -1.6250 N.pl3 1 <1>   0.3000 
 23 C       -2.7840    -5.6790    -0.5160 C.2   1 <1>  -0.3320 
 24 C       -2.6110    -7.0420     0.1290 C.3   1 <1>  -0.0600 
 25 H       -1.4780     2.3380     2.4610 H     1 <1>   0.0800 
 26 H        0.0600     1.8000     3.0470 H     1 <1>   0.0800 
 27 H       -2.7470     1.9270     0.3100 H     1 <1>   0.0800 
 28 H       -1.6100     1.3000    -0.8790 H     1 <1>   0.0800 
 29 H       -1.2460    -1.9010     0.2700 H     1 <1>   0.0800 
 30 H       -2.7320    -1.7680     1.1960 H     1 <1>   0.0800 
 31 H       -3.7370     0.6350    -1.8270 H     1 <1>   0.0800 
 32 H       -2.2320    -1.2430    -1.6920 H     1 <1>   0.0800 
 33 H       -1.2270     4.1660     0.9520 H     1 <1>   0.1500 
 34 H        1.6560     1.0140     0.8670 H     1 <1>   0.1500 
 35 H       -4.3360     0.0830     0.8710 H     1 <1>   0.4000 
 36 H       -4.4840    -2.1420    -2.0280 H     1 <1>   0.0800 
 37 H       -4.7310    -2.2540    -0.3100 H     1 <1>   0.0800 
 38 H        2.7990     2.1270    -0.9920 H     1 <1>   0.1500 
 39 H        1.9480     4.2290    -1.8880 H     1 <1>   0.1500 
 40 H       -4.2490    -4.5870     0.6910 H     1 <1>   0.1500 
 41 H       -0.2510     7.1390    -2.1330 H     1 <1>   0.0800 
 42 H        0.3670     5.6690    -2.8780 H     1 <1>   0.0800 
 43 H        1.3350     6.5310    -1.6680 H     1 <1>   0.0800 
 44 H       -1.4470    -5.8270    -2.1600 H     1 <1>   0.2700 
 45 H       -3.2400    -7.1210     0.9980 H     1 <1>   0.0800 
 46 H       -1.5890    -7.1830     0.4320 H     1 <1>   0.0800 
 47 H       -2.8840    -7.8180    -0.5630 H     1 <1>   0.0800 
@<TRIPOS>BOND
  1   1   2  2   
  2   2   3  am  
  3   2   4  1   
  4   3   5  1   
  5   3   6  1   
  6   4   7  1   
  7   4  25  1   
  8   4  26  1   
  9   5   8  1   
 10   5  27  1   
 11   5  28  1   
 12   6   9  1   
 13   6  29  1   
 14   6  30  1   
 15   7  10  ar  
 16   7  11  ar  
 17   8   9  1   
 18   8  12  1   
 19   8  31  1   
 20   9  13  1   
 21   9  32  1   
 22  10  14  ar  
 23  10  33  1   
 24  11  15  ar  
 25  11  34  1   
 26  12  35  1   
 27  13  16  1   
 28  13  36  1   
 29  13  37  1   
 30  14  17  1   
 31  14  18  ar  
 32  15  18  ar  
 33  15  38  1   
 34  16  19  2   
 35  16  20  1   
 36  17  21  1   
 37  18  39  1   
 38  19  22  1   
 39  20  23  2   
 40  20  40  1   
 41  21  41  1   
 42  21  42  1   
 43  21  43  1   
 44  22  23  1   
 45  22  44  1   
 46  23  24  1   
 47  24  45  1   
 48  24  46  1   
 49  24  47  1   
@<TRIPOS>SUBSTRUCTURE
  1 ****   3 GROUP 4 **** **** 0

# MOE 2024.06 (io_trps.svl 2023.06)
