@<TRIPOS>MOLECULE
NONAME
47 49 1 0 0 
SMALL
USER_CHARGES


@<TRIPOS>ATOM
  1 CL       2.1600     0.1860    -1.0420 Cl    1 <1>  -0.1770 
  2 C        0.9990     1.4370    -0.6540 C.ar  1 <1>   0.1770 
  3 C        1.2100     2.3300     0.3940 C.ar  1 <1>  -0.1440 
  4 C       -0.1370     1.4990    -1.4390 C.ar  1 <1>  -0.1500 
  5 C        0.2420     3.3000     0.6260 C.ar  1 <1>  -0.1500 
  6 C        2.4440     2.2940     1.2950 C.3   1 <1>   0.3640 
  7 C       -1.0920     2.4690    -1.1900 C.ar  1 <1>  -0.1500 
  8 C       -0.8980     3.3690    -0.1580 C.ar  1 <1>  -0.1500 
  9 N        2.4730     0.9890     2.0020 N.am  1 <1>  -0.7300 
 10 C        3.7650     2.6150     0.5400 C.3   1 <1>   0.2610 
 11 C        3.5600     0.1900     2.0510 C.2   1 <1>   0.5690 
 12 O        4.8990     2.0370     1.1820 O.3   1 <1>  -0.5600 
 13 C        3.9320     4.1350     0.4310 C.2   1 <1>   0.5690 
 14 O        3.5280    -0.8600     2.6400 O.2   1 <1>  -0.5700 
 15 C        4.8330     0.6350     1.3300 C.3   1 <1>   0.1810 
 16 O        3.0820     4.7890    -0.1240 O.2   1 <1>  -0.5700 
 17 N        5.0380     4.7160     0.9670 N.am  1 <1>  -0.7300 
 18 C        5.3970     6.1530     0.8970 C.3   1 <1>   0.1400 
 19 C        6.7130     6.3620     0.1130 C.3   1 <1>   0.0000 
 20 C        7.2790     7.7990     0.3320 C.3   1 <1>   0.0000 
 21 C        7.9630     5.8310     0.8810 C.3   1 <1>   0.0000 
 22 C        6.5720     5.8980    -1.3620 C.3   1 <1>  -0.1600 
 23 C        8.1000     7.2370     1.5230 C.3   1 <1>   0.0000 
 24 C        7.7470     6.1800    -2.3130 C.3   1 <1>  -0.2400 
 25 H       -0.2710     0.7940    -2.2400 H     1 <1>   0.1500 
 26 H        0.3690     4.0200     1.4170 H     1 <1>   0.1500 
 27 H        2.3260     3.0500     2.0530 H     1 <1>   0.0800 
 28 H       -1.9790     2.5250    -1.7980 H     1 <1>   0.1500 
 29 H       -1.6360     4.1290     0.0350 H     1 <1>   0.1500 
 30 H        1.6090     0.6640     2.4360 H     1 <1>   0.3700 
 31 H        3.7280     2.2250    -0.4590 H     1 <1>   0.0800 
 32 H        4.8740     0.1830     0.3550 H     1 <1>   0.0800 
 33 H        5.6910     0.3220     1.8960 H     1 <1>   0.0800 
 34 H        5.7330     4.0890     1.3860 H     1 <1>   0.3700 
 35 H        4.6050     6.7000     0.4130 H     1 <1>   0.0800 
 36 H        5.4860     6.5320     1.9000 H     1 <1>   0.0800 
 37 H        7.9270     8.1570    -0.4470 H     1 <1>   0.0000 
 38 H        6.5430     8.5260     0.6260 H     1 <1>   0.0000 
 39 H        7.7550     5.0550     1.5960 H     1 <1>   0.0000 
 40 H        8.8050     5.6000     0.2540 H     1 <1>   0.0000 
 41 H        6.3970     4.8360    -1.3660 H     1 <1>   0.0800 
 42 H        5.6920     6.3580    -1.7780 H     1 <1>   0.0800 
 43 H        7.5840     7.3190     2.4640 H     1 <1>   0.0000 
 44 H        9.1120     7.5980     1.5590 H     1 <1>   0.0000 
 45 H        8.6610     5.7450    -1.9540 H     1 <1>   0.0800 
 46 H        7.8900     7.2360    -2.4520 H     1 <1>   0.0800 
 47 H        7.5340     5.7520    -3.2770 H     1 <1>   0.0800 
@<TRIPOS>BOND
  1   1   2  1   
  2   2   3  ar  
  3   2   4  ar  
  4   3   5  ar  
  5   3   6  1   
  6   4   7  ar  
  7   4  25  1   
  8   5   8  ar  
  9   5  26  1   
 10   6   9  1   
 11   6  10  1   
 12   6  27  1   
 13   7   8  ar  
 14   7  28  1   
 15   8  29  1   
 16   9  11  am  
 17   9  30  1   
 18  10  12  1   
 19  10  13  1   
 20  10  31  1   
 21  11  14  2   
 22  11  15  1   
 23  12  15  1   
 24  13  16  2   
 25  13  17  am  
 26  15  32  1   
 27  15  33  1   
 28  17  18  1   
 29  17  34  1   
 30  18  19  1   
 31  18  35  1   
 32  18  36  1   
 33  19  20  1   
 34  19  21  1   
 35  19  22  1   
 36  20  23  1   
 37  20  37  1   
 38  20  38  1   
 39  21  23  1   
 40  21  39  1   
 41  21  40  1   
 42  22  24  1   
 43  22  41  1   
 44  22  42  1   
 45  23  43  1   
 46  23  44  1   
 47  24  45  1   
 48  24  46  1   
 49  24  47  1   
@<TRIPOS>SUBSTRUCTURE
  1 ****  13 GROUP 4 **** **** 0

# MOE 2024.06 (io_trps.svl 2023.06)
