@<TRIPOS>MOLECULE
NONAME
42 44 1 0 0 
SMALL
USER_CHARGES


@<TRIPOS>ATOM
  1 O        0.4080    -0.2730    -0.9910 O.2   1 <1>  -0.5700 
  2 C        1.2100    -0.8150    -0.2500 C.2   1 <1>   0.5440 
  3 N        2.1510    -0.0580     0.4120 N.am  1 <1>  -0.4940 
  4 C        1.2130    -2.2630    -0.0510 C.ar  1 <1>   0.3960 
  5 C        2.3800     1.3390     0.4100 C.2   1 <1>  -0.0880 
  6 N        2.1680    -2.8010     0.7360 N.ar  1 <1>  -0.6200 
  7 C        0.2490    -3.0570    -0.6670 C.ar  1 <1>  -0.1500 
  8 N        3.6070     1.9200     0.2960 N.pl3 1 <1>   0.3140 
  9 C        1.4880     2.3530     0.5290 C.2   1 <1>  -0.1810 
 10 C        2.1420    -4.1130     0.8960 C.ar  1 <1>   0.1600 
 11 C        0.2360    -4.4210    -0.4910 C.ar  1 <1>   0.0830 
 12 N        3.5180     3.2730     0.3540 N.2   1 <1>  -0.7070 
 13 C        4.9020     1.2050     0.1000 C.3   1 <1>   0.1760 
 14 C        2.2510     3.5130     0.4840 C.2   1 <1>   0.1390 
 15 C       -0.0190     2.2920     0.6860 C.3   1 <1>  -0.0590 
 16 C        1.2180    -4.9600     0.3190 C.ar  1 <1>  -0.1500 
 17 O       -0.7240    -5.1350    -1.1160 O.3   1 <1>  -0.3630 
 18 C        5.8490     1.3460     1.2940 C.3   1 <1>  -0.1600 
 19 C        5.7160     1.7240    -1.0850 C.3   1 <1>  -0.1600 
 20 C       -0.8050    -6.5380    -0.9910 C.3   1 <1>   0.0400 
 21 C        7.2650     1.1810     0.7250 C.3   1 <1>  -0.1600 
 22 C        7.1380     1.2440    -0.8020 C.3   1 <1>  -0.1600 
 23 H        2.7840    -0.6350     0.9740 H     1 <1>   0.3700 
 24 H       -0.4990    -2.6030    -1.2920 H     1 <1>   0.1500 
 25 H        2.9040    -4.5410     1.5270 H     1 <1>   0.1500 
 26 H        4.7040     0.1620    -0.0640 H     1 <1>   0.0800 
 27 H        1.8450     4.5080     0.5520 H     1 <1>   0.1500 
 28 H       -0.3110     1.3510     1.1150 H     1 <1>   0.0800 
 29 H       -0.4860     2.3900    -0.2780 H     1 <1>   0.0800 
 30 H       -0.3610     3.0840     1.3260 H     1 <1>   0.0800 
 31 H        1.2780    -6.0150     0.5090 H     1 <1>   0.1500 
 32 H        5.6370     0.6140     2.0530 H     1 <1>   0.0800 
 33 H        5.7550     2.3340     1.7140 H     1 <1>   0.0800 
 34 H        5.7050     2.8020    -1.0940 H     1 <1>   0.0800 
 35 H        5.3420     1.3520    -2.0220 H     1 <1>   0.0800 
 36 H       -1.6420    -6.8770    -1.5750 H     1 <1>   0.0800 
 37 H       -0.9570    -6.7890     0.0440 H     1 <1>   0.0800 
 38 H        0.1030    -6.9760    -1.3660 H     1 <1>   0.0800 
 39 H        7.6900     0.2380     1.0240 H     1 <1>   0.0800 
 40 H        7.8980     1.9750     1.0840 H     1 <1>   0.0800 
 41 H        7.8700     1.9030    -1.2370 H     1 <1>   0.0800 
 42 H        7.2720     0.2570    -1.2130 H     1 <1>   0.0800 
@<TRIPOS>BOND
  1   1   2  2   
  2   2   3  am  
  3   2   4  1   
  4   3   5  1   
  5   3  23  1   
  6   4   6  ar  
  7   4   7  ar  
  8   5   8  1   
  9   5   9  2   
 10   6  10  ar  
 11   7  11  ar  
 12   7  24  1   
 13   8  12  1   
 14   8  13  1   
 15   9  14  1   
 16   9  15  1   
 17  10  16  ar  
 18  10  25  1   
 19  11  16  ar  
 20  11  17  1   
 21  12  14  2   
 22  13  18  1   
 23  13  19  1   
 24  13  26  1   
 25  14  27  1   
 26  15  28  1   
 27  15  29  1   
 28  15  30  1   
 29  16  31  1   
 30  17  20  1   
 31  18  21  1   
 32  18  32  1   
 33  18  33  1   
 34  19  22  1   
 35  19  34  1   
 36  19  35  1   
 37  20  36  1   
 38  20  37  1   
 39  20  38  1   
 40  21  22  1   
 41  21  39  1   
 42  21  40  1   
 43  22  41  1   
 44  22  42  1   
@<TRIPOS>SUBSTRUCTURE
  1 ****   3 GROUP 4 **** **** 0

# MOE 2024.06 (io_trps.svl 2023.06)
