@<TRIPOS>MOLECULE
NONAME
57 60 1 0 0 
SMALL
USER_CHARGES


@<TRIPOS>ATOM
  1 O       -1.7870    -1.3070     0.2220 O.3   1 <1>  -0.3630 
  2 C       -2.1940    -0.0710     0.6210 C.ar  1 <1>   0.0820 
  3 C       -0.7390    -1.4730    -0.7120 C.3   1 <1>   0.1200 
  4 C       -3.2180     0.0000     1.5640 C.ar  1 <1>  -0.1440 
  5 C       -1.6420     1.1040     0.1170 C.ar  1 <1>  -0.1500 
  6 C       -0.5500    -2.9690    -0.9590 C.3   1 <1>  -0.1600 
  7 C       -3.6800     1.2380     1.9870 C.ar  1 <1>  -0.1500 
  8 C       -3.8380    -1.2610     2.1390 C.3   1 <1>   0.4870 
  9 C       -2.1110     2.3320     0.5450 C.ar  1 <1>  -0.1500 
 10 C        0.5600    -3.2300    -1.9820 C.3   1 <1>  -0.2400 
 11 C       -3.1290     2.4000     1.4780 C.ar  1 <1>  -0.1500 
 12 N       -4.3460    -2.0960     1.0250 N.4   1 <1>  -0.9590 
 13 C       -5.3210    -1.4190     0.1140 C.3   1 <1>   0.3430 
 14 C       -4.9240    -3.4040     1.4040 C.3   1 <1>   0.3430 
 15 C       -6.3490    -2.4930    -0.2800 C.3   1 <1>   0.2000 
 16 C       -5.7370    -3.8190     0.1740 C.3   1 <1>  -0.0800 
 17 O       -7.5330    -2.2830     0.4160 O.3   1 <1>  -0.6800 
 18 C       -4.8560    -4.4190    -0.9460 C.3   1 <1>  -0.0170 
 19 C       -4.0330    -5.6000    -0.4630 C.ar  1 <1>   0.1670 
 20 N       -2.9460    -5.3340     0.1960 N.ar  1 <1>  -0.6200 
 21 C       -4.4760    -6.9020    -0.7450 C.ar  1 <1>  -0.1500 
 22 C       -2.2020    -6.3850     0.6360 C.ar  1 <1>   0.3100 
 23 C       -3.7480    -7.9710    -0.3190 C.ar  1 <1>  -0.1500 
 24 C       -2.5660    -7.7280     0.3980 C.ar  1 <1>   0.0000 
 25 C       -1.0280    -6.1310     1.3650 C.ar  1 <1>  -0.1500 
 26 C       -1.7410    -8.7600     0.8880 C.ar  1 <1>  -0.1500 
 27 C       -0.2400    -7.1490     1.8340 C.ar  1 <1>  -0.1500 
 28 C       -0.6010    -8.4770     1.5910 C.ar  1 <1>  -0.1500 
 29 H       -1.0100    -0.9730    -1.6260 H     1 <1>   0.0800 
 30 H        0.1570    -1.0390    -0.3020 H     1 <1>   0.0800 
 31 H       -0.8480     1.0910    -0.6070 H     1 <1>   0.1500 
 32 H       -0.2890    -3.4500    -0.0340 H     1 <1>   0.0800 
 33 H       -1.4670    -3.3970    -1.3240 H     1 <1>   0.0800 
 34 H       -4.4680     1.3170     2.7180 H     1 <1>   0.1500 
 35 H       -4.6410    -1.0040     2.8090 H     1 <1>   0.0800 
 36 H       -3.0860    -1.8040     2.6890 H     1 <1>   0.0800 
 37 H       -1.6820     3.2390     0.1530 H     1 <1>   0.1500 
 38 H        1.4980    -2.8340    -1.6330 H     1 <1>   0.0800 
 39 H        0.3200    -2.7760    -2.9270 H     1 <1>   0.0800 
 40 H        0.6750    -4.2890    -2.1340 H     1 <1>   0.0800 
 41 H       -3.4880     3.3600     1.8090 H     1 <1>   0.1500 
 42 H       -3.4920    -2.2870     0.4670 H     1 <1>   0.4500 
 43 H       -5.8160    -0.5950     0.6030 H     1 <1>   0.0800 
 44 H       -4.8050    -1.0530    -0.7580 H     1 <1>   0.0800 
 45 H       -4.1640    -4.1190     1.6690 H     1 <1>   0.0800 
 46 H       -5.5880    -3.2780     2.2430 H     1 <1>   0.0800 
 47 H       -6.5820    -2.4630    -1.3320 H     1 <1>   0.0800 
 48 H       -6.4920    -4.5400     0.4400 H     1 <1>   0.0800 
 49 H       -7.4540    -2.4510     1.3740 H     1 <1>   0.4000 
 50 H       -4.1780    -3.6800    -1.3350 H     1 <1>   0.0800 
 51 H       -5.4830    -4.7300    -1.7640 H     1 <1>   0.0800 
 52 H       -5.3870    -7.0490    -1.2980 H     1 <1>   0.1500 
 53 H       -4.0520    -8.9840    -0.5170 H     1 <1>   0.1500 
 54 H       -0.7620    -5.1090     1.5480 H     1 <1>   0.1500 
 55 H       -2.0230    -9.7800     0.6980 H     1 <1>   0.1500 
 56 H        0.6590    -6.9430     2.3900 H     1 <1>   0.1500 
 57 H        0.0280    -9.2680     1.9640 H     1 <1>   0.1500 
@<TRIPOS>BOND
  1   1   2  1   
  2   1   3  1   
  3   2   4  ar  
  4   2   5  ar  
  5   3   6  1   
  6   3  29  1   
  7   3  30  1   
  8   4   7  ar  
  9   4   8  1   
 10   5   9  ar  
 11   5  31  1   
 12   6  10  1   
 13   6  32  1   
 14   6  33  1   
 15   7  11  ar  
 16   7  34  1   
 17   8  12  1   
 18   8  35  1   
 19   8  36  1   
 20   9  11  ar  
 21   9  37  1   
 22  10  38  1   
 23  10  39  1   
 24  10  40  1   
 25  11  41  1   
 26  12  13  1   
 27  12  14  1   
 28  12  42  1   
 29  13  15  1   
 30  13  43  1   
 31  13  44  1   
 32  14  16  1   
 33  14  45  1   
 34  14  46  1   
 35  15  16  1   
 36  15  17  1   
 37  15  47  1   
 38  16  18  1   
 39  16  48  1   
 40  17  49  1   
 41  18  19  1   
 42  18  50  1   
 43  18  51  1   
 44  19  20  ar  
 45  19  21  ar  
 46  20  22  ar  
 47  21  23  ar  
 48  21  52  1   
 49  22  24  ar  
 50  22  25  ar  
 51  23  24  ar  
 52  23  53  1   
 53  24  26  ar  
 54  25  27  ar  
 55  25  54  1   
 56  26  28  ar  
 57  26  55  1   
 58  27  28  ar  
 59  27  56  1   
 60  28  57  1   
@<TRIPOS>SUBSTRUCTURE
  1 ****  12 GROUP 4 **** **** 0

# MOE 2024.06 (io_trps.svl 2023.06)
