@<TRIPOS>MOLECULE
NONAME
54 56 1 0 0 
SMALL
USER_CHARGES


@<TRIPOS>ATOM
  1 CL       0.3350     0.4850     1.2970 Cl    1 <1>  -0.1770 
  2 C        1.2840    -0.8530     0.7030 C.ar  1 <1>   0.1770 
  3 C        2.4220    -1.2250     1.3890 C.ar  1 <1>  -0.1500 
  4 C        0.8760    -1.5160    -0.4370 C.ar  1 <1>  -0.1500 
  5 C        3.1880    -2.2900     0.9240 C.ar  1 <1>   0.0830 
  6 C        1.6400    -2.5670    -0.9220 C.ar  1 <1>  -0.1440 
  7 O        4.2870    -2.7280     1.6020 O.3   1 <1>  -0.3620 
  8 C        2.8000    -2.9490    -0.2540 C.ar  1 <1>   0.0830 
  9 C        1.2030    -3.3130    -2.1690 C.3   1 <1>   0.4870 
 10 C        4.7940    -2.0410     2.7280 C.3   1 <1>   0.0400 
 11 O        3.4860    -3.9980    -0.7940 O.3   1 <1>  -0.3630 
 12 N        0.2100    -4.3480    -1.7900 N.4   1 <1>  -0.9590 
 13 C        4.8940    -3.9090    -0.9230 C.3   1 <1>   0.0400 
 14 C        0.6580    -5.2350    -0.6510 C.3   1 <1>   0.3430 
 15 C       -0.3840    -5.0830    -2.9320 C.3   1 <1>   0.3430 
 16 C       -0.2940    -6.4380    -0.3450 C.3   1 <1>   0.4230 
 17 C       -1.5540    -5.9720    -2.4570 C.3   1 <1>  -0.1600 
 18 N       -0.3900    -6.7880     1.1180 N.4   1 <1>  -0.9590 
 19 C       -1.6970    -6.1430    -0.9090 C.3   1 <1>  -0.1060 
 20 C       -1.2120    -8.0050     1.3560 C.3   1 <1>   0.3430 
 21 C        0.8910    -6.8160     1.8830 C.3   1 <1>   0.2630 
 22 C       -2.1400    -4.8310    -0.2280 C.2   1 <1>   0.9060 
 23 C       -2.6670    -7.3210    -0.6280 C.3   1 <1>  -0.1600 
 24 C       -2.6340    -7.7800     0.8390 C.3   1 <1>  -0.1600 
 25 O       -2.2580    -3.8150    -0.9180 O.co2 1 <1>  -0.9000 
 26 O       -2.0810    -4.7600     1.0020 O.co2 1 <1>  -0.9000 
 27 H        2.6750    -0.6750     2.2750 H     1 <1>   0.1500 
 28 H       -0.0350    -1.2050    -0.9230 H     1 <1>   0.1500 
 29 H        2.0580    -3.7720    -2.6380 H     1 <1>   0.0800 
 30 H        0.7610    -2.6190    -2.8660 H     1 <1>   0.0800 
 31 H        5.6870    -2.5430     3.0530 H     1 <1>   0.0800 
 32 H        4.0590    -2.0630     3.5140 H     1 <1>   0.0800 
 33 H        5.0280    -1.0290     2.4470 H     1 <1>   0.0800 
 34 H       -0.6150    -3.8070    -1.4100 H     1 <1>   0.4500 
 35 H        5.2020    -4.5460    -1.7320 H     1 <1>   0.0800 
 36 H        5.3520    -4.2430    -0.0090 H     1 <1>   0.0800 
 37 H        5.1710    -2.8900    -1.1310 H     1 <1>   0.0800 
 38 H        1.6430    -5.6150    -0.8590 H     1 <1>   0.0800 
 39 H        0.7150    -4.6250     0.2370 H     1 <1>   0.0800 
 40 H       -0.7540    -4.3810    -3.6640 H     1 <1>   0.0800 
 41 H        0.3700    -5.6940    -3.4010 H     1 <1>   0.0800 
 42 H        0.0960    -7.2950    -0.8650 H     1 <1>   0.0800 
 43 H       -2.4690    -5.5530    -2.8430 H     1 <1>   0.0800 
 44 H       -1.4410    -6.9300    -2.9320 H     1 <1>   0.0800 
 45 H       -0.9890    -5.9980     1.4920 H     1 <1>   0.4500 
 46 H       -0.7700    -8.8500     0.8540 H     1 <1>   0.0800 
 47 H       -1.2540    -8.2180     2.4130 H     1 <1>   0.0800 
 48 H        1.5410    -7.5860     1.5030 H     1 <1>   0.0800 
 49 H        0.6920    -7.0130     2.9250 H     1 <1>   0.0800 
 50 H        1.3930    -5.8640     1.8150 H     1 <1>   0.0800 
 51 H       -3.6720    -7.0270    -0.8850 H     1 <1>   0.0800 
 52 H       -2.4090    -8.1640    -1.2460 H     1 <1>   0.0800 
 53 H       -3.1940    -8.6930     0.9390 H     1 <1>   0.0800 
 54 H       -3.1210    -7.0480     1.4620 H     1 <1>   0.0800 
@<TRIPOS>BOND
  1   1   2  1   
  2   2   3  ar  
  3   2   4  ar  
  4   3   5  ar  
  5   3  27  1   
  6   4   6  ar  
  7   4  28  1   
  8   5   7  1   
  9   5   8  ar  
 10   6   8  ar  
 11   6   9  1   
 12   7  10  1   
 13   8  11  1   
 14   9  12  1   
 15   9  29  1   
 16   9  30  1   
 17  10  31  1   
 18  10  32  1   
 19  10  33  1   
 20  11  13  1   
 21  12  14  1   
 22  12  15  1   
 23  12  34  1   
 24  13  35  1   
 25  13  36  1   
 26  13  37  1   
 27  14  16  1   
 28  14  38  1   
 29  14  39  1   
 30  15  17  1   
 31  15  40  1   
 32  15  41  1   
 33  16  18  1   
 34  16  19  1   
 35  16  42  1   
 36  17  19  1   
 37  17  43  1   
 38  17  44  1   
 39  18  20  1   
 40  18  21  1   
 41  18  45  1   
 42  19  22  1   
 43  19  23  1   
 44  20  24  1   
 45  20  46  1   
 46  20  47  1   
 47  21  48  1   
 48  21  49  1   
 49  21  50  1   
 50  22  25  ar  
 51  22  26  ar  
 52  23  24  1   
 53  23  51  1   
 54  23  52  1   
 55  24  53  1   
 56  24  54  1   
@<TRIPOS>SUBSTRUCTURE
  1 ****  14 GROUP 4 **** **** 0

# MOE 2024.06 (io_trps.svl 2023.06)
