@<TRIPOS>MOLECULE
NONAME
41 43 1 0 0 
SMALL
USER_CHARGES


@<TRIPOS>ATOM
  1 CL      -1.3980     0.3120    -0.0520 Cl    1 <1>  -0.1230 
  2 C       -1.5620    -1.3930    -0.4050 C.2   1 <1>   0.4120 
  3 N       -1.8730    -1.8590    -1.5590 N.2   1 <1>  -0.4100 
  4 C       -1.3700    -2.3920     0.5400 C.2   1 <1>  -0.1500 
  5 O       -1.8900    -3.1550    -1.4030 O.3   1 <1>  -0.0190 
  6 C       -1.5990    -3.5070    -0.1730 C.2   1 <1>  -0.0400 
  7 C       -1.5700    -4.9740     0.2120 C.3   1 <1>   0.0200 
  8 C       -2.9520    -5.6190     0.0250 C.3   1 <1>  -0.0990 
  9 C       -2.9810    -7.0930     0.3950 C.2   1 <1>   0.5690 
 10 O       -2.0650    -7.5590     1.0290 O.2   1 <1>  -0.5700 
 11 N       -4.0410    -7.8650     0.0150 N.am  1 <1>  -0.6600 
 12 C       -5.2620    -7.4230    -0.7080 C.3   1 <1>   0.1400 
 13 C       -4.1230    -9.3130     0.3290 C.3   1 <1>   0.1400 
 14 C       -6.2800    -8.5300    -0.4380 C.3   1 <1>   0.2000 
 15 C       -5.4210    -9.7950    -0.3330 C.3   1 <1>  -0.0800 
 16 O       -6.8810    -8.2720     0.7850 O.3   1 <1>  -0.6800 
 17 C       -6.0920   -10.9770     0.3940 C.3   1 <1>   0.0200 
 18 C       -5.2690   -12.2530     0.3490 C.2   1 <1>  -0.0400 
 19 O       -5.6760   -13.2840     1.0400 O.3   1 <1>  -0.0190 
 20 C       -4.1370   -12.6070    -0.2820 C.2   1 <1>  -0.1500 
 21 N       -4.8780   -14.3050     0.9100 N.2   1 <1>  -0.4100 
 22 C       -3.9410   -13.9260     0.1190 C.2   1 <1>   0.1080 
 23 C       -2.7850   -14.8010    -0.3120 C.3   1 <1>  -0.0590 
 24 H       -1.1050    -2.2530     1.5700 H     1 <1>   0.1500 
 25 H       -0.8450    -5.4860    -0.3980 H     1 <1>   0.0800 
 26 H       -1.2630    -5.0650     1.2400 H     1 <1>   0.0800 
 27 H       -3.2440    -5.5150    -1.0040 H     1 <1>   0.0800 
 28 H       -3.6690    -5.1020     0.6350 H     1 <1>   0.0800 
 29 H       -5.6160    -6.4660    -0.3640 H     1 <1>   0.0800 
 30 H       -5.0460    -7.3740    -1.7610 H     1 <1>   0.0800 
 31 H       -3.2610    -9.8310    -0.0540 H     1 <1>   0.0800 
 32 H       -4.1630    -9.4380     1.3980 H     1 <1>   0.0800 
 33 H       -7.0480    -8.5920    -1.1900 H     1 <1>   0.0800 
 34 H       -5.1820   -10.1050    -1.3350 H     1 <1>   0.0800 
 35 H       -6.1850    -8.0950     1.4500 H     1 <1>   0.4000 
 36 H       -7.0490   -11.1750    -0.0560 H     1 <1>   0.0800 
 37 H       -6.2670   -10.7240     1.4250 H     1 <1>   0.0800 
 38 H       -3.5010   -12.0510    -0.9440 H     1 <1>   0.1500 
 39 H       -1.8570   -14.3540    -0.0090 H     1 <1>   0.0800 
 40 H       -2.7930   -14.9170    -1.3800 H     1 <1>   0.0800 
 41 H       -2.8700   -15.7710     0.1450 H     1 <1>   0.0800 
@<TRIPOS>BOND
  1   1   2  1   
  2   2   3  2   
  3   2   4  1   
  4   3   5  1   
  5   4   6  2   
  6   4  24  1   
  7   5   6  1   
  8   6   7  1   
  9   7   8  1   
 10   7  25  1   
 11   7  26  1   
 12   8   9  1   
 13   8  27  1   
 14   8  28  1   
 15   9  10  2   
 16   9  11  am  
 17  11  12  1   
 18  11  13  1   
 19  12  14  1   
 20  12  29  1   
 21  12  30  1   
 22  13  15  1   
 23  13  31  1   
 24  13  32  1   
 25  14  15  1   
 26  14  16  1   
 27  14  33  1   
 28  15  17  1   
 29  15  34  1   
 30  16  35  1   
 31  17  18  1   
 32  17  36  1   
 33  17  37  1   
 34  18  19  1   
 35  18  20  2   
 36  19  21  1   
 37  20  22  1   
 38  20  38  1   
 39  21  22  2   
 40  22  23  1   
 41  23  39  1   
 42  23  40  1   
 43  23  41  1   
@<TRIPOS>SUBSTRUCTURE
  1 ****  11 GROUP 4 **** **** 0

# MOE 2024.06 (io_trps.svl 2023.06)
