@<TRIPOS>MOLECULE
NONAME
58 60 1 0 0 
SMALL
USER_CHARGES


@<TRIPOS>ATOM
  1 O       -2.1820     0.3860    -2.5180 O.2   1 <1>  -0.5700 
  2 C       -2.3400     1.0040    -1.4930 C.2   1 <1>   0.5690 
  3 N       -2.6210     0.3710    -0.3140 N.am  1 <1>  -0.6600 
  4 C       -2.2160     2.5180    -1.5520 C.3   1 <1>  -0.0990 
  5 C       -2.8650     1.0050     1.0060 C.3   1 <1>   0.1400 
  6 C       -2.6760    -1.1050    -0.2070 C.3   1 <1>   0.1400 
  7 C       -0.8270     2.9970    -1.1000 C.3   1 <1>  -0.1600 
  8 C       -3.2240    -0.1520     1.9380 C.3   1 <1>   0.2000 
  9 C       -2.6250    -1.4000     1.2930 C.3   1 <1>  -0.0800 
 10 C       -0.6900     4.5210    -1.1840 C.3   1 <1>  -0.0160 
 11 O       -2.6940     0.0330     3.2040 O.3   1 <1>  -0.6800 
 12 C       -3.3540    -2.6910     1.6920 C.3   1 <1>   0.0200 
 13 C        0.6510     4.9530    -0.6160 C.ar  1 <1>  -0.1430 
 14 C       -2.7640    -3.8910     0.9770 C.2   1 <1>  -0.0400 
 15 C        0.7520     5.3760     0.7000 C.ar  1 <1>  -0.1500 
 16 C        1.7870     4.9170    -1.4060 C.ar  1 <1>  -0.1500 
 17 O       -1.5250    -4.2400     1.1980 O.3   1 <1>  -0.0190 
 18 C       -3.2800    -4.7460     0.0810 C.2   1 <1>  -0.1500 
 19 C        1.9720     5.7600     1.2310 C.ar  1 <1>  -0.1430 
 20 C        3.0120     5.2980    -0.8880 C.ar  1 <1>  -0.1500 
 21 N       -1.1830    -5.2810     0.4970 N.2   1 <1>  -0.4100 
 22 C       -2.2210    -5.6090    -0.1860 C.2   1 <1>   0.1080 
 23 C        3.1130     5.7210     0.4350 C.ar  1 <1>   0.0830 
 24 C        2.0570     6.2220     2.6790 C.3   1 <1>  -0.0970 
 25 C       -2.2720    -6.7740    -1.1490 C.3   1 <1>  -0.0590 
 26 O        4.2890     6.1040     1.0000 O.3   1 <1>  -0.3630 
 27 C        5.4930     6.1130     0.2710 C.3   1 <1>   0.1200 
 28 C        6.6020     6.6010     1.1990 C.3   1 <1>  -0.2400 
 29 H       -2.3840     2.8260    -2.5680 H     1 <1>   0.0800 
 30 H       -2.9830     2.9650    -0.9480 H     1 <1>   0.0800 
 31 H       -1.9690     1.4960     1.3390 H     1 <1>   0.0800 
 32 H       -3.6780     1.7070     0.9450 H     1 <1>   0.0800 
 33 H       -3.5990    -1.4500    -0.6410 H     1 <1>   0.0800 
 34 H       -1.8480    -1.5600    -0.7270 H     1 <1>   0.0800 
 35 H       -0.6450     2.6840    -0.0880 H     1 <1>   0.0800 
 36 H       -0.0750     2.5390    -1.7210 H     1 <1>   0.0800 
 37 H       -4.2940    -0.2280     2.0250 H     1 <1>   0.0800 
 38 H       -1.5850    -1.4790     1.5620 H     1 <1>   0.0800 
 39 H       -1.4830     4.9930    -0.6300 H     1 <1>   0.0800 
 40 H       -0.7690     4.8410    -2.2080 H     1 <1>   0.0800 
 41 H       -1.7170     0.0160     3.1720 H     1 <1>   0.4000 
 42 H       -4.3990    -2.6140     1.4500 H     1 <1>   0.0800 
 43 H       -3.2680    -2.8400     2.7540 H     1 <1>   0.0800 
 44 H       -0.1290     5.4050     1.3160 H     1 <1>   0.1500 
 45 H        1.7220     4.5880    -2.4290 H     1 <1>   0.1500 
 46 H       -4.2630    -4.7880    -0.3500 H     1 <1>   0.1500 
 47 H        3.8700     5.2560    -1.5290 H     1 <1>   0.1500 
 48 H        1.0940     6.1950     3.1540 H     1 <1>   0.0800 
 49 H        2.4320     7.2290     2.7170 H     1 <1>   0.0800 
 50 H        2.7290     5.5840     3.2240 H     1 <1>   0.0800 
 51 H       -3.0450    -7.4580    -0.8530 H     1 <1>   0.0800 
 52 H       -1.3290    -7.2910    -1.1490 H     1 <1>   0.0800 
 53 H       -2.4730    -6.4170    -2.1420 H     1 <1>   0.0800 
 54 H        5.6940     5.1110    -0.0680 H     1 <1>   0.0800 
 55 H        5.3780     6.7780    -0.5680 H     1 <1>   0.0800 
 56 H        6.6950     5.9400     2.0410 H     1 <1>   0.0800 
 57 H        6.3810     7.5950     1.5450 H     1 <1>   0.0800 
 58 H        7.5370     6.6200     0.6700 H     1 <1>   0.0800 
@<TRIPOS>BOND
  1   1   2  2   
  2   2   3  am  
  3   2   4  1   
  4   3   5  1   
  5   3   6  1   
  6   4   7  1   
  7   4  29  1   
  8   4  30  1   
  9   5   8  1   
 10   5  31  1   
 11   5  32  1   
 12   6   9  1   
 13   6  33  1   
 14   6  34  1   
 15   7  10  1   
 16   7  35  1   
 17   7  36  1   
 18   8   9  1   
 19   8  11  1   
 20   8  37  1   
 21   9  12  1   
 22   9  38  1   
 23  10  13  1   
 24  10  39  1   
 25  10  40  1   
 26  11  41  1   
 27  12  14  1   
 28  12  42  1   
 29  12  43  1   
 30  13  15  ar  
 31  13  16  ar  
 32  14  17  1   
 33  14  18  2   
 34  15  19  ar  
 35  15  44  1   
 36  16  20  ar  
 37  16  45  1   
 38  17  21  1   
 39  18  22  1   
 40  18  46  1   
 41  19  23  ar  
 42  19  24  1   
 43  20  23  ar  
 44  20  47  1   
 45  21  22  2   
 46  22  25  1   
 47  23  26  1   
 48  24  48  1   
 49  24  49  1   
 50  24  50  1   
 51  25  51  1   
 52  25  52  1   
 53  25  53  1   
 54  26  27  1   
 55  27  28  1   
 56  27  54  1   
 57  27  55  1   
 58  28  56  1   
 59  28  57  1   
 60  28  58  1   
@<TRIPOS>SUBSTRUCTURE
  1 ****   7 GROUP 4 **** **** 0

# MOE 2024.06 (io_trps.svl 2023.06)
