@<TRIPOS>MOLECULE
NONAME
45 47 1 0 0 
SMALL
USER_CHARGES


@<TRIPOS>ATOM
  1 CL       1.7120    -1.0960    -1.9300 Cl    1 <1>  -0.1770 
  2 C        0.6790    -2.0340    -0.8820 C.ar  1 <1>   0.1770 
  3 C       -0.4150    -2.6820    -1.4120 C.ar  1 <1>  -0.1500 
  4 C        0.9720    -2.1040     0.4660 C.ar  1 <1>  -0.1500 
  5 C       -1.2670    -3.4310    -0.5990 C.ar  1 <1>   0.0860 
  6 C        0.1520    -2.8550     1.2860 C.ar  1 <1>  -0.1500 
  7 C       -0.9470    -3.5280     0.7680 C.ar  1 <1>   0.0830 
  8 C       -2.4330    -4.0330    -1.2070 C.2   1 <1>   0.5440 
  9 O       -1.6550    -4.2520     1.6660 O.3   1 <1>  -0.3630 
 10 O       -2.2780    -4.9250    -2.0200 O.2   1 <1>  -0.5700 
 11 N       -3.7130    -3.6110    -0.9090 N.am  1 <1>  -0.6600 
 12 C       -2.1290    -5.5470     1.3530 C.3   1 <1>   0.0400 
 13 C       -4.9030    -4.3050    -1.4890 C.3   1 <1>   0.1400 
 14 C       -3.9760    -2.4810     0.0340 C.3   1 <1>   0.1400 
 15 C       -6.0640    -4.2910    -0.4930 C.3   1 <1>  -0.1600 
 16 C       -5.3340    -1.8530    -0.2680 C.3   1 <1>  -0.1600 
 17 C       -6.4710    -2.8690    -0.0670 C.3   1 <1>   0.4180 
 18 O       -6.7530    -2.9630     1.3080 O.3   1 <1>  -0.5600 
 19 C       -7.7140    -2.4330    -0.8420 C.2   1 <1>  -0.2880 
 20 C       -7.5980    -1.9990     1.8750 C.3   1 <1>   0.1200 
 21 C       -8.8680    -2.0750    -0.2750 C.2   1 <1>  -0.2760 
 22 C       -8.9920    -2.0520     1.2370 C.3   1 <1>  -0.0220 
 23 C      -10.1200    -1.6840    -1.0390 C.3   1 <1>  -0.1020 
 24 H       -0.6190    -2.6080    -2.4660 H     1 <1>   0.1500 
 25 H        1.8280    -1.5840     0.8590 H     1 <1>   0.1500 
 26 H        0.3620    -2.9310     2.3390 H     1 <1>   0.1500 
 27 H       -2.1800    -6.1140     2.2640 H     1 <1>   0.0800 
 28 H       -1.4510    -6.0210     0.6640 H     1 <1>   0.0800 
 29 H       -3.1120    -5.4690     0.9250 H     1 <1>   0.0800 
 30 H       -4.6550    -5.3250    -1.7300 H     1 <1>   0.0800 
 31 H       -5.1900    -3.8070    -2.3990 H     1 <1>   0.0800 
 32 H       -3.2080    -1.7340    -0.0640 H     1 <1>   0.0800 
 33 H       -3.9650    -2.8530     1.0450 H     1 <1>   0.0800 
 34 H       -5.7580    -4.8570     0.3690 H     1 <1>   0.0800 
 35 H       -6.9080    -4.7970    -0.9250 H     1 <1>   0.0800 
 36 H       -5.3260    -1.5150    -1.2890 H     1 <1>   0.0800 
 37 H       -5.4850    -0.9880     0.3470 H     1 <1>   0.0800 
 38 H       -7.5670    -2.4570    -1.9060 H     1 <1>   0.1500 
 39 H       -7.1600    -1.0280     1.7350 H     1 <1>   0.0800 
 40 H       -7.6630    -2.2000     2.9300 H     1 <1>   0.0800 
 41 H       -9.5450    -1.1870     1.5540 H     1 <1>   0.0800 
 42 H       -9.5150    -2.9290     1.5750 H     1 <1>   0.0800 
 43 H      -10.9290    -2.3460    -0.7870 H     1 <1>   0.0800 
 44 H       -9.9480    -1.7430    -2.0990 H     1 <1>   0.0800 
 45 H      -10.4050    -0.6760    -0.7960 H     1 <1>   0.0800 
@<TRIPOS>BOND
  1   1   2  1   
  2   2   3  ar  
  3   2   4  ar  
  4   3   5  ar  
  5   3  24  1   
  6   4   6  ar  
  7   4  25  1   
  8   5   7  ar  
  9   5   8  1   
 10   6   7  ar  
 11   6  26  1   
 12   7   9  1   
 13   8  10  2   
 14   8  11  am  
 15   9  12  1   
 16  11  13  1   
 17  11  14  1   
 18  12  27  1   
 19  12  28  1   
 20  12  29  1   
 21  13  15  1   
 22  13  30  1   
 23  13  31  1   
 24  14  16  1   
 25  14  32  1   
 26  14  33  1   
 27  15  17  1   
 28  15  34  1   
 29  15  35  1   
 30  16  17  1   
 31  16  36  1   
 32  16  37  1   
 33  17  18  1   
 34  17  19  1   
 35  18  20  1   
 36  19  21  2   
 37  19  38  1   
 38  20  22  1   
 39  20  39  1   
 40  20  40  1   
 41  21  22  1   
 42  21  23  1   
 43  22  41  1   
 44  22  42  1   
 45  23  43  1   
 46  23  44  1   
 47  23  45  1   
@<TRIPOS>SUBSTRUCTURE
  1 ****  14 GROUP 4 **** **** 0

# MOE 2024.06 (io_trps.svl 2023.06)
