@<TRIPOS>MOLECULE
NONAME
45 46 1 0 0 
SMALL
USER_CHARGES


@<TRIPOS>ATOM
  1 O       -1.1660     0.1870     2.7170 O.2   1 <1>  -0.5700 
  2 C       -1.5230     0.6710     1.6680 C.2   1 <1>   0.5690 
  3 N       -1.9290    -0.1220     0.6180 N.am  1 <1>  -0.6600 
  4 C       -1.5240     2.1960     1.5890 C.3   1 <1>   0.0440 
  5 C       -2.0470    -1.5950     0.8020 C.3   1 <1>   0.3200 
  6 C       -2.1920     0.3660    -0.7690 C.3   1 <1>   0.1400 
  7 C       -0.5600     2.7940     0.5580 C.ar  1 <1>  -0.1440 
  8 C       -3.5130    -1.9850     0.8140 C.2   1 <1>  -0.3320 
  9 C       -3.6210     0.8950    -0.9280 C.3   1 <1>   0.1200 
 10 C       -0.8950     3.8940    -0.2290 C.ar  1 <1>  -0.1430 
 11 C        0.6910     2.2080     0.4080 C.ar  1 <1>  -0.1500 
 12 N       -4.2260    -2.4720    -0.2240 N.pl3 1 <1>   0.0480 
 13 C       -4.3620    -1.9140     1.8630 C.2   1 <1>   0.0770 
 14 O       -3.8430     1.1850    -2.2670 O.3   1 <1>  -0.6800 
 15 C        0.0140     4.3600    -1.1670 C.ar  1 <1>  -0.1500 
 16 C       -2.2260     4.6240    -0.0960 C.3   1 <1>  -0.0970 
 17 C        1.5960     2.6800    -0.5250 C.ar  1 <1>  -0.1430 
 18 C       -5.4690    -2.6560     0.2760 C.2   1 <1>   0.0360 
 19 C       -3.8010    -2.7360    -1.6110 C.3   1 <1>   0.0160 
 20 N       -5.5930    -2.3360     1.5230 N.2   1 <1>  -0.5650 
 21 C        1.2480     3.7570    -1.3180 C.ar  1 <1>  -0.1500 
 22 C        2.9550     2.0200    -0.6760 C.3   1 <1>  -0.0970 
 23 H       -1.2520     2.5830     2.5540 H     1 <1>   0.0800 
 24 H       -2.5330     2.5010     1.4070 H     1 <1>   0.0800 
 25 H       -1.6040    -1.8980     1.7350 H     1 <1>   0.0800 
 26 H       -1.5170    -2.1080     0.0190 H     1 <1>   0.0800 
 27 H       -2.0420    -0.4450    -1.4590 H     1 <1>   0.0800 
 28 H       -1.4900     1.1340    -1.0300 H     1 <1>   0.0800 
 29 H       -3.7760     1.7920    -0.3580 H     1 <1>   0.0800 
 30 H       -4.3440     0.1580    -0.6290 H     1 <1>   0.0800 
 31 H        0.9690     1.3710     1.0250 H     1 <1>   0.1500 
 32 H       -4.1430    -1.5700     2.8610 H     1 <1>   0.1500 
 33 H       -3.2890     1.9370    -2.5560 H     1 <1>   0.4000 
 34 H       -0.2300     5.2040    -1.7870 H     1 <1>   0.1500 
 35 H       -2.4170     4.8620     0.9350 H     1 <1>   0.0800 
 36 H       -3.0260     4.0150    -0.4740 H     1 <1>   0.0800 
 37 H       -2.2140     5.5460    -0.6490 H     1 <1>   0.0800 
 38 H       -6.2750    -3.0370    -0.3260 H     1 <1>   0.1500 
 39 H       -2.7980    -3.1200    -1.6160 H     1 <1>   0.0800 
 40 H       -3.8470    -1.8240    -2.1770 H     1 <1>   0.0800 
 41 H       -4.4590    -3.4610    -2.0540 H     1 <1>   0.0800 
 42 H        1.9380     4.1350    -2.0520 H     1 <1>   0.1500 
 43 H        3.2930     1.6390     0.2710 H     1 <1>   0.0800 
 44 H        3.6800     2.7280    -1.0350 H     1 <1>   0.0800 
 45 H        2.8890     1.2060    -1.3750 H     1 <1>   0.0800 
@<TRIPOS>BOND
  1   1   2  2   
  2   2   3  am  
  3   2   4  1   
  4   3   5  1   
  5   3   6  1   
  6   4   7  1   
  7   4  23  1   
  8   4  24  1   
  9   5   8  1   
 10   5  25  1   
 11   5  26  1   
 12   6   9  1   
 13   6  27  1   
 14   6  28  1   
 15   7  10  ar  
 16   7  11  ar  
 17   8  12  1   
 18   8  13  2   
 19   9  14  1   
 20   9  29  1   
 21   9  30  1   
 22  10  15  ar  
 23  10  16  1   
 24  11  17  ar  
 25  11  31  1   
 26  12  18  1   
 27  12  19  1   
 28  13  20  1   
 29  13  32  1   
 30  14  33  1   
 31  15  21  ar  
 32  15  34  1   
 33  16  35  1   
 34  16  36  1   
 35  16  37  1   
 36  17  21  ar  
 37  17  22  1   
 38  18  20  2   
 39  18  38  1   
 40  19  39  1   
 41  19  40  1   
 42  19  41  1   
 43  21  42  1   
 44  22  43  1   
 45  22  44  1   
 46  22  45  1   
@<TRIPOS>SUBSTRUCTURE
  1 ****   3 GROUP 4 **** **** 0

# MOE 2024.06 (io_trps.svl 2023.06)
