@<TRIPOS>MOLECULE
NONAME
37 39 1 0 0 
SMALL
USER_CHARGES


@<TRIPOS>ATOM
  1 S        1.5170    -1.2640     2.3140 S.3   1 <1>  -0.0800 
  2 C        0.3980    -0.6490     1.1180 C.2   1 <1>   0.4620 
  3 C        1.3950    -2.8310     1.5760 C.2   1 <1>  -0.1100 
  4 N       -0.0090    -1.5220     0.2810 N.2   1 <1>  -0.5650 
  5 N        0.0530     0.6600     1.1530 N.pl3 1 <1>  -0.8840 
  6 C        0.5510    -2.7850     0.5190 C.2   1 <1>   0.1410 
  7 C        0.2170    -3.9280    -0.3260 C.2   1 <1>   0.7160 
  8 O       -0.1480    -3.8080    -1.4800 O.2   1 <1>  -0.5700 
  9 N        0.3060    -5.1960     0.1790 N.am  1 <1>  -0.7300 
 10 C        0.0280    -6.4420    -0.5740 C.3   1 <1>   0.2200 
 11 C       -1.3470    -7.0030    -0.2330 C.3   1 <1>  -0.0800 
 12 C        0.9190    -7.5490    -0.0290 C.3   1 <1>   0.1200 
 13 C       -1.0860    -7.8110     1.0440 C.3   1 <1>   0.1200 
 14 C       -2.4900    -5.9780    -0.1130 C.3   1 <1>  -0.0170 
 15 O        0.3010    -7.9540     1.1540 O.3   1 <1>  -0.5600 
 16 C       -3.8180    -6.6760     0.1370 C.ar  1 <1>  -0.1430 
 17 C       -4.3700    -6.7770     1.3980 C.ar  1 <1>  -0.1500 
 18 C       -4.5410    -7.2470    -0.8910 C.ar  1 <1>  -0.1500 
 19 C       -5.5780    -7.4310     1.5670 C.ar  1 <1>   0.1600 
 20 C       -5.7420    -7.8790    -0.6150 C.ar  1 <1>   0.1600 
 21 N       -6.2770    -7.9880     0.5900 N.ar  1 <1>  -0.6200 
 22 H        1.9730    -3.6290     2.0050 H     1 <1>   0.1500 
 23 H        0.5080     1.3280     1.7740 H     1 <1>   0.4000 
 24 H       -0.5290     1.0350     0.4030 H     1 <1>   0.4000 
 25 H        0.4880    -5.3440     1.1720 H     1 <1>   0.3700 
 26 H        0.1650    -6.2900    -1.6320 H     1 <1>   0.0800 
 27 H       -1.6120    -7.7050    -1.0040 H     1 <1>   0.0800 
 28 H        1.9220    -7.2190     0.1760 H     1 <1>   0.0800 
 29 H        0.9380    -8.3920    -0.6980 H     1 <1>   0.0800 
 30 H       -1.5360    -8.7880     0.9960 H     1 <1>   0.0800 
 31 H       -1.4310    -7.2950     1.9230 H     1 <1>   0.0800 
 32 H       -2.5550    -5.4060    -1.0230 H     1 <1>   0.0800 
 33 H       -2.2970    -5.2860     0.6870 H     1 <1>   0.0800 
 34 H       -3.8740    -6.3520     2.2520 H     1 <1>   0.1500 
 35 H       -4.1830    -7.2050    -1.9030 H     1 <1>   0.1500 
 36 H       -5.9930    -7.5000     2.5580 H     1 <1>   0.1500 
 37 H       -6.2920    -8.3190    -1.4290 H     1 <1>   0.1500 
@<TRIPOS>BOND
  1   1   2  1   
  2   1   3  1   
  3   2   4  2   
  4   2   5  1   
  5   3   6  2   
  6   3  22  1   
  7   4   6  1   
  8   5  23  1   
  9   5  24  1   
 10   6   7  1   
 11   7   8  2   
 12   7   9  am  
 13   9  10  1   
 14   9  25  1   
 15  10  11  1   
 16  10  12  1   
 17  10  26  1   
 18  11  13  1   
 19  11  14  1   
 20  11  27  1   
 21  12  15  1   
 22  12  28  1   
 23  12  29  1   
 24  13  15  1   
 25  13  30  1   
 26  13  31  1   
 27  14  16  1   
 28  14  32  1   
 29  14  33  1   
 30  16  17  ar  
 31  16  18  ar  
 32  17  19  ar  
 33  17  34  1   
 34  18  20  ar  
 35  18  35  1   
 36  19  21  ar  
 37  19  36  1   
 38  20  21  ar  
 39  20  37  1   
@<TRIPOS>SUBSTRUCTURE
  1 ****  14 GROUP 4 **** **** 0

# MOE 2024.06 (io_trps.svl 2023.06)
