@<TRIPOS>MOLECULE
NONAME
52 54 1 0 0 
SMALL
USER_CHARGES


@<TRIPOS>ATOM
  1 O        1.7080    -0.6630     0.5420 O.co2 1 <1>  -0.9000 
  2 C        2.1270     0.4660     0.8410 C.2   1 <1>   0.9060 
  3 O        1.6980     1.0520     1.8420 O.co2 1 <1>  -0.9000 
  4 C        3.2010     1.1190    -0.0530 C.3   1 <1>  -0.1060 
  5 C        4.3160     0.0800    -0.3600 C.3   1 <1>   0.2000 
  6 C        3.8790     2.3220     0.6650 C.3   1 <1>  -0.1600 
  7 C        2.5560     1.5720    -1.3920 C.3   1 <1>  -0.0160 
  8 O        3.7700    -1.0520    -0.9440 O.3   1 <1>  -0.6800 
  9 C        5.1140    -0.3240     0.8910 C.3   1 <1>   0.1400 
 10 C        4.6740     1.8860     1.9040 C.3   1 <1>   0.1400 
 11 C        1.8650     2.9360    -1.3750 C.ar  1 <1>  -0.1440 
 12 N        5.7160     0.9050     1.4940 N.am  1 <1>  -0.6600 
 13 C        0.7370     3.1510    -0.5980 C.ar  1 <1>  -0.1500 
 14 C        2.3560     3.9760    -2.1510 C.ar  1 <1>  -0.1500 
 15 C        7.0640     1.1630     1.4090 C.2   1 <1>   0.5690 
 16 C        0.1090     4.3840    -0.5960 C.ar  1 <1>  -0.1500 
 17 C        1.7250     5.2090    -2.1580 C.ar  1 <1>  -0.1500 
 18 O        7.8550     0.3130     1.0670 O.2   1 <1>  -0.5700 
 19 C        7.6330     2.5440     1.7190 C.3   1 <1>   0.0440 
 20 C        0.6010     5.4150    -1.3780 C.ar  1 <1>  -0.1500 
 21 C        7.1600     3.5920     0.7150 C.ar  1 <1>  -0.1430 
 22 C        6.4220     4.6890     1.1300 C.ar  1 <1>  -0.1500 
 23 C        7.4310     3.4290    -0.6370 C.ar  1 <1>  -0.1500 
 24 C        5.9180     5.5820     0.2010 C.ar  1 <1>   0.0820 
 25 C        6.9550     4.3400    -1.5650 C.ar  1 <1>  -0.1500 
 26 O        5.1420     6.5950     0.6360 O.3   1 <1>  -0.3630 
 27 C        6.1930     5.4180    -1.1490 C.ar  1 <1>  -0.1500 
 28 C        3.8000     6.5790     0.2010 C.3   1 <1>   0.0400 
 29 H        5.0130     0.4870    -1.0720 H     1 <1>   0.0800 
 30 H        3.1300     3.0260     0.9830 H     1 <1>   0.0800 
 31 H        4.5330     2.8330    -0.0170 H     1 <1>   0.0800 
 32 H        3.3170     1.5960    -2.1500 H     1 <1>   0.0800 
 33 H        1.8420     0.8300    -1.7060 H     1 <1>   0.0800 
 34 H        2.8960    -1.2030    -0.4670 H     1 <1>   0.4000 
 35 H        5.8820    -1.0230     0.6130 H     1 <1>   0.0800 
 36 H        4.4620    -0.7910     1.6090 H     1 <1>   0.0800 
 37 H        4.0160     1.4200     2.6190 H     1 <1>   0.0800 
 38 H        5.1050     2.7410     2.3850 H     1 <1>   0.0800 
 39 H        0.3450     2.3550     0.0160 H     1 <1>   0.1500 
 40 H        3.2330     3.8270    -2.7550 H     1 <1>   0.1500 
 41 H       -0.7620     4.5330     0.0170 H     1 <1>   0.1500 
 42 H        2.1090     6.0050    -2.7700 H     1 <1>   0.1500 
 43 H        7.3560     2.8170     2.7190 H     1 <1>   0.0800 
 44 H        8.7050     2.4920     1.6850 H     1 <1>   0.0800 
 45 H        0.1080     6.3700    -1.3780 H     1 <1>   0.1500 
 46 H        6.2040     4.8540     2.1690 H     1 <1>   0.1500 
 47 H        8.0060     2.5810    -0.9700 H     1 <1>   0.1500 
 48 H        7.1740     4.2050    -2.6090 H     1 <1>   0.1500 
 49 H        5.8150     6.1260    -1.8620 H     1 <1>   0.1500 
 50 H        3.2570     7.3240     0.7540 H     1 <1>   0.0800 
 51 H        3.3800     5.6050     0.3880 H     1 <1>   0.0800 
 52 H        3.7680     6.8040    -0.8490 H     1 <1>   0.0800 
@<TRIPOS>BOND
  1   1   2  ar  
  2   2   3  ar  
  3   2   4  1   
  4   4   5  1   
  5   4   6  1   
  6   4   7  1   
  7   5   8  1   
  8   5   9  1   
  9   5  29  1   
 10   6  10  1   
 11   6  30  1   
 12   6  31  1   
 13   7  11  1   
 14   7  32  1   
 15   7  33  1   
 16   8  34  1   
 17   9  12  1   
 18   9  35  1   
 19   9  36  1   
 20  10  12  1   
 21  10  37  1   
 22  10  38  1   
 23  11  13  ar  
 24  11  14  ar  
 25  12  15  am  
 26  13  16  ar  
 27  13  39  1   
 28  14  17  ar  
 29  14  40  1   
 30  15  18  2   
 31  15  19  1   
 32  16  20  ar  
 33  16  41  1   
 34  17  20  ar  
 35  17  42  1   
 36  19  21  1   
 37  19  43  1   
 38  19  44  1   
 39  20  45  1   
 40  21  22  ar  
 41  21  23  ar  
 42  22  24  ar  
 43  22  46  1   
 44  23  25  ar  
 45  23  47  1   
 46  24  26  1   
 47  24  27  ar  
 48  25  27  ar  
 49  25  48  1   
 50  26  28  1   
 51  27  49  1   
 52  28  50  1   
 53  28  51  1   
 54  28  52  1   
@<TRIPOS>SUBSTRUCTURE
  1 ****   6 GROUP 4 **** **** 0

# MOE 2024.06 (io_trps.svl 2023.06)
