@<TRIPOS>MOLECULE
NONAME
57 59 1 0 0 
SMALL
USER_CHARGES


@<TRIPOS>ATOM
  1 S       -3.0310     1.7340     1.3140 S.o2  1 <1>   1.3330 
  2 O       -4.1790     0.8960     1.5690 O.2   1 <1>  -0.6500 
  3 O       -2.9760     3.0630     1.8720 O.2   1 <1>  -0.6500 
  4 N       -2.8670     1.8600    -0.4050 N.am  1 <1>  -0.6930 
  5 C       -1.5550     0.8560     1.7820 C.3   1 <1>  -0.1350 
  6 C       -1.9340     2.7060    -1.0000 C.ar  1 <1>   0.1990 
  7 C       -3.5790     0.8390    -1.2350 C.3   1 <1>   0.2570 
  8 C       -2.0330     4.0850    -0.8530 C.ar  1 <1>  -0.1500 
  9 C       -0.8860     2.1960    -1.7600 C.ar  1 <1>  -0.1500 
 10 C       -3.1760    -0.6180    -0.9520 C.2   1 <1>   0.5690 
 11 C       -1.1160     4.9390    -1.4410 C.ar  1 <1>  -0.1440 
 12 C        0.0330     3.0400    -2.3550 C.ar  1 <1>  -0.1500 
 13 O       -2.0020    -0.9110    -1.0210 O.2   1 <1>  -0.5700 
 14 N       -4.1110    -1.5700    -0.6440 N.am  1 <1>  -0.6600 
 15 C       -0.0820     4.4100    -2.1970 C.ar  1 <1>  -0.1500 
 16 C       -1.2400     6.4410    -1.2640 C.3   1 <1>  -0.0970 
 17 C       -5.5660    -1.3600    -0.4300 C.3   1 <1>   0.1400 
 18 C       -3.7490    -2.9780    -0.3550 C.3   1 <1>   0.1400 
 19 C       -6.0440    -2.6430     0.2550 C.3   1 <1>  -0.0800 
 20 C       -5.0860    -3.7180    -0.2850 C.3   1 <1>  -0.0800 
 21 C       -7.5490    -2.9710     0.0830 C.3   1 <1>   0.2800 
 22 C       -5.4840    -4.2240    -1.6880 C.3   1 <1>  -0.1600 
 23 O       -8.2650    -1.8070     0.2560 O.3   1 <1>  -0.6800 
 24 C       -7.8600    -3.4630    -1.3410 C.3   1 <1>  -0.1600 
 25 C       -8.0600    -3.9830     1.1380 C.3   1 <1>  -0.1600 
 26 C       -6.9580    -4.6310    -1.7670 C.3   1 <1>  -0.1600 
 27 C       -8.1020    -3.4940     2.6000 C.3   1 <1>  -0.2400 
 28 H       -1.5410    -0.1200     1.3420 H     1 <1>   0.0800 
 29 H       -1.5150     0.7510     2.8480 H     1 <1>   0.0800 
 30 H       -0.6870     1.3950     1.4560 H     1 <1>   0.0800 
 31 H       -4.6340     0.9650    -1.0840 H     1 <1>   0.0800 
 32 H       -3.3840     1.0350    -2.2730 H     1 <1>   0.0800 
 33 H       -2.8420     4.4840    -0.2670 H     1 <1>   0.1500 
 34 H       -0.7840     1.1340    -1.8820 H     1 <1>   0.1500 
 35 H        0.8380     2.6320    -2.9400 H     1 <1>   0.1500 
 36 H        0.6360     5.0630    -2.6620 H     1 <1>   0.1500 
 37 H       -0.2690     6.8810    -1.1240 H     1 <1>   0.0800 
 38 H       -1.8430     6.6720    -0.4040 H     1 <1>   0.0800 
 39 H       -1.6980     6.8740    -2.1350 H     1 <1>   0.0800 
 40 H       -5.7570    -0.5050     0.1940 H     1 <1>   0.0800 
 41 H       -6.0510    -1.2300    -1.3810 H     1 <1>   0.0800 
 42 H       -3.1010    -3.3740    -1.1190 H     1 <1>   0.0800 
 43 H       -3.2460    -3.0190     0.5960 H     1 <1>   0.0800 
 44 H       -5.8330    -2.5170     1.3000 H     1 <1>   0.0800 
 45 H       -5.0240    -4.5520     0.3910 H     1 <1>   0.0800 
 46 H       -5.3070    -3.4520    -2.4180 H     1 <1>   0.0800 
 47 H       -4.8660    -5.0640    -1.9550 H     1 <1>   0.0800 
 48 H       -8.2380    -1.5600     1.1990 H     1 <1>   0.4000 
 49 H       -8.8900    -3.7690    -1.4030 H     1 <1>   0.0800 
 50 H       -7.7220    -2.6540    -2.0360 H     1 <1>   0.0800 
 51 H       -9.0540    -4.2900     0.8630 H     1 <1>   0.0800 
 52 H       -7.4460    -4.8650     1.0980 H     1 <1>   0.0800 
 53 H       -7.1360    -5.4880    -1.1410 H     1 <1>   0.0800 
 54 H       -7.1960    -4.9130    -2.7790 H     1 <1>   0.0800 
 55 H       -8.7670    -2.6560     2.7090 H     1 <1>   0.0800 
 56 H       -7.1260    -3.2190     2.9550 H     1 <1>   0.0800 
 57 H       -8.4700    -4.2870     3.2290 H     1 <1>   0.0800 
@<TRIPOS>BOND
  1   1   2  2   
  2   1   3  2   
  3   1   4  am  
  4   1   5  1   
  5   4   6  1   
  6   4   7  1   
  7   5  28  1   
  8   5  29  1   
  9   5  30  1   
 10   6   8  ar  
 11   6   9  ar  
 12   7  10  1   
 13   7  31  1   
 14   7  32  1   
 15   8  11  ar  
 16   8  33  1   
 17   9  12  ar  
 18   9  34  1   
 19  10  13  2   
 20  10  14  am  
 21  11  15  ar  
 22  11  16  1   
 23  12  15  ar  
 24  12  35  1   
 25  14  17  1   
 26  14  18  1   
 27  15  36  1   
 28  16  37  1   
 29  16  38  1   
 30  16  39  1   
 31  17  19  1   
 32  17  40  1   
 33  17  41  1   
 34  18  20  1   
 35  18  42  1   
 36  18  43  1   
 37  19  20  1   
 38  19  21  1   
 39  19  44  1   
 40  20  22  1   
 41  20  45  1   
 42  21  23  1   
 43  21  24  1   
 44  21  25  1   
 45  22  26  1   
 46  22  46  1   
 47  22  47  1   
 48  23  48  1   
 49  24  26  1   
 50  24  49  1   
 51  24  50  1   
 52  25  27  1   
 53  25  51  1   
 54  25  52  1   
 55  26  53  1   
 56  26  54  1   
 57  27  55  1   
 58  27  56  1   
 59  27  57  1   
@<TRIPOS>SUBSTRUCTURE
  1 ****  10 GROUP 4 **** **** 0

# MOE 2024.06 (io_trps.svl 2023.06)
