@<TRIPOS>MOLECULE
NONAME
48 50 1 0 0 
SMALL
USER_CHARGES


@<TRIPOS>ATOM
  1 O        1.5520     0.4570    -1.1630 O.3   1 <1>  -0.6800 
  2 C        1.4560     0.0520     0.1540 C.3   1 <1>   0.2800 
  3 C        2.8800     0.0260     0.7700 C.3   1 <1>  -0.0800 
  4 C        0.8590    -1.3660     0.1640 C.3   1 <1>  -0.1600 
  5 C        0.4980     1.0310     0.8670 C.3   1 <1>  -0.1600 
  6 C        3.6830    -1.2720     0.5450 C.3   1 <1>  -0.0800 
  7 C        3.7930     1.1230     0.2390 C.3   1 <1>   0.3430 
  8 C        1.7010    -2.4220    -0.5810 C.3   1 <1>  -0.1600 
  9 C        0.9180     2.5120     0.8840 C.3   1 <1>  -0.2400 
 10 C        3.1950    -2.0710    -0.6750 C.3   1 <1>  -0.1600 
 11 C        5.1410    -0.8380     0.3540 C.3   1 <1>   0.3430 
 12 N        5.1680     0.6380     0.5210 N.4   1 <1>  -0.9590 
 13 C        6.1800     1.3220    -0.3210 C.3   1 <1>   0.5240 
 14 C        6.1540     2.7930     0.0230 C.2   1 <1>  -0.1810 
 15 C        6.7910     3.3890     1.1050 C.2   1 <1>   0.1390 
 16 C        5.5270     3.8110    -0.6070 C.2   1 <1>  -0.3020 
 17 N        6.5700     4.6630     1.1550 N.2   1 <1>  -0.7070 
 18 N        5.7950     4.9340     0.0900 N.pl3 1 <1>   0.3140 
 19 C        5.3330     6.3050    -0.2130 C.3   1 <1>   0.0960 
 20 C        6.0500     6.8740    -1.4450 C.3   1 <1>  -0.2400 
 21 H        0.6720     0.3890    -1.5840 H     1 <1>   0.4000 
 22 H        2.7840     0.1620     1.8330 H     1 <1>   0.0800 
 23 H        0.7740    -1.6770     1.1920 H     1 <1>   0.0800 
 24 H       -0.1400    -1.3570    -0.2350 H     1 <1>   0.0800 
 25 H       -0.4710     0.9620     0.4020 H     1 <1>   0.0800 
 26 H        0.3680     0.7090     1.8860 H     1 <1>   0.0800 
 27 H        3.6070    -1.9020     1.4150 H     1 <1>   0.0800 
 28 H        3.6030     2.0740     0.7090 H     1 <1>   0.0800 
 29 H        3.6570     1.2230    -0.8250 H     1 <1>   0.0800 
 30 H        1.5830    -3.3700    -0.0830 H     1 <1>   0.0800 
 31 H        1.3180    -2.5410    -1.5810 H     1 <1>   0.0800 
 32 H        1.1310     2.8640    -0.1100 H     1 <1>   0.0800 
 33 H        1.7770     2.6660     1.5110 H     1 <1>   0.0800 
 34 H        0.1140     3.1070     1.2820 H     1 <1>   0.0800 
 35 H        3.3480    -1.4850    -1.5660 H     1 <1>   0.0800 
 36 H        3.7640    -2.9780    -0.7850 H     1 <1>   0.0800 
 37 H        5.4620    -1.1040    -0.6400 H     1 <1>   0.0800 
 38 H        5.7850    -1.3200     1.0720 H     1 <1>   0.0800 
 39 H        5.3680     0.8680     1.5020 H     1 <1>   0.4500 
 40 H        7.1630     0.9220    -0.1330 H     1 <1>   0.0800 
 41 H        5.9450     1.1890    -1.3650 H     1 <1>   0.0800 
 42 H        7.4010     2.8790     1.8330 H     1 <1>   0.1500 
 43 H        4.9190     3.8170    -1.4950 H     1 <1>   0.1500 
 44 H        4.2720     6.2810    -0.3770 H     1 <1>   0.0800 
 45 H        5.5330     6.9240     0.6430 H     1 <1>   0.0800 
 46 H        5.8410     6.2790    -2.3150 H     1 <1>   0.0800 
 47 H        7.1120     6.8980    -1.2740 H     1 <1>   0.0800 
 48 H        5.7130     7.8780    -1.6290 H     1 <1>   0.0800 
@<TRIPOS>BOND
  1   1   2  1   
  2   1  21  1   
  3   2   3  1   
  4   2   4  1   
  5   2   5  1   
  6   3   6  1   
  7   3   7  1   
  8   3  22  1   
  9   4   8  1   
 10   4  23  1   
 11   4  24  1   
 12   5   9  1   
 13   5  25  1   
 14   5  26  1   
 15   6  10  1   
 16   6  11  1   
 17   6  27  1   
 18   7  12  1   
 19   7  28  1   
 20   7  29  1   
 21   8  10  1   
 22   8  30  1   
 23   8  31  1   
 24   9  32  1   
 25   9  33  1   
 26   9  34  1   
 27  10  35  1   
 28  10  36  1   
 29  11  12  1   
 30  11  37  1   
 31  11  38  1   
 32  12  13  1   
 33  12  39  1   
 34  13  14  1   
 35  13  40  1   
 36  13  41  1   
 37  14  15  1   
 38  14  16  2   
 39  15  17  2   
 40  15  42  1   
 41  16  18  1   
 42  16  43  1   
 43  17  18  1   
 44  18  19  1   
 45  19  20  1   
 46  19  44  1   
 47  19  45  1   
 48  20  46  1   
 49  20  47  1   
 50  20  48  1   
@<TRIPOS>SUBSTRUCTURE
  1 ****   7 GROUP 4 **** **** 0

# MOE 2024.06 (io_trps.svl 2023.06)
