@<TRIPOS>MOLECULE
NONAME
34 34 1 0 0 
SMALL
USER_CHARGES


@<TRIPOS>ATOM
  1 BR      -0.3030     0.1370     0.8580 Br    1 <1>  -0.1110 
  2 C       -0.0440     2.0310     0.6400 C.ar  1 <1>   0.1110 
  3 C        0.3640     2.7780     1.7270 C.ar  1 <1>  -0.1500 
  4 C       -0.2740     2.5960    -0.5980 C.ar  1 <1>  -0.1500 
  5 C        0.5480     4.1400     1.5640 C.ar  1 <1>  -0.1500 
  6 C       -0.0870     3.9600    -0.7480 C.ar  1 <1>  -0.1500 
  7 C        0.3270     4.7400     0.3280 C.ar  1 <1>  -0.1430 
  8 C        0.5330     6.2480     0.1690 C.3   1 <1>   0.3340 
  9 N       -0.7530     6.8040    -0.3020 N.am  1 <1>  -0.6920 
 10 C        1.8010     6.5960    -0.6810 C.3   1 <1>   1.0200 
 11 S       -0.9050     8.4820     0.0260 S.o   1 <1>   0.3680 
 12 F        2.0700     7.8990    -0.7040 F     1 <1>  -0.3400 
 13 F        2.9000     6.0090    -0.2150 F     1 <1>  -0.3400 
 14 F        1.7010     6.2250    -1.9560 F     1 <1>  -0.3400 
 15 O       -1.0430     8.5510     1.5180 O.2   1 <1>  -0.5000 
 16 C       -2.5180     8.9290    -0.7370 C.3   1 <1>   0.1940 
 17 C       -2.8600    10.3890    -0.4110 C.3   1 <1>  -0.2400 
 18 C       -3.6540     8.0380    -0.2100 C.3   1 <1>  -0.2400 
 19 C       -2.4470     8.7790    -2.2640 C.3   1 <1>  -0.2400 
 20 H        0.5320     2.3020     2.6770 H     1 <1>   0.1500 
 21 H       -0.5920     1.9840    -1.4240 H     1 <1>   0.1500 
 22 H        0.8650     4.7270     2.4110 H     1 <1>   0.1500 
 23 H       -0.2670     4.4110    -1.7110 H     1 <1>   0.1500 
 24 H        0.7180     6.6510     1.1490 H     1 <1>   0.0800 
 25 H       -1.4700     6.3120     0.2410 H     1 <1>   0.3600 
 26 H       -3.7980    10.6740    -0.8530 H     1 <1>   0.0800 
 27 H       -2.0920    11.0450    -0.7790 H     1 <1>   0.0800 
 28 H       -2.9300    10.5210     0.6550 H     1 <1>   0.0800 
 29 H       -4.6000     8.3440    -0.6200 H     1 <1>   0.0800 
 30 H       -3.7090     8.1070     0.8620 H     1 <1>   0.0800 
 31 H       -3.4880     7.0100    -0.4770 H     1 <1>   0.0800 
 32 H       -3.3810     9.0570    -2.7200 H     1 <1>   0.0800 
 33 H       -2.2280     7.7600    -2.5300 H     1 <1>   0.0800 
 34 H       -1.6700     9.4050    -2.6640 H     1 <1>   0.0800 
@<TRIPOS>BOND
  1   1   2  1   
  2   2   3  ar  
  3   2   4  ar  
  4   3   5  ar  
  5   3  20  1   
  6   4   6  ar  
  7   4  21  1   
  8   5   7  ar  
  9   5  22  1   
 10   6   7  ar  
 11   6  23  1   
 12   7   8  1   
 13   8   9  1   
 14   8  10  1   
 15   8  24  1   
 16   9  11  am  
 17   9  25  1   
 18  10  12  1   
 19  10  13  1   
 20  10  14  1   
 21  11  15  2   
 22  11  16  1   
 23  16  17  1   
 24  16  18  1   
 25  16  19  1   
 26  17  26  1   
 27  17  27  1   
 28  17  28  1   
 29  18  29  1   
 30  18  30  1   
 31  18  31  1   
 32  19  32  1   
 33  19  33  1   
 34  19  34  1   
@<TRIPOS>SUBSTRUCTURE
  1 ****   8 GROUP 4 **** **** 0

# MOE 2024.06 (io_trps.svl 2023.06)
