@<TRIPOS>MOLECULE
NONAME
54 56 1 0 0 
SMALL
USER_CHARGES


@<TRIPOS>ATOM
  1 O       -3.9720     2.1720    -1.4540 O.2   1 <1>  -0.5700 
  2 C       -3.3760     1.4710    -0.6690 C.2   1 <1>   0.5690 
  3 N       -3.6060     0.1140    -0.6380 N.am  1 <1>  -0.6600 
  4 C       -2.3740     2.1690     0.2650 C.3   1 <1>  -0.0190 
  5 C       -2.8960    -0.8430     0.2880 C.3   1 <1>   0.3640 
  6 C       -4.6830    -0.4330    -1.5220 C.3   1 <1>   0.1400 
  7 C       -2.9940     3.3850     0.9790 C.3   1 <1>  -0.1600 
  8 C       -1.1170     2.6150    -0.5030 C.3   1 <1>  -0.1600 
  9 C       -1.4060    -0.8810    -0.0680 C.ar  1 <1>  -0.1440 
 10 C       -3.4400    -2.3070     0.3340 C.3   1 <1>   0.2000 
 11 C       -4.6800    -1.9580    -1.6170 C.3   1 <1>   0.1200 
 12 C       -1.9790     4.0670     1.9020 C.3   1 <1>   0.1400 
 13 C       -0.1090     3.2900     0.4280 C.3   1 <1>   0.1400 
 14 C       -0.4500    -0.7880     0.9350 C.ar  1 <1>  -0.1500 
 15 C       -0.9830    -1.0100    -1.3860 C.ar  1 <1>  -0.1500 
 16 O       -4.6580    -2.4890    -0.3340 O.3   1 <1>  -0.5600 
 17 C       -3.6590    -2.7960     1.7730 C.3   1 <1>   0.1200 
 18 N       -0.7570     4.4360     1.1290 N.am  1 <1>  -0.6600 
 19 C        0.8990    -0.8190     0.6290 C.ar  1 <1>  -0.1500 
 20 C        0.3650    -1.0420    -1.6930 C.ar  1 <1>  -0.1500 
 21 O       -2.4890    -2.6950     2.5200 O.3   1 <1>  -0.6800 
 22 C       -0.3070     5.7340     1.1060 C.2   1 <1>   0.5690 
 23 C        1.3080    -0.9450    -0.6860 C.ar  1 <1>  -0.1500 
 24 O       -0.8360     6.5990     1.7670 O.2   1 <1>  -0.5700 
 25 C        0.8910     6.1170     0.2380 C.3   1 <1>  -0.0990 
 26 C        1.2430     7.6160     0.2360 C.3   1 <1>  -0.2400 
 27 H       -2.0640     1.4960     1.0370 H     1 <1>   0.0800 
 28 H       -2.9930    -0.4460     1.2820 H     1 <1>   0.0800 
 29 H       -5.6370    -0.1110    -1.1400 H     1 <1>   0.0800 
 30 H       -4.5760    -0.0210    -2.5110 H     1 <1>   0.0800 
 31 H       -3.8440     3.0700     1.5570 H     1 <1>   0.0800 
 32 H       -3.3390     4.1020     0.2550 H     1 <1>   0.0800 
 33 H       -1.3920     3.3010    -1.2860 H     1 <1>   0.0800 
 34 H       -0.6520     1.7640    -0.9660 H     1 <1>   0.0800 
 35 H       -2.7320    -2.9640    -0.1400 H     1 <1>   0.0800 
 36 H       -3.8280    -2.3170    -2.1690 H     1 <1>   0.0800 
 37 H       -5.5770    -2.2990    -2.1020 H     1 <1>   0.0800 
 38 H       -1.6990     3.4020     2.7000 H     1 <1>   0.0800 
 39 H       -2.4320     4.9400     2.3420 H     1 <1>   0.0800 
 40 H        0.7440     3.6050    -0.1440 H     1 <1>   0.0800 
 41 H        0.2330     2.5810     1.1630 H     1 <1>   0.0800 
 42 H       -0.7510    -0.6940     1.9650 H     1 <1>   0.1500 
 43 H       -1.7040    -1.0770    -2.1810 H     1 <1>   0.1500 
 44 H       -3.9740    -3.8260     1.7780 H     1 <1>   0.0800 
 45 H       -4.4080    -2.1920     2.2560 H     1 <1>   0.0800 
 46 H        1.6310    -0.7470     1.4150 H     1 <1>   0.1500 
 47 H        0.6810    -1.1400    -2.7180 H     1 <1>   0.1500 
 48 H       -1.8340    -3.3640     2.2330 H     1 <1>   0.4000 
 49 H        2.3570    -0.9700    -0.9250 H     1 <1>   0.1500 
 50 H        1.7460     5.5670     0.5850 H     1 <1>   0.0800 
 51 H        0.6810     5.8190    -0.7720 H     1 <1>   0.0800 
 52 H        1.4810     7.9430     1.2340 H     1 <1>   0.0800 
 53 H        0.4060     8.1920    -0.1200 H     1 <1>   0.0800 
 54 H        2.0890     7.8020    -0.4010 H     1 <1>   0.0800 
@<TRIPOS>BOND
  1   1   2  2   
  2   2   3  am  
  3   2   4  1   
  4   3   5  1   
  5   3   6  1   
  6   4   7  1   
  7   4   8  1   
  8   4  27  1   
  9   5   9  1   
 10   5  10  1   
 11   5  28  1   
 12   6  11  1   
 13   6  29  1   
 14   6  30  1   
 15   7  12  1   
 16   7  31  1   
 17   7  32  1   
 18   8  13  1   
 19   8  33  1   
 20   8  34  1   
 21   9  14  ar  
 22   9  15  ar  
 23  10  16  1   
 24  10  17  1   
 25  10  35  1   
 26  11  16  1   
 27  11  36  1   
 28  11  37  1   
 29  12  18  1   
 30  12  38  1   
 31  12  39  1   
 32  13  18  1   
 33  13  40  1   
 34  13  41  1   
 35  14  19  ar  
 36  14  42  1   
 37  15  20  ar  
 38  15  43  1   
 39  17  21  1   
 40  17  44  1   
 41  17  45  1   
 42  18  22  am  
 43  19  23  ar  
 44  19  46  1   
 45  20  23  ar  
 46  20  47  1   
 47  21  48  1   
 48  22  24  2   
 49  22  25  1   
 50  23  49  1   
 51  25  26  1   
 52  25  50  1   
 53  25  51  1   
 54  26  52  1   
 55  26  53  1   
 56  26  54  1   
@<TRIPOS>SUBSTRUCTURE
  1 ****   4 GROUP 4 **** **** 0

# MOE 2024.06 (io_trps.svl 2023.06)
