@<TRIPOS>MOLECULE
NONAME
47 49 1 0 0 
SMALL
USER_CHARGES


@<TRIPOS>ATOM
  1 F       -0.8990    -0.5220     0.3920 F     1 <1>  -0.1900 
  2 C       -2.1040    -0.0120     0.3650 C.ar  1 <1>   0.1900 
  3 C       -2.3340     1.3590     0.5260 C.ar  1 <1>   0.0830 
  4 C       -3.1430    -0.9010     0.1720 C.ar  1 <1>  -0.1500 
  5 O       -1.3980     2.3310     0.7220 O.3   1 <1>  -0.3630 
  6 C       -3.6470     1.7990     0.4850 C.ar  1 <1>  -0.1500 
  7 C       -4.4420    -0.4280     0.1370 C.ar  1 <1>  -0.1500 
  8 C       -0.0110     2.0730     0.7370 C.3   1 <1>   0.0400 
  9 C       -4.7260     0.9320     0.2910 C.ar  1 <1>   0.0530 
 10 C       -6.0780     1.4380     0.2580 C.2   1 <1>   0.0870 
 11 O       -6.3770     2.5680     0.8490 O.3   1 <1>  -0.0190 
 12 C       -7.2320     0.9660    -0.2840 C.2   1 <1>  -0.0860 
 13 N       -7.6410     2.8840     0.7420 N.2   1 <1>  -0.4100 
 14 C       -8.1790     1.9370     0.0540 C.2   1 <1>   0.3720 
 15 C       -7.4770    -0.2220    -1.0370 C.2   1 <1>   0.7160 
 16 N       -9.5380     1.8980    -0.2970 N.pl3 1 <1>  -0.8210 
 17 O       -6.9430    -0.3430    -2.1250 O.2   1 <1>  -0.5700 
 18 N       -8.2620    -1.2550    -0.5590 N.am  1 <1>  -0.6600 
 19 C       -9.7910     2.0870    -1.7520 C.3   1 <1>   0.1290 
 20 C      -10.4390     2.7440     0.5340 C.3   1 <1>   0.1290 
 21 C       -8.5280    -2.4800    -1.3670 C.3   1 <1>   0.1400 
 22 C       -8.9630    -1.2060     0.7570 C.3   1 <1>   0.1400 
 23 C       -8.1440    -3.7210    -0.5600 C.3   1 <1>  -0.1600 
 24 C       -8.5900    -2.4370     1.5850 C.3   1 <1>  -0.1600 
 25 C       -8.8560    -3.7160     0.7920 C.3   1 <1>   0.2600 
 26 F       -8.3780    -4.7290     1.4980 F     1 <1>  -0.3400 
 27 H       -2.9350    -1.9490     0.0510 H     1 <1>   0.1500 
 28 H       -3.8310     2.8510     0.6060 H     1 <1>   0.1500 
 29 H       -5.2410    -1.1320    -0.0090 H     1 <1>   0.1500 
 30 H        0.5010     3.0080     0.8780 H     1 <1>   0.0800 
 31 H        0.2750     1.6400    -0.2060 H     1 <1>   0.0800 
 32 H        0.2130     1.4090     1.5520 H     1 <1>   0.0800 
 33 H       -9.1530     1.4450    -2.3340 H     1 <1>   0.0800 
 34 H       -9.5960     3.1090    -2.0290 H     1 <1>   0.0800 
 35 H      -10.8140     1.8470    -1.9800 H     1 <1>   0.0800 
 36 H      -10.2410     2.5730     1.5790 H     1 <1>   0.0800 
 37 H      -11.4670     2.4960     0.3330 H     1 <1>   0.0800 
 38 H      -10.2740     3.7860     0.3170 H     1 <1>   0.0800 
 39 H       -7.9700    -2.4670    -2.2880 H     1 <1>   0.0800 
 40 H       -9.5750    -2.5120    -1.6170 H     1 <1>   0.0800 
 41 H      -10.0260    -1.1820     0.5840 H     1 <1>   0.0800 
 42 H       -8.7020    -0.3220     1.3100 H     1 <1>   0.0800 
 43 H       -7.0780    -3.7200    -0.4140 H     1 <1>   0.0800 
 44 H       -8.4180    -4.6020    -1.1110 H     1 <1>   0.0800 
 45 H       -9.1700    -2.4450     2.4900 H     1 <1>   0.0800 
 46 H       -7.5480    -2.3770     1.8430 H     1 <1>   0.0800 
 47 H       -9.9120    -3.8930     0.6780 H     1 <1>   0.0800 
@<TRIPOS>BOND
  1   1   2  1   
  2   2   3  ar  
  3   2   4  ar  
  4   3   5  1   
  5   3   6  ar  
  6   4   7  ar  
  7   4  27  1   
  8   5   8  1   
  9   6   9  ar  
 10   6  28  1   
 11   7   9  ar  
 12   7  29  1   
 13   8  30  1   
 14   8  31  1   
 15   8  32  1   
 16   9  10  1   
 17  10  11  1   
 18  10  12  2   
 19  11  13  1   
 20  12  14  1   
 21  12  15  1   
 22  13  14  2   
 23  14  16  1   
 24  15  17  2   
 25  15  18  am  
 26  16  19  1   
 27  16  20  1   
 28  18  21  1   
 29  18  22  1   
 30  19  33  1   
 31  19  34  1   
 32  19  35  1   
 33  20  36  1   
 34  20  37  1   
 35  20  38  1   
 36  21  23  1   
 37  21  39  1   
 38  21  40  1   
 39  22  24  1   
 40  22  41  1   
 41  22  42  1   
 42  23  25  1   
 43  23  43  1   
 44  23  44  1   
 45  24  25  1   
 46  24  45  1   
 47  24  46  1   
 48  25  26  1   
 49  25  47  1   
@<TRIPOS>SUBSTRUCTURE
  1 ****  10 GROUP 4 **** **** 0

# MOE 2024.06 (io_trps.svl 2023.06)
