@<TRIPOS>MOLECULE
NONAME
51 53 1 0 0 
SMALL
USER_CHARGES


@<TRIPOS>ATOM
  1 O        1.7600     0.1800    -3.0030 O.2   1 <1>  -0.5700 
  2 C        2.0140    -0.5510    -2.0750 C.2   1 <1>   0.5690 
  3 N        2.7210    -0.0800    -0.9880 N.am  1 <1>  -0.6600 
  4 C        1.5870    -2.0120    -2.2020 C.3   1 <1>   0.1810 
  5 C        3.2850    -0.9210     0.1160 C.3   1 <1>   0.1400 
  6 C        2.8930     1.3860    -0.7960 C.3   1 <1>   0.1400 
  7 O        0.8460    -2.4300    -1.0660 O.3   1 <1>  -0.3620 
  8 C        4.8220    -1.0500     0.0450 C.3   1 <1>   0.3430 
  9 C        4.1790     1.8690    -1.4710 C.3   1 <1>  -0.1600 
 10 C        0.8700    -3.7220    -0.6500 C.ar  1 <1>   0.0820 
 11 N        5.5360     0.2560    -0.1470 N.4   1 <1>  -0.9590 
 12 C        5.3180     0.8500    -1.4990 C.3   1 <1>   0.3430 
 13 C        0.5360    -3.9810     0.6770 C.ar  1 <1>  -0.1440 
 14 C        1.2270    -4.7720    -1.4920 C.ar  1 <1>  -0.1500 
 15 C        6.9840     0.2000     0.2000 C.3   1 <1>   0.5230 
 16 C        0.5980    -5.2800     1.1540 C.ar  1 <1>  -0.1500 
 17 C        0.0940    -2.8580     1.6050 C.3   1 <1>  -0.0970 
 18 C        1.2850    -6.0650    -1.0040 C.ar  1 <1>  -0.1500 
 19 C        7.3930     1.5720     0.7130 C.2   1 <1>   0.0060 
 20 C        0.9760    -6.3180     0.3200 C.ar  1 <1>  -0.1500 
 21 N        8.6470     2.0260     0.8110 N.pl3 1 <1>   0.0330 
 22 N        6.5440     2.4540     1.1210 N.2   1 <1>  -0.3380 
 23 C        8.4850     3.2540     1.3030 C.2   1 <1>   0.0060 
 24 N        7.2400     3.5240     1.4900 N.2   1 <1>  -0.3380 
 25 C        9.6270     4.2050     1.6020 C.3   1 <1>  -0.0600 
 26 H        2.4680    -2.6170    -2.2940 H     1 <1>   0.0800 
 27 H        0.9650    -2.1410    -3.0690 H     1 <1>   0.0800 
 28 H        2.8710    -1.9110     0.0960 H     1 <1>   0.0800 
 29 H        3.0060    -0.4930     1.0630 H     1 <1>   0.0800 
 30 H        2.9220     1.6130     0.2570 H     1 <1>   0.0800 
 31 H        2.0480     1.9140    -1.2100 H     1 <1>   0.0800 
 32 H        5.0720    -1.7170    -0.7640 H     1 <1>   0.0800 
 33 H        5.1560    -1.5130     0.9590 H     1 <1>   0.0800 
 34 H        4.5110     2.7760    -0.9970 H     1 <1>   0.0800 
 35 H        3.9420     2.1250    -2.4890 H     1 <1>   0.0800 
 36 H        5.1660     0.9560     0.5200 H     1 <1>   0.4500 
 37 H        6.2110     1.3500    -1.8380 H     1 <1>   0.0800 
 38 H        5.0790     0.0710    -2.2060 H     1 <1>   0.0800 
 39 H        1.4500    -4.6070    -2.5290 H     1 <1>   0.1500 
 40 H        7.5680    -0.0770    -0.6620 H     1 <1>   0.0800 
 41 H        7.1480    -0.5220     0.9830 H     1 <1>   0.0800 
 42 H        0.3470    -5.4960     2.1780 H     1 <1>   0.1500 
 43 H       -0.7200    -2.3160     1.1570 H     1 <1>   0.0800 
 44 H        0.9070    -2.1790     1.7790 H     1 <1>   0.0800 
 45 H       -0.2400    -3.2460     2.5500 H     1 <1>   0.0800 
 46 H        1.5640    -6.8770    -1.6540 H     1 <1>   0.1500 
 47 H        1.0220    -7.3230     0.7010 H     1 <1>   0.1500 
 48 H        9.5380     1.5780     0.5800 H     1 <1>   0.2700 
 49 H       10.1800     4.4190     0.7060 H     1 <1>   0.0800 
 50 H       10.2860     3.7790     2.3360 H     1 <1>   0.0800 
 51 H        9.2370     5.1300     1.9900 H     1 <1>   0.0800 
@<TRIPOS>BOND
  1   1   2  2   
  2   2   3  am  
  3   2   4  1   
  4   3   5  1   
  5   3   6  1   
  6   4   7  1   
  7   4  26  1   
  8   4  27  1   
  9   5   8  1   
 10   5  28  1   
 11   5  29  1   
 12   6   9  1   
 13   6  30  1   
 14   6  31  1   
 15   7  10  1   
 16   8  11  1   
 17   8  32  1   
 18   8  33  1   
 19   9  12  1   
 20   9  34  1   
 21   9  35  1   
 22  10  13  ar  
 23  10  14  ar  
 24  11  12  1   
 25  11  15  1   
 26  11  36  1   
 27  12  37  1   
 28  12  38  1   
 29  13  16  ar  
 30  13  17  1   
 31  14  18  ar  
 32  14  39  1   
 33  15  19  1   
 34  15  40  1   
 35  15  41  1   
 36  16  20  ar  
 37  16  42  1   
 38  17  43  1   
 39  17  44  1   
 40  17  45  1   
 41  18  20  ar  
 42  18  46  1   
 43  19  21  1   
 44  19  22  2   
 45  20  47  1   
 46  21  23  1   
 47  21  48  1   
 48  22  24  1   
 49  23  24  2   
 50  23  25  1   
 51  25  49  1   
 52  25  50  1   
 53  25  51  1   
@<TRIPOS>SUBSTRUCTURE
  1 ****   5 GROUP 4 **** **** 0

# MOE 2024.06 (io_trps.svl 2023.06)
