@<TRIPOS>MOLECULE
NONAME
42 44 1 0 0 
SMALL
USER_CHARGES


@<TRIPOS>ATOM
  1 O       -1.2270    -0.3880     2.3520 O.2   1 <1>  -0.5700 
  2 C       -2.1490    -0.3400     1.5580 C.2   1 <1>   0.5410 
  3 C       -2.9680    -1.4610     1.2780 C.2   1 <1>  -0.1360 
  4 C       -2.4760     0.8520     0.8580 C.2   1 <1>  -0.1360 
  5 C       -4.0100    -1.3920     0.4000 C.2   1 <1>   0.0910 
  6 C       -3.5130     0.8750    -0.0100 C.2   1 <1>  -0.0620 
  7 O       -4.2500    -0.2190    -0.2260 O.3   1 <1>  -0.1530 
  8 C       -4.8710    -2.5110     0.0600 C.2   1 <1>   0.6160 
  9 C       -3.9490     2.0840    -0.8130 C.3   1 <1>  -0.1020 
 10 O       -4.4210    -3.6380     0.1560 O.2   1 <1>  -0.5700 
 11 N       -6.1820    -2.3750    -0.3600 N.am  1 <1>  -0.6600 
 12 C       -6.8450    -3.4970    -1.0910 C.3   1 <1>   0.1400 
 13 C       -7.0150    -1.1720    -0.0680 C.3   1 <1>   0.1400 
 14 C       -7.4910    -4.5030    -0.1250 C.3   1 <1>   0.1400 
 15 C       -8.4490    -1.5020     0.3700 C.3   1 <1>  -0.1600 
 16 N       -8.7200    -3.9620     0.5350 N.am  1 <1>  -0.6600 
 17 C       -8.5570    -2.7030     1.3140 C.3   1 <1>   0.1400 
 18 C       -9.9750    -4.5050     0.3430 C.2   1 <1>   0.7160 
 19 O      -10.9470    -3.7790     0.4390 O.2   1 <1>  -0.5700 
 20 C      -10.1730    -5.9000     0.0230 C.2   1 <1>  -0.0860 
 21 C      -11.1530    -6.4490    -0.7430 C.2   1 <1>  -0.0100 
 22 C       -9.4170    -7.0130     0.4540 C.2   1 <1>  -0.1500 
 23 O      -11.0340    -7.7530    -0.8170 O.3   1 <1>  -0.2800 
 24 C       -9.9920    -8.1020    -0.0940 C.2   1 <1>  -0.0100 
 25 H       -2.7220    -2.3720     1.7900 H     1 <1>   0.1500 
 26 H       -1.8580     1.7060     1.0610 H     1 <1>   0.1500 
 27 H       -3.8900     1.8660    -1.8640 H     1 <1>   0.0800 
 28 H       -3.3190     2.9290    -0.6000 H     1 <1>   0.0800 
 29 H       -4.9640     2.3410    -0.5680 H     1 <1>   0.0800 
 30 H       -6.1010    -4.0150    -1.6720 H     1 <1>   0.0800 
 31 H       -7.5810    -3.1170    -1.7770 H     1 <1>   0.0800 
 32 H       -7.0410    -0.5410    -0.9400 H     1 <1>   0.0800 
 33 H       -6.5530    -0.6140     0.7280 H     1 <1>   0.0800 
 34 H       -6.7750    -4.7940     0.6240 H     1 <1>   0.0800 
 35 H       -7.7390    -5.3770    -0.6980 H     1 <1>   0.0800 
 36 H       -9.0780    -1.6550    -0.4890 H     1 <1>   0.0800 
 37 H       -8.8350    -0.6380     0.8790 H     1 <1>   0.0800 
 38 H       -9.4150    -2.5720     1.9520 H     1 <1>   0.0800 
 39 H       -7.6880    -2.7730     1.9470 H     1 <1>   0.0800 
 40 H      -11.9630    -5.9620    -1.2590 H     1 <1>   0.1500 
 41 H       -8.5600    -6.9640     1.1020 H     1 <1>   0.1500 
 42 H       -9.7360    -9.1450    -0.0230 H     1 <1>   0.1500 
@<TRIPOS>BOND
  1   1   2  2   
  2   2   3  1   
  3   2   4  1   
  4   3   5  2   
  5   3  25  1   
  6   4   6  2   
  7   4  26  1   
  8   5   7  1   
  9   5   8  1   
 10   6   7  1   
 11   6   9  1   
 12   8  10  2   
 13   8  11  am  
 14   9  27  1   
 15   9  28  1   
 16   9  29  1   
 17  11  12  1   
 18  11  13  1   
 19  12  14  1   
 20  12  30  1   
 21  12  31  1   
 22  13  15  1   
 23  13  32  1   
 24  13  33  1   
 25  14  16  1   
 26  14  34  1   
 27  14  35  1   
 28  15  17  1   
 29  15  36  1   
 30  15  37  1   
 31  16  17  1   
 32  16  18  am  
 33  17  38  1   
 34  17  39  1   
 35  18  19  2   
 36  18  20  1   
 37  20  21  2   
 38  20  22  1   
 39  21  23  1   
 40  21  40  1   
 41  22  24  2   
 42  22  41  1   
 43  23  24  1   
 44  24  42  1   
@<TRIPOS>SUBSTRUCTURE
  1 ****  11 GROUP 4 **** **** 0

# MOE 2024.06 (io_trps.svl 2023.06)
