@<TRIPOS>MOLECULE
NONAME
47 49 1 0 0 
SMALL
USER_CHARGES


@<TRIPOS>ATOM
  1 S        0.7020     0.4480     0.1140 S.o2  1 <1>   1.3330 
  2 O        0.6470    -0.0040     1.4870 O.2   1 <1>  -0.6500 
  3 O        0.3600    -0.4660    -0.9520 O.2   1 <1>  -0.6500 
  4 N       -0.2840     1.8240    -0.0210 N.am  1 <1>  -0.8490 
  5 C        2.3360     1.0940    -0.2280 C.3   1 <1>  -0.0550 
  6 C       -1.6530     1.4870    -0.4200 C.3   1 <1>   0.1160 
  7 C       -0.3050     2.6480     1.1930 C.3   1 <1>   0.1160 
  8 C        3.4290     0.0060    -0.2410 C.3   1 <1>  -0.0800 
  9 C        4.8120     0.4870    -0.6600 C.3   1 <1>   0.2200 
 10 C        3.6870    -0.6480     1.1240 C.3   1 <1>   0.1200 
 11 N        5.1090     1.8130    -0.0710 N.am  1 <1>  -0.7300 
 12 C        5.6890    -0.5590     0.0120 C.3   1 <1>   0.1200 
 13 O        5.0720    -0.8100     1.2360 O.3   1 <1>  -0.5600 
 14 C        5.1000     3.0120    -0.7230 C.2   1 <1>   0.7160 
 15 O        4.8100     3.0230    -1.9050 O.2   1 <1>  -0.5700 
 16 C        5.4000     4.2390    -0.0070 C.2   1 <1>   0.2030 
 17 N        5.6410     4.3410     1.2660 N.2   1 <1>  -0.4100 
 18 C        5.4670     5.5010    -0.5640 C.2   1 <1>  -0.1500 
 19 O        5.8640     5.5940     1.5770 O.3   1 <1>  -0.0190 
 20 C        5.7600     6.3120     0.4690 C.2   1 <1>   0.0870 
 21 C        5.9550     7.7460     0.5120 C.ar  1 <1>   0.0530 
 22 C        5.7060     8.5440    -0.6050 C.ar  1 <1>  -0.1500 
 23 C        6.3980     8.3880     1.6700 C.ar  1 <1>  -0.1500 
 24 C        5.8910     9.9140    -0.5700 C.ar  1 <1>  -0.1500 
 25 C        6.5840     9.7570     1.7110 C.ar  1 <1>  -0.1500 
 26 C        6.3310    10.5250     0.5900 C.ar  1 <1>  -0.1500 
 27 H        2.3210     1.5740    -1.1870 H     1 <1>   0.0800 
 28 H        2.5770     1.8380     0.5050 H     1 <1>   0.0800 
 29 H       -2.2450     2.3810    -0.5140 H     1 <1>   0.0800 
 30 H       -2.1060     0.8350     0.3090 H     1 <1>   0.0800 
 31 H       -1.6460     0.9870    -1.3740 H     1 <1>   0.0800 
 32 H       -0.8730     3.5460     1.0200 H     1 <1>   0.0800 
 33 H        0.6970     2.9300     1.4690 H     1 <1>   0.0800 
 34 H       -0.7490     2.1040     2.0110 H     1 <1>   0.0800 
 35 H        3.1270    -0.7710    -0.9220 H     1 <1>   0.0800 
 36 H        4.9420     0.5040    -1.7300 H     1 <1>   0.0800 
 37 H        3.2150    -1.6140     1.2000 H     1 <1>   0.0800 
 38 H        3.3650    -0.0250     1.9400 H     1 <1>   0.0800 
 39 H        5.3490     1.8030     0.9260 H     1 <1>   0.3700 
 40 H        6.6970    -0.2210     0.1740 H     1 <1>   0.0800 
 41 H        5.6920    -1.4770    -0.5510 H     1 <1>   0.0800 
 42 H        5.3130     5.7300    -1.6020 H     1 <1>   0.1500 
 43 H        5.3610     8.0930    -1.5170 H     1 <1>   0.1500 
 44 H        6.6020     7.8090     2.5530 H     1 <1>   0.1500 
 45 H        5.6920    10.5080    -1.4460 H     1 <1>   0.1500 
 46 H        6.9260    10.2270     2.6170 H     1 <1>   0.1500 
 47 H        6.4750    11.5910     0.6200 H     1 <1>   0.1500 
@<TRIPOS>BOND
  1   1   2  2   
  2   1   3  2   
  3   1   4  am  
  4   1   5  1   
  5   4   6  1   
  6   4   7  1   
  7   5   8  1   
  8   5  27  1   
  9   5  28  1   
 10   6  29  1   
 11   6  30  1   
 12   6  31  1   
 13   7  32  1   
 14   7  33  1   
 15   7  34  1   
 16   8   9  1   
 17   8  10  1   
 18   8  35  1   
 19   9  11  1   
 20   9  12  1   
 21   9  36  1   
 22  10  13  1   
 23  10  37  1   
 24  10  38  1   
 25  11  14  am  
 26  11  39  1   
 27  12  13  1   
 28  12  40  1   
 29  12  41  1   
 30  14  15  2   
 31  14  16  1   
 32  16  17  2   
 33  16  18  1   
 34  17  19  1   
 35  18  20  2   
 36  18  42  1   
 37  19  20  1   
 38  20  21  1   
 39  21  22  ar  
 40  21  23  ar  
 41  22  24  ar  
 42  22  43  1   
 43  23  25  ar  
 44  23  44  1   
 45  24  26  ar  
 46  24  45  1   
 47  25  26  ar  
 48  25  46  1   
 49  26  47  1   
@<TRIPOS>SUBSTRUCTURE
  1 ****  16 GROUP 4 **** **** 0

# MOE 2024.06 (io_trps.svl 2023.06)
