@<TRIPOS>MOLECULE
NONAME
54 56 1 0 0 
SMALL
USER_CHARGES


@<TRIPOS>ATOM
  1 O       -1.0610     0.1630    -0.4560 O.2   1 <1>  -0.5700 
  2 C       -1.8600     1.0050    -0.8260 C.2   1 <1>   0.5440 
  3 N       -3.1180     0.5640    -1.1770 N.am  1 <1>  -0.6600 
  4 C       -1.4950     2.4120    -0.8540 C.ar  1 <1>   0.0860 
  5 C       -3.3120    -0.8700    -1.5100 C.3   1 <1>   0.1400 
  6 C       -4.3320     1.2150    -0.6150 C.3   1 <1>   0.1400 
  7 C       -0.5850     2.9370     0.0620 C.ar  1 <1>  -0.1500 
  8 C       -2.0320     3.2900    -1.7970 C.ar  1 <1>  -0.1500 
  9 C       -3.6590    -1.6350    -0.2140 C.3   1 <1>   0.4230 
 10 C       -4.7210     0.4750     0.6730 C.3   1 <1>  -0.1600 
 11 C       -0.2320     4.2750     0.0570 C.ar  1 <1>   0.0820 
 12 C       -1.6900     4.6290    -1.8140 C.ar  1 <1>  -0.1500 
 13 N       -3.6650    -3.1490    -0.3700 N.4   1 <1>  -0.9590 
 14 C       -4.9310    -1.0570     0.4810 C.3   1 <1>   0.0000 
 15 O        0.6610     4.6740     0.9960 O.3   1 <1>  -0.3620 
 16 C       -0.7930     5.1290    -0.8880 C.ar  1 <1>  -0.1500 
 17 C       -4.3810    -3.8740     0.7300 C.3   1 <1>   0.3430 
 18 C       -4.1150    -3.6620    -1.7040 C.3   1 <1>   0.2630 
 19 C       -5.0960    -1.7190     1.8810 C.3   1 <1>  -0.1600 
 20 C       -6.1870    -1.3240    -0.3970 C.3   1 <1>   0.1200 
 21 C        1.1020     6.0250     1.0630 C.3   1 <1>   0.1810 
 22 C       -4.3590    -3.0650     2.0250 C.3   1 <1>  -0.1600 
 23 O       -7.3000    -0.6540     0.0830 O.3   1 <1>  -0.6800 
 24 C        2.1240     6.2350     2.1750 C.2   1 <1>   0.5690 
 25 O        2.4670     7.3560     2.4510 O.2   1 <1>  -0.5700 
 26 N        2.6490     5.1880     2.8430 N.am  1 <1>  -0.8000 
 27 H       -4.0890    -0.9540    -2.2470 H     1 <1>   0.0800 
 28 H       -2.4010    -1.2610    -1.9310 H     1 <1>   0.0800 
 29 H       -4.1370     2.2500    -0.3880 H     1 <1>   0.0800 
 30 H       -5.1340     1.1780    -1.3340 H     1 <1>   0.0800 
 31 H       -0.1420     2.2850     0.7940 H     1 <1>   0.1500 
 32 H       -2.7240     2.9150    -2.5310 H     1 <1>   0.1500 
 33 H       -2.8470    -1.4090     0.4590 H     1 <1>   0.0800 
 34 H       -3.9330     0.6470     1.3870 H     1 <1>   0.0800 
 35 H       -5.6060     0.9330     1.0810 H     1 <1>   0.0800 
 36 H       -2.1220     5.2850    -2.5510 H     1 <1>   0.1500 
 37 H       -2.6700    -3.4040    -0.2740 H     1 <1>   0.4500 
 38 H       -0.5460     6.1730    -0.9250 H     1 <1>   0.1500 
 39 H       -5.4090    -4.0390     0.4480 H     1 <1>   0.0800 
 40 H       -3.9230    -4.8370     0.8920 H     1 <1>   0.0800 
 41 H       -5.1400    -3.3840    -1.8910 H     1 <1>   0.0800 
 42 H       -4.0410    -4.7370    -1.7350 H     1 <1>   0.0800 
 43 H       -3.4990    -3.2610    -2.4920 H     1 <1>   0.0800 
 44 H       -4.7250    -1.0680     2.6550 H     1 <1>   0.0800 
 45 H       -6.1400    -1.8700     2.0980 H     1 <1>   0.0800 
 46 H       -6.4320    -2.3700    -0.4280 H     1 <1>   0.0800 
 47 H       -6.0430    -0.9790    -1.4050 H     1 <1>   0.0800 
 48 H        1.5520     6.2830     0.1220 H     1 <1>   0.0800 
 49 H        0.2490     6.6520     1.2470 H     1 <1>   0.0800 
 50 H       -4.8230    -3.6380     2.8100 H     1 <1>   0.0800 
 51 H       -3.3370    -2.8980     2.3200 H     1 <1>   0.0800 
 52 H       -7.5530    -0.9490     0.9800 H     1 <1>   0.4000 
 53 H        3.3280     5.3390     3.5890 H     1 <1>   0.3700 
 54 H        2.3670     4.2260     2.6470 H     1 <1>   0.3700 
@<TRIPOS>BOND
  1   1   2  2   
  2   2   3  am  
  3   2   4  1   
  4   3   5  1   
  5   3   6  1   
  6   4   7  ar  
  7   4   8  ar  
  8   5   9  1   
  9   5  27  1   
 10   5  28  1   
 11   6  10  1   
 12   6  29  1   
 13   6  30  1   
 14   7  11  ar  
 15   7  31  1   
 16   8  12  ar  
 17   8  32  1   
 18   9  13  1   
 19   9  14  1   
 20   9  33  1   
 21  10  14  1   
 22  10  34  1   
 23  10  35  1   
 24  11  15  1   
 25  11  16  ar  
 26  12  16  ar  
 27  12  36  1   
 28  13  17  1   
 29  13  18  1   
 30  13  37  1   
 31  14  19  1   
 32  14  20  1   
 33  15  21  1   
 34  16  38  1   
 35  17  22  1   
 36  17  39  1   
 37  17  40  1   
 38  18  41  1   
 39  18  42  1   
 40  18  43  1   
 41  19  22  1   
 42  19  44  1   
 43  19  45  1   
 44  20  23  1   
 45  20  46  1   
 46  20  47  1   
 47  21  24  1   
 48  21  48  1   
 49  21  49  1   
 50  22  50  1   
 51  22  51  1   
 52  23  52  1   
 53  24  25  2   
 54  24  26  am  
 55  26  53  1   
 56  26  54  1   
@<TRIPOS>SUBSTRUCTURE
  1 ****   2 GROUP 4 **** **** 0

# MOE 2024.06 (io_trps.svl 2023.06)
