@<TRIPOS>MOLECULE
NONAME
49 52 1 0 0 
SMALL
USER_CHARGES


@<TRIPOS>ATOM
  1 O       -0.4430    -0.9470     0.5190 O.3   1 <1>  -0.5600 
  2 C        0.7060    -1.5930     0.9880 C.3   1 <1>   0.2000 
  3 C       -1.3090    -0.4870     1.5080 C.3   1 <1>   0.0400 
  4 C        1.8160    -1.5220    -0.0820 C.3   1 <1>   0.0000 
  5 C        0.3940    -3.0880     1.1340 C.3   1 <1>  -0.1600 
  6 C        3.1750    -1.8340     0.5890 C.3   1 <1>   0.2090 
  7 C        1.9050    -0.1440    -0.7830 C.3   1 <1>  -0.1600 
  8 C        1.4240    -2.6510    -1.0540 C.3   1 <1>  -0.1600 
  9 C        0.7730    -3.7450    -0.2000 C.3   1 <1>  -0.1600 
 10 N        4.2980    -1.7370    -0.3860 N.pl3 1 <1>  -0.8380 
 11 C        3.1100    -0.0580    -1.7360 C.3   1 <1>  -0.1600 
 12 C        5.4160    -2.5350    -0.2210 C.ar  1 <1>   0.4100 
 13 C        4.4250    -0.4070    -1.0340 C.3   1 <1>   0.2090 
 14 N        6.6100    -1.9460    -0.0720 N.ar  1 <1>  -0.3100 
 15 C        5.2880    -3.9120    -0.2070 C.ar  1 <1>  -0.1500 
 16 N        7.6930    -2.6650     0.0950 N.ar  1 <1>  -0.3100 
 17 C        6.4210    -4.6640    -0.0300 C.ar  1 <1>  -0.1500 
 18 C        7.6300    -4.0030     0.1180 C.ar  1 <1>   0.3100 
 19 C        8.8560    -4.7490     0.3070 C.ar  1 <1>   0.0000 
 20 C        9.1690    -5.8510    -0.4900 C.ar  1 <1>  -0.1500 
 21 C        9.7710    -4.3910     1.2970 C.ar  1 <1>  -0.1500 
 22 C       10.3340    -6.5710    -0.2970 C.ar  1 <1>  -0.1500 
 23 C       10.9380    -5.1060     1.4940 C.ar  1 <1>  -0.1500 
 24 C       11.2210    -6.2010     0.6970 C.ar  1 <1>  -0.1500 
 25 H        1.0150    -1.1370     1.9130 H     1 <1>   0.0800 
 26 H       -2.1600    -0.0430     1.0230 H     1 <1>   0.0800 
 27 H       -0.8040     0.2540     2.1030 H     1 <1>   0.0800 
 28 H       -1.6300    -1.3110     2.1200 H     1 <1>   0.0800 
 29 H        1.0070    -3.5010     1.9160 H     1 <1>   0.0800 
 30 H       -0.6370    -3.2630     1.3820 H     1 <1>   0.0800 
 31 H        3.1590    -2.8150     1.0300 H     1 <1>   0.0800 
 32 H        3.3530    -1.1240     1.3790 H     1 <1>   0.0800 
 33 H        1.0020     0.0500    -1.3360 H     1 <1>   0.0800 
 34 H        1.9960     0.6230    -0.0350 H     1 <1>   0.0800 
 35 H        0.6870    -2.2780    -1.7450 H     1 <1>   0.0800 
 36 H        2.2620    -3.0220    -1.6180 H     1 <1>   0.0800 
 37 H        1.4650    -4.5520    -0.0320 H     1 <1>   0.0800 
 38 H       -0.1000    -4.1330    -0.6980 H     1 <1>   0.0800 
 39 H        3.1790     0.9360    -2.1390 H     1 <1>   0.0800 
 40 H        2.9720    -0.7340    -2.5610 H     1 <1>   0.0800 
 41 H        4.6560     0.3320    -0.2850 H     1 <1>   0.0800 
 42 H        5.2270    -0.4250    -1.7530 H     1 <1>   0.0800 
 43 H        4.3230    -4.3610    -0.3400 H     1 <1>   0.1500 
 44 H        6.3760    -5.7360    -0.0040 H     1 <1>   0.1500 
 45 H        8.4950    -6.1450    -1.2750 H     1 <1>   0.1500 
 46 H        9.5600    -3.5380     1.9190 H     1 <1>   0.1500 
 47 H       10.5530    -7.4190    -0.9230 H     1 <1>   0.1500 
 48 H       11.6260    -4.8100     2.2660 H     1 <1>   0.1500 
 49 H       12.1280    -6.7600     0.8490 H     1 <1>   0.1500 
@<TRIPOS>BOND
  1   1   2  1   
  2   1   3  1   
  3   2   4  1   
  4   2   5  1   
  5   2  25  1   
  6   3  26  1   
  7   3  27  1   
  8   3  28  1   
  9   4   6  1   
 10   4   7  1   
 11   4   8  1   
 12   5   9  1   
 13   5  29  1   
 14   5  30  1   
 15   6  10  1   
 16   6  31  1   
 17   6  32  1   
 18   7  11  1   
 19   7  33  1   
 20   7  34  1   
 21   8   9  1   
 22   8  35  1   
 23   8  36  1   
 24   9  37  1   
 25   9  38  1   
 26  10  12  1   
 27  10  13  1   
 28  11  13  1   
 29  11  39  1   
 30  11  40  1   
 31  12  14  ar  
 32  12  15  ar  
 33  13  41  1   
 34  13  42  1   
 35  14  16  ar  
 36  15  17  ar  
 37  15  43  1   
 38  16  18  ar  
 39  17  18  ar  
 40  17  44  1   
 41  18  19  1   
 42  19  20  ar  
 43  19  21  ar  
 44  20  22  ar  
 45  20  45  1   
 46  21  23  ar  
 47  21  46  1   
 48  22  24  ar  
 49  22  47  1   
 50  23  24  ar  
 51  23  48  1   
 52  24  49  1   
@<TRIPOS>SUBSTRUCTURE
  1 ****  12 GROUP 4 **** **** 0

# MOE 2024.06 (io_trps.svl 2023.06)
