@<TRIPOS>MOLECULE
NONAME
59 62 1 0 0 
SMALL
USER_CHARGES


@<TRIPOS>ATOM
  1 O       -1.9730     1.6270    -2.2670 O.2   1 <1>  -0.5700 
  2 C       -2.3950     1.7050    -1.1440 C.2   1 <1>   0.5690 
  3 N       -3.6590     1.3230    -0.8670 N.am  1 <1>  -0.7300 
  4 C       -1.4930     2.2320    -0.0550 C.3   1 <1>  -0.1790 
  5 C       -4.3410     1.2640     0.4360 C.3   1 <1>   0.2840 
  6 C       -5.4090     0.1900     0.3750 C.ar  1 <1>  -0.1430 
  7 C       -6.7540     0.5220     0.4220 C.ar  1 <1>   0.1600 
  8 C       -5.0620    -1.1440     0.2720 C.ar  1 <1>  -0.1500 
  9 N       -7.7540    -0.3410     0.3770 N.ar  1 <1>  -0.6200 
 10 C       -6.0920    -2.0530     0.2230 C.ar  1 <1>  -0.1500 
 11 C       -7.4150    -1.6210     0.2740 C.ar  1 <1>   0.4100 
 12 N       -8.4340    -2.5510     0.2010 N.pl3 1 <1>  -0.8380 
 13 C       -8.6490    -3.1980    -1.1170 C.3   1 <1>   0.2090 
 14 C       -9.7110    -2.2550     0.9030 C.3   1 <1>   0.2090 
 15 C       -9.3700    -4.5280    -0.9060 C.3   1 <1>  -0.1600 
 16 C      -10.4560    -3.5660     1.1500 C.3   1 <1>  -0.1600 
 17 C      -10.6970    -4.3370    -0.1580 C.3   1 <1>   0.4240 
 18 O      -11.4860    -3.5360    -1.0090 O.3   1 <1>  -0.5600 
 19 C      -11.3670    -5.7020     0.1130 C.ar  1 <1>  -0.1440 
 20 C      -12.8650    -3.5520    -0.8130 C.3   1 <1>   0.1200 
 21 C      -12.6410    -5.9890    -0.3600 C.ar  1 <1>  -0.1430 
 22 C      -10.7060    -6.6760     0.8500 C.ar  1 <1>  -0.1500 
 23 C      -13.3920    -4.9410    -1.1570 C.3   1 <1>  -0.0170 
 24 C      -13.2280    -7.2190    -0.1060 C.ar  1 <1>  -0.1500 
 25 C      -11.2730    -7.9120     1.1080 C.ar  1 <1>   0.0830 
 26 C      -12.5640    -8.1940     0.6330 C.ar  1 <1>   0.0830 
 27 O      -10.4870    -8.7600     1.8320 O.3   1 <1>  -0.3630 
 28 O      -13.1510    -9.3950     0.9140 O.3   1 <1>  -0.3620 
 29 C      -10.5500   -10.1560     1.6450 C.3   1 <1>   0.0400 
 30 C      -14.4990    -9.6660     0.6000 C.3   1 <1>   0.0400 
 31 H       -4.2020     0.9650    -1.6570 H     1 <1>   0.3700 
 32 H       -1.9780     3.0350     0.4670 H     1 <1>   0.0800 
 33 H       -0.5830     2.6020    -0.4900 H     1 <1>   0.0800 
 34 H       -1.2520     1.4430     0.6310 H     1 <1>   0.0800 
 35 H       -4.7820     2.2220     0.6490 H     1 <1>   0.0800 
 36 H       -3.6360     1.0280     1.2150 H     1 <1>   0.0800 
 37 H       -7.0310     1.5600     0.5000 H     1 <1>   0.1500 
 38 H       -4.0340    -1.4590     0.2290 H     1 <1>   0.1500 
 39 H       -5.8990    -3.1050     0.1490 H     1 <1>   0.1500 
 40 H       -7.7040    -3.3670    -1.6050 H     1 <1>   0.0800 
 41 H       -9.2390    -2.5470    -1.7410 H     1 <1>   0.0800 
 42 H      -10.3060    -1.5910     0.2990 H     1 <1>   0.0800 
 43 H       -9.5030    -1.7690     1.8410 H     1 <1>   0.0800 
 44 H       -8.7180    -5.1740    -0.3490 H     1 <1>   0.0800 
 45 H       -9.5630    -4.9950    -1.8530 H     1 <1>   0.0800 
 46 H      -11.3860    -3.3730     1.6480 H     1 <1>   0.0800 
 47 H       -9.8600    -4.1630     1.8150 H     1 <1>   0.0800 
 48 H      -13.2980    -2.8120    -1.4620 H     1 <1>   0.0800 
 49 H      -13.0820    -3.2950     0.2090 H     1 <1>   0.0800 
 50 H       -9.7230    -6.4890     1.2420 H     1 <1>   0.1500 
 51 H      -13.2610    -5.1220    -2.2090 H     1 <1>   0.0800 
 52 H      -14.4430    -4.9840    -0.9340 H     1 <1>   0.0800 
 53 H      -14.2110    -7.3980    -0.4960 H     1 <1>   0.1500 
 54 H       -9.6400   -10.5860     2.0210 H     1 <1>   0.0800 
 55 H      -10.6540   -10.3670     0.5950 H     1 <1>   0.0800 
 56 H      -11.3890   -10.5420     2.1960 H     1 <1>   0.0800 
 57 H      -14.7390   -10.6430     0.9800 H     1 <1>   0.0800 
 58 H      -14.6190    -9.6510    -0.4680 H     1 <1>   0.0800 
 59 H      -15.1230    -8.9280     1.0720 H     1 <1>   0.0800 
@<TRIPOS>BOND
  1   1   2  2   
  2   2   3  am  
  3   2   4  1   
  4   3   5  1   
  5   3  31  1   
  6   4  32  1   
  7   4  33  1   
  8   4  34  1   
  9   5   6  1   
 10   5  35  1   
 11   5  36  1   
 12   6   7  ar  
 13   6   8  ar  
 14   7   9  ar  
 15   7  37  1   
 16   8  10  ar  
 17   8  38  1   
 18   9  11  ar  
 19  10  11  ar  
 20  10  39  1   
 21  11  12  1   
 22  12  13  1   
 23  12  14  1   
 24  13  15  1   
 25  13  40  1   
 26  13  41  1   
 27  14  16  1   
 28  14  42  1   
 29  14  43  1   
 30  15  17  1   
 31  15  44  1   
 32  15  45  1   
 33  16  17  1   
 34  16  46  1   
 35  16  47  1   
 36  17  18  1   
 37  17  19  1   
 38  18  20  1   
 39  19  21  ar  
 40  19  22  ar  
 41  20  23  1   
 42  20  48  1   
 43  20  49  1   
 44  21  23  1   
 45  21  24  ar  
 46  22  25  ar  
 47  22  50  1   
 48  23  51  1   
 49  23  52  1   
 50  24  26  ar  
 51  24  53  1   
 52  25  26  ar  
 53  25  27  1   
 54  26  28  1   
 55  27  29  1   
 56  28  30  1   
 57  29  54  1   
 58  29  55  1   
 59  29  56  1   
 60  30  57  1   
 61  30  58  1   
 62  30  59  1   
@<TRIPOS>SUBSTRUCTURE
  1 ****  12 GROUP 4 **** **** 0

# MOE 2024.06 (io_trps.svl 2023.06)
