@<TRIPOS>MOLECULE
NONAME
53 55 1 0 0 
SMALL
USER_CHARGES


@<TRIPOS>ATOM
  1 F       -0.4190     0.0100     0.1490 F     1 <1>  -0.1900 
  2 C       -1.6720     0.3870     0.1460 C.ar  1 <1>   0.1900 
  3 C       -2.0600     1.6790     0.5170 C.ar  1 <1>   0.0830 
  4 C       -2.5970    -0.5600    -0.2470 C.ar  1 <1>  -0.1500 
  5 O       -1.2460     2.6960     0.9220 O.3   1 <1>  -0.3630 
  6 C       -3.4120     1.9790     0.4770 C.ar  1 <1>  -0.1500 
  7 C       -3.9380    -0.2260    -0.2770 C.ar  1 <1>  -0.1500 
  8 C        0.1490     2.5530     1.0710 C.3   1 <1>   0.0400 
  9 C       -4.3790     1.0490     0.0870 C.ar  1 <1>   0.0530 
 10 C       -5.7770     1.4110     0.0590 C.2   1 <1>   0.0870 
 11 O       -6.1270     2.6650    -0.0780 O.3   1 <1>  -0.0190 
 12 C       -6.9290     0.6920     0.1390 C.2   1 <1>  -0.0860 
 13 N       -7.4220     2.8380    -0.0930 N.2   1 <1>  -0.4100 
 14 C       -7.9330     1.6650     0.0490 C.2   1 <1>   0.3720 
 15 C       -7.1150    -0.7160     0.3000 C.2   1 <1>   0.7160 
 16 N       -9.3180     1.4250     0.0980 N.pl3 1 <1>  -0.8210 
 17 O       -6.6300    -1.2620     1.2760 O.2   1 <1>  -0.5700 
 18 N       -7.7920    -1.4870    -0.6240 N.am  1 <1>  -0.6600 
 19 C      -10.2030     2.5410    -0.3380 C.3   1 <1>   0.1290 
 20 C       -9.8240     0.7170     1.3090 C.3   1 <1>   0.1290 
 21 C       -8.1160    -2.9120    -0.3470 C.3   1 <1>   0.2350 
 22 C       -8.3840    -0.9290    -1.8720 C.3   1 <1>   0.0600 
 23 C       -9.5090    -3.0080     0.2850 C.3   1 <1>  -0.1950 
 24 C      -10.3640    -4.2330     0.2260 C.3   1 <1>  -0.1900 
 25 C      -10.7630    -3.0170    -0.5520 C.3   1 <1>  -0.2000 
 26 C       -9.9200    -5.4790    -0.5500 C.3   1 <1>  -0.1450 
 27 C      -11.1790    -4.5980     1.4700 C.3   1 <1>  -0.1450 
 28 H       -2.2690    -1.5460    -0.5260 H     1 <1>   0.1500 
 29 H       -3.7180     2.9690     0.7640 H     1 <1>   0.1500 
 30 H       -4.6470    -0.9710    -0.5890 H     1 <1>   0.1500 
 31 H        0.5440     3.4870     1.4260 H     1 <1>   0.0800 
 32 H        0.5810     2.3140     0.1160 H     1 <1>   0.0800 
 33 H        0.3470     1.7770     1.7900 H     1 <1>   0.0800 
 34 H       -9.8580     2.9350    -1.2790 H     1 <1>   0.0800 
 35 H      -10.1890     3.3300     0.3950 H     1 <1>   0.0800 
 36 H      -11.2110     2.1850    -0.4620 H     1 <1>   0.0800 
 37 H       -9.0090     0.3710     1.9220 H     1 <1>   0.0800 
 38 H      -10.4110    -0.1320     1.0060 H     1 <1>   0.0800 
 39 H      -10.4360     1.3740     1.9010 H     1 <1>   0.0800 
 40 H       -7.3910    -3.3390     0.3240 H     1 <1>   0.0800 
 41 H       -8.0750    -3.4670    -1.2670 H     1 <1>   0.0800 
 42 H       -7.8670    -0.0360    -2.1770 H     1 <1>   0.0800 
 43 H       -9.4190    -0.6860    -1.7010 H     1 <1>   0.0800 
 44 H       -8.3180    -1.6490    -2.6690 H     1 <1>   0.0800 
 45 H       -9.5350    -2.4680     1.2160 H     1 <1>   0.1000 
 46 H      -10.6750    -3.0350    -1.6240 H     1 <1>   0.1000 
 47 H      -11.6000    -2.4280    -0.2220 H     1 <1>   0.1000 
 48 H       -9.4400    -5.2190    -1.4750 H     1 <1>   0.0800 
 49 H      -10.7740    -6.0900    -0.7820 H     1 <1>   0.0800 
 50 H       -9.2350    -6.0580     0.0440 H     1 <1>   0.0800 
 51 H      -11.5080    -3.7150     1.9870 H     1 <1>   0.0800 
 52 H      -10.5790    -5.1830     2.1450 H     1 <1>   0.0800 
 53 H      -12.0460    -5.1710     1.1920 H     1 <1>   0.0800 
@<TRIPOS>BOND
  1   1   2  1   
  2   2   3  ar  
  3   2   4  ar  
  4   3   5  1   
  5   3   6  ar  
  6   4   7  ar  
  7   4  28  1   
  8   5   8  1   
  9   6   9  ar  
 10   6  29  1   
 11   7   9  ar  
 12   7  30  1   
 13   8  31  1   
 14   8  32  1   
 15   8  33  1   
 16   9  10  1   
 17  10  11  1   
 18  10  12  2   
 19  11  13  1   
 20  12  14  1   
 21  12  15  1   
 22  13  14  2   
 23  14  16  1   
 24  15  17  2   
 25  15  18  am  
 26  16  19  1   
 27  16  20  1   
 28  18  21  1   
 29  18  22  1   
 30  19  34  1   
 31  19  35  1   
 32  19  36  1   
 33  20  37  1   
 34  20  38  1   
 35  20  39  1   
 36  21  23  1   
 37  21  40  1   
 38  21  41  1   
 39  22  42  1   
 40  22  43  1   
 41  22  44  1   
 42  23  24  1   
 43  23  25  1   
 44  23  45  1   
 45  24  25  1   
 46  24  26  1   
 47  24  27  1   
 48  25  46  1   
 49  25  47  1   
 50  26  48  1   
 51  26  49  1   
 52  26  50  1   
 53  27  51  1   
 54  27  52  1   
 55  27  53  1   
@<TRIPOS>SUBSTRUCTURE
  1 ****  15 GROUP 4 **** **** 0

# MOE 2024.06 (io_trps.svl 2023.06)
