@<TRIPOS>MOLECULE
NONAME
46 49 1 0 0 
SMALL
USER_CHARGES


@<TRIPOS>ATOM
  1 O        3.5150    -1.5830    -1.8270 O.2   1 <1>  -0.5700 
  2 C        2.6610    -1.4330    -0.9730 C.2   1 <1>   0.5440 
  3 N        2.6410    -0.2070    -0.3630 N.am  1 <1>  -0.6600 
  4 C        1.8100    -2.5360    -0.5510 C.ar  1 <1>   0.0860 
  5 C        3.1550    -0.1320     1.0500 C.3   1 <1>   0.2200 
  6 C        2.6760     1.0310    -1.2080 C.3   1 <1>   0.1400 
  7 C        0.5040    -2.3680    -0.0570 C.ar  1 <1>  -0.0230 
  8 C        2.3100    -3.8380    -0.6220 C.ar  1 <1>  -0.1500 
  9 C        2.6780     1.1150     1.8130 C.3   1 <1>   0.1200 
 10 C        4.7040    -0.2220     1.0600 C.3   1 <1>   0.3430 
 11 C        3.7550     2.0570    -0.8110 C.3   1 <1>  -0.0800 
 12 N       -0.1110    -1.0940    -0.0060 N.pl3 1 <1>   0.5930 
 13 C       -0.2220    -3.4700     0.3840 C.ar  1 <1>  -0.1500 
 14 C        1.5760    -4.9270    -0.1940 C.ar  1 <1>  -0.1500 
 15 O        3.5420     2.1900     1.5910 O.3   1 <1>  -0.5600 
 16 N        5.3160     0.0830    -0.2840 N.4   1 <1>  -0.9590 
 17 C        3.3360     2.8890     0.4110 C.3   1 <1>   0.1200 
 18 C        5.1980     1.5190    -0.6900 C.3   1 <1>   0.3430 
 19 N       -0.3330    -0.4150     1.1240 N.2   1 <1>  -0.7070 
 20 C       -0.5590    -0.3380    -1.0220 C.2   1 <1>   0.0360 
 21 C        0.3070    -4.7430     0.3180 C.ar  1 <1>  -0.1500 
 22 C        6.7200    -0.4040    -0.3800 C.3   1 <1>   0.2630 
 23 C       -0.8960     0.6680     0.7060 C.2   1 <1>   0.3660 
 24 N       -1.0460     0.7790    -0.6200 N.2   1 <1>  -0.5650 
 25 H        2.7660    -0.9790     1.5890 H     1 <1>   0.0800 
 26 H        2.8290     0.7520    -2.2380 H     1 <1>   0.0800 
 27 H        1.7080     1.5020    -1.1580 H     1 <1>   0.0800 
 28 H        3.2960    -4.0040    -1.0210 H     1 <1>   0.1500 
 29 H        2.7080     0.9140     2.8690 H     1 <1>   0.0800 
 30 H        1.6700     1.3880     1.5540 H     1 <1>   0.0800 
 31 H        4.9710    -1.2250     1.3460 H     1 <1>   0.0800 
 32 H        5.1010     0.4430     1.8100 H     1 <1>   0.0800 
 33 H        3.7770     2.7690    -1.6170 H     1 <1>   0.0800 
 34 H       -1.2150    -3.3320     0.7830 H     1 <1>   0.1500 
 35 H        1.9900    -5.9210    -0.2590 H     1 <1>   0.1500 
 36 H        4.7310    -0.4550    -0.9650 H     1 <1>   0.4500 
 37 H        2.3030     3.1910     0.3550 H     1 <1>   0.0800 
 38 H        3.9390     3.7800     0.4690 H     1 <1>   0.0800 
 39 H        5.7400     2.1360     0.0100 H     1 <1>   0.0800 
 40 H        5.6700     1.6330    -1.6520 H     1 <1>   0.0800 
 41 H       -0.5000    -0.6620    -2.0450 H     1 <1>   0.1500 
 42 H       -0.2660    -5.5890     0.6600 H     1 <1>   0.1500 
 43 H        7.3470     0.1230     0.3200 H     1 <1>   0.0800 
 44 H        7.1010    -0.2470    -1.3760 H     1 <1>   0.0800 
 45 H        6.7630    -1.4580    -0.1610 H     1 <1>   0.0800 
 46 H       -1.2340     1.4560     1.3630 H     1 <1>   0.1500 
@<TRIPOS>BOND
  1   1   2  2   
  2   2   3  am  
  3   2   4  1   
  4   3   5  1   
  5   3   6  1   
  6   4   7  ar  
  7   4   8  ar  
  8   5   9  1   
  9   5  10  1   
 10   5  25  1   
 11   6  11  1   
 12   6  26  1   
 13   6  27  1   
 14   7  12  1   
 15   7  13  ar  
 16   8  14  ar  
 17   8  28  1   
 18   9  15  1   
 19   9  29  1   
 20   9  30  1   
 21  10  16  1   
 22  10  31  1   
 23  10  32  1   
 24  11  17  1   
 25  11  18  1   
 26  11  33  1   
 27  12  19  1   
 28  12  20  1   
 29  13  21  ar  
 30  13  34  1   
 31  14  21  ar  
 32  14  35  1   
 33  15  17  1   
 34  16  18  1   
 35  16  22  1   
 36  16  36  1   
 37  17  37  1   
 38  17  38  1   
 39  18  39  1   
 40  18  40  1   
 41  19  23  2   
 42  20  24  2   
 43  20  41  1   
 44  21  42  1   
 45  22  43  1   
 46  22  44  1   
 47  22  45  1   
 48  23  24  1   
 49  23  46  1   
@<TRIPOS>SUBSTRUCTURE
  1 ****   3 GROUP 4 **** **** 0

# MOE 2024.06 (io_trps.svl 2023.06)
