@<TRIPOS>MOLECULE
NONAME
47 49 1 0 0 
SMALL
USER_CHARGES


@<TRIPOS>ATOM
  1 CL      -1.1410     0.6030    -0.2850 Cl    1 <1>  -0.1770 
  2 C       -0.6890    -1.0900    -0.4150 C.ar  1 <1>   0.1770 
  3 C        0.6400    -1.4380    -0.5820 C.ar  1 <1>   0.1770 
  4 C       -1.6860    -2.0620    -0.3520 C.ar  1 <1>   0.1170 
  5 CL       1.8840    -0.2110    -0.6560 Cl    1 <1>  -0.1770 
  6 C        1.0120    -2.7650    -0.6960 C.ar  1 <1>  -0.1500 
  7 N       -3.0260    -1.6660    -0.1830 N.am  1 <1>  -0.5470 
  8 C       -1.2960    -3.3950    -0.4780 C.ar  1 <1>  -0.1500 
  9 C        0.0350    -3.7450    -0.6450 C.ar  1 <1>  -0.1500 
 10 C       -4.1400    -2.3320     0.2400 C.2   1 <1>   0.6900 
 11 O       -4.0700    -3.4820     0.6310 O.2   1 <1>  -0.5700 
 12 N       -5.3390    -1.6650     0.2430 N.am  1 <1>  -0.6600 
 13 C       -6.5230    -2.2510     0.9390 C.3   1 <1>   0.1400 
 14 C       -5.5600    -0.3740    -0.4760 C.3   1 <1>   0.1400 
 15 C       -7.3830    -1.1360     1.5390 C.3   1 <1>  -0.1600 
 16 C       -7.0410    -0.1850    -0.8050 C.3   1 <1>  -0.1600 
 17 C       -7.9050    -0.1380     0.4750 C.3   1 <1>   0.2800 
 18 O       -7.6790     1.1480     1.0150 O.3   1 <1>  -0.5600 
 19 C       -9.4220    -0.3820     0.1900 C.3   1 <1>   0.2000 
 20 C       -8.7560     2.0220     1.2000 C.3   1 <1>   0.1200 
 21 O       -9.6540    -1.6040    -0.4520 O.3   1 <1>  -0.6800 
 22 C      -10.1240     0.7990    -0.5450 C.3   1 <1>   0.2800 
 23 C       -9.5270     2.1510    -0.1150 C.3   1 <1>  -0.1600 
 24 O      -11.4470     0.7850    -0.1430 O.3   1 <1>  -0.6800 
 25 C      -10.1730     0.6930    -2.0770 C.3   1 <1>  -0.2400 
 26 H        2.0490    -3.0240    -0.8250 H     1 <1>   0.1500 
 27 H       -3.1840    -0.6630    -0.2420 H     1 <1>   0.3700 
 28 H       -2.0370    -4.1740    -0.4470 H     1 <1>   0.1500 
 29 H        0.3060    -4.7830    -0.7350 H     1 <1>   0.1500 
 30 H       -7.1000    -2.8250     0.2340 H     1 <1>   0.0800 
 31 H       -6.1970    -2.9130     1.7240 H     1 <1>   0.0800 
 32 H       -5.2260     0.4380     0.1470 H     1 <1>   0.0800 
 33 H       -4.9930    -0.3670    -1.3910 H     1 <1>   0.0800 
 34 H       -6.7840    -0.6200     2.2680 H     1 <1>   0.0800 
 35 H       -8.2030    -1.5900     2.0630 H     1 <1>   0.0800 
 36 H       -7.3490    -0.9980    -1.4380 H     1 <1>   0.0800 
 37 H       -7.1650     0.7230    -1.3620 H     1 <1>   0.0800 
 38 H       -9.8950    -0.4720     1.1520 H     1 <1>   0.0800 
 39 H       -9.3800     1.6450     1.9940 H     1 <1>   0.0800 
 40 H       -8.3530     2.9750     1.4990 H     1 <1>   0.0800 
 41 H      -10.6200    -1.7040    -0.5770 H     1 <1>   0.4000 
 42 H       -8.8320     2.5020    -0.8560 H     1 <1>   0.0800 
 43 H      -10.2940     2.8970    -0.0180 H     1 <1>   0.0800 
 44 H      -11.9490     1.4590    -0.6400 H     1 <1>   0.4000 
 45 H       -9.1820     0.6290    -2.4820 H     1 <1>   0.0800 
 46 H      -10.6490     1.5570    -2.5040 H     1 <1>   0.0800 
 47 H      -10.7100    -0.1880    -2.3830 H     1 <1>   0.0800 
@<TRIPOS>BOND
  1   1   2  1   
  2   2   3  ar  
  3   2   4  ar  
  4   3   5  1   
  5   3   6  ar  
  6   4   7  1   
  7   4   8  ar  
  8   6   9  ar  
  9   6  26  1   
 10   7  10  am  
 11   7  27  1   
 12   8   9  ar  
 13   8  28  1   
 14   9  29  1   
 15  10  11  2   
 16  10  12  am  
 17  12  13  1   
 18  12  14  1   
 19  13  15  1   
 20  13  30  1   
 21  13  31  1   
 22  14  16  1   
 23  14  32  1   
 24  14  33  1   
 25  15  17  1   
 26  15  34  1   
 27  15  35  1   
 28  16  17  1   
 29  16  36  1   
 30  16  37  1   
 31  17  18  1   
 32  17  19  1   
 33  18  20  1   
 34  19  21  1   
 35  19  22  1   
 36  19  38  1   
 37  20  23  1   
 38  20  39  1   
 39  20  40  1   
 40  21  41  1   
 41  22  23  1   
 42  22  24  1   
 43  22  25  1   
 44  23  42  1   
 45  23  43  1   
 46  24  44  1   
 47  25  45  1   
 48  25  46  1   
 49  25  47  1   
@<TRIPOS>SUBSTRUCTURE
  1 ****  14 GROUP 4 **** **** 0

# MOE 2024.06 (io_trps.svl 2023.06)
