@<TRIPOS>MOLECULE
NONAME
46 47 1 0 0 
SMALL
USER_CHARGES


@<TRIPOS>ATOM
  1 O        0.4740     1.4380     0.7440 O.2   1 <1>  -0.5700 
  2 C        0.2620     2.5410     0.3080 C.2   1 <1>   0.5690 
  3 N       -0.7490     3.2940     0.7900 N.am  1 <1>  -0.7300 
  4 C        1.1160     3.0970    -0.8310 C.3   1 <1>   0.1810 
  5 C       -1.1340     4.6170     0.2370 C.3   1 <1>   0.3640 
  6 O        1.0640     4.5040    -0.8940 O.3   1 <1>  -0.5600 
  7 C       -2.6140     4.5570    -0.1390 C.ar  1 <1>  -0.1440 
  8 C       -0.2530     5.0490    -0.9700 C.3   1 <1>   0.2610 
  9 C       -3.4540     5.6090     0.1980 C.ar  1 <1>  -0.1500 
 10 C       -3.1450     3.4670    -0.8190 C.ar  1 <1>  -0.1500 
 11 C       -0.1890     6.5790    -1.0230 C.2   1 <1>   0.5690 
 12 C       -4.7980     5.5720    -0.1320 C.ar  1 <1>  -0.1500 
 13 C       -4.4880     3.4280    -1.1490 C.ar  1 <1>  -0.1500 
 14 O       -1.1950     7.1980    -1.2730 O.2   1 <1>  -0.5700 
 15 N        1.0080     7.1730    -0.7560 N.am  1 <1>  -0.7300 
 16 C       -5.3160     4.4810    -0.8050 C.ar  1 <1>  -0.1500 
 17 C        1.4390     8.5790    -0.6700 C.3   1 <1>   0.3000 
 18 C        1.2220     9.0940     0.7740 C.3   1 <1>  -0.1600 
 19 C        2.9420     8.6030    -1.0340 C.3   1 <1>  -0.1600 
 20 C        0.7050     9.4480    -1.7020 C.3   1 <1>  -0.2400 
 21 C       -0.2320     9.1380     1.2780 C.3   1 <1>  -0.2400 
 22 C        3.8810     7.7120    -0.1940 C.3   1 <1>  -0.2400 
 23 H       -1.3580     2.8980     1.5080 H     1 <1>   0.3700 
 24 H        0.7750     2.6980    -1.7690 H     1 <1>   0.0800 
 25 H        2.1410     2.8120    -0.6800 H     1 <1>   0.0800 
 26 H       -1.0080     5.3440     1.0210 H     1 <1>   0.0800 
 27 H       -0.6990     4.7020    -1.8840 H     1 <1>   0.0800 
 28 H       -3.0670     6.4730     0.7110 H     1 <1>   0.1500 
 29 H       -2.5190     2.6360    -1.0960 H     1 <1>   0.1500 
 30 H       -5.4370     6.3960     0.1320 H     1 <1>   0.1500 
 31 H       -4.8900     2.5790    -1.6740 H     1 <1>   0.1500 
 32 H        1.7770     6.5200    -0.5910 H     1 <1>   0.3700 
 33 H       -6.3610     4.4530    -1.0620 H     1 <1>   0.1500 
 34 H        1.7800     8.4790     1.4550 H     1 <1>   0.0800 
 35 H        1.6270    10.0880     0.8430 H     1 <1>   0.0800 
 36 H        3.0470     8.3160    -2.0660 H     1 <1>   0.0800 
 37 H        3.2940     9.6180    -0.9610 H     1 <1>   0.0800 
 38 H        1.0980    10.4480    -1.6900 H     1 <1>   0.0800 
 39 H       -0.3460     9.5110    -1.4960 H     1 <1>   0.0800 
 40 H        0.8330     9.0430    -2.6890 H     1 <1>   0.0800 
 41 H       -0.6740     8.1590     1.2570 H     1 <1>   0.0800 
 42 H       -0.8320     9.7990     0.6790 H     1 <1>   0.0800 
 43 H       -0.2550     9.4950     2.2920 H     1 <1>   0.0800 
 44 H        3.6000     6.6760    -0.2530 H     1 <1>   0.0800 
 45 H        3.8860     8.0150     0.8380 H     1 <1>   0.0800 
 46 H        4.8860     7.8030    -0.5670 H     1 <1>   0.0800 
@<TRIPOS>BOND
  1   1   2  2   
  2   2   3  am  
  3   2   4  1   
  4   3   5  1   
  5   3  23  1   
  6   4   6  1   
  7   4  24  1   
  8   4  25  1   
  9   5   7  1   
 10   5   8  1   
 11   5  26  1   
 12   6   8  1   
 13   7   9  ar  
 14   7  10  ar  
 15   8  11  1   
 16   8  27  1   
 17   9  12  ar  
 18   9  28  1   
 19  10  13  ar  
 20  10  29  1   
 21  11  14  2   
 22  11  15  am  
 23  12  16  ar  
 24  12  30  1   
 25  13  16  ar  
 26  13  31  1   
 27  15  17  1   
 28  15  32  1   
 29  16  33  1   
 30  17  18  1   
 31  17  19  1   
 32  17  20  1   
 33  18  21  1   
 34  18  34  1   
 35  18  35  1   
 36  19  22  1   
 37  19  36  1   
 38  19  37  1   
 39  20  38  1   
 40  20  39  1   
 41  20  40  1   
 42  21  41  1   
 43  21  42  1   
 44  21  43  1   
 45  22  44  1   
 46  22  45  1   
 47  22  46  1   
@<TRIPOS>SUBSTRUCTURE
  1 ****   8 GROUP 4 **** **** 0

# MOE 2024.06 (io_trps.svl 2023.06)
