@<TRIPOS>MOLECULE
NONAME
42 44 1 0 0 
SMALL
USER_CHARGES


@<TRIPOS>ATOM
  1 S       -0.1840     0.5400     0.9210 S.o2  1 <1>   1.0900 
  2 O       -1.3320    -0.2120     0.4730 O.2   1 <1>  -0.6500 
  3 O       -0.1760     1.1030     2.2510 O.2   1 <1>  -0.6500 
  4 C        0.1030     1.8600    -0.2640 C.3   1 <1>   0.0890 
  5 C        1.2480    -0.5130     0.7640 C.3   1 <1>  -0.1350 
  6 C        1.4970     2.4700    -0.1850 C.ar  1 <1>  -0.1440 
  7 C        1.9250     3.1190     0.9650 C.ar  1 <1>   0.1600 
  8 C        2.3630     2.3820    -1.2570 C.ar  1 <1>  -0.1500 
  9 N        3.1200     3.6620     1.1210 N.ar  1 <1>  -0.6200 
 10 C        3.6090     2.9490    -1.1060 C.ar  1 <1>  -0.1500 
 11 C        3.9400     3.5710     0.0880 C.ar  1 <1>   0.1670 
 12 C        5.3120     4.2000     0.2620 C.3   1 <1>  -0.0170 
 13 C        5.2600     5.7160     0.0100 C.3   1 <1>  -0.1600 
 14 C        6.5890     6.4250     0.3040 C.3   1 <1>   0.2000 
 15 O        6.3710     7.8120     0.1320 O.3   1 <1>  -0.3630 
 16 C        7.7470     5.9690    -0.6050 C.3   1 <1>   0.1200 
 17 C        7.4670     8.6080     0.0530 C.ar  1 <1>   0.0830 
 18 O        8.9090     6.7370    -0.3540 O.3   1 <1>  -0.3630 
 19 C        8.7350     8.0710    -0.1760 C.ar  1 <1>   0.0830 
 20 C        7.3140     9.9750     0.2090 C.ar  1 <1>  -0.1500 
 21 C        9.8390     8.9040    -0.2290 C.ar  1 <1>  -0.1500 
 22 C        8.4210    10.8060     0.1490 C.ar  1 <1>  -0.1500 
 23 C        9.6820    10.2710    -0.0670 C.ar  1 <1>  -0.1500 
 24 H       -0.6230     2.6350    -0.1080 H     1 <1>   0.0800 
 25 H       -0.0540     1.4780    -1.2540 H     1 <1>   0.0800 
 26 H        1.1550    -1.3540     1.4230 H     1 <1>   0.0800 
 27 H        2.1420     0.0210     1.0250 H     1 <1>   0.0800 
 28 H        1.3410    -0.8780    -0.2400 H     1 <1>   0.0800 
 29 H        1.2550     3.1960     1.8070 H     1 <1>   0.1500 
 30 H        2.0890     1.8970    -2.1790 H     1 <1>   0.1500 
 31 H        4.3180     2.9110    -1.9130 H     1 <1>   0.1500 
 32 H        6.0050     3.7310    -0.4130 H     1 <1>   0.0800 
 33 H        5.6500     4.0100     1.2670 H     1 <1>   0.0800 
 34 H        4.5040     6.1390     0.6510 H     1 <1>   0.0800 
 35 H        4.9720     5.8990    -1.0100 H     1 <1>   0.0800 
 36 H        6.8610     6.2690     1.3340 H     1 <1>   0.0800 
 37 H        7.4820     6.0940    -1.6390 H     1 <1>   0.0800 
 38 H        7.9970     4.9400    -0.4250 H     1 <1>   0.0800 
 39 H        6.3320    10.3790     0.3780 H     1 <1>   0.1500 
 40 H       10.8130     8.4800    -0.3990 H     1 <1>   0.1500 
 41 H        8.3020    11.8690     0.2710 H     1 <1>   0.1500 
 42 H       10.5400    10.9180    -0.1100 H     1 <1>   0.1500 
@<TRIPOS>BOND
  1   1   2  2   
  2   1   3  2   
  3   1   4  1   
  4   1   5  1   
  5   4   6  1   
  6   4  24  1   
  7   4  25  1   
  8   5  26  1   
  9   5  27  1   
 10   5  28  1   
 11   6   7  ar  
 12   6   8  ar  
 13   7   9  ar  
 14   7  29  1   
 15   8  10  ar  
 16   8  30  1   
 17   9  11  ar  
 18  10  11  ar  
 19  10  31  1   
 20  11  12  1   
 21  12  13  1   
 22  12  32  1   
 23  12  33  1   
 24  13  14  1   
 25  13  34  1   
 26  13  35  1   
 27  14  15  1   
 28  14  16  1   
 29  14  36  1   
 30  15  17  1   
 31  16  18  1   
 32  16  37  1   
 33  16  38  1   
 34  17  19  ar  
 35  17  20  ar  
 36  18  19  1   
 37  19  21  ar  
 38  20  22  ar  
 39  20  39  1   
 40  21  23  ar  
 41  21  40  1   
 42  22  23  ar  
 43  22  41  1   
 44  23  42  1   
@<TRIPOS>SUBSTRUCTURE
  1 ****  13 GROUP 4 **** **** 0

# MOE 2024.06 (io_trps.svl 2023.06)
