@<TRIPOS>MOLECULE
NONAME
51 52 1 0 0 
SMALL
USER_CHARGES


@<TRIPOS>ATOM
  1 O       -1.0950    -0.3770     1.2620 O.2   1 <1>  -0.5700 
  2 C       -1.7560     0.2900     0.5000 C.2   1 <1>   0.5690 
  3 N       -2.6680    -0.3070    -0.3440 N.am  1 <1>  -0.6600 
  4 C       -1.4980     1.8040     0.5600 C.3   1 <1>  -0.0190 
  5 C       -2.7760    -1.8000    -0.3700 C.3   1 <1>   0.2840 
  6 C       -3.5730     0.3960    -1.3100 C.3   1 <1>   0.1400 
  7 C       -2.7210     2.6360     1.0000 C.3   1 <1>  -0.1600 
  8 C       -0.8040     2.3580    -0.7090 C.3   1 <1>  -0.1600 
  9 C       -4.0290    -2.2630     0.3600 C.ar  1 <1>  -0.1440 
 10 C       -4.9980     0.5440    -0.7550 C.3   1 <1>   0.1200 
 11 C       -2.3730     4.1180     1.2400 C.3   1 <1>   0.2000 
 12 C       -1.0920     3.8500    -0.9620 C.3   1 <1>  -0.1600 
 13 C       -4.1740    -2.0130     1.7160 C.ar  1 <1>  -0.1500 
 14 C       -5.0370    -2.9370    -0.3160 C.ar  1 <1>  -0.1500 
 15 O       -5.6590     1.5450    -1.4550 O.3   1 <1>  -0.6800 
 16 O       -3.5260     4.8720     0.9500 O.3   1 <1>  -0.5600 
 17 C       -1.1960     4.6180     0.3590 C.3   1 <1>   0.2000 
 18 C       -5.3140    -2.4200     2.3840 C.ar  1 <1>  -0.1500 
 19 C       -6.1800    -3.3440     0.3500 C.ar  1 <1>  -0.1500 
 20 C       -4.4510     4.9610     1.9900 C.3   1 <1>   0.0400 
 21 O       -1.3850     5.9520     0.0610 O.3   1 <1>  -0.6800 
 22 C       -6.3250    -3.0840     1.7100 C.ar  1 <1>   0.0820 
 23 O       -7.4120    -3.4430     2.4370 O.3   1 <1>  -0.3620 
 24 C       -8.4990    -4.1180     1.8440 C.3   1 <1>   0.0400 
 25 H       -0.7820     1.9330     1.3550 H     1 <1>   0.0800 
 26 H       -2.7950    -2.1370    -1.3910 H     1 <1>   0.0800 
 27 H       -1.9180    -2.2530     0.0950 H     1 <1>   0.0800 
 28 H       -3.1850     1.3680    -1.5370 H     1 <1>   0.0800 
 29 H       -3.6130    -0.1580    -2.2310 H     1 <1>   0.0800 
 30 H       -3.1300     2.2150     1.9020 H     1 <1>   0.0800 
 31 H       -3.4720     2.5970     0.2390 H     1 <1>   0.0800 
 32 H        0.2580     2.2240    -0.5900 H     1 <1>   0.0800 
 33 H       -1.0810     1.7980    -1.5830 H     1 <1>   0.0800 
 34 H       -4.9900     0.8090     0.2880 H     1 <1>   0.0800 
 35 H       -5.5540    -0.3660    -0.8870 H     1 <1>   0.0800 
 36 H       -2.1000     4.2750     2.2700 H     1 <1>   0.0800 
 37 H       -2.0220     3.9490    -1.4940 H     1 <1>   0.0800 
 38 H       -0.3070     4.2700    -1.5680 H     1 <1>   0.0800 
 39 H       -3.3940    -1.5000     2.2530 H     1 <1>   0.1500 
 40 H       -4.9390    -3.1450    -1.3680 H     1 <1>   0.1500 
 41 H       -5.3380     2.4310    -1.1920 H     1 <1>   0.4000 
 42 H       -0.2660     4.5280     0.8940 H     1 <1>   0.0800 
 43 H       -5.4270    -2.2250     3.4350 H     1 <1>   0.1500 
 44 H       -6.9420    -3.8600    -0.2020 H     1 <1>   0.1500 
 45 H       -5.2800     5.5570     1.6500 H     1 <1>   0.0800 
 46 H       -3.9880     5.4380     2.8370 H     1 <1>   0.0800 
 47 H       -4.7980     3.9770     2.2520 H     1 <1>   0.0800 
 48 H       -2.3580     6.0970     0.0950 H     1 <1>   0.4000 
 49 H       -9.2380    -4.2930     2.6060 H     1 <1>   0.0800 
 50 H       -8.1530    -5.0560     1.4480 H     1 <1>   0.0800 
 51 H       -8.9130    -3.4990     1.0690 H     1 <1>   0.0800 
@<TRIPOS>BOND
  1   1   2  2   
  2   2   3  am  
  3   2   4  1   
  4   3   5  1   
  5   3   6  1   
  6   4   7  1   
  7   4   8  1   
  8   4  25  1   
  9   5   9  1   
 10   5  26  1   
 11   5  27  1   
 12   6  10  1   
 13   6  28  1   
 14   6  29  1   
 15   7  11  1   
 16   7  30  1   
 17   7  31  1   
 18   8  12  1   
 19   8  32  1   
 20   8  33  1   
 21   9  13  ar  
 22   9  14  ar  
 23  10  15  1   
 24  10  34  1   
 25  10  35  1   
 26  11  16  1   
 27  11  17  1   
 28  11  36  1   
 29  12  17  1   
 30  12  37  1   
 31  12  38  1   
 32  13  18  ar  
 33  13  39  1   
 34  14  19  ar  
 35  14  40  1   
 36  15  41  1   
 37  16  20  1   
 38  17  21  1   
 39  17  42  1   
 40  18  22  ar  
 41  18  43  1   
 42  19  22  ar  
 43  19  44  1   
 44  20  45  1   
 45  20  46  1   
 46  20  47  1   
 47  21  48  1   
 48  22  23  1   
 49  23  24  1   
 50  24  49  1   
 51  24  50  1   
 52  24  51  1   
@<TRIPOS>SUBSTRUCTURE
  1 ****   3 GROUP 4 **** **** 0

# MOE 2024.06 (io_trps.svl 2023.06)
