@<TRIPOS>MOLECULE
NONAME
46 49 1 0 0 
SMALL
USER_CHARGES


@<TRIPOS>ATOM
  1 CL      -1.1250    -0.4520     2.3110 Cl    1 <1>  -0.1400 
  2 C       -2.0190    -1.1180     0.9600 C.2   1 <1>   0.1540 
  3 C       -2.5490    -0.2200    -0.0180 C.2   1 <1>   0.6160 
  4 C       -2.1940    -2.4620     0.8640 C.2   1 <1>  -0.1500 
  5 O       -2.4450     0.9970     0.0020 O.2   1 <1>  -0.5700 
  6 N       -3.2340    -0.7840    -1.0620 N.am  1 <1>  -0.5390 
  7 C       -2.9260    -3.0190    -0.2320 C.2   1 <1>   0.0140 
  8 C       -3.4130    -2.1410    -1.1730 C.2   1 <1>  -0.0410 
  9 C       -3.1110    -4.4500    -0.3220 C.2   1 <1>   0.6160 
 10 O       -2.2160    -5.1920     0.0390 O.2   1 <1>  -0.5700 
 11 N       -4.2780    -5.0050    -0.8010 N.am  1 <1>  -0.6600 
 12 C       -5.6280    -4.4100    -0.5530 C.3   1 <1>   0.1400 
 13 C       -4.3420    -6.4350    -1.2380 C.3   1 <1>   0.1400 
 14 C       -6.4590    -5.2980     0.3950 C.3   1 <1>   0.1900 
 15 C       -5.2110    -7.2680    -0.2830 C.3   1 <1>   0.1100 
 16 N       -6.5620    -6.6800    -0.1340 N.3   1 <1>  -0.8100 
 17 C       -7.8600    -4.6930     0.6060 C.3   1 <1>   0.1200 
 18 C       -7.4230    -7.5000     0.7540 C.3   1 <1>   0.3330 
 19 O       -8.6130    -5.4960     1.4670 O.3   1 <1>  -0.5600 
 20 C       -7.6610    -8.8860     0.1580 C.ar  1 <1>  -0.1430 
 21 C       -8.7810    -6.8060     0.9930 C.3   1 <1>   0.1200 
 22 C       -7.5140   -10.0180     0.9470 C.ar  1 <1>  -0.1500 
 23 C       -8.0310    -9.0360    -1.1720 C.ar  1 <1>  -0.1500 
 24 C       -7.7340   -11.2780     0.4170 C.ar  1 <1>  -0.1500 
 25 C       -8.2520   -10.2940    -1.7040 C.ar  1 <1>  -0.1500 
 26 C       -8.1030   -11.4170    -0.9090 C.ar  1 <1>  -0.1500 
 27 H       -1.7870    -3.1340     1.6000 H     1 <1>   0.1500 
 28 H       -3.5760    -0.1110    -1.7530 H     1 <1>   0.3700 
 29 H       -3.9490    -2.5030    -2.0380 H     1 <1>   0.1500 
 30 H       -5.5340    -3.4330    -0.1150 H     1 <1>   0.0800 
 31 H       -6.1460    -4.3110    -1.4910 H     1 <1>   0.0800 
 32 H       -4.7660    -6.4830    -2.2260 H     1 <1>   0.0800 
 33 H       -3.3550    -6.8620    -1.2850 H     1 <1>   0.0800 
 34 H       -5.9620    -5.3170     1.3500 H     1 <1>   0.0800 
 35 H       -4.7230    -7.3280     0.6760 H     1 <1>   0.0800 
 36 H       -5.2880    -8.2660    -0.6790 H     1 <1>   0.0800 
 37 H       -8.3840    -4.6070    -0.3300 H     1 <1>   0.0800 
 38 H       -7.7850    -3.7190     1.0560 H     1 <1>   0.0800 
 39 H       -6.9370    -7.6090     1.7080 H     1 <1>   0.0800 
 40 H       -9.3470    -7.3520     1.7260 H     1 <1>   0.0800 
 41 H       -9.3480    -6.7710     0.0790 H     1 <1>   0.0800 
 42 H       -7.2280    -9.9260     1.9800 H     1 <1>   0.1500 
 43 H       -8.1410    -8.1650    -1.7950 H     1 <1>   0.1500 
 44 H       -7.6180   -12.1500     1.0360 H     1 <1>   0.1500 
 45 H       -8.5370   -10.3990    -2.7360 H     1 <1>   0.1500 
 46 H       -8.2740   -12.3950    -1.3220 H     1 <1>   0.1500 
@<TRIPOS>BOND
  1   1   2  1   
  2   2   3  1   
  3   2   4  2   
  4   3   5  2   
  5   3   6  am  
  6   4   7  1   
  7   4  27  1   
  8   6   8  1   
  9   6  28  1   
 10   7   8  2   
 11   7   9  1   
 12   8  29  1   
 13   9  10  2   
 14   9  11  am  
 15  11  12  1   
 16  11  13  1   
 17  12  14  1   
 18  12  30  1   
 19  12  31  1   
 20  13  15  1   
 21  13  32  1   
 22  13  33  1   
 23  14  16  1   
 24  14  17  1   
 25  14  34  1   
 26  15  16  1   
 27  15  35  1   
 28  15  36  1   
 29  16  18  1   
 30  17  19  1   
 31  17  37  1   
 32  17  38  1   
 33  18  20  1   
 34  18  21  1   
 35  18  39  1   
 36  19  21  1   
 37  20  22  ar  
 38  20  23  ar  
 39  21  40  1   
 40  21  41  1   
 41  22  24  ar  
 42  22  42  1   
 43  23  25  ar  
 44  23  43  1   
 45  24  26  ar  
 46  24  44  1   
 47  25  26  ar  
 48  25  45  1   
 49  26  46  1   
@<TRIPOS>SUBSTRUCTURE
  1 ****  12 GROUP 4 **** **** 0

# MOE 2024.06 (io_trps.svl 2023.06)
