@<TRIPOS>MOLECULE
NONAME
48 49 1 0 0 
SMALL
USER_CHARGES


@<TRIPOS>ATOM
  1 S        0.4410     0.1440     0.8390 S.o2  1 <1>   1.3330 
  2 O       -0.4040     0.3830     1.9880 O.2   1 <1>  -0.6500 
  3 O        1.8780     0.1480     0.9910 O.2   1 <1>  -0.6500 
  4 N       -0.0070    -1.3370     0.1420 N.am  1 <1>  -0.8490 
  5 C       -0.0130     1.3330    -0.4220 C.3   1 <1>  -0.0550 
  6 C        1.0140    -1.8910    -0.7550 C.3   1 <1>   0.1160 
  7 C       -0.3800    -2.3350     1.1490 C.3   1 <1>   0.1160 
  8 C        0.1920     2.7930     0.0180 C.3   1 <1>  -0.0800 
  9 C       -0.2950     3.7880    -1.0320 C.3   1 <1>   0.2000 
 10 C        1.6530     3.1860     0.2500 C.3   1 <1>   0.1400 
 11 O       -1.6620     3.9720    -0.9150 O.3   1 <1>  -0.6800 
 12 C        0.4790     5.0770    -0.7620 C.3   1 <1>   0.1400 
 13 N        1.7140     4.6330    -0.0700 N.am  1 <1>  -0.6600 
 14 C        2.7930     5.4100     0.2450 C.2   1 <1>   0.5690 
 15 O        3.7680     4.9410     0.7820 O.2   1 <1>  -0.5700 
 16 C        2.7670     6.8940    -0.0910 C.3   1 <1>  -0.0990 
 17 C        3.9970     7.6660     0.4060 C.3   1 <1>  -0.0170 
 18 C        3.8780     9.1390     0.0460 C.ar  1 <1>  -0.1440 
 19 C        4.3380     9.5960    -1.1810 C.ar  1 <1>  -0.1500 
 20 C        3.3070    10.0350     0.9380 C.ar  1 <1>  -0.1500 
 21 C        4.2280    10.9340    -1.5140 C.ar  1 <1>  -0.1500 
 22 C        3.1950    11.3750     0.6100 C.ar  1 <1>  -0.1500 
 23 C        3.6570    11.8200    -0.6180 C.ar  1 <1>   0.0820 
 24 O        3.5570    13.1160    -0.9500 O.3   1 <1>  -0.5330 
 25 H        0.5530     1.1450    -1.3120 H     1 <1>   0.0800 
 26 H       -1.0510     1.1940    -0.6590 H     1 <1>   0.0800 
 27 H        0.6410    -2.7800    -1.2350 H     1 <1>   0.0800 
 28 H        1.9060    -2.1390    -0.2020 H     1 <1>   0.0800 
 29 H        1.2680    -1.1750    -1.5170 H     1 <1>   0.0800 
 30 H       -0.6730    -3.2550     0.6730 H     1 <1>   0.0800 
 31 H       -1.2140    -1.9780     1.7300 H     1 <1>   0.0800 
 32 H        0.4470    -2.5250     1.8120 H     1 <1>   0.0800 
 33 H       -0.3340     2.9640     0.9430 H     1 <1>   0.0800 
 34 H       -0.0830     3.4410    -2.0290 H     1 <1>   0.0800 
 35 H        2.3130     2.6540    -0.4150 H     1 <1>   0.0800 
 36 H        1.9600     3.0050     1.2680 H     1 <1>   0.0800 
 37 H       -1.9020     4.2080     0.0030 H     1 <1>   0.4000 
 38 H       -0.0770     5.7300    -0.1120 H     1 <1>   0.0800 
 39 H        0.7190     5.5770    -1.6840 H     1 <1>   0.0800 
 40 H        2.6990     6.9990    -1.1580 H     1 <1>   0.0800 
 41 H        1.8880     7.3270     0.3480 H     1 <1>   0.0800 
 42 H        4.8880     7.2550    -0.0370 H     1 <1>   0.0800 
 43 H        4.0880     7.5570     1.4730 H     1 <1>   0.0800 
 44 H        4.7850     8.9120    -1.8810 H     1 <1>   0.1500 
 45 H        2.9490     9.6900     1.8920 H     1 <1>   0.1500 
 46 H        4.5820    11.2970    -2.4620 H     1 <1>   0.1500 
 47 H        2.7520    12.0610     1.3080 H     1 <1>   0.1500 
 48 H        3.1560    13.6590    -0.2490 H     1 <1>   0.4500 
@<TRIPOS>BOND
  1   1   2  2   
  2   1   3  2   
  3   1   4  am  
  4   1   5  1   
  5   4   6  1   
  6   4   7  1   
  7   5   8  1   
  8   5  25  1   
  9   5  26  1   
 10   6  27  1   
 11   6  28  1   
 12   6  29  1   
 13   7  30  1   
 14   7  31  1   
 15   7  32  1   
 16   8   9  1   
 17   8  10  1   
 18   8  33  1   
 19   9  11  1   
 20   9  12  1   
 21   9  34  1   
 22  10  13  1   
 23  10  35  1   
 24  10  36  1   
 25  11  37  1   
 26  12  13  1   
 27  12  38  1   
 28  12  39  1   
 29  13  14  am  
 30  14  15  2   
 31  14  16  1   
 32  16  17  1   
 33  16  40  1   
 34  16  41  1   
 35  17  18  1   
 36  17  42  1   
 37  17  43  1   
 38  18  19  ar  
 39  18  20  ar  
 40  19  21  ar  
 41  19  44  1   
 42  20  22  ar  
 43  20  45  1   
 44  21  23  ar  
 45  21  46  1   
 46  22  23  ar  
 47  22  47  1   
 48  23  24  1   
 49  24  48  1   
@<TRIPOS>SUBSTRUCTURE
  1 ****  13 GROUP 4 **** **** 0

# MOE 2024.06 (io_trps.svl 2023.06)
