@<TRIPOS>MOLECULE
NONAME
52 55 1 0 0 
SMALL
USER_CHARGES


@<TRIPOS>ATOM
  1 O        0.7000     0.8710     1.2900 O.3   1 <1>  -0.0190 
  2 N        1.4690    -0.1690     1.1490 N.2   1 <1>  -0.4100 
  3 C        0.9290     1.7760     0.3760 C.2   1 <1>  -0.0400 
  4 C        2.2040     0.0660     0.1240 C.2   1 <1>   0.1080 
  5 C        1.9020     1.3100    -0.4240 C.2   1 <1>  -0.1500 
  6 C        0.1140     3.0580     0.4040 C.3   1 <1>   0.0200 
  7 C        3.2520    -0.8860    -0.4070 C.3   1 <1>  -0.0590 
  8 C        0.7080     4.1640    -0.4890 C.3   1 <1>  -0.0800 
  9 C       -0.1210     5.4480    -0.5730 C.3   1 <1>   0.2000 
 10 C        2.0980     4.6390    -0.0440 C.3   1 <1>   0.2090 
 11 O       -0.5580     5.8150     0.6920 O.3   1 <1>  -0.6800 
 12 C        0.8870     6.4930    -1.0470 C.3   1 <1>   0.2090 
 13 N        2.1790     6.0900    -0.4090 N.pl3 1 <1>  -0.8380 
 14 C        3.2580     6.8420    -0.1100 C.ar  1 <1>   0.7710 
 15 N        4.2800     6.2650     0.5140 N.ar  1 <1>  -0.6200 
 16 N        3.2770     8.1360    -0.4410 N.ar  1 <1>  -0.1790 
 17 C        5.3230     6.9890     0.8060 C.ar  1 <1>   0.4100 
 18 C        4.3420     8.9560    -0.1640 C.ar  1 <1>   0.3610 
 19 N        6.3010     6.3360     1.4400 N.pl3 1 <1>  -0.9000 
 20 C        5.4340     8.3780     0.4850 C.ar  1 <1>   0.0000 
 21 C        4.3490    10.3070    -0.5030 C.ar  1 <1>  -0.1500 
 22 C        6.5420     9.1920     0.7650 C.ar  1 <1>  -0.1500 
 23 C        5.4320    11.1010    -0.2070 C.ar  1 <1>   0.0820 
 24 C        6.5570    10.5220     0.4150 C.ar  1 <1>   0.0820 
 25 O        5.3260    12.4050    -0.5430 O.3   1 <1>  -0.3620 
 26 O        7.6770    11.2280     0.6830 O.3   1 <1>  -0.3620 
 27 C        5.7960    13.4140     0.3290 C.3   1 <1>   0.0400 
 28 C        8.5590    11.4130    -0.4030 C.3   1 <1>   0.0400 
 29 H        2.3680     1.7430    -1.2890 H     1 <1>   0.1500 
 30 H       -0.8890     2.8320     0.0840 H     1 <1>   0.0800 
 31 H        0.0580     3.3970     1.4230 H     1 <1>   0.0800 
 32 H        4.2240    -0.4370    -0.3330 H     1 <1>   0.0800 
 33 H        3.0450    -1.1220    -1.4350 H     1 <1>   0.0800 
 34 H        3.2440    -1.7960     0.1670 H     1 <1>   0.0800 
 35 H        0.8010     3.7750    -1.4880 H     1 <1>   0.0800 
 36 H       -0.9790     5.3640    -1.2200 H     1 <1>   0.0800 
 37 H        2.8770     4.0780    -0.5350 H     1 <1>   0.0800 
 38 H        2.2120     4.5300     1.0220 H     1 <1>   0.0800 
 39 H        0.1970     5.8520     1.3120 H     1 <1>   0.4000 
 40 H        0.5680     7.4820    -0.7640 H     1 <1>   0.0800 
 41 H        0.9840     6.4320    -2.1180 H     1 <1>   0.0800 
 42 H        2.4640     8.5000    -0.9160 H     1 <1>   0.4570 
 43 H        6.1960     5.3420     1.6620 H     1 <1>   0.4000 
 44 H        7.1820     6.7470     1.7540 H     1 <1>   0.4000 
 45 H        3.5060    10.7590    -0.9950 H     1 <1>   0.1500 
 46 H        7.4050     8.7790     1.2560 H     1 <1>   0.1500 
 47 H        5.2670    14.3230     0.1070 H     1 <1>   0.0800 
 48 H        6.8470    13.5610     0.1660 H     1 <1>   0.0800 
 49 H        5.6100    13.1200     1.3470 H     1 <1>   0.0800 
 50 H        9.3860    12.0120    -0.0670 H     1 <1>   0.0800 
 51 H        8.0380    11.9180    -1.1980 H     1 <1>   0.0800 
 52 H        8.9110    10.4530    -0.7360 H     1 <1>   0.0800 
@<TRIPOS>BOND
  1   1   2  1   
  2   1   3  1   
  3   2   4  2   
  4   3   5  2   
  5   3   6  1   
  6   4   5  1   
  7   4   7  1   
  8   5  29  1   
  9   6   8  1   
 10   6  30  1   
 11   6  31  1   
 12   7  32  1   
 13   7  33  1   
 14   7  34  1   
 15   8   9  1   
 16   8  10  1   
 17   8  35  1   
 18   9  11  1   
 19   9  12  1   
 20   9  36  1   
 21  10  13  1   
 22  10  37  1   
 23  10  38  1   
 24  11  39  1   
 25  12  13  1   
 26  12  40  1   
 27  12  41  1   
 28  13  14  1   
 29  14  15  ar  
 30  14  16  ar  
 31  15  17  ar  
 32  16  18  ar  
 33  16  42  1   
 34  17  19  1   
 35  17  20  ar  
 36  18  20  ar  
 37  18  21  ar  
 38  19  43  1   
 39  19  44  1   
 40  20  22  ar  
 41  21  23  ar  
 42  21  45  1   
 43  22  24  ar  
 44  22  46  1   
 45  23  24  ar  
 46  23  25  1   
 47  24  26  1   
 48  25  27  1   
 49  26  28  1   
 50  27  47  1   
 51  27  48  1   
 52  27  49  1   
 53  28  50  1   
 54  28  51  1   
 55  28  52  1   
@<TRIPOS>SUBSTRUCTURE
  1 ****  14 GROUP 4 **** **** 0

# MOE 2024.06 (io_trps.svl 2023.06)
