@<TRIPOS>MOLECULE
NONAME
48 52 1 0 0 
SMALL
USER_CHARGES


@<TRIPOS>ATOM
  1 O       -0.0410    -0.2770     0.7430 O.3   1 <1>  -0.0190 
  2 N        0.4070     0.7820     0.1430 N.2   1 <1>  -0.4100 
  3 C        0.8570    -1.1960     0.4840 C.2   1 <1>   0.2980 
  4 C        1.5040     0.4570    -0.4170 C.2   1 <1>   0.4300 
  5 N        1.8450    -0.8080    -0.2220 N.2   1 <1>  -0.5650 
  6 C        0.6680    -2.5990     1.0560 C.3   1 <1>   0.2900 
  7 C        2.3840     1.3830    -1.2420 C.3   1 <1>  -0.0140 
  8 N       -0.4980    -3.3220     0.4950 N.3   1 <1>  -0.8100 
  9 C        3.6150     1.9910    -0.6390 C.3   1 <1>  -0.2000 
 10 C        2.4410     2.8590    -0.9800 C.3   1 <1>  -0.2000 
 11 C       -1.8230    -2.8040     0.8980 C.3   1 <1>   0.1100 
 12 C       -0.4690    -4.7700     0.7380 C.3   1 <1>   0.1100 
 13 C       -2.6000    -3.9840     1.4850 C.3   1 <1>   0.2000 
 14 C       -1.9330    -5.1950     0.8360 C.3   1 <1>  -0.0800 
 15 O       -2.3860    -4.0060     2.8560 O.3   1 <1>  -0.6800 
 16 C       -2.1540    -6.5440     1.5500 C.3   1 <1>  -0.0170 
 17 C       -1.4080    -7.6730     0.8440 C.ar  1 <1>  -0.1440 
 18 C       -1.8650    -8.2480    -0.3660 C.ar  1 <1>   0.0000 
 19 C       -0.2480    -8.1570     1.3730 C.ar  1 <1>  -0.1500 
 20 C       -1.0700    -9.2640    -0.9520 C.ar  1 <1>   0.3100 
 21 C       -3.0600    -7.8800    -1.0270 C.ar  1 <1>  -0.1500 
 22 C        0.4570    -9.1740     0.7170 C.ar  1 <1>   0.1600 
 23 N        0.0840    -9.7140    -0.3990 N.ar  1 <1>  -0.6200 
 24 C       -1.4880    -9.8420    -2.1610 C.ar  1 <1>  -0.1500 
 25 C       -3.4410    -8.4650    -2.2040 C.ar  1 <1>  -0.1500 
 26 C       -2.6450    -9.4570    -2.7820 C.ar  1 <1>  -0.1500 
 27 H        0.5780    -2.5330     2.1260 H     1 <1>   0.0800 
 28 H        1.5600    -3.1580     0.8310 H     1 <1>   0.0800 
 29 H        2.4450     1.0590    -2.2650 H     1 <1>   0.1000 
 30 H        3.8290     1.7900     0.3970 H     1 <1>   0.1000 
 31 H        4.5040     2.0490    -1.2420 H     1 <1>   0.1000 
 32 H        2.5100     3.5260    -1.8210 H     1 <1>   0.1000 
 33 H        1.8450     3.2630    -0.1800 H     1 <1>   0.1000 
 34 H       -1.7600    -1.9930     1.6030 H     1 <1>   0.0800 
 35 H       -2.3260    -2.4520     0.0130 H     1 <1>   0.0800 
 36 H        0.0360    -5.2810    -0.0660 H     1 <1>   0.0800 
 37 H        0.0350    -4.9840     1.6660 H     1 <1>   0.0800 
 38 H       -3.6590    -3.9250     1.3030 H     1 <1>   0.0800 
 39 H       -2.3030    -5.2700    -0.1700 H     1 <1>   0.0800 
 40 H       -1.4310    -3.9170     3.0250 H     1 <1>   0.4000 
 41 H       -3.2050    -6.7680     1.5970 H     1 <1>   0.0800 
 42 H       -1.8090    -6.4790     2.5670 H     1 <1>   0.0800 
 43 H        0.1560    -7.7770     2.2930 H     1 <1>   0.1500 
 44 H       -3.6900    -7.1250    -0.5970 H     1 <1>   0.1500 
 45 H        1.3680    -9.5280     1.1700 H     1 <1>   0.1500 
 46 H       -0.8620   -10.6050    -2.5860 H     1 <1>   0.1500 
 47 H       -4.3520    -8.1740    -2.6970 H     1 <1>   0.1500 
 48 H       -2.9530    -9.9080    -3.7090 H     1 <1>   0.1500 
@<TRIPOS>BOND
  1   1   2  1   
  2   1   3  1   
  3   2   4  2   
  4   3   5  2   
  5   3   6  1   
  6   4   5  1   
  7   4   7  1   
  8   6   8  1   
  9   6  27  1   
 10   6  28  1   
 11   7   9  1   
 12   7  10  1   
 13   7  29  1   
 14   8  11  1   
 15   8  12  1   
 16   9  10  1   
 17   9  30  1   
 18   9  31  1   
 19  10  32  1   
 20  10  33  1   
 21  11  13  1   
 22  11  34  1   
 23  11  35  1   
 24  12  14  1   
 25  12  36  1   
 26  12  37  1   
 27  13  14  1   
 28  13  15  1   
 29  13  38  1   
 30  14  16  1   
 31  14  39  1   
 32  15  40  1   
 33  16  17  1   
 34  16  41  1   
 35  16  42  1   
 36  17  18  ar  
 37  17  19  ar  
 38  18  20  ar  
 39  18  21  ar  
 40  19  22  ar  
 41  19  43  1   
 42  20  23  ar  
 43  20  24  ar  
 44  21  25  ar  
 45  21  44  1   
 46  22  23  ar  
 47  22  45  1   
 48  24  26  ar  
 49  24  46  1   
 50  25  26  ar  
 51  25  47  1   
 52  26  48  1   
@<TRIPOS>SUBSTRUCTURE
  1 ****  12 GROUP 4 **** **** 0

# MOE 2024.06 (io_trps.svl 2023.06)
