@<TRIPOS>MOLECULE
NONAME
41 42 1 0 0 
SMALL
USER_CHARGES


@<TRIPOS>ATOM
  1 S        0.3730    -0.0620     0.6600 S.o2  1 <1>   1.3330 
  2 O        1.7430    -0.0040     1.1200 O.2   1 <1>  -0.6500 
  3 O       -0.7060    -0.0610     1.6220 O.2   1 <1>  -0.6500 
  4 N        0.2120    -1.4330    -0.3280 N.am  1 <1>  -0.8490 
  5 C        0.0830     1.2880    -0.4800 C.3   1 <1>  -0.0550 
  6 C       -0.2770    -2.5990     0.4140 C.3   1 <1>   0.1160 
  7 C        1.4410    -1.7800    -1.0500 C.3   1 <1>   0.1160 
  8 C        0.0760     2.6660     0.2030 C.3   1 <1>  -0.0800 
  9 C       -0.2720     3.7910    -0.7650 C.3   1 <1>   0.2000 
 10 C        1.4280     3.0860     0.7880 C.3   1 <1>   0.1400 
 11 O       -1.6450     3.8790    -0.9190 O.3   1 <1>  -0.6800 
 12 C        0.3150     5.0520    -0.1380 C.3   1 <1>   0.1400 
 13 N        1.4610     4.5660     0.6710 N.am  1 <1>  -0.6600 
 14 C        2.6050     5.2940     0.9180 C.2   1 <1>   0.7150 
 15 O        3.6220     4.6820     1.1930 O.2   1 <1>  -0.5700 
 16 C        2.6390     6.7370     0.8280 C.2   1 <1>  -0.0450 
 17 S        1.2980     7.6650     1.5160 S.3   1 <1>  -0.0800 
 18 C        3.5520     7.6100     0.3200 C.2   1 <1>  -0.1810 
 19 C        2.0260     9.1910     1.0750 C.2   1 <1>  -0.1100 
 20 C        3.2020     8.9870     0.4580 C.2   1 <1>  -0.1500 
 21 C        4.8630     7.2380    -0.3520 C.3   1 <1>  -0.0590 
 22 H        0.8290     1.2750    -1.2500 H     1 <1>   0.0800 
 23 H       -0.8710     1.1370    -0.9480 H     1 <1>   0.0800 
 24 H       -0.3830    -3.4430    -0.2450 H     1 <1>   0.0800 
 25 H       -1.2410    -2.3860     0.8430 H     1 <1>   0.0800 
 26 H        0.4070    -2.8510     1.2070 H     1 <1>   0.0800 
 27 H        1.2540    -2.5960    -1.7270 H     1 <1>   0.0800 
 28 H        2.2160    -2.0680    -0.3590 H     1 <1>   0.0800 
 29 H        1.7860    -0.9360    -1.6230 H     1 <1>   0.0800 
 30 H       -0.6350     2.6600     1.0130 H     1 <1>   0.0800 
 31 H        0.1690     3.6280    -1.7340 H     1 <1>   0.0800 
 32 H        2.2440     2.6690     0.2210 H     1 <1>   0.0800 
 33 H        1.5270     2.7850     1.8180 H     1 <1>   0.0800 
 34 H       -2.0840     3.9860    -0.0530 H     1 <1>   0.4000 
 35 H       -0.4010     5.5210     0.5140 H     1 <1>   0.0800 
 36 H        0.6430     5.7440    -0.8950 H     1 <1>   0.0800 
 37 H        1.4940    10.0910     1.3280 H     1 <1>   0.1500 
 38 H        3.8480     9.7650     0.0900 H     1 <1>   0.1500 
 39 H        4.9100     7.6730    -1.3340 H     1 <1>   0.0800 
 40 H        4.9630     6.1720    -0.4470 H     1 <1>   0.0800 
 41 H        5.6870     7.6050     0.2320 H     1 <1>   0.0800 
@<TRIPOS>BOND
  1   1   2  2   
  2   1   3  2   
  3   1   4  am  
  4   1   5  1   
  5   4   6  1   
  6   4   7  1   
  7   5   8  1   
  8   5  22  1   
  9   5  23  1   
 10   6  24  1   
 11   6  25  1   
 12   6  26  1   
 13   7  27  1   
 14   7  28  1   
 15   7  29  1   
 16   8   9  1   
 17   8  10  1   
 18   8  30  1   
 19   9  11  1   
 20   9  12  1   
 21   9  31  1   
 22  10  13  1   
 23  10  32  1   
 24  10  33  1   
 25  11  34  1   
 26  12  13  1   
 27  12  35  1   
 28  12  36  1   
 29  13  14  am  
 30  14  15  2   
 31  14  16  1   
 32  16  17  1   
 33  16  18  2   
 34  17  19  1   
 35  18  20  1   
 36  18  21  1   
 37  19  20  2   
 38  19  37  1   
 39  20  38  1   
 40  21  39  1   
 41  21  40  1   
 42  21  41  1   
@<TRIPOS>SUBSTRUCTURE
  1 ****  10 GROUP 4 **** **** 0

# MOE 2024.06 (io_trps.svl 2023.06)
