@<TRIPOS>MOLECULE
NONAME
51 55 1 0 0 
SMALL
USER_CHARGES


@<TRIPOS>ATOM
  1 O       -0.7040     0.4640    -1.6500 O.2   1 <1>  -0.5700 
  2 C       -1.3730     0.9910    -0.7850 C.2   1 <1>   0.5440 
  3 N       -2.2230     0.2150    -0.0280 N.am  1 <1>  -0.6600 
  4 C       -1.2780     2.4150    -0.5870 C.ar  1 <1>   0.0860 
  5 C       -2.2450    -1.2820    -0.1280 C.3   1 <1>   0.1400 
  6 C       -3.3700     0.7590     0.7660 C.3   1 <1>   0.1400 
  7 C       -0.7910     2.9760     0.5970 C.ar  1 <1>   0.0000 
  8 C       -1.6770     3.3310    -1.5440 C.ar  1 <1>  -0.1500 
  9 C       -3.6410    -1.7980    -0.5250 C.3   1 <1>   0.3440 
 10 C       -4.7020     0.1330     0.3080 C.3   1 <1>   0.2950 
 11 C       -0.8040     4.3400     0.7330 C.ar  1 <1>   0.3970 
 12 C       -0.2330     2.5520     1.8170 C.2   1 <1>   0.1080 
 13 C       -1.6280     4.7050    -1.2950 C.ar  1 <1>   0.1670 
 14 O       -4.6170    -1.2610     0.3310 O.3   1 <1>  -0.5600 
 15 C       -3.6830    -3.3220    -0.4620 C.ar  1 <1>  -0.1440 
 16 C       -5.8560     0.5400     1.2280 C.3   1 <1>  -0.1950 
 17 O       -0.3300     4.6310     1.9320 O.3   1 <1>  -0.0190 
 18 N       -1.2130     5.2350    -0.1680 N.ar  1 <1>  -0.5670 
 19 N        0.0160     3.5450     2.5850 N.2   1 <1>  -0.4100 
 20 C        0.0670     1.1160     2.1960 C.3   1 <1>  -0.0590 
 21 C       -2.0770     5.6790    -2.3650 C.3   1 <1>  -0.0970 
 22 C       -4.0420    -3.9910     0.7010 C.ar  1 <1>  -0.1500 
 23 C       -3.3420    -4.0630    -1.5850 C.ar  1 <1>  -0.1500 
 24 C       -7.2740     0.5000     0.7550 C.3   1 <1>  -0.2000 
 25 C       -6.6020     1.8200     1.0120 C.3   1 <1>  -0.2000 
 26 C       -4.0570    -5.3750     0.7410 C.ar  1 <1>  -0.1500 
 27 C       -3.3570    -5.4460    -1.5470 C.ar  1 <1>  -0.1500 
 28 C       -3.7140    -6.1040    -0.3830 C.ar  1 <1>  -0.1500 
 29 H       -1.5260    -1.6290    -0.8490 H     1 <1>   0.0800 
 30 H       -1.9770    -1.7040     0.8240 H     1 <1>   0.0800 
 31 H       -3.2180     0.5360     1.8070 H     1 <1>   0.0800 
 32 H       -3.4390     1.8270     0.6640 H     1 <1>   0.0800 
 33 H       -2.0320     2.9710    -2.4930 H     1 <1>   0.1500 
 34 H       -3.8700    -1.4810    -1.5280 H     1 <1>   0.0800 
 35 H       -4.9220     0.4390    -0.7010 H     1 <1>   0.0800 
 36 H       -5.6770     0.2460     2.2480 H     1 <1>   0.1000 
 37 H        0.5350     0.6050     1.3730 H     1 <1>   0.0800 
 38 H       -0.8390     0.6050     2.4610 H     1 <1>   0.0800 
 39 H        0.7350     1.0910     3.0380 H     1 <1>   0.0800 
 40 H       -2.3980     5.1670    -3.2530 H     1 <1>   0.0800 
 41 H       -1.2630     6.3330    -2.6180 H     1 <1>   0.0800 
 42 H       -2.8920     6.2730    -1.9930 H     1 <1>   0.0800 
 43 H       -4.3150    -3.4350     1.5810 H     1 <1>   0.1500 
 44 H       -3.0610    -3.5680    -2.4980 H     1 <1>   0.1500 
 45 H       -7.4710     0.1970    -0.2600 H     1 <1>   0.1000 
 46 H       -8.0300     0.1540     1.4390 H     1 <1>   0.1000 
 47 H       -6.9110     2.3930     1.8690 H     1 <1>   0.1000 
 48 H       -6.3690     2.4420     0.1640 H     1 <1>   0.1000 
 49 H       -4.3380    -5.8820     1.6470 H     1 <1>   0.1500 
 50 H       -3.0910    -6.0120    -2.4230 H     1 <1>   0.1500 
 51 H       -3.7270    -7.1790    -0.3530 H     1 <1>   0.1500 
@<TRIPOS>BOND
  1   1   2  2   
  2   2   3  am  
  3   2   4  1   
  4   3   5  1   
  5   3   6  1   
  6   4   7  ar  
  7   4   8  ar  
  8   5   9  1   
  9   5  29  1   
 10   5  30  1   
 11   6  10  1   
 12   6  31  1   
 13   6  32  1   
 14   7  11  ar  
 15   7  12  1   
 16   8  13  ar  
 17   8  33  1   
 18   9  14  1   
 19   9  15  1   
 20   9  34  1   
 21  10  14  1   
 22  10  16  1   
 23  10  35  1   
 24  11  17  1   
 25  11  18  ar  
 26  12  19  2   
 27  12  20  1   
 28  13  18  ar  
 29  13  21  1   
 30  15  22  ar  
 31  15  23  ar  
 32  16  24  1   
 33  16  25  1   
 34  16  36  1   
 35  17  19  1   
 36  20  37  1   
 37  20  38  1   
 38  20  39  1   
 39  21  40  1   
 40  21  41  1   
 41  21  42  1   
 42  22  26  ar  
 43  22  43  1   
 44  23  27  ar  
 45  23  44  1   
 46  24  25  1   
 47  24  45  1   
 48  24  46  1   
 49  25  47  1   
 50  25  48  1   
 51  26  28  ar  
 52  26  49  1   
 53  27  28  ar  
 54  27  50  1   
 55  28  51  1   
@<TRIPOS>SUBSTRUCTURE
  1 ****   3 GROUP 4 **** **** 0

# MOE 2024.06 (io_trps.svl 2023.06)
