@<TRIPOS>MOLECULE
NONAME
44 47 1 0 0 
SMALL
USER_CHARGES


@<TRIPOS>ATOM
  1 O       -0.9020     0.0720     1.5070 O.2   1 <1>  -0.5700 
  2 C       -1.6760     0.8800     1.0200 C.2   1 <1>   0.5440 
  3 N       -2.8320     0.3830     0.4280 N.am  1 <1>  -0.6600 
  4 C       -1.3460     2.3040     1.1240 C.ar  1 <1>   0.3960 
  5 C       -4.0040     1.2530     0.1150 C.3   1 <1>   0.2200 
  6 C       -2.9520    -1.0790     0.1330 C.3   1 <1>   0.0600 
  7 N       -1.6300     3.1690     0.1710 N.ar  1 <1>  -0.6200 
  8 C       -0.6940     2.7250     2.3150 C.ar  1 <1>   0.1600 
  9 C       -5.3610     0.6960     0.5420 C.3   1 <1>  -0.1600 
 10 C       -4.1630     1.5140    -1.3790 C.3   1 <1>  -0.1600 
 11 C       -1.2760     4.4510     0.4230 C.ar  1 <1>   0.3100 
 12 N       -0.3440     3.9420     2.5990 N.ar  1 <1>  -0.6200 
 13 C       -6.3700     1.4990    -0.2890 C.3   1 <1>  -0.0800 
 14 C       -5.6060     2.0130    -1.5240 C.3   1 <1>  -0.0800 
 15 C       -0.6420     4.8410     1.6280 C.ar  1 <1>   0.3100 
 16 C       -1.5550     5.4360    -0.5390 C.ar  1 <1>  -0.1500 
 17 C       -6.9060     2.7420     0.4370 C.3   1 <1>  -0.1600 
 18 C       -5.7180     3.5450    -1.4990 C.3   1 <1>  -0.1600 
 19 C       -0.3190     6.1930     1.8170 C.ar  1 <1>  -0.1500 
 20 C       -1.2290     6.7510    -0.3290 C.ar  1 <1>  -0.1500 
 21 C       -6.9300     3.8290    -0.6270 C.3   1 <1>   0.2000 
 22 C       -0.6050     7.1340     0.8610 C.ar  1 <1>  -0.1500 
 23 O       -6.8140     5.0690    -0.0410 O.3   1 <1>  -0.6800 
 24 H       -3.8960     2.2010     0.6110 H     1 <1>   0.0800 
 25 H       -3.4990    -1.2390    -0.7780 H     1 <1>   0.0800 
 26 H       -3.4590    -1.5700     0.9440 H     1 <1>   0.0800 
 27 H       -1.9770    -1.5210     0.0190 H     1 <1>   0.0800 
 28 H       -0.4790     1.9600     3.0420 H     1 <1>   0.1500 
 29 H       -5.4550    -0.3380     0.2680 H     1 <1>   0.0800 
 30 H       -5.5200     0.7990     1.6000 H     1 <1>   0.0800 
 31 H       -3.4410     2.2250    -1.7410 H     1 <1>   0.0800 
 32 H       -4.0560     0.5970    -1.9280 H     1 <1>   0.0800 
 33 H       -7.1940     0.8750    -0.5950 H     1 <1>   0.0800 
 34 H       -6.0520     1.6300    -2.4270 H     1 <1>   0.0800 
 35 H       -2.0330     5.1250    -1.4500 H     1 <1>   0.1500 
 36 H       -6.2380     3.0270     1.2310 H     1 <1>   0.0800 
 37 H       -7.8890     2.5690     0.8380 H     1 <1>   0.0800 
 38 H       -5.8490     3.9450    -2.4880 H     1 <1>   0.0800 
 39 H       -4.8390     3.9750    -1.0500 H     1 <1>   0.0800 
 40 H        0.1620     6.4670     2.7380 H     1 <1>   0.1500 
 41 H       -1.4480     7.4990    -1.0730 H     1 <1>   0.1500 
 42 H       -7.8410     3.7920    -1.2010 H     1 <1>   0.0800 
 43 H       -0.3540     8.1700     1.0160 H     1 <1>   0.1500 
 44 H       -5.9910     5.1140     0.4800 H     1 <1>   0.4000 
@<TRIPOS>BOND
  1   1   2  2   
  2   2   3  am  
  3   2   4  1   
  4   3   5  1   
  5   3   6  1   
  6   4   7  ar  
  7   4   8  ar  
  8   5   9  1   
  9   5  10  1   
 10   5  24  1   
 11   6  25  1   
 12   6  26  1   
 13   6  27  1   
 14   7  11  ar  
 15   8  12  ar  
 16   8  28  1   
 17   9  13  1   
 18   9  29  1   
 19   9  30  1   
 20  10  14  1   
 21  10  31  1   
 22  10  32  1   
 23  11  15  ar  
 24  11  16  ar  
 25  12  15  ar  
 26  13  14  1   
 27  13  17  1   
 28  13  33  1   
 29  14  18  1   
 30  14  34  1   
 31  15  19  ar  
 32  16  20  ar  
 33  16  35  1   
 34  17  21  1   
 35  17  36  1   
 36  17  37  1   
 37  18  21  1   
 38  18  38  1   
 39  18  39  1   
 40  19  22  ar  
 41  19  40  1   
 42  20  22  ar  
 43  20  41  1   
 44  21  23  1   
 45  21  42  1   
 46  22  43  1   
 47  23  44  1   
@<TRIPOS>SUBSTRUCTURE
  1 ****   7 GROUP 4 **** **** 0

# MOE 2024.06 (io_trps.svl 2023.06)
