@<TRIPOS>MOLECULE
NONAME
48 50 1 0 0 
SMALL
USER_CHARGES


@<TRIPOS>ATOM
  1 O        1.7890     0.7790    -1.2570 O.3   1 <1>  -0.6800 
  2 C        1.5360     0.1870    -0.0350 C.3   1 <1>   0.2800 
  3 C        2.8800     0.0150     0.7200 C.3   1 <1>  -0.0800 
  4 C        0.9080    -1.1910    -0.3050 C.3   1 <1>  -0.1600 
  5 C        0.5260     1.0870     0.7110 C.3   1 <1>  -0.1600 
  6 C        3.6650    -1.2740     0.4020 C.3   1 <1>  -0.0800 
  7 C        3.8840     1.1280     0.4490 C.3   1 <1>   0.3430 
  8 C        1.8040    -2.1570    -1.1070 C.3   1 <1>  -0.1600 
  9 C        0.9790     2.5290     1.0010 C.3   1 <1>  -0.2400 
 10 C        3.3070    -1.8640    -0.9730 C.3   1 <1>  -0.1600 
 11 C        5.1460    -0.8840     0.4490 C.3   1 <1>   0.3430 
 12 N        5.2000     0.5540     0.8360 N.4   1 <1>  -0.9590 
 13 C        6.3610     1.2580     0.2140 C.3   1 <1>   0.3430 
 14 C        6.5100     2.6890     0.7340 C.3   1 <1>  -0.0170 
 15 C        7.7560     3.2980     0.1220 C.ar  1 <1>  -0.1440 
 16 C        7.6900     3.9330    -1.1090 C.ar  1 <1>  -0.1500 
 17 C        8.9730     3.2160     0.7820 C.ar  1 <1>  -0.1500 
 18 C        8.8300     4.4750    -1.6770 C.ar  1 <1>  -0.1500 
 19 C       10.1130     3.7580     0.2140 C.ar  1 <1>  -0.1500 
 20 C       10.0420     4.3870    -1.0160 C.ar  1 <1>  -0.1500 
 21 H        0.9630     0.8020    -1.7800 H     1 <1>   0.4000 
 22 H        2.6700     0.0070     1.7750 H     1 <1>   0.0800 
 23 H        0.6990    -1.6480     0.6470 H     1 <1>   0.0800 
 24 H       -0.0390    -1.0820    -0.8050 H     1 <1>   0.0800 
 25 H       -0.3840     1.1290     0.1380 H     1 <1>   0.0800 
 26 H        0.2720     0.6210     1.6480 H     1 <1>   0.0800 
 27 H        3.4650    -2.0190     1.1540 H     1 <1>   0.0800 
 28 H        3.6550     2.0200     1.0070 H     1 <1>   0.0800 
 29 H        3.8870     1.3600    -0.6040 H     1 <1>   0.0800 
 30 H        1.6010    -3.1640    -0.7810 H     1 <1>   0.0800 
 31 H        1.5400    -2.1040    -2.1500 H     1 <1>   0.0800 
 32 H        1.3090     3.0180     0.1010 H     1 <1>   0.0800 
 33 H        1.7660     2.5510     1.7310 H     1 <1>   0.0800 
 34 H        0.1500     3.0910     1.3980 H     1 <1>   0.0800 
 35 H        3.5840    -1.1610    -1.7420 H     1 <1>   0.0800 
 36 H        3.8610    -2.7700    -1.1520 H     1 <1>   0.0800 
 37 H        5.5780    -1.0170    -0.5310 H     1 <1>   0.0800 
 38 H        5.6860    -1.4950     1.1540 H     1 <1>   0.0800 
 39 H        5.2780     0.6000     1.8600 H     1 <1>   0.4500 
 40 H        7.2700     0.7200     0.4330 H     1 <1>   0.0800 
 41 H        6.2450     1.2820    -0.8580 H     1 <1>   0.0800 
 42 H        5.6570     3.2840     0.4600 H     1 <1>   0.0800 
 43 H        6.6020     2.6880     1.8050 H     1 <1>   0.0800 
 44 H        6.7570     4.0170    -1.6390 H     1 <1>   0.1500 
 45 H        9.0500     2.7350     1.7420 H     1 <1>   0.1500 
 46 H        8.7760     4.9680    -2.6330 H     1 <1>   0.1500 
 47 H       11.0560     3.6950     0.7290 H     1 <1>   0.1500 
 48 H       10.9280     4.8090    -1.4580 H     1 <1>   0.1500 
@<TRIPOS>BOND
  1   1   2  1   
  2   1  21  1   
  3   2   3  1   
  4   2   4  1   
  5   2   5  1   
  6   3   6  1   
  7   3   7  1   
  8   3  22  1   
  9   4   8  1   
 10   4  23  1   
 11   4  24  1   
 12   5   9  1   
 13   5  25  1   
 14   5  26  1   
 15   6  10  1   
 16   6  11  1   
 17   6  27  1   
 18   7  12  1   
 19   7  28  1   
 20   7  29  1   
 21   8  10  1   
 22   8  30  1   
 23   8  31  1   
 24   9  32  1   
 25   9  33  1   
 26   9  34  1   
 27  10  35  1   
 28  10  36  1   
 29  11  12  1   
 30  11  37  1   
 31  11  38  1   
 32  12  13  1   
 33  12  39  1   
 34  13  14  1   
 35  13  40  1   
 36  13  41  1   
 37  14  15  1   
 38  14  42  1   
 39  14  43  1   
 40  15  16  ar  
 41  15  17  ar  
 42  16  18  ar  
 43  16  44  1   
 44  17  19  ar  
 45  17  45  1   
 46  18  20  ar  
 47  18  46  1   
 48  19  20  ar  
 49  19  47  1   
 50  20  48  1   
@<TRIPOS>SUBSTRUCTURE
  1 ****   7 GROUP 4 **** **** 0

# MOE 2024.06 (io_trps.svl 2023.06)
