@<TRIPOS>MOLECULE
NONAME
52 54 1 0 0 
SMALL
USER_CHARGES


@<TRIPOS>ATOM
  1 O       -1.4700    -3.0760    -0.9620 O.2   1 <1>  -0.5700 
  2 C       -0.2920    -2.7540    -0.8260 C.2   1 <1>   0.6900 
  3 N        0.5170    -3.1420     0.2080 N.am  1 <1>  -0.4690 
  4 N        0.4230    -2.0270    -1.7070 N.am  1 <1>  -0.5390 
  5 C        1.7770    -2.6050    -0.0610 C.2   1 <1>  -0.0410 
  6 C        0.1350    -3.7440     1.5170 C.3   1 <1>   0.1400 
  7 C        1.7200    -1.9320    -1.2230 C.2   1 <1>  -0.0410 
  8 C       -0.2640    -5.2280     1.3850 C.3   1 <1>   0.3430 
  9 N       -1.4780    -5.3890     0.5170 N.4   1 <1>  -0.9590 
 10 C       -2.7600    -5.2250     1.2490 C.3   1 <1>   0.3430 
 11 C       -1.4230    -6.5820    -0.3590 C.3   1 <1>   0.3430 
 12 C       -3.8940    -5.1260     0.2300 C.3   1 <1>  -0.1600 
 13 C       -2.5430    -6.4630    -1.3890 C.3   1 <1>  -0.1600 
 14 C       -3.9510    -6.3150    -0.7620 C.3   1 <1>   0.5640 
 15 N       -4.3050    -7.5980     0.0150 N.4   1 <1>  -0.9590 
 16 C       -4.9660    -5.9610    -1.9170 C.2   1 <1>   0.5690 
 17 C       -4.2950    -8.8330    -0.8510 C.3   1 <1>   0.3430 
 18 C       -5.6690    -7.5290     0.6550 C.3   1 <1>   0.3430 
 19 O       -5.8580    -6.7280    -2.1790 O.2   1 <1>  -0.5700 
 20 N       -4.8770    -4.8210    -2.6450 N.am  1 <1>  -0.8000 
 21 C       -4.4370   -10.0810     0.0230 C.3   1 <1>  -0.1600 
 22 C       -5.8660    -8.7230     1.5900 C.3   1 <1>  -0.1600 
 23 C       -5.7340   -10.0510     0.8370 C.3   1 <1>  -0.1600 
 24 H        0.0320    -1.5910    -2.5440 H     1 <1>   0.3700 
 25 H        2.6180    -2.7360     0.6010 H     1 <1>   0.1500 
 26 H       -0.6720    -3.1760     1.9460 H     1 <1>   0.0800 
 27 H        0.9750    -3.6690     2.1870 H     1 <1>   0.0800 
 28 H        2.4910    -1.3860    -1.7450 H     1 <1>   0.1500 
 29 H       -0.4490    -5.6430     2.3620 H     1 <1>   0.0800 
 30 H        0.5700    -5.7570     0.9540 H     1 <1>   0.0800 
 31 H       -1.4210    -4.5670    -0.1240 H     1 <1>   0.4500 
 32 H       -2.7330    -4.3210     1.8370 H     1 <1>   0.0800 
 33 H       -2.9190    -6.0580     1.9160 H     1 <1>   0.0800 
 34 H       -1.5300    -7.4830     0.2230 H     1 <1>   0.0800 
 35 H       -0.4720    -6.6170    -0.8690 H     1 <1>   0.0800 
 36 H       -3.7420    -4.2140    -0.3180 H     1 <1>   0.0800 
 37 H       -4.8310    -4.9920     0.7370 H     1 <1>   0.0800 
 38 H       -2.5050    -7.2880    -2.0750 H     1 <1>   0.0800 
 39 H       -2.3330    -5.5920    -1.9870 H     1 <1>   0.0800 
 40 H       -3.6400    -7.7670     0.7680 H     1 <1>   0.4500 
 41 H       -3.3770    -8.9120    -1.4070 H     1 <1>   0.0800 
 42 H       -5.1120    -8.7990    -1.5560 H     1 <1>   0.0800 
 43 H       -6.4360    -7.5430    -0.1050 H     1 <1>   0.0800 
 44 H       -5.7860    -6.6260     1.2280 H     1 <1>   0.0800 
 45 H       -5.5720    -4.6600    -3.3840 H     1 <1>   0.3700 
 46 H       -4.1870    -4.0700    -2.5510 H     1 <1>   0.3700 
 47 H       -3.5880   -10.1680     0.6780 H     1 <1>   0.0800 
 48 H       -4.4420   -10.9520    -0.6110 H     1 <1>   0.0800 
 49 H       -6.8480    -8.6660     2.0270 H     1 <1>   0.0800 
 50 H       -5.1540    -8.6800     2.3950 H     1 <1>   0.0800 
 51 H       -5.7550   -10.8750     1.5320 H     1 <1>   0.0800 
 52 H       -6.5740   -10.1670     0.1710 H     1 <1>   0.0800 
@<TRIPOS>BOND
  1   1   2  2   
  2   2   3  am  
  3   2   4  am  
  4   3   5  1   
  5   3   6  1   
  6   4   7  1   
  7   4  24  1   
  8   5   7  2   
  9   5  25  1   
 10   6   8  1   
 11   6  26  1   
 12   6  27  1   
 13   7  28  1   
 14   8   9  1   
 15   8  29  1   
 16   8  30  1   
 17   9  10  1   
 18   9  11  1   
 19   9  31  1   
 20  10  12  1   
 21  10  32  1   
 22  10  33  1   
 23  11  13  1   
 24  11  34  1   
 25  11  35  1   
 26  12  14  1   
 27  12  36  1   
 28  12  37  1   
 29  13  14  1   
 30  13  38  1   
 31  13  39  1   
 32  14  15  1   
 33  14  16  1   
 34  15  17  1   
 35  15  18  1   
 36  15  40  1   
 37  16  19  2   
 38  16  20  am  
 39  17  21  1   
 40  17  41  1   
 41  17  42  1   
 42  18  22  1   
 43  18  43  1   
 44  18  44  1   
 45  20  45  1   
 46  20  46  1   
 47  21  23  1   
 48  21  47  1   
 49  21  48  1   
 50  22  23  1   
 51  22  49  1   
 52  22  50  1   
 53  23  51  1   
 54  23  52  1   
@<TRIPOS>SUBSTRUCTURE
  1 ****  13 GROUP 4 **** **** 0

# MOE 2024.06 (io_trps.svl 2023.06)
