@<TRIPOS>MOLECULE
NONAME
51 53 1 0 0 
SMALL
USER_CHARGES


@<TRIPOS>ATOM
  1 N       -0.0500     0.0190     0.3230 N.ar  1 <1>  -0.6200 
  2 C        0.9950     0.7860     0.0650 C.ar  1 <1>   0.7710 
  3 C       -1.2310     0.5940     0.4180 C.ar  1 <1>   0.4100 
  4 N        0.8780     2.1120    -0.0890 N.ar  1 <1>  -0.1790 
  5 N        2.2230     0.2220    -0.0430 N.pl3 1 <1>  -0.8380 
  6 N       -2.2830    -0.2020     0.7110 N.pl3 1 <1>  -0.8690 
  7 C       -1.4160     1.9890     0.2390 C.ar  1 <1>  -0.1430 
  8 C       -0.3120     2.7520    -0.0030 C.ar  1 <1>   0.2170 
  9 C        3.5180     0.8710    -0.3880 C.3   1 <1>   0.2090 
 10 C        2.4270    -1.2400     0.1600 C.3   1 <1>   0.2090 
 11 C       -2.2760    -1.6710     0.9030 C.3   1 <1>   0.2090 
 12 C       -2.8380     2.5580     0.3190 C.3   1 <1>  -0.0970 
 13 C       -0.2830     4.2650    -0.1880 C.3   1 <1>  -0.0970 
 14 C        4.4730    -0.2800    -0.6730 C.3   1 <1>  -0.1600 
 15 C        3.9360    -1.4380     0.1590 C.3   1 <1>  -0.1600 
 16 C       -3.4920    -2.2610     0.1940 C.3   1 <1>  -0.1600 
 17 C       -3.5460    -3.7750     0.3780 C.3   1 <1>   0.2090 
 18 N       -4.7580    -4.2900    -0.2900 N.pl3 1 <1>  -0.8690 
 19 C       -4.9040    -5.6700    -0.4540 C.ar  1 <1>   0.1000 
 20 C       -5.2560    -6.2300    -1.6850 C.ar  1 <1>   0.1600 
 21 C       -4.7140    -6.5400     0.6080 C.ar  1 <1>  -0.1500 
 22 N       -5.4080    -7.5220    -1.9370 N.ar  1 <1>  -0.6200 
 23 C       -4.8690    -7.8880     0.3700 C.ar  1 <1>  -0.1500 
 24 C       -5.2100    -8.3210    -0.9010 C.ar  1 <1>   0.1600 
 25 H        1.7440     2.6010    -0.2670 H     1 <1>   0.4570 
 26 H       -3.2020     0.2200     0.8610 H     1 <1>   0.4000 
 27 H        3.8760     1.4330     0.4590 H     1 <1>   0.0800 
 28 H        3.4310     1.5090    -1.2510 H     1 <1>   0.0800 
 29 H        1.9790    -1.7780    -0.6590 H     1 <1>   0.0800 
 30 H        1.9900    -1.5720     1.0880 H     1 <1>   0.0800 
 31 H       -2.3160    -1.8890     1.9580 H     1 <1>   0.0800 
 32 H       -1.3740    -2.1010     0.5000 H     1 <1>   0.0800 
 33 H       -3.5050     1.9730    -0.2900 H     1 <1>   0.0800 
 34 H       -2.9050     3.5690    -0.0350 H     1 <1>   0.0800 
 35 H       -3.1890     2.5300     1.3360 H     1 <1>   0.0800 
 36 H        0.6190     4.6830     0.2230 H     1 <1>   0.0800 
 37 H       -1.1050     4.7400     0.3150 H     1 <1>   0.0800 
 38 H       -0.3330     4.5100    -1.2340 H     1 <1>   0.0800 
 39 H        5.4900    -0.0330    -0.4210 H     1 <1>   0.0800 
 40 H        4.4240    -0.5300    -1.7190 H     1 <1>   0.0800 
 41 H        4.2130    -2.3960    -0.2430 H     1 <1>   0.0800 
 42 H        4.3000    -1.3660     1.1700 H     1 <1>   0.0800 
 43 H       -3.4290    -2.0330    -0.8550 H     1 <1>   0.0800 
 44 H       -4.3870    -1.8310     0.6060 H     1 <1>   0.0800 
 45 H       -3.5880    -4.0170     1.4270 H     1 <1>   0.0800 
 46 H       -2.6730    -4.2390    -0.0520 H     1 <1>   0.0800 
 47 H       -4.9850    -3.7420    -1.1270 H     1 <1>   0.4000 
 48 H       -5.4160    -5.5600    -2.5090 H     1 <1>   0.1500 
 49 H       -4.4640    -6.1720     1.5840 H     1 <1>   0.1500 
 50 H       -4.7310    -8.6010     1.1620 H     1 <1>   0.1500 
 51 H       -5.3270    -9.3780    -1.0730 H     1 <1>   0.1500 
@<TRIPOS>BOND
  1   1   2  ar  
  2   1   3  ar  
  3   2   4  ar  
  4   2   5  1   
  5   3   6  1   
  6   3   7  ar  
  7   4   8  ar  
  8   4  25  1   
  9   5   9  1   
 10   5  10  1   
 11   6  11  1   
 12   6  26  1   
 13   7   8  ar  
 14   7  12  1   
 15   8  13  1   
 16   9  14  1   
 17   9  27  1   
 18   9  28  1   
 19  10  15  1   
 20  10  29  1   
 21  10  30  1   
 22  11  16  1   
 23  11  31  1   
 24  11  32  1   
 25  12  33  1   
 26  12  34  1   
 27  12  35  1   
 28  13  36  1   
 29  13  37  1   
 30  13  38  1   
 31  14  15  1   
 32  14  39  1   
 33  14  40  1   
 34  15  41  1   
 35  15  42  1   
 36  16  17  1   
 37  16  43  1   
 38  16  44  1   
 39  17  18  1   
 40  17  45  1   
 41  17  46  1   
 42  18  19  1   
 43  18  47  1   
 44  19  20  ar  
 45  19  21  ar  
 46  20  22  ar  
 47  20  48  1   
 48  21  23  ar  
 49  21  49  1   
 50  22  24  ar  
 51  23  24  ar  
 52  23  50  1   
 53  24  51  1   
@<TRIPOS>SUBSTRUCTURE
  1 ****  11 GROUP 4 **** **** 0

# MOE 2024.06 (io_trps.svl 2023.06)
