@<TRIPOS>MOLECULE
NONAME
41 42 1 0 0 
SMALL
USER_CHARGES


@<TRIPOS>ATOM
  1 S       -0.9760    -0.1510    -0.6280 S.3   1 <1>  -0.0800 
  2 C       -0.7050    -1.2370     0.6930 C.2   1 <1>   0.4420 
  3 C       -0.2880     1.1010     0.3530 C.2   1 <1>   0.1980 
  4 N       -0.1620    -0.6520     1.6980 N.2   1 <1>  -0.3380 
  5 N       -1.0900    -2.5470     0.5000 N.am  1 <1>  -0.4940 
  6 N        0.0730     0.6810     1.4980 N.2   1 <1>  -0.3380 
  7 C       -0.1910     2.5180    -0.2110 C.3   1 <1>   0.3800 
  8 C       -1.0370    -3.6010     1.3650 C.2   1 <1>   0.5690 
  9 O       -1.4440     2.9810    -0.6240 O.3   1 <1>  -0.5600 
 10 C        0.7350     2.5970    -1.4240 C.3   1 <1>  -0.2400 
 11 O       -0.6460    -3.5260     2.4990 O.2   1 <1>  -0.5700 
 12 C       -1.5060    -4.9490     0.8520 C.3   1 <1>  -0.0990 
 13 C       -2.3430     3.2440     0.4100 C.3   1 <1>   0.0400 
 14 C       -3.0250    -4.9810     0.6170 C.3   1 <1>  -0.1600 
 15 C       -3.4720    -6.3330     0.0590 C.3   1 <1>   0.1400 
 16 N       -4.8930    -6.2460    -0.3310 N.am  1 <1>  -0.6600 
 17 C       -5.3410    -5.7980    -1.5240 C.2   1 <1>   0.5690 
 18 C       -5.9760    -6.6150     0.5920 C.3   1 <1>   0.1400 
 19 O       -4.6510    -5.3980    -2.4310 O.2   1 <1>  -0.5700 
 20 C       -6.8430    -5.8320    -1.5770 C.3   1 <1>  -0.0990 
 21 C       -7.2400    -6.5590    -0.2800 C.3   1 <1>  -0.1600 
 22 H       -1.4850    -2.7460    -0.4140 H     1 <1>   0.3700 
 23 H        0.1780     3.1790     0.5540 H     1 <1>   0.0800 
 24 H        0.3550     1.9920    -2.2280 H     1 <1>   0.0800 
 25 H        1.7140     2.2450    -1.1580 H     1 <1>   0.0800 
 26 H        0.8140     3.6170    -1.7550 H     1 <1>   0.0800 
 27 H       -1.2390    -5.7010     1.5740 H     1 <1>   0.0800 
 28 H       -0.9850    -5.1710    -0.0610 H     1 <1>   0.0800 
 29 H       -3.2510     3.6220    -0.0250 H     1 <1>   0.0800 
 30 H       -1.9240     3.9850     1.0700 H     1 <1>   0.0800 
 31 H       -2.5550     2.3360     0.9490 H     1 <1>   0.0800 
 32 H       -3.2940    -4.2130    -0.0880 H     1 <1>   0.0800 
 33 H       -3.5350    -4.7890     1.5440 H     1 <1>   0.0800 
 34 H       -3.3370    -7.1130     0.7880 H     1 <1>   0.0800 
 35 H       -2.8910    -6.5780    -0.8150 H     1 <1>   0.0800 
 36 H       -6.0270    -5.8970     1.3930 H     1 <1>   0.0800 
 37 H       -5.8180    -7.6030     0.9910 H     1 <1>   0.0800 
 38 H       -7.1760    -6.3590    -2.4520 H     1 <1>   0.0800 
 39 H       -7.2140    -4.8240    -1.5890 H     1 <1>   0.0800 
 40 H       -8.0440    -6.0600     0.2300 H     1 <1>   0.0800 
 41 H       -7.5490    -7.5640    -0.5080 H     1 <1>   0.0800 
@<TRIPOS>BOND
  1   1   2  1   
  2   1   3  1   
  3   2   4  2   
  4   2   5  1   
  5   3   6  2   
  6   3   7  1   
  7   4   6  1   
  8   5   8  am  
  9   5  22  1   
 10   7   9  1   
 11   7  10  1   
 12   7  23  1   
 13   8  11  2   
 14   8  12  1   
 15   9  13  1   
 16  10  24  1   
 17  10  25  1   
 18  10  26  1   
 19  12  14  1   
 20  12  27  1   
 21  12  28  1   
 22  13  29  1   
 23  13  30  1   
 24  13  31  1   
 25  14  15  1   
 26  14  32  1   
 27  14  33  1   
 28  15  16  1   
 29  15  34  1   
 30  15  35  1   
 31  16  17  am  
 32  16  18  1   
 33  17  19  2   
 34  17  20  1   
 35  18  21  1   
 36  18  36  1   
 37  18  37  1   
 38  20  21  1   
 39  20  38  1   
 40  20  39  1   
 41  21  40  1   
 42  21  41  1   
@<TRIPOS>SUBSTRUCTURE
  1 ****   5 GROUP 4 **** **** 0

# MOE 2024.06 (io_trps.svl 2023.06)
