@<TRIPOS>MOLECULE
NONAME
48 50 1 0 0 
SMALL
USER_CHARGES


@<TRIPOS>ATOM
  1 S       -0.2940     0.2080     1.1230 S.o2  1 <1>   1.4470 
  2 O       -0.3220     1.4880     0.4600 O.2   1 <1>  -0.6500 
  3 O       -1.4910    -0.5550     1.3760 O.2   1 <1>  -0.6500 
  4 N        0.3810     0.4920     2.6190 N.am  1 <1>  -0.9780 
  5 C        0.9490    -0.8590     0.3430 C.ar  1 <1>  -0.0090 
  6 C        0.9780    -2.2220     0.5990 C.ar  1 <1>  -0.1500 
  7 C        1.9210    -0.3400    -0.5010 C.ar  1 <1>  -0.1500 
  8 C        1.9370    -3.0700     0.0500 C.ar  1 <1>   0.0860 
  9 C        2.8910    -1.1540    -1.0560 C.ar  1 <1>  -0.1500 
 10 C        2.9120    -2.5100    -0.7820 C.ar  1 <1>  -0.1430 
 11 C        1.8870    -4.4840     0.3640 C.2   1 <1>   0.5440 
 12 C        4.0130    -3.3750    -1.3830 C.3   1 <1>  -0.0960 
 13 O        2.1690    -4.8610     1.4840 O.2   1 <1>  -0.5700 
 14 N        1.4930    -5.4090    -0.5710 N.am  1 <1>  -0.6600 
 15 C        0.7540    -5.0970    -1.8210 C.3   1 <1>   0.1400 
 16 C        1.4190    -6.8670    -0.2890 C.3   1 <1>   0.1400 
 17 C       -0.2100    -6.2690    -1.9840 C.3   1 <1>   0.2000 
 18 C        0.5830    -7.4560    -1.4310 C.3   1 <1>  -0.0800 
 19 O       -1.3130    -6.0300    -1.1770 O.3   1 <1>  -0.6800 
 20 C       -0.2520    -8.6820    -1.0210 C.3   1 <1>   0.0210 
 21 C        0.6420    -9.7900    -0.4990 C.2   1 <1>   0.1080 
 22 N        1.5290   -10.3850    -1.2350 N.2   1 <1>  -0.7070 
 23 C        0.6260   -10.2780     0.8030 C.2   1 <1>  -0.1500 
 24 N        2.1060   -11.2810    -0.4130 N.pl3 1 <1>   0.3000 
 25 C        1.5780   -11.2340     0.8280 C.2   1 <1>  -0.3320 
 26 C        2.0210   -12.1190     1.9790 C.3   1 <1>  -0.0600 
 27 H        1.2830     0.9290     2.4680 H     1 <1>   0.4200 
 28 H        0.4990    -0.4060     3.0760 H     1 <1>   0.4200 
 29 H        0.2330    -2.6540     1.2480 H     1 <1>   0.1500 
 30 H        1.9220     0.7150    -0.7280 H     1 <1>   0.1500 
 31 H        3.6350    -0.7180    -1.7030 H     1 <1>   0.1500 
 32 H        4.7840    -2.7690    -1.8240 H     1 <1>   0.0800 
 33 H        3.6090    -4.0180    -2.1440 H     1 <1>   0.0800 
 34 H        4.4640    -3.9850    -0.6210 H     1 <1>   0.0800 
 35 H        0.2310    -4.1570    -1.7670 H     1 <1>   0.0800 
 36 H        1.4480    -5.0780    -2.6430 H     1 <1>   0.0800 
 37 H        2.4040    -7.3010    -0.2610 H     1 <1>   0.0800 
 38 H        0.9390    -7.0220     0.6630 H     1 <1>   0.0800 
 39 H       -0.5460    -6.4100    -2.9970 H     1 <1>   0.0800 
 40 H        1.2730    -7.7710    -2.1960 H     1 <1>   0.0800 
 41 H       -0.9950    -5.7930    -0.2820 H     1 <1>   0.4000 
 42 H       -0.7930    -9.0500    -1.8740 H     1 <1>   0.0800 
 43 H       -0.9660    -8.4200    -0.2620 H     1 <1>   0.0800 
 44 H       -0.0170    -9.9450     1.5990 H     1 <1>   0.1500 
 45 H        2.8560   -11.9080    -0.7280 H     1 <1>   0.2700 
 46 H        1.4510   -11.8900     2.8610 H     1 <1>   0.0800 
 47 H        3.0630   -11.9560     2.1930 H     1 <1>   0.0800 
 48 H        1.8700   -13.1550     1.7320 H     1 <1>   0.0800 
@<TRIPOS>BOND
  1   1   2  2   
  2   1   3  2   
  3   1   4  am  
  4   1   5  1   
  5   4  27  1   
  6   4  28  1   
  7   5   6  ar  
  8   5   7  ar  
  9   6   8  ar  
 10   6  29  1   
 11   7   9  ar  
 12   7  30  1   
 13   8  10  ar  
 14   8  11  1   
 15   9  10  ar  
 16   9  31  1   
 17  10  12  1   
 18  11  13  2   
 19  11  14  am  
 20  12  32  1   
 21  12  33  1   
 22  12  34  1   
 23  14  15  1   
 24  14  16  1   
 25  15  17  1   
 26  15  35  1   
 27  15  36  1   
 28  16  18  1   
 29  16  37  1   
 30  16  38  1   
 31  17  18  1   
 32  17  19  1   
 33  17  39  1   
 34  18  20  1   
 35  18  40  1   
 36  19  41  1   
 37  20  21  1   
 38  20  42  1   
 39  20  43  1   
 40  21  22  2   
 41  21  23  1   
 42  22  24  1   
 43  23  25  2   
 44  23  44  1   
 45  24  25  1   
 46  24  45  1   
 47  25  26  1   
 48  26  46  1   
 49  26  47  1   
 50  26  48  1   
@<TRIPOS>SUBSTRUCTURE
  1 ****  14 GROUP 4 **** **** 0

# MOE 2024.06 (io_trps.svl 2023.06)
