@<TRIPOS>MOLECULE
NONAME
36 37 1 0 0 
SMALL
USER_CHARGES


@<TRIPOS>ATOM
  1 O        0.7530     0.7560     1.4860 O.2   1 <1>  -0.5700 
  2 C        1.3010     1.5860     0.8100 C.2   1 <1>   0.5690 
  3 N        0.7120     2.6630     0.2790 N.am  1 <1>  -0.7300 
  4 C        2.7650     1.5770     0.4740 C.3   1 <1>  -0.0990 
  5 C        1.6370     3.5880    -0.4060 C.3   1 <1>   0.2810 
  6 C        3.0190     3.0190    -0.0090 C.3   1 <1>  -0.1600 
  7 C        1.4250     5.0780    -0.0590 C.2   1 <1>   0.5690 
  8 O        0.3540     5.4240     0.3830 O.2   1 <1>  -0.5700 
  9 N        2.4560     5.9540    -0.2840 N.am  1 <1>  -0.4940 
 10 C        2.5840     7.3420    -0.0280 C.2   1 <1>  -0.0880 
 11 N        1.6190     8.3070    -0.0760 N.pl3 1 <1>   0.3140 
 12 C        3.7370     7.9780     0.2900 C.2   1 <1>  -0.1810 
 13 N        2.1320     9.5260     0.1960 N.2   1 <1>  -0.7070 
 14 C        0.2050     8.1920    -0.4550 C.3   1 <1>   0.0160 
 15 C        3.3890     9.3200     0.4150 C.2   1 <1>   0.1080 
 16 C        5.1200     7.3790     0.4840 C.3   1 <1>   0.0210 
 17 C        4.3280    10.4520     0.7670 C.3   1 <1>  -0.0590 
 18 C        5.8920     7.3690    -0.8370 C.3   1 <1>  -0.2400 
 19 H       -0.2210     2.9800     0.5610 H     1 <1>   0.3700 
 20 H        2.9370     0.8630    -0.3090 H     1 <1>   0.0800 
 21 H        3.3530     1.3290     1.3390 H     1 <1>   0.0800 
 22 H        1.4900     3.4690    -1.4660 H     1 <1>   0.0800 
 23 H        3.7160     3.0530    -0.8280 H     1 <1>   0.0800 
 24 H        3.4170     3.5900     0.8130 H     1 <1>   0.0800 
 25 H        3.3300     5.5310    -0.5930 H     1 <1>   0.3700 
 26 H        0.1020     7.4680    -1.2400 H     1 <1>   0.0800 
 27 H       -0.1470     9.1470    -0.7960 H     1 <1>   0.0800 
 28 H       -0.3620     7.8860     0.4040 H     1 <1>   0.0800 
 29 H        5.0280     6.3750     0.8590 H     1 <1>   0.0800 
 30 H        5.6610     7.9490     1.2180 H     1 <1>   0.0800 
 31 H        5.2330    10.3760     0.1950 H     1 <1>   0.0800 
 32 H        4.5610    10.4140     1.8150 H     1 <1>   0.0800 
 33 H        3.8580    11.3940     0.5490 H     1 <1>   0.0800 
 34 H        5.3620     6.7940    -1.5760 H     1 <1>   0.0800 
 35 H        6.8670     6.9390    -0.6950 H     1 <1>   0.0800 
 36 H        6.0070     8.3730    -1.2060 H     1 <1>   0.0800 
@<TRIPOS>BOND
  1   1   2  2   
  2   2   3  am  
  3   2   4  1   
  4   3   5  1   
  5   3  19  1   
  6   4   6  1   
  7   4  20  1   
  8   4  21  1   
  9   5   6  1   
 10   5   7  1   
 11   5  22  1   
 12   6  23  1   
 13   6  24  1   
 14   7   8  2   
 15   7   9  am  
 16   9  10  1   
 17   9  25  1   
 18  10  11  1   
 19  10  12  2   
 20  11  13  1   
 21  11  14  1   
 22  12  15  1   
 23  12  16  1   
 24  13  15  2   
 25  14  26  1   
 26  14  27  1   
 27  14  28  1   
 28  15  17  1   
 29  16  18  1   
 30  16  29  1   
 31  16  30  1   
 32  17  31  1   
 33  17  32  1   
 34  17  33  1   
 35  18  34  1   
 36  18  35  1   
 37  18  36  1   
@<TRIPOS>SUBSTRUCTURE
  1 ****   9 GROUP 4 **** **** 0

# MOE 2024.06 (io_trps.svl 2023.06)
