@<TRIPOS>MOLECULE
NONAME
53 56 1 0 0 
SMALL
USER_CHARGES


@<TRIPOS>ATOM
  1 O       -0.0610     1.0530     0.3000 O.2   1 <1>  -0.5700 
  2 C       -0.1030     2.2580     0.3870 C.2   1 <1>   0.5690 
  3 N       -1.2740     2.9510     0.5580 N.am  1 <1>  -0.5090 
  4 C        1.2190     3.0190     0.2590 C.3   1 <1>   0.1810 
  5 C       -1.3040     4.4480     0.5050 C.3   1 <1>   0.3640 
  6 C       -2.5640     2.2790     0.8560 C.3   1 <1>   0.0490 
  7 O        1.1260     4.3740     0.6280 O.3   1 <1>  -0.5600 
  8 C       -2.4160     4.9380    -0.4200 C.ar  1 <1>  -0.1440 
  9 C        0.0380     5.0490     0.0320 C.3   1 <1>   0.2610 
 10 C       -3.2990     2.6470     2.1080 C.3   1 <1>  -0.2000 
 11 C       -2.6440     1.3090     1.9920 C.3   1 <1>  -0.2000 
 12 C       -3.2320     5.9850    -0.0130 C.ar  1 <1>   0.1600 
 13 C       -2.6290     4.3810    -1.6690 C.ar  1 <1>  -0.1500 
 14 C        0.0900     6.5550     0.3420 C.2   1 <1>   0.5690 
 15 N       -4.2150     6.5030    -0.7310 N.ar  1 <1>  -0.6200 
 16 C       -3.6510     4.9090    -2.4280 C.ar  1 <1>  -0.1500 
 17 O       -0.3590     6.9240     1.4060 O.2   1 <1>  -0.5700 
 18 N        0.6240     7.4610    -0.5440 N.am  1 <1>  -0.6600 
 19 C       -4.4030     5.9530    -1.9190 C.ar  1 <1>   0.1600 
 20 C        0.6700     8.9180    -0.1990 C.3   1 <1>   0.3200 
 21 C        1.1630     7.1410    -1.8950 C.3   1 <1>   0.1400 
 22 C        2.1040     9.3950    -0.0230 C.2   1 <1>   0.0070 
 23 C        2.5660     6.5420    -1.7890 C.3   1 <1>  -0.2400 
 24 N        2.6880    10.2150    -0.8400 N.2   1 <1>  -0.5650 
 25 N        2.8960     8.9940     1.0040 N.pl3 1 <1>   0.0480 
 26 C        3.9210    10.3600    -0.3240 C.2   1 <1>   0.0770 
 27 C        4.0660     9.6220     0.7980 C.2   1 <1>  -0.3020 
 28 C        2.5880     8.0610     2.1040 C.3   1 <1>   0.0160 
 29 H        1.5650     2.9660    -0.7570 H     1 <1>   0.0800 
 30 H        1.9530     2.5590     0.8960 H     1 <1>   0.0800 
 31 H       -1.5010     4.7940     1.5040 H     1 <1>   0.0800 
 32 H       -3.1340     2.0610    -0.0330 H     1 <1>   0.1000 
 33 H        0.1150     4.9060    -1.0280 H     1 <1>   0.0800 
 34 H       -2.8750     3.3500     2.8020 H     1 <1>   0.1000 
 35 H       -4.3740     2.6900     2.0810 H     1 <1>   0.1000 
 36 H       -3.2650     0.4390     1.8790 H     1 <1>   0.1000 
 37 H       -1.7510     1.1070     2.5580 H     1 <1>   0.1000 
 38 H       -3.0690     6.4280     0.9570 H     1 <1>   0.1500 
 39 H       -2.0320     3.5640    -2.0390 H     1 <1>   0.1500 
 40 H       -3.8690     4.5150    -3.4040 H     1 <1>   0.1500 
 41 H       -5.2010     6.3570    -2.5200 H     1 <1>   0.1500 
 42 H        0.2090     9.4820    -0.9920 H     1 <1>   0.0800 
 43 H        0.1180     9.1260     0.7000 H     1 <1>   0.0800 
 44 H        0.5030     6.4610    -2.4050 H     1 <1>   0.0800 
 45 H        1.2140     8.0410    -2.4870 H     1 <1>   0.0800 
 46 H        2.5690     5.6480    -1.1960 H     1 <1>   0.0800 
 47 H        3.2430     7.2550    -1.3560 H     1 <1>   0.0800 
 48 H        2.9270     6.3000    -2.7720 H     1 <1>   0.0800 
 49 H        4.6520    10.9960    -0.7940 H     1 <1>   0.1500 
 50 H        4.9200     9.5160     1.4420 H     1 <1>   0.1500 
 51 H        3.3440     8.1350     2.8630 H     1 <1>   0.0800 
 52 H        2.5610     7.0570     1.7210 H     1 <1>   0.0800 
 53 H        1.6320     8.3070     2.5280 H     1 <1>   0.0800 
@<TRIPOS>BOND
  1   1   2  2   
  2   2   3  am  
  3   2   4  1   
  4   3   5  1   
  5   3   6  1   
  6   4   7  1   
  7   4  29  1   
  8   4  30  1   
  9   5   8  1   
 10   5   9  1   
 11   5  31  1   
 12   6  10  1   
 13   6  11  1   
 14   6  32  1   
 15   7   9  1   
 16   8  12  ar  
 17   8  13  ar  
 18   9  14  1   
 19   9  33  1   
 20  10  11  1   
 21  10  34  1   
 22  10  35  1   
 23  11  36  1   
 24  11  37  1   
 25  12  15  ar  
 26  12  38  1   
 27  13  16  ar  
 28  13  39  1   
 29  14  17  2   
 30  14  18  am  
 31  15  19  ar  
 32  16  19  ar  
 33  16  40  1   
 34  18  20  1   
 35  18  21  1   
 36  19  41  1   
 37  20  22  1   
 38  20  42  1   
 39  20  43  1   
 40  21  23  1   
 41  21  44  1   
 42  21  45  1   
 43  22  24  2   
 44  22  25  1   
 45  23  46  1   
 46  23  47  1   
 47  23  48  1   
 48  24  26  1   
 49  25  27  1   
 50  25  28  1   
 51  26  27  2   
 52  26  49  1   
 53  27  50  1   
 54  28  51  1   
 55  28  52  1   
 56  28  53  1   
@<TRIPOS>SUBSTRUCTURE
  1 ****   9 GROUP 4 **** **** 0

# MOE 2024.06 (io_trps.svl 2023.06)
