@<TRIPOS>MOLECULE
NONAME
46 47 1 0 0 
SMALL
USER_CHARGES


@<TRIPOS>ATOM
  1 O       -0.4380     1.0570     1.3800 O.2   1 <1>  -0.5700 
  2 C       -0.2000     2.0270     0.7030 C.2   1 <1>   0.5690 
  3 N       -1.1050     2.4680    -0.2040 N.am  1 <1>  -0.7300 
  4 C        1.1460     2.7540     0.8500 C.3   1 <1>   0.1710 
  5 C       -0.9310     3.7180    -0.9870 C.3   1 <1>   0.1400 
  6 N        1.1870     4.1350     0.2740 N.3   1 <1>  -0.8100 
  7 C        0.5510     4.1410    -1.0620 C.3   1 <1>   0.1100 
  8 C        2.5600     4.6500     0.2580 C.3   1 <1>   0.1100 
  9 C        2.5580     6.1770     0.1630 C.3   1 <1>  -0.1600 
 10 C        3.9740     6.7240     0.3100 C.3   1 <1>   0.2090 
 11 N        3.9380     8.1940     0.1670 N.pl3 1 <1>  -0.8690 
 12 C        5.0490     8.9680    -0.0680 C.ar  1 <1>   0.4100 
 13 N        6.1850     8.3350    -0.2770 N.ar  1 <1>  -0.6200 
 14 C        4.9770    10.3570    -0.0790 C.ar  1 <1>  -0.1430 
 15 C        7.2390     9.0930    -0.4920 C.ar  1 <1>   0.4770 
 16 C        6.1540    11.0260    -0.3140 C.ar  1 <1>   0.1600 
 17 C        3.6370    11.0610     0.1600 C.3   1 <1>  -0.0170 
 18 N        7.2990    10.4100    -0.5230 N.ar  1 <1>  -0.6200 
 19 C        8.5350     8.3570    -0.7320 C.3   1 <1>  -0.0970 
 20 C        3.6660    12.5920     0.0390 C.3   1 <1>  -0.1600 
 21 C        2.2760    13.1950     0.2690 C.3   1 <1>  -0.2400 
 22 H       -2.0110     1.9980    -0.2270 H     1 <1>   0.3700 
 23 H        1.8900     2.1440     0.3710 H     1 <1>   0.0800 
 24 H        1.3820     2.8050     1.8970 H     1 <1>   0.0800 
 25 H       -1.4960     4.5050    -0.5200 H     1 <1>   0.0800 
 26 H       -1.3120     3.5730    -1.9830 H     1 <1>   0.0800 
 27 H        0.5960     5.1260    -1.4890 H     1 <1>   0.0800 
 28 H        1.0780     3.4700    -1.7200 H     1 <1>   0.0800 
 29 H        3.1130     4.2190    -0.5600 H     1 <1>   0.0800 
 30 H        3.0480     4.3710     1.1780 H     1 <1>   0.0800 
 31 H        1.9400     6.5740     0.9490 H     1 <1>   0.0800 
 32 H        2.1710     6.4860    -0.7900 H     1 <1>   0.0800 
 33 H        4.6100     6.3040    -0.4520 H     1 <1>   0.0800 
 34 H        4.3800     6.4720     1.2750 H     1 <1>   0.0800 
 35 H        3.1250     8.6490     0.5810 H     1 <1>   0.4000 
 36 H        6.1850    12.1000    -0.3380 H     1 <1>   0.1500 
 37 H        3.2900    10.8010     1.1460 H     1 <1>   0.0800 
 38 H        2.9250    10.6770    -0.5500 H     1 <1>   0.0800 
 39 H        8.7390     7.7130     0.1010 H     1 <1>   0.0800 
 40 H        9.3480     9.0500    -0.8480 H     1 <1>   0.0800 
 41 H        8.4470     7.7660    -1.6240 H     1 <1>   0.0800 
 42 H        4.0080    12.8700    -0.9440 H     1 <1>   0.0800 
 43 H        4.3460    13.0010     0.7670 H     1 <1>   0.0800 
 44 H        1.5770    12.8220    -0.4590 H     1 <1>   0.0800 
 45 H        2.3210    14.2660     0.1790 H     1 <1>   0.0800 
 46 H        1.9160    12.9510     1.2540 H     1 <1>   0.0800 
@<TRIPOS>BOND
  1   1   2  2   
  2   2   3  am  
  3   2   4  1   
  4   3   5  1   
  5   3  22  1   
  6   4   6  1   
  7   4  23  1   
  8   4  24  1   
  9   5   7  1   
 10   5  25  1   
 11   5  26  1   
 12   6   7  1   
 13   6   8  1   
 14   7  27  1   
 15   7  28  1   
 16   8   9  1   
 17   8  29  1   
 18   8  30  1   
 19   9  10  1   
 20   9  31  1   
 21   9  32  1   
 22  10  11  1   
 23  10  33  1   
 24  10  34  1   
 25  11  12  1   
 26  11  35  1   
 27  12  13  ar  
 28  12  14  ar  
 29  13  15  ar  
 30  14  16  ar  
 31  14  17  1   
 32  15  18  ar  
 33  15  19  1   
 34  16  18  ar  
 35  16  36  1   
 36  17  20  1   
 37  17  37  1   
 38  17  38  1   
 39  19  39  1   
 40  19  40  1   
 41  19  41  1   
 42  20  21  1   
 43  20  42  1   
 44  20  43  1   
 45  21  44  1   
 46  21  45  1   
 47  21  46  1   
@<TRIPOS>SUBSTRUCTURE
  1 ****  10 GROUP 4 **** **** 0

# MOE 2024.06 (io_trps.svl 2023.06)
