@<TRIPOS>MOLECULE
NONAME
57 59 1 0 0 
SMALL
USER_CHARGES


@<TRIPOS>ATOM
  1 O        5.1700    -1.4250    -0.6250 O.2   1 <1>  -0.5700 
  2 C        3.9540    -1.3890    -0.7030 C.2   1 <1>   0.5440 
  3 N        3.4150    -0.2410    -1.2390 N.am  1 <1>  -0.6600 
  4 C        3.1260    -2.4610    -0.1760 C.ar  1 <1>   0.0860 
  5 C        4.0820     0.4220    -2.4070 C.3   1 <1>   0.1400 
  6 C        2.5560     0.6310    -0.4000 C.3   1 <1>   0.1400 
  7 C        1.8290    -2.6890    -0.6460 C.ar  1 <1>  -0.1500 
  8 C        3.5970    -3.3090     0.8270 C.ar  1 <1>  -0.1500 
  9 C        5.0760     1.5310    -1.9970 C.3   1 <1>   0.3430 
 10 C        3.3780     1.2240     0.7560 C.3   1 <1>  -0.1600 
 11 C        1.0350    -3.6980    -0.1320 C.ar  1 <1>  -0.1500 
 12 C        2.8100    -4.3200     1.3460 C.ar  1 <1>  -0.1500 
 13 N        5.4970     1.3900    -0.5710 N.4   1 <1>  -0.9590 
 14 C        4.5660     2.1050     0.3480 C.3   1 <1>   0.3430 
 15 C        1.5230    -4.5230     0.8770 C.ar  1 <1>   0.0830 
 16 C        6.9230     1.7730    -0.3690 C.3   1 <1>   0.3430 
 17 O        0.8170    -5.5300     1.4380 O.3   1 <1>  -0.3630 
 18 C        7.5050     1.1000     0.8750 C.3   1 <1>  -0.0170 
 19 C       -0.4900    -5.8490     1.0200 C.3   1 <1>   0.1200 
 20 C        8.9030     1.6330     1.1020 C.ar  1 <1>   0.1670 
 21 C       -0.9750    -7.0330     1.8500 C.3   1 <1>  -0.2400 
 22 N        9.0080     2.9520     1.1250 N.ar  1 <1>  -0.6200 
 23 C        9.9680     0.7620     1.2680 C.ar  1 <1>  -0.1500 
 24 C       10.2250     3.4320     1.3280 C.ar  1 <1>   0.1670 
 25 C       11.2310     1.2710     1.4740 C.ar  1 <1>  -0.1500 
 26 C       11.3510     2.6430     1.5040 C.ar  1 <1>  -0.1500 
 27 C       10.3440     4.9410     1.3630 C.3   1 <1>  -0.0970 
 28 H        3.3360     0.8270    -3.0690 H     1 <1>   0.0800 
 29 H        4.6220    -0.3260    -2.9630 H     1 <1>   0.0800 
 30 H        1.7430     0.0500     0.0030 H     1 <1>   0.0800 
 31 H        2.1290     1.4170    -1.0010 H     1 <1>   0.0800 
 32 H        1.4370    -2.0680    -1.4320 H     1 <1>   0.1500 
 33 H        4.5960    -3.1760     1.2040 H     1 <1>   0.1500 
 34 H        4.6240     2.4960    -2.1520 H     1 <1>   0.0800 
 35 H        5.9340     1.4670    -2.6460 H     1 <1>   0.0800 
 36 H        3.7270     0.4310     1.3930 H     1 <1>   0.0800 
 37 H        2.7180     1.8240     1.3560 H     1 <1>   0.0800 
 38 H        0.0450    -3.8320    -0.5260 H     1 <1>   0.1500 
 39 H        3.1860    -4.9650     2.1210 H     1 <1>   0.1500 
 40 H        5.4090     0.3650    -0.3870 H     1 <1>   0.4500 
 41 H        5.0930     2.3950     1.2430 H     1 <1>   0.0800 
 42 H        4.2090     3.0050    -0.1240 H     1 <1>   0.0800 
 43 H        7.0070     2.8440    -0.2730 H     1 <1>   0.0800 
 44 H        7.5100     1.4690    -1.2200 H     1 <1>   0.0800 
 45 H        7.5270     0.0340     0.7380 H     1 <1>   0.0800 
 46 H        6.9180     1.3330     1.7430 H     1 <1>   0.0800 
 47 H       -0.4610    -6.1030    -0.0250 H     1 <1>   0.0800 
 48 H       -1.1180    -4.9900     1.1800 H     1 <1>   0.0800 
 49 H       -0.3300    -7.8800     1.6960 H     1 <1>   0.0800 
 50 H       -1.9730    -7.3020     1.5540 H     1 <1>   0.0800 
 51 H       -0.9840    -6.7740     2.8940 H     1 <1>   0.0800 
 52 H        9.8220    -0.3030     1.2410 H     1 <1>   0.1500 
 53 H       12.0850     0.6290     1.6080 H     1 <1>   0.1500 
 54 H       12.3140     3.0930     1.6640 H     1 <1>   0.1500 
 55 H        9.7220     5.3320     2.1480 H     1 <1>   0.0800 
 56 H       10.0180     5.3510     0.4250 H     1 <1>   0.0800 
 57 H       11.3580     5.2470     1.5410 H     1 <1>   0.0800 
@<TRIPOS>BOND
  1   1   2  2   
  2   2   3  am  
  3   2   4  1   
  4   3   5  1   
  5   3   6  1   
  6   4   7  ar  
  7   4   8  ar  
  8   5   9  1   
  9   5  28  1   
 10   5  29  1   
 11   6  10  1   
 12   6  30  1   
 13   6  31  1   
 14   7  11  ar  
 15   7  32  1   
 16   8  12  ar  
 17   8  33  1   
 18   9  13  1   
 19   9  34  1   
 20   9  35  1   
 21  10  14  1   
 22  10  36  1   
 23  10  37  1   
 24  11  15  ar  
 25  11  38  1   
 26  12  15  ar  
 27  12  39  1   
 28  13  14  1   
 29  13  16  1   
 30  13  40  1   
 31  14  41  1   
 32  14  42  1   
 33  15  17  1   
 34  16  18  1   
 35  16  43  1   
 36  16  44  1   
 37  17  19  1   
 38  18  20  1   
 39  18  45  1   
 40  18  46  1   
 41  19  21  1   
 42  19  47  1   
 43  19  48  1   
 44  20  22  ar  
 45  20  23  ar  
 46  21  49  1   
 47  21  50  1   
 48  21  51  1   
 49  22  24  ar  
 50  23  25  ar  
 51  23  52  1   
 52  24  26  ar  
 53  24  27  1   
 54  25  26  ar  
 55  25  53  1   
 56  26  54  1   
 57  27  55  1   
 58  27  56  1   
 59  27  57  1   
@<TRIPOS>SUBSTRUCTURE
  1 ****   1 GROUP 4 **** **** 0

# MOE 2024.06 (io_trps.svl 2023.06)
