@<TRIPOS>MOLECULE
NONAME
50 52 1 0 0 
SMALL
USER_CHARGES


@<TRIPOS>ATOM
  1 S        0.0380    -1.0990    -2.1720 S.o2  1 <1>   1.0900 
  2 O       -0.9380    -1.4820    -3.1660 O.2   1 <1>  -0.6500 
  3 O        1.4440    -1.1200    -2.4920 O.2   1 <1>  -0.6500 
  4 C       -0.2180    -2.1070    -0.7140 C.3   1 <1>  -0.0550 
  5 C       -0.3610     0.5500    -1.6250 C.3   1 <1>  -0.1350 
  6 C       -1.7040    -2.3140    -0.3670 C.3   1 <1>  -0.0990 
  7 C       -1.9080    -3.1770     0.8670 C.2   1 <1>   0.5690 
  8 O       -0.9780    -3.2900     1.6290 O.2   1 <1>  -0.5700 
  9 N       -3.1100    -3.7970     1.0910 N.am  1 <1>  -0.6600 
 10 C       -4.3400    -3.6490     0.2640 C.3   1 <1>   0.1400 
 11 C       -3.2800    -4.7790     2.1980 C.3   1 <1>   0.1400 
 12 C       -4.6530    -4.9970    -0.3870 C.3   1 <1>  -0.1600 
 13 C       -3.5960    -6.1500     1.5950 C.3   1 <1>  -0.1600 
 14 C       -4.8220    -6.1050     0.6690 C.3   1 <1>   0.4240 
 15 O       -5.8980    -5.7440     1.5020 O.3   1 <1>  -0.5600 
 16 C       -5.0440    -7.4810     0.0040 C.ar  1 <1>  -0.1430 
 17 C       -7.1840    -6.0720     1.0780 C.3   1 <1>   0.1200 
 18 C       -6.2280    -8.1880     0.1870 C.ar  1 <1>  -0.1430 
 19 C       -4.0570    -8.0400    -0.8020 C.ar  1 <1>  -0.1500 
 20 C       -7.3220    -7.5910     1.0500 C.3   1 <1>  -0.0170 
 21 C       -6.4160    -9.4240    -0.4110 C.ar  1 <1>  -0.1500 
 22 C       -4.2440    -9.2720    -1.4020 C.ar  1 <1>  -0.1500 
 23 C       -5.4210    -9.9740    -1.2120 C.ar  1 <1>   0.0830 
 24 O       -5.5240   -11.1750    -1.8330 O.3   1 <1>  -0.3620 
 25 C       -6.6730   -11.9800    -1.6870 C.3   1 <1>   0.0400 
 26 H        0.2920    -1.6690     0.1230 H     1 <1>   0.0800 
 27 H        0.2210    -3.0730    -0.8800 H     1 <1>   0.0800 
 28 H       -0.2110     1.2450    -2.4300 H     1 <1>   0.0800 
 29 H        0.2730     0.8400    -0.8090 H     1 <1>   0.0800 
 30 H       -1.3840     0.6130    -1.3130 H     1 <1>   0.0800 
 31 H       -2.1720    -2.7920    -1.2080 H     1 <1>   0.0800 
 32 H       -2.1820    -1.3680    -0.1970 H     1 <1>   0.0800 
 33 H       -4.2250    -2.8920    -0.4900 H     1 <1>   0.0800 
 34 H       -5.1560    -3.3520     0.9010 H     1 <1>   0.0800 
 35 H       -4.0850    -4.4590     2.8370 H     1 <1>   0.0800 
 36 H       -2.3860    -4.8440     2.7960 H     1 <1>   0.0800 
 37 H       -3.8460    -5.2480    -1.0490 H     1 <1>   0.0800 
 38 H       -5.5400    -4.9220    -0.9860 H     1 <1>   0.0800 
 39 H       -3.7750    -6.8610     2.3800 H     1 <1>   0.0800 
 40 H       -2.7310    -6.4810     1.0530 H     1 <1>   0.0800 
 41 H       -7.3560    -5.6500     0.1030 H     1 <1>   0.0800 
 42 H       -7.8810    -5.6440     1.7760 H     1 <1>   0.0800 
 43 H       -3.1300    -7.5230    -0.9720 H     1 <1>   0.1500 
 44 H       -8.2890    -7.8510     0.6600 H     1 <1>   0.0800 
 45 H       -7.2450    -7.9760     2.0510 H     1 <1>   0.0800 
 46 H       -7.3380    -9.9460    -0.2470 H     1 <1>   0.1500 
 47 H       -3.4770    -9.6980    -2.0220 H     1 <1>   0.1500 
 48 H       -6.5250   -12.8790    -2.2570 H     1 <1>   0.0800 
 49 H       -7.5250   -11.4430    -2.0650 H     1 <1>   0.0800 
 50 H       -6.7990   -12.2230    -0.6470 H     1 <1>   0.0800 
@<TRIPOS>BOND
  1   1   2  2   
  2   1   3  2   
  3   1   4  1   
  4   1   5  1   
  5   4   6  1   
  6   4  26  1   
  7   4  27  1   
  8   5  28  1   
  9   5  29  1   
 10   5  30  1   
 11   6   7  1   
 12   6  31  1   
 13   6  32  1   
 14   7   8  2   
 15   7   9  am  
 16   9  10  1   
 17   9  11  1   
 18  10  12  1   
 19  10  33  1   
 20  10  34  1   
 21  11  13  1   
 22  11  35  1   
 23  11  36  1   
 24  12  14  1   
 25  12  37  1   
 26  12  38  1   
 27  13  14  1   
 28  13  39  1   
 29  13  40  1   
 30  14  15  1   
 31  14  16  1   
 32  15  17  1   
 33  16  18  ar  
 34  16  19  ar  
 35  17  20  1   
 36  17  41  1   
 37  17  42  1   
 38  18  20  1   
 39  18  21  ar  
 40  19  22  ar  
 41  19  43  1   
 42  20  44  1   
 43  20  45  1   
 44  21  23  ar  
 45  21  46  1   
 46  22  23  ar  
 47  22  47  1   
 48  23  24  1   
 49  24  25  1   
 50  25  48  1   
 51  25  49  1   
 52  25  50  1   
@<TRIPOS>SUBSTRUCTURE
  1 ****  12 GROUP 4 **** **** 0

# MOE 2024.06 (io_trps.svl 2023.06)
