@<TRIPOS>MOLECULE
NONAME
35 36 1 0 0 
SMALL
USER_CHARGES


@<TRIPOS>ATOM
  1 CL      -0.5120    -0.0640     0.2580 Cl    1 <1>  -0.1770 
  2 C       -0.3640    -1.7930     0.4090 C.ar  1 <1>   0.1770 
  3 C        0.7420    -2.4300    -0.1190 C.ar  1 <1>  -0.1500 
  4 C       -1.3560    -2.5050     1.0530 C.ar  1 <1>  -0.1500 
  5 C        0.8650    -3.8070    -0.0080 C.ar  1 <1>  -0.1440 
  6 C       -1.2310    -3.8770     1.1650 C.ar  1 <1>  -0.1500 
  7 C       -0.1290    -4.5560     0.6390 C.ar  1 <1>   0.0860 
  8 C        2.0900    -4.4970    -0.5940 C.3   1 <1>  -0.0960 
  9 C       -0.0580    -5.9990     0.7740 C.2   1 <1>   0.5440 
 10 O        0.7750    -6.4950     1.5110 O.2   1 <1>  -0.5700 
 11 N       -0.9250    -6.8220     0.0920 N.am  1 <1>  -0.6600 
 12 C       -1.0960    -8.2660     0.4730 C.3   1 <1>   0.1400 
 13 C       -1.8590    -6.3540    -0.9700 C.3   1 <1>   0.1400 
 14 C       -2.5440    -8.7760     0.2930 C.3   1 <1>   0.2000 
 15 C       -3.3140    -6.4610    -0.4880 C.3   1 <1>  -0.1600 
 16 O       -2.7090    -9.2950    -0.9820 O.3   1 <1>  -0.6800 
 17 C       -3.5640    -7.6450     0.4830 C.3   1 <1>  -0.1860 
 18 C       -4.9790    -8.1790     0.3940 C.2   1 <1>   0.9060 
 19 O       -5.7740    -7.9050     1.2950 O.co2 1 <1>  -0.9000 
 20 O       -5.2860    -8.8800    -0.5820 O.co2 1 <1>  -0.9000 
 21 H        1.4960    -1.8430    -0.6110 H     1 <1>   0.1500 
 22 H       -2.2090    -1.9920     1.4590 H     1 <1>   0.1500 
 23 H       -1.9960    -4.4470     1.6670 H     1 <1>   0.1500 
 24 H        2.7180    -3.8000    -1.1200 H     1 <1>   0.0800 
 25 H        1.7870    -5.2680    -1.2810 H     1 <1>   0.0800 
 26 H        2.6670    -4.9490     0.1940 H     1 <1>   0.0800 
 27 H       -0.4220    -8.8760    -0.1010 H     1 <1>   0.0800 
 28 H       -0.8370    -8.3740     1.5110 H     1 <1>   0.0800 
 29 H       -1.6390    -5.3470    -1.2750 H     1 <1>   0.0800 
 30 H       -1.7280    -6.9900    -1.8290 H     1 <1>   0.0800 
 31 H       -2.7420    -9.5770     0.9850 H     1 <1>   0.0800 
 32 H       -3.6120    -5.5460    -0.0100 H     1 <1>   0.0800 
 33 H       -3.9380    -6.5790    -1.3580 H     1 <1>   0.0800 
 34 H       -3.7020    -9.3290    -1.1240 H     1 <1>   0.4000 
 35 H       -3.4390    -7.2790     1.4850 H     1 <1>   0.0800 
@<TRIPOS>BOND
  1   1   2  1   
  2   2   3  ar  
  3   2   4  ar  
  4   3   5  ar  
  5   3  21  1   
  6   4   6  ar  
  7   4  22  1   
  8   5   7  ar  
  9   5   8  1   
 10   6   7  ar  
 11   6  23  1   
 12   7   9  1   
 13   8  24  1   
 14   8  25  1   
 15   8  26  1   
 16   9  10  2   
 17   9  11  am  
 18  11  12  1   
 19  11  13  1   
 20  12  14  1   
 21  12  27  1   
 22  12  28  1   
 23  13  15  1   
 24  13  29  1   
 25  13  30  1   
 26  14  16  1   
 27  14  17  1   
 28  14  31  1   
 29  15  17  1   
 30  15  32  1   
 31  15  33  1   
 32  16  34  1   
 33  17  18  1   
 34  17  35  1   
 35  18  19  ar  
 36  18  20  ar  
@<TRIPOS>SUBSTRUCTURE
  1 ****  11 GROUP 4 **** **** 0

# MOE 2024.06 (io_trps.svl 2023.06)
