@<TRIPOS>MOLECULE
NONAME
44 45 1 0 0 
SMALL
USER_CHARGES


@<TRIPOS>ATOM
  1 O        1.7520     1.5570    -1.8120 O.3   1 <1>  -0.5600 
  2 C        2.1870     2.4710    -0.8490 C.3   1 <1>   0.1200 
  3 C        2.7530     1.1530    -2.6870 C.3   1 <1>   0.0400 
  4 C        1.0330     2.9040     0.0850 C.3   1 <1>   0.0000 
  5 C        0.3410     1.7110     0.7660 C.3   1 <1>  -0.1600 
  6 C       -0.1360     3.5630    -0.6680 C.3   1 <1>  -0.1600 
  7 C        1.5990     3.8440     1.1770 C.3   1 <1>   0.2090 
  8 C       -1.0600     2.2010     1.1470 C.3   1 <1>  -0.1600 
  9 C       -1.3570     3.4030     0.2410 C.3   1 <1>  -0.1600 
 10 N        2.2150     5.0730     0.6040 N.pl3 1 <1>  -0.8690 
 11 C        3.5590     5.2830     0.4030 C.ar  1 <1>   0.4100 
 12 N        4.3820     4.3360     0.8030 N.ar  1 <1>  -0.6200 
 13 C        4.0260     6.4390    -0.2120 C.ar  1 <1>  -0.1440 
 14 C        5.6620     4.5510     0.5900 C.ar  1 <1>   0.4770 
 15 C        5.3870     6.5350    -0.3770 C.ar  1 <1>   0.1600 
 16 C        3.0430     7.5220    -0.6660 C.3   1 <1>  -0.0170 
 17 N        6.2230     5.5960     0.0180 N.ar  1 <1>  -0.6200 
 18 C        6.6090     3.4700     1.0510 C.3   1 <1>  -0.0970 
 19 C        3.6810     8.7670    -1.2950 C.3   1 <1>  -0.2400 
 20 H        2.5880     3.3300    -1.3590 H     1 <1>   0.0800 
 21 H        2.9710     2.0100    -0.2720 H     1 <1>   0.0800 
 22 H        2.3260     0.4570    -3.3860 H     1 <1>   0.0800 
 23 H        3.5390     0.6740    -2.1290 H     1 <1>   0.0800 
 24 H        3.1310     2.0120    -3.2140 H     1 <1>   0.0800 
 25 H        0.8890     1.3450     1.6160 H     1 <1>   0.0800 
 26 H        0.2330     0.9040     0.0620 H     1 <1>   0.0800 
 27 H       -0.3200     3.0220    -1.5800 H     1 <1>   0.0800 
 28 H        0.0510     4.5910    -0.9210 H     1 <1>   0.0800 
 29 H        2.3280     3.3090     1.7620 H     1 <1>   0.0800 
 30 H        0.8150     4.1410     1.8510 H     1 <1>   0.0800 
 31 H       -1.0790     2.5090     2.1790 H     1 <1>   0.0800 
 32 H       -1.7860     1.4180     1.0060 H     1 <1>   0.0800 
 33 H       -2.2480     3.2440    -0.3420 H     1 <1>   0.0800 
 34 H       -1.4880     4.2870     0.8420 H     1 <1>   0.0800 
 35 H        1.5580     5.7140     0.1620 H     1 <1>   0.4000 
 36 H        5.8280     7.3970    -0.8430 H     1 <1>   0.1500 
 37 H        2.4630     7.8340     0.1860 H     1 <1>   0.0800 
 38 H        2.3650     7.0900    -1.3820 H     1 <1>   0.0800 
 39 H        6.0740     2.6880     1.5570 H     1 <1>   0.0800 
 40 H        7.3320     3.8920     1.7230 H     1 <1>   0.0800 
 41 H        7.1170     3.0550     0.2010 H     1 <1>   0.0800 
 42 H        4.3420     9.2470    -0.5950 H     1 <1>   0.0800 
 43 H        2.9140     9.4690    -1.5710 H     1 <1>   0.0800 
 44 H        4.2310     8.5030    -2.1820 H     1 <1>   0.0800 
@<TRIPOS>BOND
  1   1   2  1   
  2   1   3  1   
  3   2   4  1   
  4   2  20  1   
  5   2  21  1   
  6   3  22  1   
  7   3  23  1   
  8   3  24  1   
  9   4   5  1   
 10   4   6  1   
 11   4   7  1   
 12   5   8  1   
 13   5  25  1   
 14   5  26  1   
 15   6   9  1   
 16   6  27  1   
 17   6  28  1   
 18   7  10  1   
 19   7  29  1   
 20   7  30  1   
 21   8   9  1   
 22   8  31  1   
 23   8  32  1   
 24   9  33  1   
 25   9  34  1   
 26  10  11  1   
 27  10  35  1   
 28  11  12  ar  
 29  11  13  ar  
 30  12  14  ar  
 31  13  15  ar  
 32  13  16  1   
 33  14  17  ar  
 34  14  18  1   
 35  15  17  ar  
 36  15  36  1   
 37  16  19  1   
 38  16  37  1   
 39  16  38  1   
 40  18  39  1   
 41  18  40  1   
 42  18  41  1   
 43  19  42  1   
 44  19  43  1   
 45  19  44  1   
@<TRIPOS>SUBSTRUCTURE
  1 ****  10 GROUP 4 **** **** 0

# MOE 2024.06 (io_trps.svl 2023.06)
