@<TRIPOS>MOLECULE
NONAME
41 43 1 0 0 
SMALL
USER_CHARGES


@<TRIPOS>ATOM
  1 O       -1.7310     0.4250    -2.0790 O.2   1 <1>  -0.5700 
  2 C       -1.8700    -0.4010    -1.2020 C.2   1 <1>   0.5690 
  3 N       -1.9810    -0.0590     0.1200 N.am  1 <1>  -0.6600 
  4 C       -1.8810    -1.8710    -1.6020 C.3   1 <1>  -0.0190 
  5 C       -2.2640    -1.1090     1.1510 C.3   1 <1>   0.2200 
  6 C       -1.9470     1.3500     0.5880 C.3   1 <1>   0.0600 
  7 C       -0.6240    -2.5870    -1.0780 C.3   1 <1>   0.1200 
  8 C       -3.1810    -2.6400    -1.2690 C.3   1 <1>   0.1100 
  9 C       -1.2050    -2.2440     1.2130 C.3   1 <1>   0.1200 
 10 C       -3.6880    -1.6850     0.9750 C.3   1 <1>   0.1100 
 11 O       -0.2380    -2.1860     0.2040 O.3   1 <1>  -0.5600 
 12 N       -4.1310    -1.9020    -0.4240 N.3   1 <1>  -0.8100 
 13 C       -5.5040    -2.4650    -0.4710 C.3   1 <1>   0.2530 
 14 C       -5.6080    -3.9370    -0.0530 C.ar  1 <1>   0.1670 
 15 N       -5.7240    -4.2030     1.2430 N.ar  1 <1>  -0.6200 
 16 C       -5.5940    -4.9160    -1.0360 C.ar  1 <1>  -0.1500 
 17 C       -5.8220    -5.4830     1.5630 C.ar  1 <1>   0.1600 
 18 C       -5.6930    -6.2450    -0.6860 C.ar  1 <1>  -0.1500 
 19 C       -5.8090    -6.5340     0.6570 C.ar  1 <1>  -0.1440 
 20 C       -5.9280    -7.9760     1.1210 C.3   1 <1>  -0.0970 
 21 H       -1.8000    -1.8990    -2.6730 H     1 <1>   0.0800 
 22 H       -2.2500    -0.6420     2.1190 H     1 <1>   0.0800 
 23 H       -1.1740     1.4680     1.3260 H     1 <1>   0.0800 
 24 H       -2.8990     1.6120     1.0150 H     1 <1>   0.0800 
 25 H       -1.7430     2.0150    -0.2330 H     1 <1>   0.0800 
 26 H        0.2040    -2.3500    -1.7230 H     1 <1>   0.0800 
 27 H       -0.7500    -3.6550    -1.0770 H     1 <1>   0.0800 
 28 H       -2.9530    -3.5850    -0.8060 H     1 <1>   0.0800 
 29 H       -3.6680    -2.8550    -2.2050 H     1 <1>   0.0800 
 30 H       -1.6650    -3.2170     1.1910 H     1 <1>   0.0800 
 31 H       -0.6760    -2.1620     2.1460 H     1 <1>   0.0800 
 32 H       -4.3740    -0.9930     1.4320 H     1 <1>   0.0800 
 33 H       -3.7600    -2.6030     1.5310 H     1 <1>   0.0800 
 34 H       -6.1480    -1.8800     0.1620 H     1 <1>   0.0800 
 35 H       -5.8780    -2.3600    -1.4740 H     1 <1>   0.0800 
 36 H       -5.5050    -4.6420    -2.0710 H     1 <1>   0.1500 
 37 H       -5.9190    -5.7080     2.6110 H     1 <1>   0.1500 
 38 H       -5.6830    -7.0210    -1.4310 H     1 <1>   0.1500 
 39 H       -5.2590    -8.6030     0.5600 H     1 <1>   0.0800 
 40 H       -6.9350    -8.3240     0.9740 H     1 <1>   0.0800 
 41 H       -5.6810    -8.0630     2.1640 H     1 <1>   0.0800 
@<TRIPOS>BOND
  1   1   2  2   
  2   2   3  am  
  3   2   4  1   
  4   3   5  1   
  5   3   6  1   
  6   4   7  1   
  7   4   8  1   
  8   4  21  1   
  9   5   9  1   
 10   5  10  1   
 11   5  22  1   
 12   6  23  1   
 13   6  24  1   
 14   6  25  1   
 15   7  11  1   
 16   7  26  1   
 17   7  27  1   
 18   8  12  1   
 19   8  28  1   
 20   8  29  1   
 21   9  11  1   
 22   9  30  1   
 23   9  31  1   
 24  10  12  1   
 25  10  32  1   
 26  10  33  1   
 27  12  13  1   
 28  13  14  1   
 29  13  34  1   
 30  13  35  1   
 31  14  15  ar  
 32  14  16  ar  
 33  15  17  ar  
 34  16  18  ar  
 35  16  36  1   
 36  17  19  ar  
 37  17  37  1   
 38  18  19  ar  
 39  18  38  1   
 40  19  20  1   
 41  20  39  1   
 42  20  40  1   
 43  20  41  1   
@<TRIPOS>SUBSTRUCTURE
  1 ****  12 GROUP 4 **** **** 0

# MOE 2024.06 (io_trps.svl 2023.06)
