@<TRIPOS>MOLECULE
NONAME
47 49 1 0 0 
SMALL
USER_CHARGES


@<TRIPOS>ATOM
  1 O       -1.5990     0.2400     2.2550 O.2   1 <1>  -0.5700 
  2 C       -1.9070     0.6850     1.1750 C.2   1 <1>   0.5690 
  3 N       -2.3400    -0.1210     0.1570 N.am  1 <1>  -0.6600 
  4 C       -1.7840     2.1890     0.9860 C.3   1 <1>  -0.0990 
  5 C       -2.2750    -1.6170     0.3070 C.3   1 <1>   0.3640 
  6 C       -2.9300     0.3930    -1.1210 C.3   1 <1>   0.1400 
  7 C       -0.5040     2.5820     0.2260 C.3   1 <1>  -0.0800 
  8 C       -0.9730    -2.1940    -0.2760 C.ar  1 <1>  -0.1440 
  9 C       -3.5230    -2.3350    -0.3010 C.3   1 <1>   0.2000 
 10 C       -3.4050    -0.7370    -2.0450 C.3   1 <1>   0.1200 
 11 C        0.7830     2.1360     0.9180 C.3   1 <1>  -0.1600 
 12 C       -0.3280     4.0910     0.0860 C.3   1 <1>  -0.1600 
 13 C       -0.6360    -3.4990     0.0600 C.ar  1 <1>  -0.1500 
 14 C       -0.1110    -1.4840    -1.1060 C.ar  1 <1>  -0.1500 
 15 O       -4.1940    -1.6190    -1.3140 O.3   1 <1>  -0.5600 
 16 C       -4.5650    -2.6470     0.7790 C.3   1 <1>   0.1200 
 17 C        1.8750     3.0550     0.3650 C.3   1 <1>  -0.1600 
 18 C        1.1590     4.2820    -0.2140 C.3   1 <1>  -0.1600 
 19 C        0.5150    -4.0890    -0.4330 C.ar  1 <1>  -0.1500 
 20 C        1.0410    -2.0700    -1.6010 C.ar  1 <1>  -0.1500 
 21 O       -4.1200    -3.6910     1.5870 O.3   1 <1>  -0.6800 
 22 C        1.3540    -3.3750    -1.2670 C.ar  1 <1>  -0.1500 
 23 H       -2.6480     2.5650     0.4750 H     1 <1>   0.0800 
 24 H       -1.7700     2.6450     1.9600 H     1 <1>   0.0800 
 25 H       -2.2520    -1.8560     1.3570 H     1 <1>   0.0800 
 26 H       -3.7750     1.0170    -0.8890 H     1 <1>   0.0800 
 27 H       -2.2070     0.9900    -1.6450 H     1 <1>   0.0800 
 28 H       -0.5160     2.1520    -0.7600 H     1 <1>   0.0800 
 29 H       -3.2160    -3.2640    -0.7470 H     1 <1>   0.0800 
 30 H       -2.5770    -1.2760    -2.4720 H     1 <1>   0.0800 
 31 H       -4.0060    -0.3380    -2.8430 H     1 <1>   0.0800 
 32 H        0.6960     2.2890     1.9800 H     1 <1>   0.0800 
 33 H        1.0000     1.0970     0.7360 H     1 <1>   0.0800 
 34 H       -0.9510     4.5030    -0.6890 H     1 <1>   0.0800 
 35 H       -0.5620     4.5730     1.0200 H     1 <1>   0.0800 
 36 H       -1.2710    -4.0670     0.7190 H     1 <1>   0.1500 
 37 H       -0.3150    -0.4650    -1.3730 H     1 <1>   0.1500 
 38 H       -5.4980    -2.9460     0.3340 H     1 <1>   0.0800 
 39 H       -4.7220    -1.7840     1.4040 H     1 <1>   0.0800 
 40 H        2.5620     3.3360     1.1450 H     1 <1>   0.0800 
 41 H        2.4210     2.5520    -0.4140 H     1 <1>   0.0800 
 42 H        1.3130     4.3150    -1.2790 H     1 <1>   0.0800 
 43 H        1.5270     5.1960     0.2190 H     1 <1>   0.0800 
 44 H        0.7590    -5.1010    -0.1630 H     1 <1>   0.1500 
 45 H        1.6970    -1.5080    -2.2420 H     1 <1>   0.1500 
 46 H       -4.2610    -4.5520     1.1470 H     1 <1>   0.4000 
 47 H        2.2500    -3.8300    -1.6510 H     1 <1>   0.1500 
@<TRIPOS>BOND
  1   1   2  2   
  2   2   3  am  
  3   2   4  1   
  4   3   5  1   
  5   3   6  1   
  6   4   7  1   
  7   4  23  1   
  8   4  24  1   
  9   5   8  1   
 10   5   9  1   
 11   5  25  1   
 12   6  10  1   
 13   6  26  1   
 14   6  27  1   
 15   7  11  1   
 16   7  12  1   
 17   7  28  1   
 18   8  13  ar  
 19   8  14  ar  
 20   9  15  1   
 21   9  16  1   
 22   9  29  1   
 23  10  15  1   
 24  10  30  1   
 25  10  31  1   
 26  11  17  1   
 27  11  32  1   
 28  11  33  1   
 29  12  18  1   
 30  12  34  1   
 31  12  35  1   
 32  13  19  ar  
 33  13  36  1   
 34  14  20  ar  
 35  14  37  1   
 36  16  21  1   
 37  16  38  1   
 38  16  39  1   
 39  17  18  1   
 40  17  40  1   
 41  17  41  1   
 42  18  42  1   
 43  18  43  1   
 44  19  22  ar  
 45  19  44  1   
 46  20  22  ar  
 47  20  45  1   
 48  21  46  1   
 49  22  47  1   
@<TRIPOS>SUBSTRUCTURE
  1 ****   3 GROUP 4 **** **** 0

# MOE 2024.06 (io_trps.svl 2023.06)
