@<TRIPOS>MOLECULE
NONAME
56 59 1 0 0 
SMALL
USER_CHARGES


@<TRIPOS>ATOM
  1 O       -1.0130     1.1490    -2.0500 O.2   1 <1>  -0.5700 
  2 C       -1.7130     1.2070    -1.0530 C.2   1 <1>   0.5440 
  3 N       -2.5970     0.1740    -0.8050 N.am  1 <1>  -0.6600 
  4 C       -1.6120     2.3440    -0.1700 C.ar  1 <1>   0.0860 
  5 C       -3.1000    -0.1590     0.5530 C.3   1 <1>   0.1400 
  6 C       -2.9750    -0.7990    -1.8630 C.3   1 <1>   0.1400 
  7 C       -0.3760     2.7330     0.3790 C.ar  1 <1>   0.4100 
  8 C       -2.7360     3.0870     0.1670 C.ar  1 <1>  -0.1500 
  9 C       -4.6240    -0.2820     0.5280 C.3   1 <1>  -0.1600 
 10 C       -4.4990    -0.8940    -1.9470 C.3   1 <1>  -0.1600 
 11 N       -0.2320     3.7520     1.2250 N.ar  1 <1>  -0.6200 
 12 N        0.7750     2.0520     0.0510 N.pl3 1 <1>  -0.8690 
 13 C       -2.5820     4.1450     1.0320 C.ar  1 <1>  -0.1500 
 14 C       -5.2000    -1.1590    -0.6000 C.3   1 <1>   0.4240 
 15 C       -1.3210     4.4280     1.5280 C.ar  1 <1>   0.1600 
 16 C        2.1430     2.5270     0.3780 C.3   1 <1>   0.1290 
 17 O       -6.5120    -0.6700    -0.7410 O.3   1 <1>  -0.5600 
 18 C       -5.2160    -2.6670    -0.2230 C.ar  1 <1>  -0.1430 
 19 C       -7.4380    -1.4740    -1.4000 C.3   1 <1>   0.1200 
 20 C       -6.4110    -3.3800    -0.1820 C.ar  1 <1>  -0.1440 
 21 C       -4.0490    -3.3630     0.0750 C.ar  1 <1>  -0.1500 
 22 C       -7.7160    -2.6900    -0.5270 C.3   1 <1>  -0.0170 
 23 C       -6.4330    -4.7200     0.1710 C.ar  1 <1>  -0.1500 
 24 C       -4.0480    -4.7040     0.4170 C.ar  1 <1>   0.0830 
 25 C       -5.2620    -5.4010     0.4860 C.ar  1 <1>   0.0830 
 26 O       -2.8110    -5.2240     0.6650 O.3   1 <1>  -0.3630 
 27 O       -5.2850    -6.7110     0.8690 O.3   1 <1>  -0.3620 
 28 C       -2.5220    -6.5840     0.4310 C.3   1 <1>   0.0400 
 29 C       -6.4830    -7.3590     1.2380 C.3   1 <1>   0.0400 
 30 H       -2.8180     0.5990     1.2620 H     1 <1>   0.0800 
 31 H       -2.6460    -1.0720     0.8860 H     1 <1>   0.0800 
 32 H       -2.5360    -1.7550    -1.6470 H     1 <1>   0.0800 
 33 H       -2.5940    -0.4800    -2.8180 H     1 <1>   0.0800 
 34 H       -3.6980     2.8350    -0.2440 H     1 <1>   0.1500 
 35 H       -5.0150     0.7140     0.4220 H     1 <1>   0.0800 
 36 H       -4.9620    -0.6630     1.4740 H     1 <1>   0.0800 
 37 H       -4.7520    -1.6710    -2.6440 H     1 <1>   0.0800 
 38 H       -4.8520     0.0400    -2.3460 H     1 <1>   0.0800 
 39 H        0.7010     1.5020    -0.8190 H     1 <1>   0.4000 
 40 H       -3.4240     4.7480     1.3230 H     1 <1>   0.1500 
 41 H       -1.2070     5.2550     2.2080 H     1 <1>   0.1500 
 42 H        2.2030     2.7790     1.4230 H     1 <1>   0.0800 
 43 H        2.3730     3.4000    -0.2070 H     1 <1>   0.0800 
 44 H        2.8590     1.7530     0.1640 H     1 <1>   0.0800 
 45 H       -7.0460    -1.7610    -2.3600 H     1 <1>   0.0800 
 46 H       -8.3350    -0.8980    -1.5420 H     1 <1>   0.0800 
 47 H       -3.0940    -2.8860     0.0460 H     1 <1>   0.1500 
 48 H       -8.3660    -3.3620    -1.0570 H     1 <1>   0.0800 
 49 H       -8.2110    -2.3770     0.3740 H     1 <1>   0.0800 
 50 H       -7.3810    -5.2210     0.1940 H     1 <1>   0.1500 
 51 H       -1.4550    -6.6930     0.3640 H     1 <1>   0.0800 
 52 H       -2.9830    -6.8890    -0.4920 H     1 <1>   0.0800 
 53 H       -2.8940    -7.1650     1.2550 H     1 <1>   0.0800 
 54 H       -6.2310    -8.3320     1.6220 H     1 <1>   0.0800 
 55 H       -7.1070    -7.4630     0.3690 H     1 <1>   0.0800 
 56 H       -6.9720    -6.7810     2.0010 H     1 <1>   0.0800 
@<TRIPOS>BOND
  1   1   2  2   
  2   2   3  am  
  3   2   4  1   
  4   3   5  1   
  5   3   6  1   
  6   4   7  ar  
  7   4   8  ar  
  8   5   9  1   
  9   5  30  1   
 10   5  31  1   
 11   6  10  1   
 12   6  32  1   
 13   6  33  1   
 14   7  11  ar  
 15   7  12  1   
 16   8  13  ar  
 17   8  34  1   
 18   9  14  1   
 19   9  35  1   
 20   9  36  1   
 21  10  14  1   
 22  10  37  1   
 23  10  38  1   
 24  11  15  ar  
 25  12  16  1   
 26  12  39  1   
 27  13  15  ar  
 28  13  40  1   
 29  14  17  1   
 30  14  18  1   
 31  15  41  1   
 32  16  42  1   
 33  16  43  1   
 34  16  44  1   
 35  17  19  1   
 36  18  20  ar  
 37  18  21  ar  
 38  19  22  1   
 39  19  45  1   
 40  19  46  1   
 41  20  22  1   
 42  20  23  ar  
 43  21  24  ar  
 44  21  47  1   
 45  22  48  1   
 46  22  49  1   
 47  23  25  ar  
 48  23  50  1   
 49  24  25  ar  
 50  24  26  1   
 51  25  27  1   
 52  26  28  1   
 53  27  29  1   
 54  28  51  1   
 55  28  52  1   
 56  28  53  1   
 57  29  54  1   
 58  29  55  1   
 59  29  56  1   
@<TRIPOS>SUBSTRUCTURE
  1 ****   5 GROUP 4 **** **** 0

# MOE 2024.06 (io_trps.svl 2023.06)
