@<TRIPOS>MOLECULE
NONAME
50 52 1 0 0 
SMALL
USER_CHARGES


@<TRIPOS>ATOM
  1 O        0.5300     0.5640     2.2530 O.2   1 <1>  -0.5700 
  2 C        1.3730    -0.0030     1.6040 C.2   1 <1>   0.5690 
  3 N        2.2020     0.6200     0.7140 N.am  1 <1>  -0.4940 
  4 C        1.5400    -1.4990     1.7970 C.3   1 <1>  -0.0990 
  5 C        2.3220     1.9610     0.2830 C.2   1 <1>  -0.0880 
  6 C        0.5950    -2.3260     0.9040 C.3   1 <1>  -0.0800 
  7 N        1.3880     2.9530     0.2780 N.pl3 1 <1>   0.3140 
  8 C        3.4520     2.4880    -0.2670 C.2   1 <1>  -0.0540 
  9 C        0.7050    -3.8200     1.2570 C.3   1 <1>   0.1200 
 10 C        0.8760    -2.1150    -0.5950 C.3   1 <1>  -0.1600 
 11 N        1.8850     4.0910    -0.2560 N.2   1 <1>  -0.7070 
 12 C       -0.0240     2.9100     0.6810 C.3   1 <1>   0.0160 
 13 C        4.7150     1.8320    -0.4890 C.ar  1 <1>   0.0540 
 14 C        3.1050     3.8070    -0.5690 C.2   1 <1>   0.1080 
 15 O       -0.1350    -4.5680     0.4330 O.3   1 <1>  -0.5600 
 16 C        0.0280    -3.0820    -1.4290 C.3   1 <1>  -0.1600 
 17 C        5.2030     1.6280    -1.7760 C.ar  1 <1>  -0.1500 
 18 C        5.4760     1.3730     0.5820 C.ar  1 <1>  -0.1500 
 19 C        4.0290     4.8290    -1.1940 C.3   1 <1>  -0.0590 
 20 C        0.1800    -4.5210    -0.9240 C.3   1 <1>   0.1200 
 21 C        6.4090     0.9860    -1.9850 C.ar  1 <1>  -0.1500 
 22 C        6.6840     0.7290     0.3820 C.ar  1 <1>  -0.1500 
 23 C        7.1590     0.5310    -0.9120 C.ar  1 <1>   0.0820 
 24 O        8.3300    -0.0890    -1.2020 O.3   1 <1>  -0.3620 
 25 C        9.2080    -0.5110    -0.1820 C.3   1 <1>   0.0400 
 26 H        2.9240     0.0140     0.3210 H     1 <1>   0.3700 
 27 H        1.3280    -1.7170     2.8280 H     1 <1>   0.0800 
 28 H        2.5620    -1.7740     1.6110 H     1 <1>   0.0800 
 29 H       -0.4160    -2.0190     1.1140 H     1 <1>   0.0800 
 30 H        0.3940    -3.9910     2.2730 H     1 <1>   0.0800 
 31 H        1.7120    -4.1810     1.1340 H     1 <1>   0.0800 
 32 H        1.9170    -2.2990    -0.8010 H     1 <1>   0.0800 
 33 H        0.6450    -1.1040    -0.8860 H     1 <1>   0.0800 
 34 H       -0.4610     1.9860     0.3520 H     1 <1>   0.0800 
 35 H       -0.5450     3.7340     0.2330 H     1 <1>   0.0800 
 36 H       -0.0850     2.9850     1.7500 H     1 <1>   0.0800 
 37 H        0.3210    -3.0310    -2.4630 H     1 <1>   0.0800 
 38 H       -1.0100    -2.8050    -1.3670 H     1 <1>   0.0800 
 39 H        4.6280     1.9760    -2.6150 H     1 <1>   0.1500 
 40 H        5.1100     1.5310     1.5820 H     1 <1>   0.1500 
 41 H        5.0440     4.6470    -0.8940 H     1 <1>   0.0800 
 42 H        3.7440     5.8150    -0.8760 H     1 <1>   0.0800 
 43 H        3.9570     4.7730    -2.2640 H     1 <1>   0.0800 
 44 H       -0.4990    -5.1770    -1.4410 H     1 <1>   0.0800 
 45 H        1.1860    -4.8810    -1.0570 H     1 <1>   0.0800 
 46 H        6.7810     0.8320    -2.9820 H     1 <1>   0.1500 
 47 H        7.2390     0.3930     1.2360 H     1 <1>   0.1500 
 48 H       10.0760    -0.9420    -0.6460 H     1 <1>   0.0800 
 49 H        8.7120    -1.2490     0.4230 H     1 <1>   0.0800 
 50 H        9.4940     0.3430     0.4070 H     1 <1>   0.0800 
@<TRIPOS>BOND
  1   1   2  2   
  2   2   3  am  
  3   2   4  1   
  4   3   5  1   
  5   3  26  1   
  6   4   6  1   
  7   4  27  1   
  8   4  28  1   
  9   5   7  1   
 10   5   8  2   
 11   6   9  1   
 12   6  10  1   
 13   6  29  1   
 14   7  11  1   
 15   7  12  1   
 16   8  13  1   
 17   8  14  1   
 18   9  15  1   
 19   9  30  1   
 20   9  31  1   
 21  10  16  1   
 22  10  32  1   
 23  10  33  1   
 24  11  14  2   
 25  12  34  1   
 26  12  35  1   
 27  12  36  1   
 28  13  17  ar  
 29  13  18  ar  
 30  14  19  1   
 31  15  20  1   
 32  16  20  1   
 33  16  37  1   
 34  16  38  1   
 35  17  21  ar  
 36  17  39  1   
 37  18  22  ar  
 38  18  40  1   
 39  19  41  1   
 40  19  42  1   
 41  19  43  1   
 42  20  44  1   
 43  20  45  1   
 44  21  23  ar  
 45  21  46  1   
 46  22  23  ar  
 47  22  47  1   
 48  23  24  1   
 49  24  25  1   
 50  25  48  1   
 51  25  49  1   
 52  25  50  1   
@<TRIPOS>SUBSTRUCTURE
  1 ****   3 GROUP 4 **** **** 0

# MOE 2024.06 (io_trps.svl 2023.06)
