@<TRIPOS>MOLECULE
NONAME
46 47 1 0 0 
SMALL
USER_CHARGES


@<TRIPOS>ATOM
  1 S        0.6890     1.1340    -1.0730 S.o2  1 <1>   1.3330 
  2 O        0.7000     0.0310    -1.9980 O.2   1 <1>  -0.6500 
  3 O        1.1880     2.4360    -1.4620 O.2   1 <1>  -0.6500 
  4 N        1.6000     0.6780     0.2860 N.am  1 <1>  -0.8490 
  5 C       -0.9720     1.3660    -0.4130 C.3   1 <1>  -0.0550 
  6 C        1.3120    -0.6970     0.7350 C.3   1 <1>   0.1160 
  7 C        3.0420     0.7440    -0.0040 C.3   1 <1>   0.1160 
  8 C       -1.2360     2.6730     0.3810 C.3   1 <1>  -0.0800 
  9 C       -1.4210     3.8830    -0.5500 C.3   1 <1>   0.2000 
 10 C       -0.1160     3.0840     1.3480 C.3   1 <1>   0.3430 
 11 O       -2.6840     4.4250    -0.3660 O.3   1 <1>  -0.6800 
 12 C       -0.3360     4.9010    -0.1790 C.3   1 <1>   0.3430 
 13 N        0.6480     4.1400     0.6420 N.4   1 <1>  -0.9590 
 14 C        1.5270     4.9710     1.5090 C.3   1 <1>   0.4860 
 15 C        2.0840     6.1400     0.7130 C.ar  1 <1>  -0.1440 
 16 C        3.1100     5.9950    -0.2230 C.ar  1 <1>  -0.1440 
 17 C        1.5340     7.3970     0.9330 C.ar  1 <1>  -0.1500 
 18 C        3.5610     7.1010    -0.9350 C.ar  1 <1>  -0.1500 
 19 C        3.7760     4.6560    -0.5120 C.3   1 <1>  -0.0970 
 20 C        2.0050     8.4750     0.2110 C.ar  1 <1>   0.1900 
 21 C        3.0100     8.3530    -0.7240 C.ar  1 <1>  -0.1500 
 22 F        1.4740     9.6480     0.4210 F     1 <1>  -0.1900 
 23 H       -1.6670     1.3330    -1.2310 H     1 <1>   0.0800 
 24 H       -1.2150     0.5310     0.2130 H     1 <1>   0.0800 
 25 H        1.9040    -0.9370     1.6020 H     1 <1>   0.0800 
 26 H        1.5400    -1.4080    -0.0440 H     1 <1>   0.0800 
 27 H        0.2760    -0.8060     1.0020 H     1 <1>   0.0800 
 28 H        3.6140     0.4720     0.8680 H     1 <1>   0.0800 
 29 H        3.3230     1.7410    -0.2930 H     1 <1>   0.0800 
 30 H        3.2950     0.0730    -0.8100 H     1 <1>   0.0800 
 31 H       -2.1320     2.5100     0.9560 H     1 <1>   0.0800 
 32 H       -1.3310     3.6170    -1.5910 H     1 <1>   0.0800 
 33 H        0.5130     2.2540     1.6270 H     1 <1>   0.0800 
 34 H       -0.5570     3.4990     2.2400 H     1 <1>   0.0800 
 35 H       -2.8920     4.6270     0.5670 H     1 <1>   0.4000 
 36 H       -0.7680     5.7000     0.3990 H     1 <1>   0.0800 
 37 H        0.1360     5.3040    -1.0610 H     1 <1>   0.0800 
 38 H        1.2560     3.6690    -0.0610 H     1 <1>   0.4500 
 39 H        0.9630     5.3510     2.3440 H     1 <1>   0.0800 
 40 H        2.3370     4.3740     1.8950 H     1 <1>   0.0800 
 41 H        0.7500     7.5630     1.6500 H     1 <1>   0.1500 
 42 H        4.3480     6.9970    -1.6630 H     1 <1>   0.1500 
 43 H        4.7710     4.8090    -0.8930 H     1 <1>   0.0800 
 44 H        3.2170     4.1200    -1.2570 H     1 <1>   0.0800 
 45 H        3.8620     4.0580     0.3760 H     1 <1>   0.0800 
 46 H        3.3520     9.2150    -1.2680 H     1 <1>   0.1500 
@<TRIPOS>BOND
  1   1   2  2   
  2   1   3  2   
  3   1   4  am  
  4   1   5  1   
  5   4   6  1   
  6   4   7  1   
  7   5   8  1   
  8   5  23  1   
  9   5  24  1   
 10   6  25  1   
 11   6  26  1   
 12   6  27  1   
 13   7  28  1   
 14   7  29  1   
 15   7  30  1   
 16   8   9  1   
 17   8  10  1   
 18   8  31  1   
 19   9  11  1   
 20   9  12  1   
 21   9  32  1   
 22  10  13  1   
 23  10  33  1   
 24  10  34  1   
 25  11  35  1   
 26  12  13  1   
 27  12  36  1   
 28  12  37  1   
 29  13  14  1   
 30  13  38  1   
 31  14  15  1   
 32  14  39  1   
 33  14  40  1   
 34  15  16  ar  
 35  15  17  ar  
 36  16  18  ar  
 37  16  19  1   
 38  17  20  ar  
 39  17  41  1   
 40  18  21  ar  
 41  18  42  1   
 42  19  43  1   
 43  19  44  1   
 44  19  45  1   
 45  20  21  ar  
 46  20  22  1   
 47  21  46  1   
@<TRIPOS>SUBSTRUCTURE
  1 ****  13 GROUP 4 **** **** 0

# MOE 2024.06 (io_trps.svl 2023.06)
