@<TRIPOS>MOLECULE
NONAME
43 44 1 0 0 
SMALL
USER_CHARGES


@<TRIPOS>ATOM
  1 O       -1.5010     0.0190     1.6590 O.3   1 <1>  -0.6800 
  2 C       -1.9500    -0.8900     0.7100 C.3   1 <1>   0.1200 
  3 C       -3.4110    -0.5600     0.3060 C.3   1 <1>   0.4230 
  4 N       -3.9720    -1.5370    -0.6950 N.4   1 <1>  -0.9590 
  5 C       -3.5020     0.8610    -0.2820 C.3   1 <1>  -0.1600 
  6 C       -5.4020    -1.2140    -1.0040 C.3   1 <1>   0.3430 
  7 C       -3.9070    -2.9660    -0.2180 C.3   1 <1>   0.3430 
  8 C       -4.9270     1.2420    -0.6970 C.3   1 <1>  -0.1600 
  9 C       -5.5100     0.1760    -1.6260 C.3   1 <1>  -0.1600 
 10 C       -4.1920    -4.0110    -1.3180 C.3   1 <1>   0.2090 
 11 N       -4.9470    -5.1500    -0.7430 N.pl3 1 <1>  -0.8690 
 12 C       -6.2870    -5.0770    -0.4410 C.ar  1 <1>   0.4100 
 13 N       -6.8390    -3.8700    -0.3820 N.ar  1 <1>  -0.6200 
 14 C       -6.9980    -6.2500    -0.2110 C.ar  1 <1>  -0.1500 
 15 C       -8.1320    -3.8500    -0.0900 C.ar  1 <1>   0.1600 
 16 C       -8.3370    -6.2000     0.0900 C.ar  1 <1>  -0.1500 
 17 C       -8.9470    -4.9550     0.1560 C.ar  1 <1>   0.0280 
 18 C      -10.3520    -4.7940     0.4650 C.2   1 <1>  -0.1780 
 19 C      -11.2610    -5.7460     0.7320 C.2   1 <1>  -0.3000 
 20 H       -0.5720    -0.1540     1.9240 H     1 <1>   0.4000 
 21 H       -1.8780    -1.8640     1.1580 H     1 <1>   0.0800 
 22 H       -1.2950    -0.8260    -0.1420 H     1 <1>   0.0800 
 23 H       -4.0140    -0.6020     1.1990 H     1 <1>   0.0800 
 24 H       -3.4360    -1.4290    -1.5630 H     1 <1>   0.4500 
 25 H       -2.8410     0.9460    -1.1270 H     1 <1>   0.0800 
 26 H       -3.1660     1.5730     0.4540 H     1 <1>   0.0800 
 27 H       -5.9860    -1.2520    -0.0970 H     1 <1>   0.0800 
 28 H       -5.8150    -1.9390    -1.6860 H     1 <1>   0.0800 
 29 H       -4.6350    -3.1020     0.5660 H     1 <1>   0.0800 
 30 H       -2.9390    -3.1840     0.1930 H     1 <1>   0.0800 
 31 H       -4.9230     2.1990    -1.1910 H     1 <1>   0.0800 
 32 H       -5.5440     1.3300     0.1820 H     1 <1>   0.0800 
 33 H       -6.5470     0.3960    -1.8140 H     1 <1>   0.0800 
 34 H       -5.0010     0.1880    -2.5740 H     1 <1>   0.0800 
 35 H       -3.2630    -4.3700    -1.7250 H     1 <1>   0.0800 
 36 H       -4.7730    -3.5890    -2.1190 H     1 <1>   0.0800 
 37 H       -4.6270    -6.0760    -1.0450 H     1 <1>   0.4000 
 38 H       -6.4910    -7.1940    -0.2670 H     1 <1>   0.1500 
 39 H       -8.5970    -2.8810    -0.0390 H     1 <1>   0.1500 
 40 H       -8.8920    -7.1030     0.2680 H     1 <1>   0.1500 
 41 H      -10.6790    -3.7680     0.4720 H     1 <1>   0.1500 
 42 H      -12.2940    -5.5350     0.9530 H     1 <1>   0.1500 
 43 H      -11.0610    -6.8020     0.7560 H     1 <1>   0.1500 
@<TRIPOS>BOND
  1   1   2  1   
  2   1  20  1   
  3   2   3  1   
  4   2  21  1   
  5   2  22  1   
  6   3   4  1   
  7   3   5  1   
  8   3  23  1   
  9   4   6  1   
 10   4   7  1   
 11   4  24  1   
 12   5   8  1   
 13   5  25  1   
 14   5  26  1   
 15   6   9  1   
 16   6  27  1   
 17   6  28  1   
 18   7  10  1   
 19   7  29  1   
 20   7  30  1   
 21   8   9  1   
 22   8  31  1   
 23   8  32  1   
 24   9  33  1   
 25   9  34  1   
 26  10  11  1   
 27  10  35  1   
 28  10  36  1   
 29  11  12  1   
 30  11  37  1   
 31  12  13  ar  
 32  12  14  ar  
 33  13  15  ar  
 34  14  16  ar  
 35  14  38  1   
 36  15  17  ar  
 37  15  39  1   
 38  16  17  ar  
 39  16  40  1   
 40  17  18  1   
 41  18  19  2   
 42  18  41  1   
 43  19  42  1   
 44  19  43  1   
@<TRIPOS>SUBSTRUCTURE
  1 ****  13 GROUP 4 **** **** 0

# MOE 2024.06 (io_trps.svl 2023.06)
