@<TRIPOS>MOLECULE
NONAME
48 51 1 0 0 
SMALL
USER_CHARGES


@<TRIPOS>ATOM
  1 O        0.9130    -2.1020     2.0030 O.3   1 <1>  -0.5600 
  2 C        0.7440    -1.5510     0.7260 C.3   1 <1>   0.2000 
  3 C       -0.0860    -1.7720     2.9200 C.3   1 <1>   0.0400 
  4 C        2.1110    -1.5540     0.0160 C.3   1 <1>   0.0000 
  5 C       -0.1360    -2.4920    -0.1070 C.3   1 <1>  -0.1600 
  6 C        3.2450    -1.1240     0.9700 C.3   1 <1>   0.2090 
  7 C        2.1050    -0.5810    -1.1930 C.3   1 <1>  -0.1600 
  8 C        2.2320    -3.0190    -0.4510 C.3   1 <1>  -0.1600 
  9 C        0.8140    -3.4520    -0.8350 C.3   1 <1>  -0.1600 
 10 N        4.5570    -1.1620     0.2510 N.pl3 1 <1>  -0.8380 
 11 C        3.4910    -0.4510    -1.8600 C.3   1 <1>  -0.1600 
 12 C        5.5930    -2.0130     0.5280 C.ar  1 <1>   0.7710 
 13 C        4.6170    -0.1620    -0.8570 C.3   1 <1>   0.2090 
 14 N        5.2940    -3.1500     1.2240 N.ar  1 <1>  -0.1790 
 15 N        6.8070    -1.7410     0.1260 N.ar  1 <1>  -0.5670 
 16 C        6.2020    -4.0700     1.5690 C.ar  1 <1>   0.4610 
 17 C        7.7610    -2.6460     0.4600 C.ar  1 <1>   0.1050 
 18 N        5.8370    -5.1680     2.2530 N.pl3 1 <1>  -0.9000 
 19 C        7.5130    -3.7980     1.1660 C.ar  1 <1>   0.0000 
 20 N        9.0910    -2.6290     0.1970 N.pl3 1 <1>   0.3140 
 21 C        8.7720    -4.4090     1.2740 C.2   1 <1>   0.1390 
 22 N        9.7060    -3.7260     0.7060 N.2   1 <1>  -0.7070 
 23 C        9.8500    -1.6010    -0.5310 C.3   1 <1>   0.0160 
 24 H        0.3330    -0.5590     0.8140 H     1 <1>   0.0800 
 25 H        0.1340    -2.2640     3.8510 H     1 <1>   0.0800 
 26 H       -1.0410    -2.1080     2.5550 H     1 <1>   0.0800 
 27 H       -0.0960    -0.7060     3.0690 H     1 <1>   0.0800 
 28 H       -0.8490    -3.0250     0.4960 H     1 <1>   0.0800 
 29 H       -0.6750    -1.9140    -0.8370 H     1 <1>   0.0800 
 30 H        3.2670    -1.7420     1.8500 H     1 <1>   0.0800 
 31 H        3.0580    -0.1170     1.3050 H     1 <1>   0.0800 
 32 H        1.3870    -0.8930    -1.9320 H     1 <1>   0.0800 
 33 H        1.8060     0.3950    -0.8510 H     1 <1>   0.0800 
 34 H        2.9230    -3.1570    -1.2630 H     1 <1>   0.0800 
 35 H        2.5410    -3.6340     0.3750 H     1 <1>   0.0800 
 36 H        0.6320    -4.4730    -0.5450 H     1 <1>   0.0800 
 37 H        0.6730    -3.3660    -1.9000 H     1 <1>   0.0800 
 38 H        3.4610     0.3420    -2.5860 H     1 <1>   0.0800 
 39 H        3.7300    -1.3530    -2.3940 H     1 <1>   0.0800 
 40 H        4.4950     0.8280    -0.4480 H     1 <1>   0.0800 
 41 H        5.5650    -0.1930    -1.3680 H     1 <1>   0.0800 
 42 H        4.3150    -3.2680     1.4360 H     1 <1>   0.4570 
 43 H        4.8900    -5.4060     2.5720 H     1 <1>   0.4000 
 44 H        6.5160    -5.8900     2.5280 H     1 <1>   0.4000 
 45 H        8.9480    -5.3460     1.7760 H     1 <1>   0.1500 
 46 H        9.1970    -0.7990    -0.8170 H     1 <1>   0.0800 
 47 H       10.2870    -2.0450    -1.4060 H     1 <1>   0.0800 
 48 H       10.6290    -1.2260     0.1060 H     1 <1>   0.0800 
@<TRIPOS>BOND
  1   1   2  1   
  2   1   3  1   
  3   2   4  1   
  4   2   5  1   
  5   2  24  1   
  6   3  25  1   
  7   3  26  1   
  8   3  27  1   
  9   4   6  1   
 10   4   7  1   
 11   4   8  1   
 12   5   9  1   
 13   5  28  1   
 14   5  29  1   
 15   6  10  1   
 16   6  30  1   
 17   6  31  1   
 18   7  11  1   
 19   7  32  1   
 20   7  33  1   
 21   8   9  1   
 22   8  34  1   
 23   8  35  1   
 24   9  36  1   
 25   9  37  1   
 26  10  12  1   
 27  10  13  1   
 28  11  13  1   
 29  11  38  1   
 30  11  39  1   
 31  12  14  ar  
 32  12  15  ar  
 33  13  40  1   
 34  13  41  1   
 35  14  16  ar  
 36  14  42  1   
 37  15  17  ar  
 38  16  18  1   
 39  16  19  ar  
 40  17  19  ar  
 41  17  20  1   
 42  18  43  1   
 43  18  44  1   
 44  19  21  1   
 45  20  22  1   
 46  20  23  1   
 47  21  22  2   
 48  21  45  1   
 49  23  46  1   
 50  23  47  1   
 51  23  48  1   
@<TRIPOS>SUBSTRUCTURE
  1 ****  12 GROUP 4 **** **** 0

# MOE 2024.06 (io_trps.svl 2023.06)
