@<TRIPOS>MOLECULE
NONAME
50 52 1 0 0 
SMALL
USER_CHARGES


@<TRIPOS>ATOM
  1 CL       0.5740     2.5050     2.7600 Cl    1 <1>  -0.1770 
  2 C        0.3310     2.6440     1.0340 C.ar  1 <1>   0.1770 
  3 C        1.2870     2.1930     0.1310 C.ar  1 <1>  -0.1440 
  4 C       -0.8610     3.2020     0.6090 C.ar  1 <1>  -0.1500 
  5 C        0.9990     2.2910    -1.2270 C.ar  1 <1>  -0.1500 
  6 C        2.6160     1.5980     0.5970 C.3   1 <1>   0.3640 
  7 C       -1.1240     3.3070    -0.7450 C.ar  1 <1>  -0.1500 
  8 C       -0.1940     2.8470    -1.6610 C.ar  1 <1>  -0.1500 
  9 N        2.6600     0.1910     0.1290 N.am  1 <1>  -0.7300 
 10 C        3.8350     2.4040     0.0660 C.3   1 <1>   0.2610 
 11 C        3.7650    -0.3930    -0.3830 C.2   1 <1>   0.5690 
 12 O        5.0290     1.6410     0.1750 O.3   1 <1>  -0.5600 
 13 C        3.9880     3.7670     0.7640 C.2   1 <1>   0.5690 
 14 O        3.7490    -1.5500    -0.7180 O.2   1 <1>  -0.5700 
 15 C        5.0370     0.4400    -0.5670 C.3   1 <1>   0.1810 
 16 O        3.3490     3.9730     1.7720 O.2   1 <1>  -0.5700 
 17 N        4.8210     4.7380     0.2490 N.am  1 <1>  -0.6600 
 18 C        5.0130     6.0400     0.9450 C.3   1 <1>   0.1400 
 19 C        5.7590     4.5440    -0.8890 C.3   1 <1>   0.1400 
 20 C        6.4470     6.1190     1.4820 C.3   1 <1>  -0.1600 
 21 C        7.1990     4.5870    -0.3700 C.3   1 <1>  -0.1600 
 22 C        7.5350     5.8800     0.4090 C.3   1 <1>   0.0000 
 23 C        8.8930     5.7330     1.1400 C.3   1 <1>  -0.1600 
 24 C        7.5880     7.0860    -0.5520 C.3   1 <1>  -0.2400 
 25 C       10.1160     5.4570     0.2480 C.3   1 <1>  -0.2400 
 26 H       -1.5740     3.5480     1.3350 H     1 <1>   0.1500 
 27 H        1.6990     1.9310    -1.9610 H     1 <1>   0.1500 
 28 H        2.6700     1.5840     1.6710 H     1 <1>   0.0800 
 29 H       -2.0490     3.7410    -1.0840 H     1 <1>   0.1500 
 30 H       -0.4010     2.9200    -2.7150 H     1 <1>   0.1500 
 31 H        1.8240    -0.3770     0.2750 H     1 <1>   0.3700 
 32 H        3.6800     2.6010    -0.9770 H     1 <1>   0.0800 
 33 H        5.1550     0.6850    -1.6060 H     1 <1>   0.0800 
 34 H        5.8870    -0.1350    -0.2480 H     1 <1>   0.0800 
 35 H        4.8210     6.8420     0.2540 H     1 <1>   0.0800 
 36 H        4.3190     6.1430     1.7620 H     1 <1>   0.0800 
 37 H        5.5910     3.6060    -1.3830 H     1 <1>   0.0800 
 38 H        5.6010     5.3260    -1.6120 H     1 <1>   0.0800 
 39 H        6.5930     7.0780     1.9450 H     1 <1>   0.0800 
 40 H        6.5350     5.3770     2.2570 H     1 <1>   0.0800 
 41 H        7.3430     3.7340     0.2700 H     1 <1>   0.0800 
 42 H        7.8650     4.4770    -1.2070 H     1 <1>   0.0800 
 43 H        9.0850     6.6310     1.7030 H     1 <1>   0.0800 
 44 H        8.8190     4.9290     1.8520 H     1 <1>   0.0800 
 45 H        7.8960     7.9710    -0.0240 H     1 <1>   0.0800 
 46 H        6.6310     7.2820    -0.9970 H     1 <1>   0.0800 
 47 H        8.2860     6.9100    -1.3500 H     1 <1>   0.0800 
 48 H       10.2810     6.2600    -0.4460 H     1 <1>   0.0800 
 49 H        9.9990     4.5380    -0.2970 H     1 <1>   0.0800 
 50 H       10.9940     5.3660     0.8630 H     1 <1>   0.0800 
@<TRIPOS>BOND
  1   1   2  1   
  2   2   3  ar  
  3   2   4  ar  
  4   3   5  ar  
  5   3   6  1   
  6   4   7  ar  
  7   4  26  1   
  8   5   8  ar  
  9   5  27  1   
 10   6   9  1   
 11   6  10  1   
 12   6  28  1   
 13   7   8  ar  
 14   7  29  1   
 15   8  30  1   
 16   9  11  am  
 17   9  31  1   
 18  10  12  1   
 19  10  13  1   
 20  10  32  1   
 21  11  14  2   
 22  11  15  1   
 23  12  15  1   
 24  13  16  2   
 25  13  17  am  
 26  15  33  1   
 27  15  34  1   
 28  17  18  1   
 29  17  19  1   
 30  18  20  1   
 31  18  35  1   
 32  18  36  1   
 33  19  21  1   
 34  19  37  1   
 35  19  38  1   
 36  20  22  1   
 37  20  39  1   
 38  20  40  1   
 39  21  22  1   
 40  21  41  1   
 41  21  42  1   
 42  22  23  1   
 43  22  24  1   
 44  23  25  1   
 45  23  43  1   
 46  23  44  1   
 47  24  45  1   
 48  24  46  1   
 49  24  47  1   
 50  25  48  1   
 51  25  49  1   
 52  25  50  1   
@<TRIPOS>SUBSTRUCTURE
  1 ****  13 GROUP 4 **** **** 0

# MOE 2024.06 (io_trps.svl 2023.06)
