@<TRIPOS>MOLECULE
NONAME
45 47 1 0 0 
SMALL
USER_CHARGES


@<TRIPOS>ATOM
  1 F        0.5410    -1.1710     0.2940 F     1 <1>  -0.3400 
  2 C       -0.0140    -1.8280    -0.7230 C.3   1 <1>   1.1640 
  3 F        0.7130    -1.5120    -1.7910 F     1 <1>  -0.3400 
  4 F       -1.2050    -1.2630    -0.9010 F     1 <1>  -0.3400 
  5 C       -0.1000    -3.3660    -0.4830 C.ar  1 <1>   0.1660 
  6 N       -0.7300    -4.1280    -1.3870 N.ar  1 <1>  -0.6200 
  7 C        0.4800    -3.9190     0.6570 C.ar  1 <1>  -0.1500 
  8 C       -0.7790    -5.4290    -1.1470 C.ar  1 <1>   0.1600 
  9 C        0.4120    -5.2760     0.8890 C.ar  1 <1>  -0.1500 
 10 C       -0.2470    -6.0720    -0.0340 C.ar  1 <1>   0.0860 
 11 C       -0.3670    -7.5030     0.1420 C.2   1 <1>   0.5440 
 12 O        0.6140    -8.1480     0.4590 O.2   1 <1>  -0.5700 
 13 N       -1.5650    -8.1570    -0.0240 N.am  1 <1>  -0.6600 
 14 C       -2.9020    -7.5190    -0.0210 C.3   1 <1>   0.1400 
 15 C       -1.6920    -9.6240     0.1280 C.3   1 <1>   0.1400 
 16 C       -3.8440    -8.5680     0.5830 C.3   1 <1>  -0.0800 
 17 C       -3.1930    -9.9160     0.2210 C.3   1 <1>  -0.0800 
 18 C       -5.3520    -8.4390     0.2020 C.3   1 <1>   0.2800 
 19 C       -3.7670   -10.4710    -1.0920 C.3   1 <1>  -0.1600 
 20 O       -5.4840    -7.8220    -1.0280 O.3   1 <1>  -0.6800 
 21 C       -5.9840    -9.8360     0.0600 C.3   1 <1>  -0.1600 
 22 C       -6.1560    -7.5960     1.2170 C.3   1 <1>  -0.1600 
 23 C       -5.2810   -10.7300    -0.9850 C.3   1 <1>  -0.1600 
 24 C       -5.6840    -6.1420     1.4000 C.3   1 <1>  -0.2400 
 25 H        0.9910    -3.3000     1.3750 H     1 <1>   0.1500 
 26 H       -1.2740    -6.0380    -1.8850 H     1 <1>   0.1500 
 27 H        0.8590    -5.7230     1.7620 H     1 <1>   0.1500 
 28 H       -2.9020    -6.6110     0.5570 H     1 <1>   0.0800 
 29 H       -3.1650    -7.2950    -1.0390 H     1 <1>   0.0800 
 30 H       -1.2340   -10.1270    -0.7060 H     1 <1>   0.0800 
 31 H       -1.1960    -9.9270     1.0350 H     1 <1>   0.0800 
 32 H       -3.7660    -8.4810     1.6520 H     1 <1>   0.0800 
 33 H       -3.3640   -10.6400     0.9990 H     1 <1>   0.0800 
 34 H       -3.5910    -9.7530    -1.8760 H     1 <1>   0.0800 
 35 H       -3.2630   -11.3810    -1.3670 H     1 <1>   0.0800 
 36 H       -6.4220    -7.8270    -1.2900 H     1 <1>   0.4000 
 37 H       -5.9200   -10.3250     1.0170 H     1 <1>   0.0800 
 38 H       -7.0300    -9.7560    -0.1780 H     1 <1>   0.0800 
 39 H       -7.1890    -7.5830     0.9170 H     1 <1>   0.0800 
 40 H       -6.1190    -8.0840     2.1750 H     1 <1>   0.0800 
 41 H       -5.4520   -11.7610    -0.7260 H     1 <1>   0.0800 
 42 H       -5.7220   -10.5640    -1.9530 H     1 <1>   0.0800 
 43 H       -5.6490    -5.6300     0.4540 H     1 <1>   0.0800 
 44 H       -4.7100    -6.1090     1.8520 H     1 <1>   0.0800 
 45 H       -6.3670    -5.6170     2.0430 H     1 <1>   0.0800 
@<TRIPOS>BOND
  1   1   2  1   
  2   2   3  1   
  3   2   4  1   
  4   2   5  1   
  5   5   6  ar  
  6   5   7  ar  
  7   6   8  ar  
  8   7   9  ar  
  9   7  25  1   
 10   8  10  ar  
 11   8  26  1   
 12   9  10  ar  
 13   9  27  1   
 14  10  11  1   
 15  11  12  2   
 16  11  13  am  
 17  13  14  1   
 18  13  15  1   
 19  14  16  1   
 20  14  28  1   
 21  14  29  1   
 22  15  17  1   
 23  15  30  1   
 24  15  31  1   
 25  16  17  1   
 26  16  18  1   
 27  16  32  1   
 28  17  19  1   
 29  17  33  1   
 30  18  20  1   
 31  18  21  1   
 32  18  22  1   
 33  19  23  1   
 34  19  34  1   
 35  19  35  1   
 36  20  36  1   
 37  21  23  1   
 38  21  37  1   
 39  21  38  1   
 40  22  24  1   
 41  22  39  1   
 42  22  40  1   
 43  23  41  1   
 44  23  42  1   
 45  24  43  1   
 46  24  44  1   
 47  24  45  1   
@<TRIPOS>SUBSTRUCTURE
  1 ****  14 GROUP 4 **** **** 0

# MOE 2024.06 (io_trps.svl 2023.06)
