@<TRIPOS>MOLECULE
NONAME
42 44 1 0 0 
SMALL
USER_CHARGES


@<TRIPOS>ATOM
  1 CL       1.5500     0.5830     1.6170 Cl    1 <1>  -0.1770 
  2 C        2.0890    -0.7880     0.6800 C.ar  1 <1>   0.1770 
  3 C        1.3090    -1.9310     0.6320 C.ar  1 <1>  -0.1440 
  4 C        3.2860    -0.6950    -0.0090 C.ar  1 <1>  -0.1500 
  5 C        1.7610    -2.9870    -0.1420 C.ar  1 <1>   0.1770 
  6 C        0.0100    -2.0320     1.4030 C.3   1 <1>   0.4870 
  7 C        3.7210    -1.7670    -0.7710 C.ar  1 <1>  -0.1500 
  8 CL       0.7960    -4.4390    -0.2580 Cl    1 <1>  -0.1770 
  9 C        2.9540    -2.9190    -0.8400 C.ar  1 <1>  -0.1500 
 10 N       -1.1330    -1.9600     0.4570 N.4   1 <1>  -0.9590 
 11 C       -2.4100    -2.3690     1.1190 C.3   1 <1>   0.3430 
 12 C       -1.2580    -0.6110    -0.1700 C.3   1 <1>   0.3430 
 13 C       -3.5470    -2.4860     0.0920 C.3   1 <1>   0.0000 
 14 C       -2.3500    -0.6420    -1.2390 C.3   1 <1>  -0.1600 
 15 C       -4.8340    -2.9190     0.8090 C.3   1 <1>   0.2000 
 16 C       -3.6920    -1.1400    -0.6750 C.3   1 <1>  -0.1600 
 17 C       -3.3620    -3.6520    -0.8980 C.3   1 <1>  -0.1600 
 18 O       -5.4260    -1.8700     1.4830 O.3   1 <1>  -0.6800 
 19 C       -5.7420    -3.4730    -0.2820 C.3   1 <1>  -0.1600 
 20 C       -4.7820    -4.0470    -1.3360 C.3   1 <1>  -0.1600 
 21 H        3.8720     0.2060     0.0510 H     1 <1>   0.1500 
 22 H       -0.0610    -1.2420     2.1330 H     1 <1>   0.0800 
 23 H       -0.0090    -2.9750     1.9270 H     1 <1>   0.0800 
 24 H        4.6540    -1.7050    -1.3100 H     1 <1>   0.1500 
 25 H        3.2810    -3.7590    -1.4300 H     1 <1>   0.1500 
 26 H       -0.9490    -2.6380    -0.2950 H     1 <1>   0.4500 
 27 H       -2.2840    -3.3180     1.6120 H     1 <1>   0.0800 
 28 H       -2.6900    -1.6370     1.8600 H     1 <1>   0.0800 
 29 H       -1.5110     0.1190     0.5820 H     1 <1>   0.0800 
 30 H       -0.3230    -0.3200    -0.6230 H     1 <1>   0.0800 
 31 H       -2.4820     0.3530    -1.6280 H     1 <1>   0.0800 
 32 H       -2.0310    -1.2580    -2.0610 H     1 <1>   0.0800 
 33 H       -4.6240    -3.6990     1.5230 H     1 <1>   0.0800 
 34 H       -4.4070    -1.2300    -1.4740 H     1 <1>   0.0800 
 35 H       -4.0650    -0.3840    -0.0060 H     1 <1>   0.0800 
 36 H       -2.7490    -3.4080    -1.7470 H     1 <1>   0.0800 
 37 H       -2.9180    -4.4940    -0.3910 H     1 <1>   0.0800 
 38 H       -6.3330    -2.1140     1.7600 H     1 <1>   0.4000 
 39 H       -6.3960    -4.2360     0.1040 H     1 <1>   0.0800 
 40 H       -6.3260    -2.6830    -0.7230 H     1 <1>   0.0800 
 41 H       -4.8740    -5.1180    -1.4040 H     1 <1>   0.0800 
 42 H       -5.0080    -3.6230    -2.3000 H     1 <1>   0.0800 
@<TRIPOS>BOND
  1   1   2  1   
  2   2   3  ar  
  3   2   4  ar  
  4   3   5  ar  
  5   3   6  1   
  6   4   7  ar  
  7   4  21  1   
  8   5   8  1   
  9   5   9  ar  
 10   6  10  1   
 11   6  22  1   
 12   6  23  1   
 13   7   9  ar  
 14   7  24  1   
 15   9  25  1   
 16  10  11  1   
 17  10  12  1   
 18  10  26  1   
 19  11  13  1   
 20  11  27  1   
 21  11  28  1   
 22  12  14  1   
 23  12  29  1   
 24  12  30  1   
 25  13  15  1   
 26  13  16  1   
 27  13  17  1   
 28  14  16  1   
 29  14  31  1   
 30  14  32  1   
 31  15  18  1   
 32  15  19  1   
 33  15  33  1   
 34  16  34  1   
 35  16  35  1   
 36  17  20  1   
 37  17  36  1   
 38  17  37  1   
 39  18  38  1   
 40  19  20  1   
 41  19  39  1   
 42  19  40  1   
 43  20  41  1   
 44  20  42  1   
@<TRIPOS>SUBSTRUCTURE
  1 ****  10 GROUP 4 **** **** 0

# MOE 2024.06 (io_trps.svl 2023.06)
