@<TRIPOS>MOLECULE
NONAME
45 47 1 0 0 
SMALL
USER_CHARGES


@<TRIPOS>ATOM
  1 O       -0.5640     0.4660     1.1930 O.2   1 <1>  -0.5700 
  2 C       -1.4820     0.9790     0.5960 C.2   1 <1>   0.5690 
  3 N       -2.5960     0.2660     0.2580 N.am  1 <1>  -0.6600 
  4 C       -1.3930     2.4460     0.2090 C.3   1 <1>  -0.0990 
  5 C       -3.7630     0.7440    -0.5270 C.3   1 <1>   0.1400 
  6 C       -2.7780    -1.1570     0.6170 C.3   1 <1>   0.1400 
  7 C       -0.0740     3.1130     0.6240 C.3   1 <1>   0.0210 
  8 C       -4.7350    -0.4430    -0.5940 C.3   1 <1>   0.2000 
  9 C       -3.8440    -1.6670    -0.3530 C.3   1 <1>  -0.0800 
 10 C       -0.0540     4.5640     0.1820 C.2   1 <1>  -0.1810 
 11 O       -5.6680    -0.3530     0.4470 O.3   1 <1>  -0.5600 
 12 C       -4.5910    -2.9150     0.1520 C.3   1 <1>   0.0200 
 13 C       -0.7580     5.6190     0.7560 C.2   1 <1>   0.1390 
 14 C        0.6330     5.1250    -0.8350 C.2   1 <1>  -0.3020 
 15 C       -6.8020     0.4050     0.1660 C.3   1 <1>   0.0400 
 16 C       -3.7160    -4.1570     0.2080 C.2   1 <1>  -0.0400 
 17 N       -0.5370     6.7450     0.1490 N.2   1 <1>  -0.7070 
 18 N        0.3280     6.4370    -0.8350 N.pl3 1 <1>   0.3000 
 19 O       -4.2240    -5.2600     0.6900 O.3   1 <1>  -0.0190 
 20 C       -2.4480    -4.4150    -0.1500 C.2   1 <1>  -0.1500 
 21 N       -3.3660    -6.2400     0.6750 N.2   1 <1>  -0.4100 
 22 C       -2.2860    -5.7590     0.1750 C.2   1 <1>   0.1080 
 23 C       -1.0150    -6.5520    -0.0270 C.3   1 <1>  -0.0590 
 24 H       -1.4990     2.5260    -0.8570 H     1 <1>   0.0800 
 25 H       -2.2100     2.9680     0.6710 H     1 <1>   0.0800 
 26 H       -4.2160     1.6010    -0.0600 H     1 <1>   0.0800 
 27 H       -3.4330     1.0000    -1.5180 H     1 <1>   0.0800 
 28 H       -1.8520    -1.6980     0.5280 H     1 <1>   0.0800 
 29 H       -3.1310    -1.2140     1.6330 H     1 <1>   0.0800 
 30 H        0.7520     2.5910     0.1720 H     1 <1>   0.0800 
 31 H        0.0450     3.0600     1.6920 H     1 <1>   0.0800 
 32 H       -5.2560    -0.5040    -1.5340 H     1 <1>   0.0800 
 33 H       -3.3580    -1.9060    -1.2830 H     1 <1>   0.0800 
 34 H       -5.4230    -3.1190    -0.4980 H     1 <1>   0.0800 
 35 H       -4.9860    -2.7300     1.1360 H     1 <1>   0.0800 
 36 H       -1.4120     5.5240     1.6060 H     1 <1>   0.1500 
 37 H        1.3060     4.6760    -1.5420 H     1 <1>   0.1500 
 38 H       -7.4250     0.4080     1.0440 H     1 <1>   0.0800 
 39 H       -7.3370    -0.0440    -0.6520 H     1 <1>   0.0800 
 40 H       -6.5140     1.4130    -0.0740 H     1 <1>   0.0800 
 41 H        0.6890     7.1450    -1.4860 H     1 <1>   0.2700 
 42 H       -1.7010    -3.7790    -0.5860 H     1 <1>   0.1500 
 43 H       -0.7520    -6.5590    -1.0690 H     1 <1>   0.0800 
 44 H       -1.1590    -7.5650     0.3030 H     1 <1>   0.0800 
 45 H       -0.2160    -6.1110     0.5390 H     1 <1>   0.0800 
@<TRIPOS>BOND
  1   1   2  2   
  2   2   3  am  
  3   2   4  1   
  4   3   5  1   
  5   3   6  1   
  6   4   7  1   
  7   4  24  1   
  8   4  25  1   
  9   5   8  1   
 10   5  26  1   
 11   5  27  1   
 12   6   9  1   
 13   6  28  1   
 14   6  29  1   
 15   7  10  1   
 16   7  30  1   
 17   7  31  1   
 18   8   9  1   
 19   8  11  1   
 20   8  32  1   
 21   9  12  1   
 22   9  33  1   
 23  10  13  1   
 24  10  14  2   
 25  11  15  1   
 26  12  16  1   
 27  12  34  1   
 28  12  35  1   
 29  13  17  2   
 30  13  36  1   
 31  14  18  1   
 32  14  37  1   
 33  15  38  1   
 34  15  39  1   
 35  15  40  1   
 36  16  19  1   
 37  16  20  2   
 38  17  18  1   
 39  18  41  1   
 40  19  21  1   
 41  20  22  1   
 42  20  42  1   
 43  21  22  2   
 44  22  23  1   
 45  23  43  1   
 46  23  44  1   
 47  23  45  1   
@<TRIPOS>SUBSTRUCTURE
  1 ****   3 GROUP 4 **** **** 0

# MOE 2024.06 (io_trps.svl 2023.06)
