@<TRIPOS>MOLECULE
NONAME
44 45 1 0 0 
SMALL
USER_CHARGES


@<TRIPOS>ATOM
  1 F       -2.4430    -1.4220    -0.0720 F     1 <1>  -0.3400 
  2 C       -2.9100    -0.4850    -0.8820 C.3   1 <1>   1.1640 
  3 F       -2.0270    -0.3820    -1.8650 F     1 <1>  -0.3400 
  4 F       -4.0060    -0.9960    -1.4400 F     1 <1>  -0.3400 
  5 C       -3.1970     0.8530    -0.1800 C.ar  1 <1>  -0.1440 
  6 C       -3.9310     0.8860     1.0160 C.ar  1 <1>   0.0860 
  7 C       -2.7290     2.0450    -0.7270 C.ar  1 <1>  -0.1500 
  8 C       -4.5000    -0.2970     1.6330 C.2   1 <1>   0.5440 
  9 C       -4.1330     2.1170     1.6380 C.ar  1 <1>  -0.1500 
 10 C       -2.9610     3.2560    -0.1020 C.ar  1 <1>  -0.1500 
 11 O       -3.9870    -0.7520     2.6320 O.2   1 <1>  -0.5700 
 12 N       -5.6150    -0.9230     1.1180 N.am  1 <1>  -0.6600 
 13 C       -3.6600     3.2920     1.0880 C.ar  1 <1>  -0.1500 
 14 C       -5.8290    -2.3550     1.5030 C.3   1 <1>   0.3200 
 15 C       -6.5980    -0.1750     0.2500 C.3   1 <1>   0.1400 
 16 C       -6.5040    -3.1140     0.3830 C.2   1 <1>  -0.3320 
 17 C       -8.0820    -0.3470     0.6450 C.3   1 <1>   0.3430 
 18 N       -6.0280    -3.1830    -0.8760 N.pl3 1 <1>   0.0330 
 19 C       -7.6460    -3.8320     0.4080 C.2   1 <1>   0.0770 
 20 N       -8.8580    -1.2240    -0.3020 N.4   1 <1>  -0.9590 
 21 C       -6.9620    -3.8770    -1.5580 C.2   1 <1>   0.0360 
 22 N       -7.9650    -4.2510    -0.8280 N.2   1 <1>  -0.5650 
 23 C       -9.0430    -0.6290    -1.6610 C.3   1 <1>   0.2630 
 24 C      -10.1820    -1.6020     0.2750 C.3   1 <1>   0.2630 
 25 H       -2.1680     2.0520    -1.6490 H     1 <1>   0.1500 
 26 H       -4.6660     2.1500     2.5730 H     1 <1>   0.1500 
 27 H       -2.5900     4.1700    -0.5360 H     1 <1>   0.1500 
 28 H       -3.8290     4.2330     1.5850 H     1 <1>   0.1500 
 29 H       -6.4260    -2.3970     2.3980 H     1 <1>   0.0800 
 30 H       -4.8820    -2.8240     1.7190 H     1 <1>   0.0800 
 31 H       -6.4500    -0.4550    -0.7760 H     1 <1>   0.0800 
 32 H       -6.3840     0.8770     0.3210 H     1 <1>   0.0800 
 33 H       -8.5450     0.6250     0.6690 H     1 <1>   0.0800 
 34 H       -8.1230    -0.7540     1.6410 H     1 <1>   0.0800 
 35 H       -5.1450    -2.7970    -1.2350 H     1 <1>   0.2700 
 36 H       -8.2800    -4.0540     1.2540 H     1 <1>   0.1500 
 37 H       -8.3280    -2.1180    -0.4220 H     1 <1>   0.4500 
 38 H       -6.8620    -4.0910    -2.6100 H     1 <1>   0.1500 
 39 H       -9.6050     0.2890    -1.5960 H     1 <1>   0.0800 
 40 H       -9.5800    -1.3180    -2.2940 H     1 <1>   0.0800 
 41 H       -8.0900    -0.4230    -2.1180 H     1 <1>   0.0800 
 42 H      -10.8040    -0.7300     0.3990 H     1 <1>   0.0800 
 43 H      -10.0500    -2.0750     1.2340 H     1 <1>   0.0800 
 44 H      -10.6850    -2.2980    -0.3790 H     1 <1>   0.0800 
@<TRIPOS>BOND
  1   1   2  1   
  2   2   3  1   
  3   2   4  1   
  4   2   5  1   
  5   5   6  ar  
  6   5   7  ar  
  7   6   8  1   
  8   6   9  ar  
  9   7  10  ar  
 10   7  25  1   
 11   8  11  2   
 12   8  12  am  
 13   9  13  ar  
 14   9  26  1   
 15  10  13  ar  
 16  10  27  1   
 17  12  14  1   
 18  12  15  1   
 19  13  28  1   
 20  14  16  1   
 21  14  29  1   
 22  14  30  1   
 23  15  17  1   
 24  15  31  1   
 25  15  32  1   
 26  16  18  1   
 27  16  19  2   
 28  17  20  1   
 29  17  33  1   
 30  17  34  1   
 31  18  21  1   
 32  18  35  1   
 33  19  22  1   
 34  19  36  1   
 35  20  23  1   
 36  20  24  1   
 37  20  37  1   
 38  21  22  2   
 39  21  38  1   
 40  23  39  1   
 41  23  40  1   
 42  23  41  1   
 43  24  42  1   
 44  24  43  1   
 45  24  44  1   
@<TRIPOS>SUBSTRUCTURE
  1 ****  12 GROUP 4 **** **** 0

# MOE 2024.06 (io_trps.svl 2023.06)
