@<TRIPOS>MOLECULE
NONAME
49 53 1 0 0 
SMALL
USER_CHARGES


@<TRIPOS>ATOM
  1 O       -2.9410     1.1450    -2.4280 O.2   1 <1>  -0.5700 
  2 C       -3.6940     0.4550    -1.7940 C.2   1 <1>   0.4230 
  3 C       -4.2960     0.7370    -0.5290 C.ar  1 <1>   0.0860 
  4 C       -4.1510    -0.9070    -2.2710 C.3   1 <1>  -0.0990 
  5 C       -5.1140    -0.3020    -0.1340 C.ar  1 <1>  -0.1440 
  6 C       -4.1560     1.8530     0.2880 C.ar  1 <1>  -0.1500 
  7 C       -5.0990    -1.4190    -1.1650 C.3   1 <1>  -0.0160 
  8 C       -5.8200    -0.2730     1.0660 C.ar  1 <1>   0.0860 
  9 C       -4.8350     1.9050     1.4920 C.ar  1 <1>  -0.1500 
 10 C       -6.6950    -1.3540     1.4750 C.2   1 <1>   0.5440 
 11 C       -5.6520     0.8530     1.8740 C.ar  1 <1>  -0.1500 
 12 O       -6.3470    -2.0780     2.3870 O.2   1 <1>  -0.5700 
 13 N       -7.9150    -1.5670     0.8650 N.am  1 <1>  -0.6600 
 14 C       -8.5030    -0.6590    -0.1700 C.3   1 <1>   0.1400 
 15 C       -8.8180    -2.6830     1.2690 C.3   1 <1>   0.1400 
 16 C       -9.8340    -0.0520     0.3120 C.3   1 <1>   0.1430 
 17 C      -10.1550    -2.1200     1.7680 C.3   1 <1>  -0.1600 
 18 C      -10.3910     0.8080    -0.8070 C.ar  1 <1>   0.1670 
 19 C      -10.8010    -1.1800     0.7340 C.3   1 <1>  -0.1600 
 20 C       -9.6130     0.9830     1.4480 C.3   1 <1>  -0.1600 
 21 N      -10.9370     0.3600    -1.9130 N.ar  1 <1>  -0.6200 
 22 C      -10.2340     2.1370    -0.5420 C.ar  1 <1>  -0.1430 
 23 C       -9.5550     2.3700     0.7850 C.3   1 <1>  -0.0170 
 24 C      -11.3290     1.3140    -2.7440 C.ar  1 <1>   0.7200 
 25 C      -10.6880     3.0350    -1.4780 C.ar  1 <1>   0.1600 
 26 N      -11.2490     2.6290    -2.5940 N.ar  1 <1>  -0.6200 
 27 N      -11.9030     0.8960    -3.8730 N.pl3 1 <1>  -0.9000 
 28 H       -3.3020    -1.5550    -2.3860 H     1 <1>   0.0800 
 29 H       -4.6640    -0.8090    -3.2100 H     1 <1>   0.0800 
 30 H       -3.5150     2.6590    -0.0270 H     1 <1>   0.1500 
 31 H       -4.7230    -2.3270    -0.7260 H     1 <1>   0.0800 
 32 H       -6.0850    -1.5940    -1.5580 H     1 <1>   0.0800 
 33 H       -4.7230     2.7620     2.1350 H     1 <1>   0.1500 
 34 H       -6.1700     0.8920     2.8170 H     1 <1>   0.1500 
 35 H       -8.6840    -1.2290    -1.0650 H     1 <1>   0.0800 
 36 H       -7.8250     0.1360    -0.4230 H     1 <1>   0.0800 
 37 H       -8.3680    -3.2810     2.0430 H     1 <1>   0.0800 
 38 H       -8.9860    -3.3200     0.4170 H     1 <1>   0.0800 
 39 H       -9.9850    -1.5960     2.6930 H     1 <1>   0.0800 
 40 H      -10.8230    -2.9360     1.9780 H     1 <1>   0.0800 
 41 H      -11.0650    -1.7560    -0.1360 H     1 <1>   0.0800 
 42 H      -11.7100    -0.7620     1.1290 H     1 <1>   0.0800 
 43 H       -8.7320     0.7800     2.0290 H     1 <1>   0.0800 
 44 H      -10.4600     0.9690     2.1110 H     1 <1>   0.0800 
 45 H       -8.5340     2.6710     0.6220 H     1 <1>   0.0800 
 46 H      -10.0670     3.1120     1.3730 H     1 <1>   0.0800 
 47 H      -10.5890     4.0940    -1.3110 H     1 <1>   0.1500 
 48 H      -12.4630     1.5960    -4.3520 H     1 <1>   0.4000 
 49 H      -12.2780    -0.0470    -3.8440 H     1 <1>   0.4000 
@<TRIPOS>BOND
  1   1   2  2   
  2   2   3  1   
  3   2   4  1   
  4   3   5  ar  
  5   3   6  ar  
  6   4   7  1   
  7   4  28  1   
  8   4  29  1   
  9   5   7  1   
 10   5   8  ar  
 11   6   9  ar  
 12   6  30  1   
 13   7  31  1   
 14   7  32  1   
 15   8  10  1   
 16   8  11  ar  
 17   9  11  ar  
 18   9  33  1   
 19  10  12  2   
 20  10  13  am  
 21  11  34  1   
 22  13  14  1   
 23  13  15  1   
 24  14  16  1   
 25  14  35  1   
 26  14  36  1   
 27  15  17  1   
 28  15  37  1   
 29  15  38  1   
 30  16  18  1   
 31  16  19  1   
 32  16  20  1   
 33  17  19  1   
 34  17  39  1   
 35  17  40  1   
 36  18  21  ar  
 37  18  22  ar  
 38  19  41  1   
 39  19  42  1   
 40  20  23  1   
 41  20  43  1   
 42  20  44  1   
 43  21  24  ar  
 44  22  23  1   
 45  22  25  ar  
 46  23  45  1   
 47  23  46  1   
 48  24  26  ar  
 49  24  27  1   
 50  25  26  ar  
 51  25  47  1   
 52  27  48  1   
 53  27  49  1   
@<TRIPOS>SUBSTRUCTURE
  1 ****  14 GROUP 4 **** **** 0

# MOE 2024.06 (io_trps.svl 2023.06)
