@<TRIPOS>MOLECULE
NONAME
55 57 1 0 0 
SMALL
USER_CHARGES


@<TRIPOS>ATOM
  1 O        4.4410    -1.5700    -0.9350 O.2   1 <1>  -0.5700 
  2 C        3.2870    -1.2480    -1.0900 C.2   1 <1>   0.5690 
  3 N        2.9160    -0.6480    -2.2650 N.am  1 <1>  -0.6600 
  4 C        2.2900    -1.5180     0.0280 C.3   1 <1>  -0.0990 
  5 C        3.6590    -0.9770    -3.5310 C.3   1 <1>   0.1400 
  6 C        2.0620     0.5680    -2.3390 C.3   1 <1>   0.1400 
  7 C        2.7080    -0.9630     1.4040 C.3   1 <1>  -0.0800 
  8 C        5.0550    -0.3200    -3.5800 C.3   1 <1>   0.3430 
  9 C        2.9060     1.8420    -2.1520 C.3   1 <1>  -0.1600 
 10 C        1.6990    -1.4020     2.4810 C.3   1 <1>   0.1200 
 11 C        2.8420     0.5690     1.4010 C.3   1 <1>  -0.1600 
 12 N        5.1220     0.8390    -2.6430 N.4   1 <1>  -0.9590 
 13 C        4.1840     1.9420    -2.9940 C.3   1 <1>   0.3430 
 14 O        2.0660    -0.8790     3.7200 O.3   1 <1>  -0.5600 
 15 C        3.0840     1.0840     2.8250 C.3   1 <1>  -0.1600 
 16 C        6.4980     1.2690    -2.3070 C.3   1 <1>   0.4860 
 17 C        2.0490     0.5130     3.7990 C.3   1 <1>   0.1200 
 18 C        6.4570     1.7730    -0.8840 C.ar  1 <1>  -0.1430 
 19 C        6.3720     3.1290    -0.6090 C.ar  1 <1>   0.1600 
 20 C        6.4810     0.8780     0.1700 C.ar  1 <1>  -0.1500 
 21 N        6.2760     3.6510     0.5990 N.ar  1 <1>  -0.6200 
 22 C        6.4040     1.4080     1.4380 C.ar  1 <1>  -0.1500 
 23 C        6.2940     2.7800     1.6050 C.ar  1 <1>   0.3930 
 24 O        6.1950     3.2350     2.8700 O.3   1 <1>  -0.3620 
 25 C        6.1150     4.6210     3.1420 C.3   1 <1>   0.0400 
 26 H        2.2030    -2.5870     0.1080 H     1 <1>   0.0800 
 27 H        1.3180    -1.1480    -0.2360 H     1 <1>   0.0800 
 28 H        3.0820    -0.6610    -4.3840 H     1 <1>   0.0800 
 29 H        3.7750    -2.0450    -3.6070 H     1 <1>   0.0800 
 30 H        1.2960     0.5370    -1.5840 H     1 <1>   0.0800 
 31 H        1.5640     0.5930    -3.2950 H     1 <1>   0.0800 
 32 H        3.6610    -1.3920     1.6670 H     1 <1>   0.0800 
 33 H        5.2940    -0.0210    -4.5870 H     1 <1>   0.0800 
 34 H        5.7750    -1.0620    -3.2720 H     1 <1>   0.0800 
 35 H        3.1630     1.9580    -1.1170 H     1 <1>   0.0800 
 36 H        2.2820     2.6830    -2.3970 H     1 <1>   0.0800 
 37 H        1.6900    -2.4740     2.5750 H     1 <1>   0.0800 
 38 H        0.7030    -1.0630     2.2510 H     1 <1>   0.0800 
 39 H        1.9390     1.0130     1.0190 H     1 <1>   0.0800 
 40 H        3.6650     0.8650     0.7800 H     1 <1>   0.0800 
 41 H        4.7550     0.4220    -1.7650 H     1 <1>   0.4500 
 42 H        4.6500     2.8940    -2.7950 H     1 <1>   0.0800 
 43 H        3.9400     1.9030    -4.0430 H     1 <1>   0.0800 
 44 H        3.0440     2.1580     2.8410 H     1 <1>   0.0800 
 45 H        4.0620     0.7890     3.1610 H     1 <1>   0.0800 
 46 H        6.8380     2.0350    -2.9840 H     1 <1>   0.0800 
 47 H        7.1730     0.4300    -2.3610 H     1 <1>   0.0800 
 48 H        2.2920     0.7870     4.8110 H     1 <1>   0.0800 
 49 H        1.0570     0.8600     3.5680 H     1 <1>   0.0800 
 50 H        6.3730     3.8350    -1.4230 H     1 <1>   0.1500 
 51 H        6.5520    -0.1890     0.0280 H     1 <1>   0.1500 
 52 H        6.4200     0.7750     2.3060 H     1 <1>   0.1500 
 53 H        6.0560     4.7530     4.2070 H     1 <1>   0.0800 
 54 H        5.2350     5.0190     2.6690 H     1 <1>   0.0800 
 55 H        6.9980     5.1010     2.7590 H     1 <1>   0.0800 
@<TRIPOS>BOND
  1   1   2  2   
  2   2   3  am  
  3   2   4  1   
  4   3   5  1   
  5   3   6  1   
  6   4   7  1   
  7   4  26  1   
  8   4  27  1   
  9   5   8  1   
 10   5  28  1   
 11   5  29  1   
 12   6   9  1   
 13   6  30  1   
 14   6  31  1   
 15   7  10  1   
 16   7  11  1   
 17   7  32  1   
 18   8  12  1   
 19   8  33  1   
 20   8  34  1   
 21   9  13  1   
 22   9  35  1   
 23   9  36  1   
 24  10  14  1   
 25  10  37  1   
 26  10  38  1   
 27  11  15  1   
 28  11  39  1   
 29  11  40  1   
 30  12  13  1   
 31  12  16  1   
 32  12  41  1   
 33  13  42  1   
 34  13  43  1   
 35  14  17  1   
 36  15  17  1   
 37  15  44  1   
 38  15  45  1   
 39  16  18  1   
 40  16  46  1   
 41  16  47  1   
 42  17  48  1   
 43  17  49  1   
 44  18  19  ar  
 45  18  20  ar  
 46  19  21  ar  
 47  19  50  1   
 48  20  22  ar  
 49  20  51  1   
 50  21  23  ar  
 51  22  23  ar  
 52  22  52  1   
 53  23  24  1   
 54  24  25  1   
 55  25  53  1   
 56  25  54  1   
 57  25  55  1   
@<TRIPOS>SUBSTRUCTURE
  1 ****  11 GROUP 4 **** **** 0

# MOE 2024.06 (io_trps.svl 2023.06)
