@<TRIPOS>MOLECULE
NONAME
28 28 1 0 0 
SMALL
USER_CHARGES


@<TRIPOS>ATOM
  1 O        0.3410     0.0870     0.0070 O.3   1 <1>  -0.4400 
  2 C        1.6830     0.0570     0.0070 C.2   1 <1>   0.5310 
  3 C       -0.3420    -1.1440     0.0110 C.3   1 <1>   0.1060 
  4 N        2.3770     1.1240     0.0030 N.2   1 <1>  -0.3300 
  5 C       -1.8370    -0.8510     0.0100 C.3   1 <1>  -0.2530 
  6 N        3.7770     1.0630     0.0040 N.pl3 1 <1>  -0.5280 
  7 C        4.6330     2.1090     0.0000 C.cat 1 <1>   1.0670 
  8 N        4.2400     3.3600    -0.0050 N.pl3 1 <1>  -0.7070 
  9 N        5.9630     2.1170     0.0010 N.pl3 1 <1>  -0.4670 
 10 C        5.3650     4.1260    -0.0070 C.2   1 <1>   0.4940 
 11 N        6.4270     3.4080    -0.0040 N.2   1 <1>  -0.2720 
 12 C        6.8950     0.9740     0.0060 C.3   1 <1>   0.6260 
 13 O        6.1410    -0.1980     0.0100 O.3   1 <1>  -0.5690 
 14 C        6.9180    -1.3560     0.0150 C.3   1 <1>   0.0250 
 15 H        2.1100    -0.9310     0.0110 H     1 <1>   0.0450 
 16 H       -0.0630    -1.6970    -0.8690 H     1 <1>   0.0660 
 17 H       -0.0630    -1.6900     0.8970 H     1 <1>   0.0660 
 18 H       -2.1070    -0.2960    -0.8710 H     1 <1>   0.0660 
 19 H       -2.1070    -0.2890     0.8860 H     1 <1>   0.0660 
 20 H       -2.3880    -1.7740     0.0130 H     1 <1>   0.0660 
 21 H        4.2630     0.1510     0.0080 H     1 <1>   0.4400 
 22 H        3.2560     3.6220    -0.0060 H     1 <1>   0.4400 
 23 H        5.3400     5.2060    -0.0110 H     1 <1>   0.1360 
 24 H        7.5110     0.9990     0.8890 H     1 <1>   0.0660 
 25 H        7.5110     0.9920    -0.8770 H     1 <1>   0.0660 
 26 H        6.2600    -2.2070     0.0180 H     1 <1>   0.0660 
 27 H        7.5320    -1.3750     0.9000 H     1 <1>   0.0660 
 28 H        7.5330    -1.3820    -0.8700 H     1 <1>   0.0660 
@<TRIPOS>BOND
  1   1   2  1   
  2   1   3  1   
  3   2   4  2   
  4   2  15  1   
  5   3   5  1   
  6   3  16  1   
  7   3  17  1   
  8   4   6  1   
  9   5  18  1   
 10   5  19  1   
 11   5  20  1   
 12   6   7  ar  
 13   6  21  1   
 14   7   8  ar  
 15   7   9  ar  
 16   8  10  1   
 17   8  22  1   
 18   9  11  1   
 19   9  12  1   
 20  10  11  2   
 21  10  23  1   
 22  12  13  1   
 23  12  24  1   
 24  12  25  1   
 25  13  14  1   
 26  14  26  1   
 27  14  27  1   
 28  14  28  1   
@<TRIPOS>SUBSTRUCTURE
  1 ****   6 GROUP 4 **** **** 0

# MOE 2024.06 (io_trps.svl 2023.06)
