@<TRIPOS>MOLECULE
NONAME
52 54 1 0 0 
SMALL
USER_CHARGES


@<TRIPOS>ATOM
  1 O       -2.0910    -1.0560    -0.3820 O.3   1 <1>  -0.3630 
  2 C       -2.5280     0.1770    -0.0330 C.ar  1 <1>   0.0830 
  3 C       -0.8220    -1.4500     0.0950 C.3   1 <1>   0.0400 
  4 C       -3.4810     0.2940     0.9780 C.ar  1 <1>  -0.1440 
  5 C       -2.0650     1.3080    -0.7010 C.ar  1 <1>  -0.1440 
  6 C       -3.9370     1.5510     1.3420 C.ar  1 <1>  -0.1500 
  7 C       -4.0390    -0.9290     1.6810 C.3   1 <1>   0.4870 
  8 C       -2.5340     2.5530    -0.3160 C.ar  1 <1>  -0.1500 
  9 C       -1.0720     1.2290    -1.8530 C.3   1 <1>  -0.0960 
 10 C       -3.4620     2.6820     0.7030 C.ar  1 <1>  -0.1440 
 11 N       -4.5170    -1.8920     0.6640 N.4   1 <1>  -0.9590 
 12 C       -3.9570     4.0610     1.1050 C.3   1 <1>  -0.0970 
 13 C       -5.5380    -1.3700    -0.2970 C.3   1 <1>   0.3430 
 14 C       -4.9940    -3.2000     1.1520 C.3   1 <1>   0.3430 
 15 C       -6.4470    -2.5680    -0.6290 C.3   1 <1>   0.2000 
 16 C       -5.7180    -3.7880    -0.0600 C.3   1 <1>  -0.0800 
 17 O       -7.6650    -2.4280     0.0260 O.3   1 <1>  -0.6800 
 18 C       -4.7350    -4.3600    -1.1080 C.3   1 <1>   0.0210 
 19 C       -3.6360    -5.1930    -0.4800 C.2   1 <1>   0.1080 
 20 N       -2.5840    -4.6620     0.0670 N.2   1 <1>  -0.7070 
 21 C       -3.6210    -6.5810    -0.4210 C.2   1 <1>  -0.1500 
 22 N       -1.8500    -5.7200     0.4780 N.pl3 1 <1>   0.3000 
 23 C       -2.4640    -6.8880     0.2000 C.2   1 <1>  -0.3320 
 24 C       -1.8940    -8.2540     0.5420 C.3   1 <1>  -0.0600 
 25 H       -0.6520    -2.4700    -0.2030 H     1 <1>   0.0800 
 26 H       -0.8090    -1.3710     1.1680 H     1 <1>   0.0800 
 27 H       -0.0670    -0.8150    -0.3310 H     1 <1>   0.0800 
 28 H       -4.6660     1.6630     2.1260 H     1 <1>   0.1500 
 29 H       -4.8500    -0.6420     2.3300 H     1 <1>   0.0800 
 30 H       -3.2620    -1.3810     2.2750 H     1 <1>   0.0800 
 31 H       -2.1750     3.4350    -0.8180 H     1 <1>   0.1500 
 32 H       -1.2160     2.0500    -2.5310 H     1 <1>   0.0800 
 33 H       -1.2010     0.3160    -2.4070 H     1 <1>   0.0800 
 34 H       -0.0670     1.2700    -1.4740 H     1 <1>   0.0800 
 35 H       -3.6610    -2.0860     0.1030 H     1 <1>   0.4500 
 36 H       -3.1680     4.7850     1.0070 H     1 <1>   0.0800 
 37 H       -4.2900     4.0640     2.1270 H     1 <1>   0.0800 
 38 H       -4.7750     4.3550     0.4720 H     1 <1>   0.0800 
 39 H       -6.1170    -0.5720     0.1360 H     1 <1>   0.0800 
 40 H       -5.0440    -1.0100    -1.1850 H     1 <1>   0.0800 
 41 H       -4.1860    -3.8230     1.4990 H     1 <1>   0.0800 
 42 H       -5.6960    -3.0570     1.9570 H     1 <1>   0.0800 
 43 H       -6.6510    -2.6420    -1.6840 H     1 <1>   0.0800 
 44 H       -6.3970    -4.5670     0.2400 H     1 <1>   0.0800 
 45 H       -7.5890    -2.4640     0.9980 H     1 <1>   0.4000 
 46 H       -4.2590    -3.5690    -1.6610 H     1 <1>   0.0800 
 47 H       -5.2760    -4.9630    -1.8170 H     1 <1>   0.0800 
 48 H       -4.3760    -7.2470    -0.8010 H     1 <1>   0.1500 
 49 H       -0.9350    -5.6220     0.9360 H     1 <1>   0.2700 
 50 H       -2.5650    -9.0280     0.2160 H     1 <1>   0.0800 
 51 H       -1.7570    -8.3470     1.6050 H     1 <1>   0.0800 
 52 H       -0.9470    -8.3970     0.0520 H     1 <1>   0.0800 
@<TRIPOS>BOND
  1   1   2  1   
  2   1   3  1   
  3   2   4  ar  
  4   2   5  ar  
  5   3  25  1   
  6   3  26  1   
  7   3  27  1   
  8   4   6  ar  
  9   4   7  1   
 10   5   8  ar  
 11   5   9  1   
 12   6  10  ar  
 13   6  28  1   
 14   7  11  1   
 15   7  29  1   
 16   7  30  1   
 17   8  10  ar  
 18   8  31  1   
 19   9  32  1   
 20   9  33  1   
 21   9  34  1   
 22  10  12  1   
 23  11  13  1   
 24  11  14  1   
 25  11  35  1   
 26  12  36  1   
 27  12  37  1   
 28  12  38  1   
 29  13  15  1   
 30  13  39  1   
 31  13  40  1   
 32  14  16  1   
 33  14  41  1   
 34  14  42  1   
 35  15  16  1   
 36  15  17  1   
 37  15  43  1   
 38  16  18  1   
 39  16  44  1   
 40  17  45  1   
 41  18  19  1   
 42  18  46  1   
 43  18  47  1   
 44  19  20  2   
 45  19  21  1   
 46  20  22  1   
 47  21  23  2   
 48  21  48  1   
 49  22  23  1   
 50  22  49  1   
 51  23  24  1   
 52  24  50  1   
 53  24  51  1   
 54  24  52  1   
@<TRIPOS>SUBSTRUCTURE
  1 ****  11 GROUP 4 **** **** 0

# MOE 2024.06 (io_trps.svl 2023.06)
