@<TRIPOS>MOLECULE
NONAME
51 52 1 0 0 
SMALL
USER_CHARGES


@<TRIPOS>ATOM
  1 N        0.0180    -0.2260    -0.0290 N.4   1 <1>  -0.9590 
  2 C        0.0360    -1.7040    -0.1940 C.3   1 <1>   0.3430 
  3 C       -1.2190     0.4010    -0.5770 C.3   1 <1>   0.3430 
  4 C        1.2410     0.4000    -0.6130 C.3   1 <1>   0.4860 
  5 C       -1.1810    -2.3260     0.5050 C.3   1 <1>  -0.1600 
  6 C       -2.4480    -0.1880     0.1240 C.3   1 <1>  -0.1600 
  7 C        1.2830     1.8530    -0.1850 C.ar  1 <1>  -0.1430 
  8 C       -2.5160    -1.7240     0.0150 C.3   1 <1>  -0.0800 
  9 C        1.6290     2.1890     1.1170 C.ar  1 <1>  -0.1500 
 10 C        0.9690     2.8580    -1.0890 C.ar  1 <1>  -0.1500 
 11 C       -3.7590    -2.2420     0.7750 C.3   1 <1>   0.3430 
 12 C        1.6430     3.5150     1.5130 C.ar  1 <1>  -0.1500 
 13 C        0.9840     4.1830    -0.6910 C.ar  1 <1>  -0.1500 
 14 N       -3.9600    -3.7100     0.5930 N.4   1 <1>  -0.9590 
 15 C        1.3180     4.5110     0.6100 C.ar  1 <1>  -0.1500 
 16 C       -5.3920    -4.0340     0.3420 C.3   1 <1>   0.5430 
 17 C       -3.4530    -4.5180     1.7520 C.3   1 <1>   0.2630 
 18 C       -5.4230    -5.3780    -0.2870 C.1   1 <1>  -0.2000 
 19 C       -5.4220    -6.4550    -0.7890 C.1   1 <1>  -0.2000 
 20 C       -5.4320    -7.8070    -1.4180 C.3   1 <1>   0.0400 
 21 C       -4.0130    -8.3740    -1.4960 C.3   1 <1>  -0.2400 
 22 H        0.0530     0.0060     0.9720 H     1 <1>   0.4500 
 23 H        0.9420    -2.1120     0.2280 H     1 <1>   0.0800 
 24 H        0.0140    -1.9510    -1.2440 H     1 <1>   0.0800 
 25 H       -1.2830     0.2200    -1.6380 H     1 <1>   0.0800 
 26 H       -1.1960     1.4680    -0.4170 H     1 <1>   0.0800 
 27 H        1.2240     0.3330    -1.6890 H     1 <1>   0.0800 
 28 H        2.1270    -0.0980    -0.2530 H     1 <1>   0.0800 
 29 H       -1.0770    -2.1880     1.5680 H     1 <1>   0.0800 
 30 H       -1.1620    -3.3840     0.3130 H     1 <1>   0.0800 
 31 H       -3.3270     0.2470    -0.3220 H     1 <1>   0.0800 
 32 H       -2.4330     0.1170     1.1570 H     1 <1>   0.0800 
 33 H       -2.6420    -1.9670    -1.0280 H     1 <1>   0.0800 
 34 H        1.8970     1.4350     1.8380 H     1 <1>   0.1500 
 35 H        0.7130     2.6290    -2.1100 H     1 <1>   0.1500 
 36 H       -4.6220    -1.7150     0.4000 H     1 <1>   0.0800 
 37 H       -3.6700    -2.0110     1.8250 H     1 <1>   0.0800 
 38 H        1.9120     3.7790     2.5220 H     1 <1>   0.1500 
 39 H        0.7410     4.9640    -1.3920 H     1 <1>   0.1500 
 40 H       -3.4860    -4.0320    -0.2620 H     1 <1>   0.4500 
 41 H        1.3310     5.5430     0.9190 H     1 <1>   0.1500 
 42 H       -5.8300    -3.3190    -0.3360 H     1 <1>   0.0800 
 43 H       -5.9550    -4.0350     1.2620 H     1 <1>   0.0800 
 44 H       -3.9890    -4.2620     2.6530 H     1 <1>   0.0800 
 45 H       -2.4040    -4.3370     1.9130 H     1 <1>   0.0800 
 46 H       -3.5910    -5.5710     1.5620 H     1 <1>   0.0800 
 47 H       -5.8490    -7.7370    -2.4080 H     1 <1>   0.0800 
 48 H       -6.0550    -8.4660    -0.8380 H     1 <1>   0.0800 
 49 H       -3.3850    -7.7340    -2.0900 H     1 <1>   0.0800 
 50 H       -4.0340    -9.3490    -1.9510 H     1 <1>   0.0800 
 51 H       -3.5910    -8.4660    -0.5110 H     1 <1>   0.0800 
@<TRIPOS>BOND
  1   1   2  1   
  2   1   3  1   
  3   1   4  1   
  4   1  22  1   
  5   2   5  1   
  6   2  23  1   
  7   2  24  1   
  8   3   6  1   
  9   3  25  1   
 10   3  26  1   
 11   4   7  1   
 12   4  27  1   
 13   4  28  1   
 14   5   8  1   
 15   5  29  1   
 16   5  30  1   
 17   6   8  1   
 18   6  31  1   
 19   6  32  1   
 20   7   9  ar  
 21   7  10  ar  
 22   8  11  1   
 23   8  33  1   
 24   9  12  ar  
 25   9  34  1   
 26  10  13  ar  
 27  10  35  1   
 28  11  14  1   
 29  11  36  1   
 30  11  37  1   
 31  12  15  ar  
 32  12  38  1   
 33  13  15  ar  
 34  13  39  1   
 35  14  16  1   
 36  14  17  1   
 37  14  40  1   
 38  15  41  1   
 39  16  18  1   
 40  16  42  1   
 41  16  43  1   
 42  17  44  1   
 43  17  45  1   
 44  17  46  1   
 45  18  19  3   
 46  19  20  1   
 47  20  21  1   
 48  20  47  1   
 49  20  48  1   
 50  21  49  1   
 51  21  50  1   
 52  21  51  1   
@<TRIPOS>SUBSTRUCTURE
  1 ****   8 GROUP 4 **** **** 0

# MOE 2024.06 (io_trps.svl 2023.06)
