@<TRIPOS>MOLECULE
NONAME
48 49 1 0 0 
SMALL
USER_CHARGES


@<TRIPOS>ATOM
  1 S        1.0390     0.5610    -0.2810 S.o2  1 <1>   1.3330 
  2 O        1.9430     1.0550     0.7350 O.2   1 <1>  -0.6500 
  3 O        1.4950     0.4730    -1.6470 O.2   1 <1>  -0.6500 
  4 N        0.3960    -0.9260     0.2080 N.am  1 <1>  -0.8490 
  5 C       -0.3680     1.6710    -0.2480 C.3   1 <1>  -0.0550 
  6 C       -0.2290    -1.6800    -0.8850 C.3   1 <1>   0.1160 
  7 C        1.3880    -1.7700     0.8840 C.3   1 <1>   0.1160 
  8 C        0.0150     3.1010    -0.6920 C.3   1 <1>  -0.0800 
  9 C       -1.1120     4.1290    -0.6570 C.3   1 <1>   0.2000 
 10 C        1.1400     3.7330     0.1390 C.3   1 <1>   0.3430 
 11 O       -1.8700     3.9700     0.4980 O.3   1 <1>  -0.6800 
 12 C       -0.3640     5.4630    -0.6050 C.3   1 <1>   0.3430 
 13 N        0.8620     5.2030     0.2170 N.4   1 <1>  -0.9590 
 14 C        2.0140     6.0470    -0.2320 C.3   1 <1>   0.3430 
 15 C        3.2120     5.9390     0.7160 C.3   1 <1>  -0.0170 
 16 C        4.3040     6.8640     0.2230 C.ar  1 <1>   0.1670 
 17 N        3.9120     8.0870    -0.0970 N.ar  1 <1>  -0.6200 
 18 C        5.6120     6.4140     0.1260 C.ar  1 <1>  -0.1500 
 19 C        4.8590     8.9060    -0.5260 C.ar  1 <1>   0.1670 
 20 C        6.5890     7.2720    -0.3270 C.ar  1 <1>  -0.1500 
 21 C        6.1920     8.5490    -0.6580 C.ar  1 <1>  -0.1500 
 22 C        4.4120    10.3080    -0.8810 C.3   1 <1>  -0.0970 
 23 H       -1.1320     1.2950    -0.9010 H     1 <1>   0.0800 
 24 H       -0.7700     1.6830     0.7470 H     1 <1>   0.0800 
 25 H       -0.6880    -2.5750    -0.5020 H     1 <1>   0.0800 
 26 H        0.5070    -1.9530    -1.6240 H     1 <1>   0.0800 
 27 H       -0.9910    -1.0870    -1.3610 H     1 <1>   0.0800 
 28 H        0.9350    -2.6930     1.2060 H     1 <1>   0.0800 
 29 H        1.7720    -1.2650     1.7550 H     1 <1>   0.0800 
 30 H        2.2080    -1.9900     0.2220 H     1 <1>   0.0800 
 31 H        0.3730     3.0430    -1.7060 H     1 <1>   0.0800 
 32 H       -1.7750     4.0630    -1.5050 H     1 <1>   0.0800 
 33 H        2.0960     3.5340    -0.3210 H     1 <1>   0.0800 
 34 H        1.1490     3.3130     1.1330 H     1 <1>   0.0800 
 35 H       -1.3350     3.9520     1.3140 H     1 <1>   0.4000 
 36 H       -0.9800     6.2430    -0.1880 H     1 <1>   0.0800 
 37 H       -0.0760     5.7370    -1.6070 H     1 <1>   0.0800 
 38 H        0.6480     5.4530     1.1920 H     1 <1>   0.4500 
 39 H        2.3220     5.7600    -1.2240 H     1 <1>   0.0800 
 40 H        1.7080     7.0810    -0.2710 H     1 <1>   0.0800 
 41 H        3.5810     4.9310     0.7540 H     1 <1>   0.0800 
 42 H        2.9290     6.2540     1.7040 H     1 <1>   0.0800 
 43 H        5.8750     5.4090     0.4020 H     1 <1>   0.1500 
 44 H        7.6160     6.9610    -0.4160 H     1 <1>   0.1500 
 45 H        6.9150     9.2600    -1.0140 H     1 <1>   0.1500 
 46 H        5.2400    10.9060    -1.2160 H     1 <1>   0.0800 
 47 H        3.9750    10.7760    -0.0180 H     1 <1>   0.0800 
 48 H        3.6770    10.2660    -1.6630 H     1 <1>   0.0800 
@<TRIPOS>BOND
  1   1   2  2   
  2   1   3  2   
  3   1   4  am  
  4   1   5  1   
  5   4   6  1   
  6   4   7  1   
  7   5   8  1   
  8   5  23  1   
  9   5  24  1   
 10   6  25  1   
 11   6  26  1   
 12   6  27  1   
 13   7  28  1   
 14   7  29  1   
 15   7  30  1   
 16   8   9  1   
 17   8  10  1   
 18   8  31  1   
 19   9  11  1   
 20   9  12  1   
 21   9  32  1   
 22  10  13  1   
 23  10  33  1   
 24  10  34  1   
 25  11  35  1   
 26  12  13  1   
 27  12  36  1   
 28  12  37  1   
 29  13  14  1   
 30  13  38  1   
 31  14  15  1   
 32  14  39  1   
 33  14  40  1   
 34  15  16  1   
 35  15  41  1   
 36  15  42  1   
 37  16  17  ar  
 38  16  18  ar  
 39  17  19  ar  
 40  18  20  ar  
 41  18  43  1   
 42  19  21  ar  
 43  19  22  1   
 44  20  21  ar  
 45  20  44  1   
 46  21  45  1   
 47  22  46  1   
 48  22  47  1   
 49  22  48  1   
@<TRIPOS>SUBSTRUCTURE
  1 ****  10 GROUP 4 **** **** 0

# MOE 2024.06 (io_trps.svl 2023.06)
