@<TRIPOS>MOLECULE
NONAME
45 46 1 0 0 
SMALL
USER_CHARGES


@<TRIPOS>ATOM
  1 S        0.7630     0.1440    -0.3110 S.o2  1 <1>   1.3330 
  2 O        0.7620    -0.6840     0.8740 O.2   1 <1>  -0.6500 
  3 O        2.0090     0.4290    -0.9860 O.2   1 <1>  -0.6500 
  4 N       -0.2920    -0.5640    -1.4370 N.am  1 <1>  -0.8490 
  5 C       -0.0520     1.7010     0.0520 C.3   1 <1>  -0.0550 
  6 C        0.4070    -1.4440    -2.3790 C.3   1 <1>   0.1160 
  7 C       -1.4060    -1.2900    -0.8160 C.3   1 <1>   0.1160 
  8 C        0.6230     2.5190     1.1710 C.3   1 <1>  -0.0800 
  9 C       -0.2300     3.7350     1.5250 C.3   1 <1>   0.2000 
 10 C        1.9710     3.1180     0.7240 C.3   1 <1>   0.1100 
 11 O        0.0460     4.0770     2.8330 O.3   1 <1>  -0.6800 
 12 C        0.3480     4.8260     0.6360 C.3   1 <1>   0.1100 
 13 N        1.7940     4.5770     0.6710 N.3   1 <1>  -0.8100 
 14 C        2.5380     5.2040    -0.4320 C.3   1 <1>   0.2530 
 15 C        2.4060     6.7190    -0.3790 C.ar  1 <1>  -0.1440 
 16 C        3.1920     7.4920     0.4620 C.ar  1 <1>   0.1900 
 17 C        1.4980     7.4050    -1.1700 C.ar  1 <1>   0.1900 
 18 F        4.0800     6.8970     1.2170 F     1 <1>  -0.1900 
 19 C        3.0880     8.8780     0.5370 C.ar  1 <1>  -0.1440 
 20 F        0.7300     6.7410    -1.9950 F     1 <1>  -0.1900 
 21 C        1.3600     8.7810    -1.1310 C.ar  1 <1>  -0.1500 
 22 C        2.1590     9.5190    -0.2720 C.ar  1 <1>  -0.1500 
 23 C        3.9690     9.6820     1.4820 C.3   1 <1>  -0.0970 
 24 H       -0.1000     2.2890    -0.8450 H     1 <1>   0.0800 
 25 H       -1.0570     1.4890     0.3550 H     1 <1>   0.0800 
 26 H       -0.2890    -1.8670    -3.0840 H     1 <1>   0.0800 
 27 H        0.9040    -2.2400    -1.8490 H     1 <1>   0.0800 
 28 H        1.1430    -0.8840    -2.9310 H     1 <1>   0.0800 
 29 H       -2.0900    -1.6360    -1.5720 H     1 <1>   0.0800 
 30 H       -1.9430    -0.6450    -0.1430 H     1 <1>   0.0800 
 31 H       -1.0390    -2.1380    -0.2600 H     1 <1>   0.0800 
 32 H        0.7520     1.8820     2.0300 H     1 <1>   0.0800 
 33 H       -1.2920     3.5930     1.4180 H     1 <1>   0.0800 
 34 H        2.2690     2.7420    -0.2390 H     1 <1>   0.0800 
 35 H        2.7440     2.8820     1.4370 H     1 <1>   0.0800 
 36 H        0.9650     4.4250     2.8360 H     1 <1>   0.4000 
 37 H        0.1040     5.8100     1.0000 H     1 <1>   0.0800 
 38 H       -0.0240     4.7120    -0.3680 H     1 <1>   0.0800 
 39 H        3.5790     4.9390    -0.3460 H     1 <1>   0.0800 
 40 H        2.1820     4.8270    -1.3750 H     1 <1>   0.0800 
 41 H        0.6390     9.2650    -1.7650 H     1 <1>   0.1500 
 42 H        2.0530    10.5900    -0.2370 H     1 <1>   0.1500 
 43 H        3.7450    10.7320     1.4240 H     1 <1>   0.0800 
 44 H        5.0040     9.5370     1.2290 H     1 <1>   0.0800 
 45 H        3.8120     9.3540     2.4950 H     1 <1>   0.0800 
@<TRIPOS>BOND
  1   1   2  2   
  2   1   3  2   
  3   1   4  am  
  4   1   5  1   
  5   4   6  1   
  6   4   7  1   
  7   5   8  1   
  8   5  24  1   
  9   5  25  1   
 10   6  26  1   
 11   6  27  1   
 12   6  28  1   
 13   7  29  1   
 14   7  30  1   
 15   7  31  1   
 16   8   9  1   
 17   8  10  1   
 18   8  32  1   
 19   9  11  1   
 20   9  12  1   
 21   9  33  1   
 22  10  13  1   
 23  10  34  1   
 24  10  35  1   
 25  11  36  1   
 26  12  13  1   
 27  12  37  1   
 28  12  38  1   
 29  13  14  1   
 30  14  15  1   
 31  14  39  1   
 32  14  40  1   
 33  15  16  ar  
 34  15  17  ar  
 35  16  18  1   
 36  16  19  ar  
 37  17  20  1   
 38  17  21  ar  
 39  19  22  ar  
 40  19  23  1   
 41  21  22  ar  
 42  21  41  1   
 43  22  42  1   
 44  23  43  1   
 45  23  44  1   
 46  23  45  1   
@<TRIPOS>SUBSTRUCTURE
  1 ****  13 GROUP 4 **** **** 0

# MOE 2024.06 (io_trps.svl 2023.06)
