@<TRIPOS>MOLECULE
NONAME
38 40 1 0 0 
SMALL
USER_CHARGES


@<TRIPOS>ATOM
  1 F       -0.6790     0.4140     0.0580 F     1 <1>  -0.3400 
  2 C       -1.8920    -0.1330     0.1300 C.3   1 <1>   1.1640 
  3 F       -2.5840     0.4010    -0.8720 F     1 <1>  -0.3400 
  4 F       -2.4310     0.3390     1.2500 F     1 <1>  -0.3400 
  5 C       -1.8580    -1.6850     0.0810 C.ar  1 <1>   0.1660 
  6 N       -2.9930    -2.3690     0.1250 N.ar  1 <1>  -0.6200 
  7 C       -0.6540    -2.3580    -0.0070 C.ar  1 <1>  -0.1500 
  8 C       -2.9120    -3.6950     0.0840 C.ar  1 <1>   0.7200 
  9 C       -0.6780    -3.7310    -0.0480 C.ar  1 <1>   0.1600 
 10 N       -1.7950    -4.4090    -0.0050 N.ar  1 <1>  -0.6200 
 11 N       -4.0930    -4.3880     0.1420 N.pl3 1 <1>  -0.8380 
 12 C       -5.4230    -3.7550    -0.0410 C.3   1 <1>   0.2090 
 13 C       -4.1810    -5.8590     0.0020 C.3   1 <1>   0.2090 
 14 C       -6.3660    -4.9100    -0.3890 C.3   1 <1>   0.2000 
 15 C       -5.6720    -6.1780     0.1080 C.3   1 <1>  -0.0800 
 16 O       -7.6020    -4.7750     0.2280 O.3   1 <1>  -0.6800 
 17 C       -6.0940    -7.4330    -0.6710 C.3   1 <1>  -0.0170 
 18 C       -5.3690    -8.6680    -0.1600 C.ar  1 <1>  -0.1440 
 19 C       -4.2560    -9.1830    -0.7950 C.ar  1 <1>  -0.1500 
 20 C       -5.7890    -9.3390     0.9700 C.ar  1 <1>  -0.1500 
 21 C       -3.6340   -10.3080    -0.2800 C.ar  1 <1>   0.1600 
 22 C       -5.0960   -10.4580     1.4010 C.ar  1 <1>   0.1600 
 23 N       -4.0270   -10.9590     0.8020 N.ar  1 <1>  -0.6200 
 24 H        0.2890    -1.8440    -0.0440 H     1 <1>   0.1500 
 25 H        0.2440    -4.2840    -0.1160 H     1 <1>   0.1500 
 26 H       -5.7130    -3.2760     0.8780 H     1 <1>   0.0800 
 27 H       -5.3920    -3.0340    -0.8390 H     1 <1>   0.0800 
 28 H       -3.7910    -6.1420    -0.9610 H     1 <1>   0.0800 
 29 H       -3.6160    -6.3520     0.7760 H     1 <1>   0.0800 
 30 H       -6.5190    -4.9390    -1.4540 H     1 <1>   0.0800 
 31 H       -5.8870    -6.3160     1.1530 H     1 <1>   0.0800 
 32 H       -7.4890    -4.7190     1.1960 H     1 <1>   0.4000 
 33 H       -5.8910    -7.3010    -1.7190 H     1 <1>   0.0800 
 34 H       -7.1560    -7.5760    -0.5640 H     1 <1>   0.0800 
 35 H       -3.8640    -8.7220    -1.6830 H     1 <1>   0.1500 
 36 H       -6.6490    -9.0020     1.5200 H     1 <1>   0.1500 
 37 H       -2.7660   -10.6940    -0.7880 H     1 <1>   0.1500 
 38 H       -5.4390   -10.9680     2.2850 H     1 <1>   0.1500 
@<TRIPOS>BOND
  1   1   2  1   
  2   2   3  1   
  3   2   4  1   
  4   2   5  1   
  5   5   6  ar  
  6   5   7  ar  
  7   6   8  ar  
  8   7   9  ar  
  9   7  24  1   
 10   8  10  ar  
 11   8  11  1   
 12   9  10  ar  
 13   9  25  1   
 14  11  12  1   
 15  11  13  1   
 16  12  14  1   
 17  12  26  1   
 18  12  27  1   
 19  13  15  1   
 20  13  28  1   
 21  13  29  1   
 22  14  15  1   
 23  14  16  1   
 24  14  30  1   
 25  15  17  1   
 26  15  31  1   
 27  16  32  1   
 28  17  18  1   
 29  17  33  1   
 30  17  34  1   
 31  18  19  ar  
 32  18  20  ar  
 33  19  21  ar  
 34  19  35  1   
 35  20  22  ar  
 36  20  36  1   
 37  21  23  ar  
 38  21  37  1   
 39  22  23  ar  
 40  22  38  1   
@<TRIPOS>SUBSTRUCTURE
  1 ****  11 GROUP 4 **** **** 0

# MOE 2024.06 (io_trps.svl 2023.06)
