@<TRIPOS>MOLECULE
NONAME
46 47 1 0 0 
SMALL
USER_CHARGES


@<TRIPOS>ATOM
  1 F       -0.5060     2.9510    -0.0560 F     1 <1>  -0.3400 
  2 C       -1.7950     3.1770     0.1310 C.3   1 <1>   1.0200 
  3 F       -2.1650     4.0830    -0.7620 F     1 <1>  -0.3400 
  4 F       -1.9220     3.7450     1.3210 F     1 <1>  -0.3400 
  5 C       -2.6300     1.8930     0.0210 C.3   1 <1>  -0.1600 
  6 C       -4.1480     2.1140     0.2200 C.3   1 <1>  -0.1600 
  7 C       -4.9280     0.8020     0.1040 C.3   1 <1>   0.3430 
  8 N       -6.3890     1.0670     0.1490 N.4   1 <1>  -0.9590 
  9 C       -6.8900     1.5680     1.4640 C.3   1 <1>   0.3430 
 10 C       -7.1990    -0.0810    -0.3230 C.3   1 <1>   0.3430 
 11 C       -8.4160     1.7190     1.4530 C.3   1 <1>  -0.1600 
 12 C       -8.6200     0.3990    -0.6360 C.3   1 <1>  -0.1600 
 13 C       -9.0200     1.7410     0.0280 C.3   1 <1>   0.2800 
 14 O       -8.3780     2.7450    -0.7350 O.3   1 <1>  -0.5600 
 15 C      -10.5730     1.9450    -0.0260 C.3   1 <1>   0.2000 
 16 C       -8.6600     4.0840    -0.4190 C.3   1 <1>   0.1200 
 17 O      -11.0380     1.5650    -1.2930 O.3   1 <1>  -0.6800 
 18 C      -11.0090     3.4120     0.2520 C.3   1 <1>   0.2800 
 19 C      -10.1560     4.3740    -0.5810 C.3   1 <1>  -0.1600 
 20 O      -10.7900     3.7090     1.5820 O.3   1 <1>  -0.6800 
 21 C      -12.5060     3.6550     0.0300 C.3   1 <1>  -0.2400 
 22 H       -2.4480     1.4710    -0.9520 H     1 <1>   0.0800 
 23 H       -2.2610     1.2020     0.7570 H     1 <1>   0.0800 
 24 H       -4.5010     2.8040    -0.5280 H     1 <1>   0.0800 
 25 H       -4.3080     2.5480     1.1920 H     1 <1>   0.0800 
 26 H       -4.6480     0.1300     0.9000 H     1 <1>   0.0800 
 27 H       -4.6810     0.3330    -0.8360 H     1 <1>   0.0800 
 28 H       -6.6260     1.8280    -0.5190 H     1 <1>   0.4500 
 29 H       -6.6000     0.8970     2.2570 H     1 <1>   0.0800 
 30 H       -6.4510     2.5320     1.6630 H     1 <1>   0.0800 
 31 H       -6.7650    -0.5110    -1.2110 H     1 <1>   0.0800 
 32 H       -7.2300    -0.8390     0.4430 H     1 <1>   0.0800 
 33 H       -8.6670     2.5960     2.0160 H     1 <1>   0.0800 
 34 H       -8.8450     0.8940     1.9930 H     1 <1>   0.0800 
 35 H       -9.2990    -0.3730    -0.3170 H     1 <1>   0.0800 
 36 H       -8.7300     0.4780    -1.7030 H     1 <1>   0.0800 
 37 H      -11.0560     1.2930     0.6800 H     1 <1>   0.0800 
 38 H       -8.3370     4.2890     0.5870 H     1 <1>   0.0800 
 39 H       -8.0930     4.7050    -1.0900 H     1 <1>   0.0800 
 40 H      -10.5940     2.1070    -1.9750 H     1 <1>   0.4000 
 41 H      -10.4100     4.2770    -1.6210 H     1 <1>   0.0800 
 42 H      -10.3620     5.3910    -0.2990 H     1 <1>   0.0800 
 43 H      -11.2910     4.5150     1.8180 H     1 <1>   0.4000 
 44 H      -12.7650     3.4900    -1.0010 H     1 <1>   0.0800 
 45 H      -12.7770     4.6660     0.2770 H     1 <1>   0.0800 
 46 H      -13.0860     2.9730     0.6260 H     1 <1>   0.0800 
@<TRIPOS>BOND
  1   1   2  1   
  2   2   3  1   
  3   2   4  1   
  4   2   5  1   
  5   5   6  1   
  6   5  22  1   
  7   5  23  1   
  8   6   7  1   
  9   6  24  1   
 10   6  25  1   
 11   7   8  1   
 12   7  26  1   
 13   7  27  1   
 14   8   9  1   
 15   8  10  1   
 16   8  28  1   
 17   9  11  1   
 18   9  29  1   
 19   9  30  1   
 20  10  12  1   
 21  10  31  1   
 22  10  32  1   
 23  11  13  1   
 24  11  33  1   
 25  11  34  1   
 26  12  13  1   
 27  12  35  1   
 28  12  36  1   
 29  13  14  1   
 30  13  15  1   
 31  14  16  1   
 32  15  17  1   
 33  15  18  1   
 34  15  37  1   
 35  16  19  1   
 36  16  38  1   
 37  16  39  1   
 38  17  40  1   
 39  18  19  1   
 40  18  20  1   
 41  18  21  1   
 42  19  41  1   
 43  19  42  1   
 44  20  43  1   
 45  21  44  1   
 46  21  45  1   
 47  21  46  1   
@<TRIPOS>SUBSTRUCTURE
  1 ****   8 GROUP 4 **** **** 0

# MOE 2024.06 (io_trps.svl 2023.06)
