@<TRIPOS>MOLECULE
NONAME
48 50 1 0 0 
SMALL
USER_CHARGES


@<TRIPOS>ATOM
  1 S        0.8390    -0.3930    -0.6700 S.o2  1 <1>   1.3330 
  2 O        0.1330    -0.5740    -1.9190 O.2   1 <1>  -0.6500 
  3 O        0.7980    -1.4370     0.3290 O.2   1 <1>  -0.6500 
  4 N        0.2500     1.0310     0.0450 N.am  1 <1>  -0.8490 
  5 C        2.5600    -0.0270    -1.0170 C.3   1 <1>  -0.0550 
  6 C       -1.0230     0.8030     0.7320 C.3   1 <1>   0.1160 
  7 C        0.1160     2.1460    -0.9010 C.3   1 <1>   0.1160 
  8 C        3.3680     0.3900     0.2250 C.3   1 <1>  -0.0800 
  9 C        4.7220     0.9840    -0.1500 C.3   1 <1>   0.2200 
 10 C        3.7170    -0.7630     1.1650 C.3   1 <1>   0.1200 
 11 N        4.7360     2.4150     0.2120 N.am  1 <1>  -0.7300 
 12 C        5.7200     0.1760     0.6790 C.3   1 <1>   0.1200 
 13 O        4.9740    -0.4510     1.6710 O.3   1 <1>  -0.5600 
 14 C        4.1490     3.3950    -0.5180 C.2   1 <1>   0.6300 
 15 O        3.6230     3.1650    -1.5830 O.2   1 <1>  -0.5700 
 16 C        4.1270     4.8100     0.0570 C.3   1 <1>   0.0320 
 17 C        5.4930     5.4850    -0.0070 C.ar  1 <1>  -0.0320 
 18 C        3.2410     5.0870     1.2410 C.3   1 <1>  -0.2000 
 19 C        2.8960     5.6630    -0.0930 C.3   1 <1>  -0.2000 
 20 C        6.4650     5.2670     0.9600 C.ar  1 <1>   0.1900 
 21 C        5.8060     6.3340    -1.0580 C.ar  1 <1>  -0.1500 
 22 F        6.2160     4.4560     1.9560 F     1 <1>  -0.1900 
 23 C        7.7090     5.8700     0.9150 C.ar  1 <1>  -0.1500 
 24 C        7.0480     6.9480    -1.1220 C.ar  1 <1>  -0.1500 
 25 C        7.9980     6.7200    -0.1390 C.ar  1 <1>  -0.1500 
 26 H        3.0190    -0.8820    -1.4730 H     1 <1>   0.0800 
 27 H        2.5960     0.7710    -1.7320 H     1 <1>   0.0800 
 28 H       -1.3600     1.7100     1.2030 H     1 <1>   0.0800 
 29 H       -0.8990     0.0520     1.4950 H     1 <1>   0.0800 
 30 H       -1.7700     0.4660     0.0330 H     1 <1>   0.0800 
 31 H       -0.2170     3.0300    -0.3840 H     1 <1>   0.0800 
 32 H       -0.5940     1.9030    -1.6740 H     1 <1>   0.0800 
 33 H        1.0650     2.3670    -1.3580 H     1 <1>   0.0800 
 34 H        2.8010     1.1080     0.7920 H     1 <1>   0.0800 
 35 H        4.9430     0.8780    -1.1990 H     1 <1>   0.0800 
 36 H        3.7920    -1.7010     0.6420 H     1 <1>   0.0800 
 37 H        3.0190    -0.8540     1.9800 H     1 <1>   0.0800 
 38 H        5.1020     2.6410     1.1410 H     1 <1>   0.3700 
 39 H        6.4810     0.7850     1.1330 H     1 <1>   0.0800 
 40 H        6.1740    -0.5940     0.0790 H     1 <1>   0.0800 
 41 H        2.6330     4.2890     1.6300 H     1 <1>   0.1000 
 42 H        3.5990     5.7470     2.0120 H     1 <1>   0.1000 
 43 H        3.0060     6.7240    -0.2350 H     1 <1>   0.1000 
 44 H        2.0610     5.2590    -0.6380 H     1 <1>   0.1000 
 45 H        5.0820     6.5170    -1.8330 H     1 <1>   0.1500 
 46 H        8.4310     5.6750     1.6860 H     1 <1>   0.1500 
 47 H        7.2760     7.6070    -1.9430 H     1 <1>   0.1500 
 48 H        8.9600     7.2010    -0.1960 H     1 <1>   0.1500 
@<TRIPOS>BOND
  1   1   2  2   
  2   1   3  2   
  3   1   4  am  
  4   1   5  1   
  5   4   6  1   
  6   4   7  1   
  7   5   8  1   
  8   5  26  1   
  9   5  27  1   
 10   6  28  1   
 11   6  29  1   
 12   6  30  1   
 13   7  31  1   
 14   7  32  1   
 15   7  33  1   
 16   8   9  1   
 17   8  10  1   
 18   8  34  1   
 19   9  11  1   
 20   9  12  1   
 21   9  35  1   
 22  10  13  1   
 23  10  36  1   
 24  10  37  1   
 25  11  14  am  
 26  11  38  1   
 27  12  13  1   
 28  12  39  1   
 29  12  40  1   
 30  14  15  2   
 31  14  16  1   
 32  16  17  1   
 33  16  18  1   
 34  16  19  1   
 35  17  20  ar  
 36  17  21  ar  
 37  18  19  1   
 38  18  41  1   
 39  18  42  1   
 40  19  43  1   
 41  19  44  1   
 42  20  22  1   
 43  20  23  ar  
 44  21  24  ar  
 45  21  45  1   
 46  23  25  ar  
 47  23  46  1   
 48  24  25  ar  
 49  24  47  1   
 50  25  48  1   
@<TRIPOS>SUBSTRUCTURE
  1 ****  14 GROUP 4 **** **** 0

# MOE 2024.06 (io_trps.svl 2023.06)
