@<TRIPOS>MOLECULE
NONAME
40 42 1 0 0 
SMALL
USER_CHARGES


@<TRIPOS>ATOM
  1 O        1.5270    -0.4850     1.4750 O.2   1 <1>  -0.5700 
  2 C        2.1410    -0.0590     0.5220 C.2   1 <1>   0.7800 
  3 O        2.4660    -0.8300    -0.5060 O.3   1 <1>  -0.4300 
  4 N        2.6150     1.1970     0.3780 N.am  1 <1>  -0.6600 
  5 C        3.2150    -0.1030    -1.4620 C.3   1 <1>   0.1200 
  6 C        3.4730     1.2660    -0.8150 C.3   1 <1>   0.2200 
  7 C        2.8080     2.1890     1.4720 C.3   1 <1>   0.1400 
  8 C        4.9500     1.4730    -0.4220 C.3   1 <1>   0.2090 
  9 C        4.3030     2.3860     1.7890 C.3   1 <1>   0.2090 
 10 N        5.0910     2.6050     0.5400 N.pl3 1 <1>  -0.8380 
 11 C        6.3290     3.1890     0.6700 C.ar  1 <1>   0.4100 
 12 N        7.3450     2.3750     0.8630 N.ar  1 <1>  -0.6200 
 13 C        6.5040     4.5660     0.6040 C.ar  1 <1>  -0.1430 
 14 C        8.5240     2.9470     0.9990 C.ar  1 <1>   0.4770 
 15 C        7.7840     5.0320     0.7570 C.ar  1 <1>   0.1600 
 16 C        5.3480     5.5310     0.3620 C.3   1 <1>  -0.0160 
 17 N        8.8130     4.2340     0.9590 N.ar  1 <1>  -0.6200 
 18 C        9.6950     2.0220     1.2250 C.3   1 <1>  -0.0970 
 19 C        5.0060     5.6040    -1.1310 C.3   1 <1>  -0.1600 
 20 C        3.8410     6.5630    -1.3950 C.3   1 <1>  -0.2400 
 21 H        2.6210    -0.0040    -2.3530 H     1 <1>   0.0800 
 22 H        4.1220    -0.6390    -1.6800 H     1 <1>   0.0800 
 23 H        3.1520     2.0640    -1.4620 H     1 <1>   0.0800 
 24 H        2.2910     1.8600     2.3570 H     1 <1>   0.0800 
 25 H        2.3850     3.1300     1.1670 H     1 <1>   0.0800 
 26 H        5.5370     1.6750    -1.3020 H     1 <1>   0.0800 
 27 H        5.3350     0.5770     0.0350 H     1 <1>   0.0800 
 28 H        4.6770     1.5120     2.2930 H     1 <1>   0.0800 
 29 H        4.4250     3.2260     2.4500 H     1 <1>   0.0800 
 30 H        7.9830     6.0890     0.7120 H     1 <1>   0.1500 
 31 H        5.6120     6.5110     0.7180 H     1 <1>   0.0800 
 32 H        4.4840     5.2080     0.9150 H     1 <1>   0.0800 
 33 H        9.3550     1.0210     1.4150 H     1 <1>   0.0800 
 34 H       10.2650     2.3640     2.0680 H     1 <1>   0.0800 
 35 H       10.3210     2.0220     0.3520 H     1 <1>   0.0800 
 36 H        4.7430     4.6220    -1.4830 H     1 <1>   0.0800 
 37 H        5.8720     5.9320    -1.6810 H     1 <1>   0.0800 
 38 H        2.9590     6.2360    -0.8740 H     1 <1>   0.0800 
 39 H        3.6220     6.5940    -2.4480 H     1 <1>   0.0800 
 40 H        4.0890     7.5580    -1.0690 H     1 <1>   0.0800 
@<TRIPOS>BOND
  1   1   2  2   
  2   2   3  1   
  3   2   4  am  
  4   3   5  1   
  5   4   6  1   
  6   4   7  1   
  7   5   6  1   
  8   5  21  1   
  9   5  22  1   
 10   6   8  1   
 11   6  23  1   
 12   7   9  1   
 13   7  24  1   
 14   7  25  1   
 15   8  10  1   
 16   8  26  1   
 17   8  27  1   
 18   9  10  1   
 19   9  28  1   
 20   9  29  1   
 21  10  11  1   
 22  11  12  ar  
 23  11  13  ar  
 24  12  14  ar  
 25  13  15  ar  
 26  13  16  1   
 27  14  17  ar  
 28  14  18  1   
 29  15  17  ar  
 30  15  30  1   
 31  16  19  1   
 32  16  31  1   
 33  16  32  1   
 34  18  33  1   
 35  18  34  1   
 36  18  35  1   
 37  19  20  1   
 38  19  36  1   
 39  19  37  1   
 40  20  38  1   
 41  20  39  1   
 42  20  40  1   
@<TRIPOS>SUBSTRUCTURE
  1 ****  10 GROUP 4 **** **** 0

# MOE 2024.06 (io_trps.svl 2023.06)
