@<TRIPOS>MOLECULE
NONAME
50 53 1 0 0 
SMALL
USER_CHARGES


@<TRIPOS>ATOM
  1 O       -1.7580     1.4690    -0.9160 O.2   1 <1>  -0.5700 
  2 C       -2.7200     1.0420    -0.3250 C.2   1 <1>   0.6900 
  3 N       -3.0250     1.3650     0.9500 N.am  1 <1>  -0.4900 
  4 N       -3.5960     0.1430    -0.8140 N.am  1 <1>  -0.7300 
  5 C       -4.0710     0.6340     1.3930 C.2   1 <1>   0.5690 
  6 C       -4.5370    -0.2710     0.2550 C.3   1 <1>   0.2810 
  7 O       -4.5480     0.6810     2.4990 O.2   1 <1>  -0.5700 
  8 C       -4.3810    -1.7560     0.5740 C.3   1 <1>  -0.0990 
  9 C       -4.8560    -2.5730    -0.6040 C.2   1 <1>   0.5690 
 10 O       -4.0170    -2.8630    -1.4240 O.2   1 <1>  -0.5700 
 11 N       -6.1730    -2.9350    -0.7420 N.am  1 <1>  -0.6600 
 12 C       -6.6050    -3.8480    -1.8400 C.3   1 <1>   0.1400 
 13 C       -7.3000    -2.5370     0.1480 C.3   1 <1>   0.1400 
 14 C       -7.1980    -5.1230    -1.2330 C.3   1 <1>  -0.1600 
 15 C       -7.8860    -3.7890     0.8040 C.3   1 <1>  -0.1600 
 16 C       -8.3430    -4.8210    -0.2480 C.3   1 <1>   0.4240 
 17 O       -9.3100    -4.1760    -1.0490 O.3   1 <1>  -0.5600 
 18 C       -8.9020    -6.1230     0.3950 C.ar  1 <1>  -0.1430 
 19 C      -10.6270    -4.1720    -0.6040 C.3   1 <1>   0.1200 
 20 C       -8.1090    -6.9620     1.1910 C.ar  1 <1>   0.0820 
 21 C      -10.2330    -6.4840     0.1870 C.ar  1 <1>  -0.1430 
 22 C      -11.1430    -5.6010    -0.6420 C.3   1 <1>  -0.0160 
 23 O       -6.8140    -6.6200     1.4250 O.3   1 <1>  -0.3620 
 24 C       -8.6480    -8.1260     1.7360 C.ar  1 <1>  -0.1500 
 25 C      -10.7560    -7.6440     0.7310 C.ar  1 <1>  -0.1500 
 26 C       -5.9000    -7.4840     2.0640 C.3   1 <1>   0.0400 
 27 C       -9.9650    -8.4670     1.5050 C.ar  1 <1>  -0.1500 
 28 H       -2.4800     2.0180     1.5010 H     1 <1>   0.3700 
 29 H       -3.3340    -0.5040    -1.5670 H     1 <1>   0.3700 
 30 H       -5.5480    -0.0270    -0.0220 H     1 <1>   0.0800 
 31 H       -4.9310    -2.0160     1.4580 H     1 <1>   0.0800 
 32 H       -3.3480    -1.9800     0.7670 H     1 <1>   0.0800 
 33 H       -5.7750    -4.1060    -2.4750 H     1 <1>   0.0800 
 34 H       -7.3420    -3.3490    -2.4460 H     1 <1>   0.0800 
 35 H       -8.0560    -2.0490    -0.4450 H     1 <1>   0.0800 
 36 H       -6.9870    -1.8440     0.9060 H     1 <1>   0.0800 
 37 H       -6.4020    -5.6490    -0.7470 H     1 <1>   0.0800 
 38 H       -7.5690    -5.7600    -2.0140 H     1 <1>   0.0800 
 39 H       -8.7100    -3.5250     1.4380 H     1 <1>   0.0800 
 40 H       -7.1310    -4.2100     1.4360 H     1 <1>   0.0800 
 41 H      -11.1980    -3.5460    -1.2680 H     1 <1>   0.0800 
 42 H      -10.6690    -3.7670     0.3910 H     1 <1>   0.0800 
 43 H      -11.1640    -5.9510    -1.6580 H     1 <1>   0.0800 
 44 H      -12.1440    -5.6250    -0.2520 H     1 <1>   0.0800 
 45 H       -8.0620    -8.7830     2.3480 H     1 <1>   0.1500 
 46 H      -11.7830    -7.9130     0.5560 H     1 <1>   0.1500 
 47 H       -4.9330    -7.0150     2.0510 H     1 <1>   0.0800 
 48 H       -5.8620    -8.4140     1.5240 H     1 <1>   0.0800 
 49 H       -6.2170    -7.6390     3.0800 H     1 <1>   0.0800 
 50 H      -10.3740    -9.3680     1.9280 H     1 <1>   0.1500 
@<TRIPOS>BOND
  1   1   2  2   
  2   2   3  am  
  3   2   4  am  
  4   3   5  am  
  5   3  28  1   
  6   4   6  1   
  7   4  29  1   
  8   5   6  1   
  9   5   7  2   
 10   6   8  1   
 11   6  30  1   
 12   8   9  1   
 13   8  31  1   
 14   8  32  1   
 15   9  10  2   
 16   9  11  am  
 17  11  12  1   
 18  11  13  1   
 19  12  14  1   
 20  12  33  1   
 21  12  34  1   
 22  13  15  1   
 23  13  35  1   
 24  13  36  1   
 25  14  16  1   
 26  14  37  1   
 27  14  38  1   
 28  15  16  1   
 29  15  39  1   
 30  15  40  1   
 31  16  17  1   
 32  16  18  1   
 33  17  19  1   
 34  18  20  ar  
 35  18  21  ar  
 36  19  22  1   
 37  19  41  1   
 38  19  42  1   
 39  20  23  1   
 40  20  24  ar  
 41  21  22  1   
 42  21  25  ar  
 43  22  43  1   
 44  22  44  1   
 45  23  26  1   
 46  24  27  ar  
 47  24  45  1   
 48  25  27  ar  
 49  25  46  1   
 50  26  47  1   
 51  26  48  1   
 52  26  49  1   
 53  27  50  1   
@<TRIPOS>SUBSTRUCTURE
  1 ****  13 GROUP 4 **** **** 0

# MOE 2024.06 (io_trps.svl 2023.06)
