@<TRIPOS>MOLECULE
NONAME
53 56 1 0 0 
SMALL
USER_CHARGES


@<TRIPOS>ATOM
  1 O        0.2150    -0.7610    -1.5190 O.3   1 <1>  -0.5600 
  2 C        1.3010    -0.0320    -2.0200 C.3   1 <1>   0.1200 
  3 C        0.5330    -1.9990    -0.9390 C.3   1 <1>   0.1200 
  4 C        2.3440     0.2240    -0.9110 C.3   1 <1>   0.4230 
  5 C        1.5440    -1.8210     0.2200 C.3   1 <1>   0.4230 
  6 N        2.7530    -1.0720    -0.2450 N.4   1 <1>  -0.9590 
  7 C        3.5770     1.0050    -1.4410 C.3   1 <1>   0.1100 
  8 C        1.9510    -3.1500     0.8760 C.3   1 <1>  -0.1600 
  9 C        3.7250    -1.8360    -1.1050 C.3   1 <1>   0.3430 
 10 N        4.8300     0.4000    -0.9450 N.3   1 <1>  -0.8100 
 11 C        0.8040    -3.7830     1.6790 C.3   1 <1>  -0.1600 
 12 C        4.9920    -0.9940    -1.4000 C.3   1 <1>   0.1100 
 13 C        6.0410     1.2250    -1.0590 C.3   1 <1>   0.2480 
 14 C        1.2750    -5.0560     2.3870 C.3   1 <1>  -0.2400 
 15 C        5.9280     2.4290    -0.1420 C.2   1 <1>  -0.1240 
 16 C        5.8720     2.1900     1.2730 C.2   1 <1>   0.6160 
 17 C        5.8800     3.6960    -0.6280 C.2   1 <1>  -0.1780 
 18 O        5.9050     1.0860     1.7910 O.2   1 <1>  -0.5700 
 19 N        5.7670     3.2700     2.0950 N.am  1 <1>  -0.5470 
 20 C        5.7680     4.8200     0.2530 C.ar  1 <1>   0.0280 
 21 C        5.7120     4.5820     1.6360 C.ar  1 <1>   0.1170 
 22 C        5.7130     6.1380    -0.2030 C.ar  1 <1>  -0.1500 
 23 C        5.6040     5.6520     2.5200 C.ar  1 <1>  -0.1500 
 24 C        5.6050     7.1890     0.6820 C.ar  1 <1>  -0.1500 
 25 C        5.5500     6.9460     2.0480 C.ar  1 <1>  -0.1500 
 26 H        1.7290    -0.5760    -2.8440 H     1 <1>   0.0800 
 27 H        0.9180     0.9030    -2.3900 H     1 <1>   0.0800 
 28 H       -0.3850    -2.4210    -0.5710 H     1 <1>   0.0800 
 29 H        0.9240    -2.6480    -1.7020 H     1 <1>   0.0800 
 30 H        1.8680     0.8490    -0.1730 H     1 <1>   0.0800 
 31 H        1.0540    -1.2280     0.9760 H     1 <1>   0.0800 
 32 H        3.3200    -0.7620     0.5620 H     1 <1>   0.4500 
 33 H        3.4980     2.0250    -1.1060 H     1 <1>   0.0800 
 34 H        3.5850     1.0190    -2.5180 H     1 <1>   0.0800 
 35 H        2.2740    -3.8520     0.1270 H     1 <1>   0.0800 
 36 H        2.7680    -2.9670     1.5520 H     1 <1>   0.0800 
 37 H        4.0260    -2.7450    -0.6120 H     1 <1>   0.0800 
 38 H        3.2550    -2.1070    -2.0350 H     1 <1>   0.0800 
 39 H        0.4450    -3.0870     2.4200 H     1 <1>   0.0800 
 40 H       -0.0190    -4.0360     1.0320 H     1 <1>   0.0800 
 41 H        5.2090    -1.0210    -2.4540 H     1 <1>   0.0800 
 42 H        5.8260    -1.4380    -0.8810 H     1 <1>   0.0800 
 43 H        6.9010     0.6500    -0.7560 H     1 <1>   0.0800 
 44 H        6.1830     1.5330    -2.0810 H     1 <1>   0.0800 
 45 H        2.0770    -4.8390     3.0720 H     1 <1>   0.0800 
 46 H        1.6170    -5.7860     1.6740 H     1 <1>   0.0800 
 47 H        0.4630    -5.4870     2.9470 H     1 <1>   0.0800 
 48 H        5.9250     3.9060    -1.6820 H     1 <1>   0.1500 
 49 H        5.7610     3.0620     3.0920 H     1 <1>   0.3700 
 50 H        5.7570     6.3330    -1.2600 H     1 <1>   0.1500 
 51 H        5.5630     5.4650     3.5780 H     1 <1>   0.1500 
 52 H        5.5650     8.2020     0.3200 H     1 <1>   0.1500 
 53 H        5.4670     7.7730     2.7340 H     1 <1>   0.1500 
@<TRIPOS>BOND
  1   1   2  1   
  2   1   3  1   
  3   2   4  1   
  4   2  26  1   
  5   2  27  1   
  6   3   5  1   
  7   3  28  1   
  8   3  29  1   
  9   4   6  1   
 10   4   7  1   
 11   4  30  1   
 12   5   6  1   
 13   5   8  1   
 14   5  31  1   
 15   6   9  1   
 16   6  32  1   
 17   7  10  1   
 18   7  33  1   
 19   7  34  1   
 20   8  11  1   
 21   8  35  1   
 22   8  36  1   
 23   9  12  1   
 24   9  37  1   
 25   9  38  1   
 26  10  12  1   
 27  10  13  1   
 28  11  14  1   
 29  11  39  1   
 30  11  40  1   
 31  12  41  1   
 32  12  42  1   
 33  13  15  1   
 34  13  43  1   
 35  13  44  1   
 36  14  45  1   
 37  14  46  1   
 38  14  47  1   
 39  15  16  1   
 40  15  17  2   
 41  16  18  2   
 42  16  19  am  
 43  17  20  1   
 44  17  48  1   
 45  19  21  1   
 46  19  49  1   
 47  20  21  ar  
 48  20  22  ar  
 49  21  23  ar  
 50  22  24  ar  
 51  22  50  1   
 52  23  25  ar  
 53  23  51  1   
 54  24  25  ar  
 55  24  52  1   
 56  25  53  1   
@<TRIPOS>SUBSTRUCTURE
  1 ****  10 GROUP 4 **** **** 0

# MOE 2024.06 (io_trps.svl 2023.06)
