@<TRIPOS>MOLECULE
NONAME
60 64 1 0 0 
SMALL
USER_CHARGES


@<TRIPOS>ATOM
  1 O        2.0290     0.1370    -2.0230 O.2   1 <1>  -0.5700 
  2 C        1.9640     0.3540    -0.8240 C.2   1 <1>   0.5440 
  3 N        1.5480     1.5930    -0.3990 N.am  1 <1>  -0.6600 
  4 C        2.3410    -0.6650     0.1200 C.ar  1 <1>   0.0860 
  5 C        1.3350     1.9890     1.0100 C.3   1 <1>   0.1400 
  6 C        1.1990     2.6910    -1.3250 C.3   1 <1>   0.1400 
  7 C        1.4990    -1.7600     0.3880 C.ar  1 <1>   0.4100 
  8 C        3.5450    -0.5920     0.8040 C.ar  1 <1>  -0.1500 
  9 C        0.5680     3.3030     0.9260 C.3   1 <1>  -0.1600 
 10 C        0.9650     3.8980    -0.4230 C.3   1 <1>  -0.1600 
 11 N        1.7830    -2.7260     1.2580 N.ar  1 <1>  -0.6200 
 12 N        0.2900    -1.9270    -0.2510 N.pl3 1 <1>  -0.8380 
 13 C        3.8410    -1.5880     1.7060 C.ar  1 <1>  -0.1500 
 14 C        2.9360    -2.6180     1.8930 C.ar  1 <1>   0.1600 
 15 C        0.2540    -2.3700    -1.6720 C.3   1 <1>   0.2090 
 16 C       -0.9900    -1.7190     0.4580 C.3   1 <1>   0.2090 
 17 C       -0.0410    -3.8770    -1.7990 C.3   1 <1>   0.3430 
 18 C       -1.4740    -3.0240     1.0970 C.3   1 <1>  -0.1600 
 19 N       -1.2470    -4.3440    -1.0200 N.4   1 <1>  -0.9590 
 20 C       -0.9440    -4.3060     0.4520 C.3   1 <1>   0.3430 
 21 C       -1.7250    -5.6850    -1.5130 C.3   1 <1>   0.4230 
 22 C       -3.1000    -6.0300    -0.9020 C.3   1 <1>  -0.0170 
 23 C       -0.7870    -6.8420    -1.0980 C.3   1 <1>  -0.0170 
 24 C       -2.7610    -6.9800     0.2200 C.ar  1 <1>  -0.1440 
 25 C       -1.4690    -7.4330     0.1100 C.ar  1 <1>  -0.1440 
 26 C       -3.5690    -7.3890     1.2640 C.ar  1 <1>  -0.1500 
 27 C       -0.9450    -8.3090     1.0420 C.ar  1 <1>  -0.1500 
 28 C       -3.0510    -8.2660     2.2040 C.ar  1 <1>  -0.1500 
 29 C       -1.7460    -8.7240     2.0940 C.ar  1 <1>  -0.1500 
 30 H        2.2910     2.1430     1.4810 H     1 <1>   0.0800 
 31 H        0.7790     1.2390     1.5460 H     1 <1>   0.0800 
 32 H        0.2990     2.4300    -1.8550 H     1 <1>   0.0800 
 33 H        1.9950     2.8650    -2.0290 H     1 <1>   0.0800 
 34 H        4.2230     0.2260     0.6260 H     1 <1>   0.1500 
 35 H        0.8020     3.9570     1.7480 H     1 <1>   0.0800 
 36 H       -0.4880     3.0930     0.9360 H     1 <1>   0.0800 
 37 H        0.2110     4.5540    -0.8220 H     1 <1>   0.0800 
 38 H        1.8870     4.4440    -0.3250 H     1 <1>   0.0800 
 39 H        4.7630    -1.5720     2.2600 H     1 <1>   0.1500 
 40 H        3.1790    -3.3910     2.6030 H     1 <1>   0.1500 
 41 H        1.2100    -2.1820    -2.1310 H     1 <1>   0.0800 
 42 H       -0.4770    -1.7950    -2.2130 H     1 <1>   0.0800 
 43 H       -1.7220    -1.3480    -0.2380 H     1 <1>   0.0800 
 44 H       -0.8590    -0.9700     1.2220 H     1 <1>   0.0800 
 45 H        0.8300    -4.4130    -1.4600 H     1 <1>   0.0800 
 46 H       -0.1750    -4.1010    -2.8440 H     1 <1>   0.0800 
 47 H       -2.5480    -3.0390     1.1300 H     1 <1>   0.0800 
 48 H       -1.1360    -3.0270     2.1180 H     1 <1>   0.0800 
 49 H       -1.9930    -3.6600    -1.1750 H     1 <1>   0.4500 
 50 H       -1.3920    -5.1440     0.9570 H     1 <1>   0.0800 
 51 H        0.1220    -4.3660     0.6060 H     1 <1>   0.0800 
 52 H       -1.8120    -5.6530    -2.5860 H     1 <1>   0.0800 
 53 H       -3.6990    -6.5570    -1.6240 H     1 <1>   0.0800 
 54 H       -3.6340    -5.1660    -0.5530 H     1 <1>   0.0800 
 55 H        0.2160    -6.5250    -0.8800 H     1 <1>   0.0800 
 56 H       -0.7640    -7.5880    -1.8730 H     1 <1>   0.0800 
 57 H       -4.5830    -7.0390     1.3520 H     1 <1>   0.1500 
 58 H        0.0670    -8.6690     0.9580 H     1 <1>   0.1500 
 59 H       -3.6660    -8.5970     3.0240 H     1 <1>   0.1500 
 60 H       -1.3550    -9.4070     2.8290 H     1 <1>   0.1500 
@<TRIPOS>BOND
  1   1   2  2   
  2   2   3  am  
  3   2   4  1   
  4   3   5  1   
  5   3   6  1   
  6   4   7  ar  
  7   4   8  ar  
  8   5   9  1   
  9   5  30  1   
 10   5  31  1   
 11   6  10  1   
 12   6  32  1   
 13   6  33  1   
 14   7  11  ar  
 15   7  12  1   
 16   8  13  ar  
 17   8  34  1   
 18   9  10  1   
 19   9  35  1   
 20   9  36  1   
 21  10  37  1   
 22  10  38  1   
 23  11  14  ar  
 24  12  15  1   
 25  12  16  1   
 26  13  14  ar  
 27  13  39  1   
 28  14  40  1   
 29  15  17  1   
 30  15  41  1   
 31  15  42  1   
 32  16  18  1   
 33  16  43  1   
 34  16  44  1   
 35  17  19  1   
 36  17  45  1   
 37  17  46  1   
 38  18  20  1   
 39  18  47  1   
 40  18  48  1   
 41  19  20  1   
 42  19  21  1   
 43  19  49  1   
 44  20  50  1   
 45  20  51  1   
 46  21  22  1   
 47  21  23  1   
 48  21  52  1   
 49  22  24  1   
 50  22  53  1   
 51  22  54  1   
 52  23  25  1   
 53  23  55  1   
 54  23  56  1   
 55  24  25  ar  
 56  24  26  ar  
 57  25  27  ar  
 58  26  28  ar  
 59  26  57  1   
 60  27  29  ar  
 61  27  58  1   
 62  28  29  ar  
 63  28  59  1   
 64  29  60  1   
@<TRIPOS>SUBSTRUCTURE
  1 ****  12 GROUP 4 **** **** 0

# MOE 2024.06 (io_trps.svl 2023.06)
