@<TRIPOS>MOLECULE
NONAME
50 53 1 0 0 
SMALL
USER_CHARGES


@<TRIPOS>ATOM
  1 O       -0.9120     1.0130    -0.5470 O.2   1 <1>  -0.5700 
  2 C       -0.9810     2.2200    -0.5570 C.2   1 <1>   0.5690 
  3 N       -1.9860     2.9240     0.0510 N.am  1 <1>  -0.5090 
  4 C        0.0900     2.9930    -1.3190 C.3   1 <1>   0.1810 
  5 C       -2.1640     4.3900    -0.1960 C.3   1 <1>   0.3640 
  6 C       -3.0450     2.2780     0.8620 C.3   1 <1>   0.0490 
  7 O        0.2430     4.2960    -0.8210 O.3   1 <1>  -0.5600 
  8 C       -3.4170     4.6070    -1.0460 C.ar  1 <1>  -0.1440 
  9 C       -0.9410     5.0830    -0.8620 C.3   1 <1>   0.2610 
 10 C       -3.2210     2.7140     2.2840 C.3   1 <1>  -0.2000 
 11 C       -2.6640     1.3600     1.9800 C.3   1 <1>  -0.2000 
 12 C       -4.2990     5.6310    -0.7250 C.ar  1 <1>   0.1600 
 13 C       -3.7080     3.8090    -2.1400 C.ar  1 <1>  -0.1500 
 14 C       -0.6990     6.4410    -0.1930 C.2   1 <1>   0.5690 
 15 N       -5.4160     5.9060    -1.3810 N.ar  1 <1>  -0.6200 
 16 C       -4.8650     4.0860    -2.8350 C.ar  1 <1>  -0.1500 
 17 O       -1.6350     7.1900    -0.0430 O.2   1 <1>  -0.5700 
 18 N        0.5620     6.7480     0.2210 N.am  1 <1>  -0.7300 
 19 C       -5.6720     5.1290    -2.4190 C.ar  1 <1>   0.1600 
 20 C        1.0590     7.9660     0.8930 C.3   1 <1>   0.2200 
 21 C        0.3940     8.1430     2.2640 C.3   1 <1>  -0.1600 
 22 C        0.8620     9.2010     0.0060 C.3   1 <1>  -0.1600 
 23 C        0.9130     9.4080     2.9650 C.3   1 <1>  -0.1600 
 24 C        1.3810    10.4660     0.7050 C.3   1 <1>  -0.1600 
 25 C        0.7240    10.6480     2.0810 C.3   1 <1>  -0.1600 
 26 H       -0.1640     3.0450    -2.3620 H     1 <1>   0.0800 
 27 H        1.0340     2.4880    -1.2140 H     1 <1>   0.0800 
 28 H       -2.3240     4.8530     0.7630 H     1 <1>   0.0800 
 29 H       -3.9220     2.0350     0.2830 H     1 <1>   0.1000 
 30 H       -1.1600     5.2710    -1.8970 H     1 <1>   0.0800 
 31 H       -2.5550     3.4420     2.7120 H     1 <1>   0.1000 
 32 H       -4.2160     2.7710     2.6890 H     1 <1>   0.1000 
 33 H       -3.2780     0.4960     2.1630 H     1 <1>   0.1000 
 34 H       -1.6190     1.1670     2.1490 H     1 <1>   0.1000 
 35 H       -4.0780     6.2670     0.1170 H     1 <1>   0.1500 
 36 H       -3.0720     2.9950    -2.4430 H     1 <1>   0.1500 
 37 H       -5.1440     3.4980    -3.6910 H     1 <1>   0.1500 
 38 H        1.2680     6.0210     0.0640 H     1 <1>   0.3700 
 39 H       -6.5750     5.3360    -2.9680 H     1 <1>   0.1500 
 40 H        2.1170     7.8420     1.0540 H     1 <1>   0.0800 
 41 H       -0.6710     8.2300     2.1410 H     1 <1>   0.0800 
 42 H        0.5980     7.2840     2.8780 H     1 <1>   0.0800 
 43 H        1.3840     9.0640    -0.9240 H     1 <1>   0.0800 
 44 H       -0.1850     9.3310    -0.2070 H     1 <1>   0.0800 
 45 H        0.3870     9.5450     3.8940 H     1 <1>   0.0800 
 46 H        1.9590     9.2880     3.1940 H     1 <1>   0.0800 
 47 H        2.4490    10.3970     0.8250 H     1 <1>   0.0800 
 48 H        1.1740    11.3260     0.0910 H     1 <1>   0.0800 
 49 H        1.1460    11.5090     2.5710 H     1 <1>   0.0800 
 50 H       -0.3290    10.8290     1.9470 H     1 <1>   0.0800 
@<TRIPOS>BOND
  1   1   2  2   
  2   2   3  am  
  3   2   4  1   
  4   3   5  1   
  5   3   6  1   
  6   4   7  1   
  7   4  26  1   
  8   4  27  1   
  9   5   8  1   
 10   5   9  1   
 11   5  28  1   
 12   6  10  1   
 13   6  11  1   
 14   6  29  1   
 15   7   9  1   
 16   8  12  ar  
 17   8  13  ar  
 18   9  14  1   
 19   9  30  1   
 20  10  11  1   
 21  10  31  1   
 22  10  32  1   
 23  11  33  1   
 24  11  34  1   
 25  12  15  ar  
 26  12  35  1   
 27  13  16  ar  
 28  13  36  1   
 29  14  17  2   
 30  14  18  am  
 31  15  19  ar  
 32  16  19  ar  
 33  16  37  1   
 34  18  20  1   
 35  18  38  1   
 36  19  39  1   
 37  20  21  1   
 38  20  22  1   
 39  20  40  1   
 40  21  23  1   
 41  21  41  1   
 42  21  42  1   
 43  22  24  1   
 44  22  43  1   
 45  22  44  1   
 46  23  25  1   
 47  23  45  1   
 48  23  46  1   
 49  24  25  1   
 50  24  47  1   
 51  24  48  1   
 52  25  49  1   
 53  25  50  1   
@<TRIPOS>SUBSTRUCTURE
  1 ****   9 GROUP 4 **** **** 0

# MOE 2024.06 (io_trps.svl 2023.06)
