@<TRIPOS>MOLECULE
NONAME
43 45 1 0 0 
SMALL
USER_CHARGES


@<TRIPOS>ATOM
  1 F       -0.9760     1.0190     1.1520 F     1 <1>  -0.3400 
  2 C       -1.8360     0.6920     0.1900 C.3   1 <1>   1.1640 
  3 F       -1.1610     0.7880    -0.9530 F     1 <1>  -0.3400 
  4 F       -2.0760    -0.6060     0.3540 F     1 <1>  -0.3400 
  5 C       -3.1150     1.5680     0.2050 C.ar  1 <1>   0.1660 
  6 N       -3.0040     2.8830     0.0570 N.ar  1 <1>  -0.6200 
  7 C       -4.3550     0.9980     0.3660 C.ar  1 <1>  -0.1500 
  8 C       -4.1310     3.5850     0.0670 C.ar  1 <1>   0.7200 
  9 C       -5.4700     1.8160     0.3770 C.ar  1 <1>   0.4100 
 10 N       -5.3560     3.1110     0.2100 N.ar  1 <1>  -0.6200 
 11 N       -4.0060     4.9460    -0.1000 N.pl3 1 <1>  -0.8380 
 12 N       -6.7510     1.3220     0.5360 N.pl3 1 <1>  -0.8380 
 13 C       -5.1040     5.8910     0.2030 C.3   1 <1>   0.2090 
 14 C       -2.7000     5.6370    -0.1280 C.3   1 <1>   0.2090 
 15 C       -7.0230     0.0310     1.2490 C.3   1 <1>   0.2090 
 16 C       -7.7870     1.7780    -0.4400 C.3   1 <1>   0.2090 
 17 C       -4.4050     7.1970     0.5640 C.3   1 <1>  -0.1600 
 18 C       -3.0490     7.1190    -0.1340 C.3   1 <1>  -0.1600 
 19 C       -7.5410    -0.9650     0.2250 C.3   1 <1>  -0.1860 
 20 C       -9.1060     1.0110    -0.2870 C.3   1 <1>  -0.1600 
 21 C       -7.4260    -2.3690     0.7750 C.2   1 <1>   0.9060 
 22 C       -8.9230    -0.5180    -0.2870 C.3   1 <1>   0.2000 
 23 O       -6.2940    -2.7790     1.0460 O.co2 1 <1>  -0.9000 
 24 O       -8.4350    -3.0650     0.9410 O.co2 1 <1>  -0.9000 
 25 O       -9.9160    -1.0280     0.5210 O.3   1 <1>  -0.6800 
 26 H       -4.4740    -0.0640     0.4700 H     1 <1>   0.1500 
 27 H       -5.7100     6.0130    -0.6780 H     1 <1>   0.0800 
 28 H       -5.7150     5.5370     1.0160 H     1 <1>   0.0800 
 29 H       -2.1440     5.3820     0.7590 H     1 <1>   0.0800 
 30 H       -2.1370     5.3550    -1.0020 H     1 <1>   0.0800 
 31 H       -6.1390    -0.3410     1.7350 H     1 <1>   0.0800 
 32 H       -7.7650     0.1870     2.0140 H     1 <1>   0.0800 
 33 H       -7.9660     2.8300    -0.2950 H     1 <1>   0.0800 
 34 H       -7.4050     1.6380    -1.4360 H     1 <1>   0.0800 
 35 H       -4.9780     8.0540     0.2570 H     1 <1>   0.0800 
 36 H       -4.2660     7.2300     1.6300 H     1 <1>   0.0800 
 37 H       -2.2970     7.7080     0.3590 H     1 <1>   0.0800 
 38 H       -3.1430     7.4480    -1.1540 H     1 <1>   0.0800 
 39 H       -6.8620    -0.9410    -0.6050 H     1 <1>   0.0800 
 40 H       -9.7750     1.2880    -1.0790 H     1 <1>   0.0800 
 41 H       -9.5480     1.3240     0.6430 H     1 <1>   0.0800 
 42 H       -9.0770    -0.9230    -1.2730 H     1 <1>   0.0800 
 43 H       -9.6050    -1.9500     0.7840 H     1 <1>   0.4000 
@<TRIPOS>BOND
  1   1   2  1   
  2   2   3  1   
  3   2   4  1   
  4   2   5  1   
  5   5   6  ar  
  6   5   7  ar  
  7   6   8  ar  
  8   7   9  ar  
  9   7  26  1   
 10   8  10  ar  
 11   8  11  1   
 12   9  10  ar  
 13   9  12  1   
 14  11  13  1   
 15  11  14  1   
 16  12  15  1   
 17  12  16  1   
 18  13  17  1   
 19  13  27  1   
 20  13  28  1   
 21  14  18  1   
 22  14  29  1   
 23  14  30  1   
 24  15  19  1   
 25  15  31  1   
 26  15  32  1   
 27  16  20  1   
 28  16  33  1   
 29  16  34  1   
 30  17  18  1   
 31  17  35  1   
 32  17  36  1   
 33  18  37  1   
 34  18  38  1   
 35  19  21  1   
 36  19  22  1   
 37  19  39  1   
 38  20  22  1   
 39  20  40  1   
 40  20  41  1   
 41  21  23  ar  
 42  21  24  ar  
 43  22  25  1   
 44  22  42  1   
 45  25  43  1   
@<TRIPOS>SUBSTRUCTURE
  1 ****   9 GROUP 4 **** **** 0

# MOE 2024.06 (io_trps.svl 2023.06)
