@<TRIPOS>MOLECULE
NONAME
45 47 1 0 0 
SMALL
USER_CHARGES


@<TRIPOS>ATOM
  1 CL       0.5580    -0.4090    -0.3300 Cl    1 <1>  -0.1770 
  2 C       -0.4420    -1.8370    -0.3670 C.ar  1 <1>   0.1770 
  3 C        0.1460    -3.0820    -0.2560 C.ar  1 <1>  -0.1500 
  4 C       -1.8100    -1.7090    -0.5100 C.ar  1 <1>  -0.1500 
  5 C       -0.6520    -4.2120    -0.2860 C.ar  1 <1>  -0.1500 
  6 C       -2.5960    -2.8460    -0.5410 C.ar  1 <1>  -0.1500 
  7 C       -2.0400    -4.1230    -0.4270 C.ar  1 <1>   0.0530 
  8 C       -2.8520    -5.3160    -0.4560 C.2   1 <1>   0.0870 
  9 O       -2.3470    -6.4440    -0.8900 O.3   1 <1>  -0.0190 
 10 C       -4.1350    -5.5760    -0.1000 C.2   1 <1>  -0.2330 
 11 N       -3.2040    -7.4290    -0.8570 N.2   1 <1>  -0.4100 
 12 C       -4.3000    -6.9360    -0.3880 C.2   1 <1>   0.3720 
 13 C       -5.1000    -4.6930     0.4620 C.2   1 <1>   1.0330 
 14 N       -5.4610    -7.7310    -0.2380 N.pl3 1 <1>  -0.8210 
 15 O       -5.3440    -4.7260     1.6810 O.co2 1 <1>  -0.9000 
 16 O       -5.7800    -3.9500    -0.2620 O.co2 1 <1>  -0.9000 
 17 C       -5.2500    -9.2190    -0.3110 C.3   1 <1>   0.2090 
 18 C       -6.4560    -7.2970     0.8120 C.3   1 <1>   0.2090 
 19 C       -6.5780   -10.0290    -0.4110 C.3   1 <1>   0.4230 
 20 C       -7.6260    -8.2800     0.9870 C.3   1 <1>   0.3430 
 21 N       -7.7680    -9.1190    -0.2450 N.4   1 <1>  -0.9590 
 22 C       -6.6130   -11.2240     0.5710 C.3   1 <1>  -0.1600 
 23 C       -9.0980    -9.7770    -0.3970 C.3   1 <1>   0.2630 
 24 C       -6.8380   -12.5580    -0.1460 C.3   1 <1>   0.1200 
 25 O       -7.9790   -12.4690    -0.9200 O.3   1 <1>  -0.6800 
 26 H        1.2120    -3.1620    -0.1450 H     1 <1>   0.1500 
 27 H       -2.2550    -0.7350    -0.5960 H     1 <1>   0.1500 
 28 H       -0.1980    -5.1830    -0.1950 H     1 <1>   0.1500 
 29 H       -3.6610    -2.7370    -0.6610 H     1 <1>   0.1500 
 30 H       -4.6770    -9.5160     0.5490 H     1 <1>   0.0800 
 31 H       -4.6570    -9.4560    -1.1780 H     1 <1>   0.0800 
 32 H       -6.8950    -6.3640     0.5080 H     1 <1>   0.0800 
 33 H       -5.9620    -7.1390     1.7570 H     1 <1>   0.0800 
 34 H       -6.6140   -10.4370    -1.4080 H     1 <1>   0.0800 
 35 H       -8.5250    -7.7160     1.1720 H     1 <1>   0.0800 
 36 H       -7.4410    -8.9060     1.8440 H     1 <1>   0.0800 
 37 H       -7.6330    -8.4300    -1.0060 H     1 <1>   0.4500 
 38 H       -7.3680   -11.0960     1.3250 H     1 <1>   0.0800 
 39 H       -5.6770   -11.3100     1.0900 H     1 <1>   0.0800 
 40 H       -9.2550   -10.4950     0.3900 H     1 <1>   0.0800 
 41 H       -9.1470   -10.2960    -1.3410 H     1 <1>   0.0800 
 42 H       -9.8870    -9.0430    -0.3640 H     1 <1>   0.0800 
 43 H       -6.9700   -13.3570     0.5670 H     1 <1>   0.0800 
 44 H       -6.0090   -12.7950    -0.7940 H     1 <1>   0.0800 
 45 H       -8.1790   -13.3360    -1.3360 H     1 <1>   0.4000 
@<TRIPOS>BOND
  1   1   2  1   
  2   2   3  ar  
  3   2   4  ar  
  4   3   5  ar  
  5   3  26  1   
  6   4   6  ar  
  7   4  27  1   
  8   5   7  ar  
  9   5  28  1   
 10   6   7  ar  
 11   6  29  1   
 12   7   8  1   
 13   8   9  1   
 14   8  10  2   
 15   9  11  1   
 16  10  12  1   
 17  10  13  1   
 18  11  12  2   
 19  12  14  1   
 20  13  15  ar  
 21  13  16  ar  
 22  14  17  1   
 23  14  18  1   
 24  17  19  1   
 25  17  30  1   
 26  17  31  1   
 27  18  20  1   
 28  18  32  1   
 29  18  33  1   
 30  19  21  1   
 31  19  22  1   
 32  19  34  1   
 33  20  21  1   
 34  20  35  1   
 35  20  36  1   
 36  21  23  1   
 37  21  37  1   
 38  22  24  1   
 39  22  38  1   
 40  22  39  1   
 41  23  40  1   
 42  23  41  1   
 43  23  42  1   
 44  24  25  1   
 45  24  43  1   
 46  24  44  1   
 47  25  45  1   
@<TRIPOS>SUBSTRUCTURE
  1 ****  12 GROUP 4 **** **** 0

# MOE 2024.06 (io_trps.svl 2023.06)
