@<TRIPOS>MOLECULE
NONAME
39 40 1 0 0 
SMALL
USER_CHARGES


@<TRIPOS>ATOM
  1 S        0.6290    -0.6260    -0.9400 S.o2  1 <1>   1.3330 
  2 O        1.6270    -1.4630    -1.5670 O.2   1 <1>  -0.6500 
  3 O       -0.4000    -0.0290    -1.7590 O.2   1 <1>  -0.6500 
  4 N        1.4440     0.6140    -0.1310 N.am  1 <1>  -0.8490 
  5 C       -0.1680    -1.5340     0.3700 C.3   1 <1>  -0.0550 
  6 C        1.5750     1.7900    -1.0170 C.3   1 <1>   0.3760 
  7 C        2.7360     0.1930     0.4290 C.3   1 <1>   0.1160 
  8 C       -0.9740    -2.6890    -0.2050 C.3   1 <1>   0.1200 
  9 C        2.3370     2.9650    -0.4050 C.2   1 <1>   0.1980 
 10 O       -1.5530    -3.3940     0.8690 O.3   1 <1>  -0.3630 
 11 S        4.0290     3.1280    -0.8360 S.3   1 <1>  -0.0800 
 12 N        1.9130     3.8750     0.3820 N.2   1 <1>  -0.5650 
 13 C       -2.3290    -4.4860     0.6550 C.ar  1 <1>   0.0820 
 14 C        4.1200     4.5500     0.1600 C.2   1 <1>  -0.1100 
 15 C        2.9150     4.7720     0.7070 C.2   1 <1>   0.0460 
 16 C       -2.6200    -4.9960    -0.6080 C.ar  1 <1>  -0.1500 
 17 C       -2.8490    -5.1120     1.7770 C.ar  1 <1>  -0.1500 
 18 C        2.5430     5.9020     1.6400 C.3   1 <1>  -0.0590 
 19 C       -3.4220    -6.1180    -0.7340 C.ar  1 <1>  -0.1500 
 20 C       -3.6500    -6.2330     1.6490 C.ar  1 <1>  -0.1500 
 21 C       -3.9370    -6.7360     0.3920 C.ar  1 <1>  -0.1500 
 22 H       -0.8250    -0.8790     0.9080 H     1 <1>   0.0800 
 23 H        0.5700    -1.9210     1.0430 H     1 <1>   0.0800 
 24 H        0.5920     2.1520    -1.2650 H     1 <1>   0.0800 
 25 H        2.0580     1.5010    -1.9350 H     1 <1>   0.0800 
 26 H        2.6130    -0.6970     1.0210 H     1 <1>   0.0800 
 27 H        3.1360     0.9610     1.0690 H     1 <1>   0.0800 
 28 H        3.4420    -0.0140    -0.3600 H     1 <1>   0.0800 
 29 H       -0.3350    -3.3630    -0.7510 H     1 <1>   0.0800 
 30 H       -1.7620    -2.3240    -0.8410 H     1 <1>   0.0800 
 31 H        5.0610     5.0630     0.2270 H     1 <1>   0.1500 
 32 H       -2.2360    -4.5400    -1.5000 H     1 <1>   0.1500 
 33 H       -2.6230    -4.7150     2.7500 H     1 <1>   0.1500 
 34 H        2.1970     5.4980     2.5740 H     1 <1>   0.0800 
 35 H        1.7550     6.4870     1.2010 H     1 <1>   0.0800 
 36 H        3.3910     6.5350     1.8230 H     1 <1>   0.0800 
 37 H       -3.6460    -6.5110    -1.7110 H     1 <1>   0.1500 
 38 H       -4.0500    -6.7120     2.5260 H     1 <1>   0.1500 
 39 H       -4.5600    -7.6080     0.2910 H     1 <1>   0.1500 
@<TRIPOS>BOND
  1   1   2  2   
  2   1   3  2   
  3   1   4  am  
  4   1   5  1   
  5   4   6  1   
  6   4   7  1   
  7   5   8  1   
  8   5  22  1   
  9   5  23  1   
 10   6   9  1   
 11   6  24  1   
 12   6  25  1   
 13   7  26  1   
 14   7  27  1   
 15   7  28  1   
 16   8  10  1   
 17   8  29  1   
 18   8  30  1   
 19   9  11  1   
 20   9  12  2   
 21  10  13  1   
 22  11  14  1   
 23  12  15  1   
 24  13  16  ar  
 25  13  17  ar  
 26  14  15  2   
 27  14  31  1   
 28  15  18  1   
 29  16  19  ar  
 30  16  32  1   
 31  17  20  ar  
 32  17  33  1   
 33  18  34  1   
 34  18  35  1   
 35  18  36  1   
 36  19  21  ar  
 37  19  37  1   
 38  20  21  ar  
 39  20  38  1   
 40  21  39  1   
@<TRIPOS>SUBSTRUCTURE
  1 ****   5 GROUP 4 **** **** 0

# MOE 2024.06 (io_trps.svl 2023.06)
