@<TRIPOS>MOLECULE
NONAME
51 52 1 0 0 
SMALL
USER_CHARGES


@<TRIPOS>ATOM
  1 O        1.0400    -2.0690     1.6230 O.3   1 <1>  -0.3630 
  2 C        0.4470    -2.8960     0.7200 C.ar  1 <1>   0.0830 
  3 C        0.9250    -0.6650     1.5600 C.3   1 <1>   0.0400 
  4 C        0.6510    -4.2690     0.8450 C.ar  1 <1>  -0.1440 
  5 C       -0.3410    -2.4080    -0.3140 C.ar  1 <1>  -0.1500 
  6 C        0.0780    -5.1420    -0.0800 C.ar  1 <1>  -0.1430 
  7 C        1.5140    -4.7940     1.9990 C.3   1 <1>  -0.0960 
  8 C       -0.9340    -3.2650    -1.2220 C.ar  1 <1>  -0.1430 
  9 C       -0.7380    -4.6380    -1.0980 C.ar  1 <1>  -0.1430 
 10 C        0.3710    -6.6430     0.0450 C.3   1 <1>  -0.0970 
 11 C       -1.7810    -2.6480    -2.3320 C.3   1 <1>  -0.0970 
 12 C       -1.4400    -5.5720    -2.0720 C.3   1 <1>   0.4860 
 13 N       -2.5150    -6.2950    -1.3490 N.4   1 <1>  -0.9590 
 14 C       -3.0700    -7.4280    -2.1330 C.3   1 <1>   0.5240 
 15 C       -3.5440    -5.3870    -0.7480 C.3   1 <1>   0.3430 
 16 C       -3.1720    -8.6180    -1.1880 C.2   1 <1>   0.0460 
 17 C       -4.3450    -6.0470     0.3840 C.3   1 <1>   0.1200 
 18 N       -2.2770    -8.7650    -0.1870 N.2   1 <1>  -0.5650 
 19 C       -4.0820    -9.6160    -1.1670 C.2   1 <1>  -0.3020 
 20 O       -5.3290    -5.1570     0.7800 O.3   1 <1>  -0.6800 
 21 C       -2.6510    -9.8470     0.4120 C.2   1 <1>   0.0060 
 22 N       -3.7460   -10.4160    -0.1370 N.pl3 1 <1>   0.0330 
 23 C       -1.9410   -10.4380     1.6120 C.3   1 <1>  -0.0600 
 24 H        1.4910    -0.2470     2.3730 H     1 <1>   0.0800 
 25 H       -0.1110    -0.3940     1.6620 H     1 <1>   0.0800 
 26 H        1.3260    -0.3230     0.6230 H     1 <1>   0.0800 
 27 H       -0.4980    -1.3520    -0.4200 H     1 <1>   0.1500 
 28 H        1.5740    -4.0890     2.8080 H     1 <1>   0.0800 
 29 H        2.5110    -4.9860     1.6470 H     1 <1>   0.0800 
 30 H        1.1040    -5.6970     2.4110 H     1 <1>   0.0800 
 31 H        1.4140    -6.8010     0.2540 H     1 <1>   0.0800 
 32 H        0.1620    -7.1970    -0.8490 H     1 <1>   0.0800 
 33 H       -0.2030    -7.0640     0.8510 H     1 <1>   0.0800 
 34 H       -1.7910    -1.5750    -2.2580 H     1 <1>   0.0800 
 35 H       -2.7980    -2.9880    -2.2720 H     1 <1>   0.0800 
 36 H       -1.3740    -2.9020    -3.2950 H     1 <1>   0.0800 
 37 H       -0.7220    -6.2710    -2.4680 H     1 <1>   0.0800 
 38 H       -1.8550    -5.0190    -2.8950 H     1 <1>   0.0800 
 39 H       -2.0460    -6.7780    -0.5600 H     1 <1>   0.4500 
 40 H       -2.3970    -7.6900    -2.9320 H     1 <1>   0.0800 
 41 H       -4.0330    -7.1840    -2.5480 H     1 <1>   0.0800 
 42 H       -4.2270    -5.0550    -1.5130 H     1 <1>   0.0800 
 43 H       -3.0580    -4.5200    -0.3320 H     1 <1>   0.0800 
 44 H       -3.7100    -6.2510     1.2290 H     1 <1>   0.0800 
 45 H       -4.8330    -6.9470     0.0570 H     1 <1>   0.0800 
 46 H       -4.9280    -9.8110    -1.8030 H     1 <1>   0.1500 
 47 H       -5.8160    -5.4880     1.5640 H     1 <1>   0.4000 
 48 H       -4.2110   -11.2790     0.1690 H     1 <1>   0.2700 
 49 H       -1.0970    -9.8270     1.8790 H     1 <1>   0.0800 
 50 H       -1.5870   -11.4270     1.3820 H     1 <1>   0.0800 
 51 H       -2.6090   -10.4880     2.4520 H     1 <1>   0.0800 
@<TRIPOS>BOND
  1   1   2  1   
  2   1   3  1   
  3   2   4  ar  
  4   2   5  ar  
  5   3  24  1   
  6   3  25  1   
  7   3  26  1   
  8   4   6  ar  
  9   4   7  1   
 10   5   8  ar  
 11   5  27  1   
 12   6   9  ar  
 13   6  10  1   
 14   7  28  1   
 15   7  29  1   
 16   7  30  1   
 17   8   9  ar  
 18   8  11  1   
 19   9  12  1   
 20  10  31  1   
 21  10  32  1   
 22  10  33  1   
 23  11  34  1   
 24  11  35  1   
 25  11  36  1   
 26  12  13  1   
 27  12  37  1   
 28  12  38  1   
 29  13  14  1   
 30  13  15  1   
 31  13  39  1   
 32  14  16  1   
 33  14  40  1   
 34  14  41  1   
 35  15  17  1   
 36  15  42  1   
 37  15  43  1   
 38  16  18  1   
 39  16  19  2   
 40  17  20  1   
 41  17  44  1   
 42  17  45  1   
 43  18  21  2   
 44  19  22  1   
 45  19  46  1   
 46  20  47  1   
 47  21  22  1   
 48  21  23  1   
 49  22  48  1   
 50  23  49  1   
 51  23  50  1   
 52  23  51  1   
@<TRIPOS>SUBSTRUCTURE
  1 ****  13 GROUP 4 **** **** 0

# MOE 2024.06 (io_trps.svl 2023.06)
