@<TRIPOS>MOLECULE
NONAME
53 54 1 0 0 
SMALL
USER_CHARGES


@<TRIPOS>ATOM
  1 O       -0.2840     1.0660    -1.3820 O.2   1 <1>  -0.5700 
  2 C       -0.4230     2.2570    -1.2360 C.2   1 <1>   0.5690 
  3 N       -1.1550     2.8190    -0.2180 N.am  1 <1>  -0.6600 
  4 C        0.2600     3.1720    -2.2500 C.3   1 <1>   0.1810 
  5 C       -1.2600     4.3120    -0.0880 C.3   1 <1>   0.3640 
  6 C       -1.7740     2.0510     0.9000 C.3   1 <1>   0.2200 
  7 O        0.6410     4.3940    -1.6780 O.3   1 <1>  -0.5600 
  8 C       -2.7240     4.7470    -0.1480 C.ar  1 <1>  -0.1440 
  9 C       -0.4400     5.1220    -1.1260 C.3   1 <1>   0.2610 
 10 C       -0.6880     1.3780     1.7400 C.3   1 <1>  -0.2400 
 11 C       -2.8060     1.0450     0.3870 C.3   1 <1>  -0.2400 
 12 C       -3.2060     5.6740     0.7660 C.ar  1 <1>  -0.1500 
 13 C       -3.5860     4.2430    -1.1140 C.ar  1 <1>  -0.1500 
 14 C        0.0190     6.4400    -0.4810 C.2   1 <1>   0.5690 
 15 C       -4.5270     6.0840     0.7200 C.ar  1 <1>  -0.1500 
 16 C       -4.9070     4.6520    -1.1610 C.ar  1 <1>  -0.1500 
 17 O       -0.5970     7.4340    -0.7930 O.2   1 <1>  -0.5700 
 18 N        1.0540     6.5230     0.4320 N.am  1 <1>  -0.6600 
 19 C       -5.3790     5.5730    -0.2430 C.ar  1 <1>  -0.1500 
 20 C        1.4090     7.8290     1.0860 C.3   1 <1>   0.1400 
 21 C        1.8910     5.3630     0.8640 C.3   1 <1>   0.1400 
 22 C        2.1770     8.7750     0.1480 C.3   1 <1>   0.1200 
 23 C        3.2340     5.3680     0.1290 C.3   1 <1>  -0.1600 
 24 O        1.3160     9.3330    -0.7810 O.3   1 <1>  -0.6800 
 25 C        4.0350     4.0980     0.4340 C.3   1 <1>  -0.2400 
 26 H       -0.4010     3.3640    -3.0760 H     1 <1>   0.0800 
 27 H        1.1490     2.6940    -2.6190 H     1 <1>   0.0800 
 28 H       -0.8860     4.5640     0.8890 H     1 <1>   0.0800 
 29 H       -2.2990     2.7390     1.5430 H     1 <1>   0.0800 
 30 H       -1.0850     5.3790    -1.9470 H     1 <1>   0.0800 
 31 H       -0.1770     0.6240     1.1700 H     1 <1>   0.0800 
 32 H       -1.1330     0.9050     2.5960 H     1 <1>   0.0800 
 33 H        0.0220     2.1070     2.0840 H     1 <1>   0.0800 
 34 H       -2.3400     0.2670    -0.1880 H     1 <1>   0.0800 
 35 H       -3.5430     1.5420    -0.2160 H     1 <1>   0.0800 
 36 H       -3.3070     0.5870     1.2200 H     1 <1>   0.0800 
 37 H       -2.5590     6.0910     1.5180 H     1 <1>   0.1500 
 38 H       -3.2340     3.5240    -1.8340 H     1 <1>   0.1500 
 39 H       -4.8920     6.8040     1.4310 H     1 <1>   0.1500 
 40 H       -5.5670     4.2540    -1.9110 H     1 <1>   0.1500 
 41 H       -6.4050     5.8930    -0.2790 H     1 <1>   0.1500 
 42 H        0.5140     8.3200     1.4290 H     1 <1>   0.0800 
 43 H        2.0200     7.6380     1.9500 H     1 <1>   0.0800 
 44 H        2.0560     5.4100     1.9270 H     1 <1>   0.0800 
 45 H        1.3870     4.4350     0.6650 H     1 <1>   0.0800 
 46 H        2.9510     8.2480    -0.3810 H     1 <1>   0.0800 
 47 H        2.6160     9.5840     0.7040 H     1 <1>   0.0800 
 48 H        3.0590     5.4240    -0.9320 H     1 <1>   0.0800 
 49 H        3.8100     6.2250     0.4290 H     1 <1>   0.0800 
 50 H        0.5740     8.6960    -0.9590 H     1 <1>   0.4000 
 51 H        3.4900     3.2260     0.1160 H     1 <1>   0.0800 
 52 H        4.2360     4.0190     1.4880 H     1 <1>   0.0800 
 53 H        4.9730     4.1220    -0.0920 H     1 <1>   0.0800 
@<TRIPOS>BOND
  1   1   2  2   
  2   2   3  am  
  3   2   4  1   
  4   3   5  1   
  5   3   6  1   
  6   4   7  1   
  7   4  26  1   
  8   4  27  1   
  9   5   8  1   
 10   5   9  1   
 11   5  28  1   
 12   6  10  1   
 13   6  11  1   
 14   6  29  1   
 15   7   9  1   
 16   8  12  ar  
 17   8  13  ar  
 18   9  14  1   
 19   9  30  1   
 20  10  31  1   
 21  10  32  1   
 22  10  33  1   
 23  11  34  1   
 24  11  35  1   
 25  11  36  1   
 26  12  15  ar  
 27  12  37  1   
 28  13  16  ar  
 29  13  38  1   
 30  14  17  2   
 31  14  18  am  
 32  15  19  ar  
 33  15  39  1   
 34  16  19  ar  
 35  16  40  1   
 36  18  20  1   
 37  18  21  1   
 38  19  41  1   
 39  20  22  1   
 40  20  42  1   
 41  20  43  1   
 42  21  23  1   
 43  21  44  1   
 44  21  45  1   
 45  22  24  1   
 46  22  46  1   
 47  22  47  1   
 48  23  25  1   
 49  23  48  1   
 50  23  49  1   
 51  24  50  1   
 52  25  51  1   
 53  25  52  1   
 54  25  53  1   
@<TRIPOS>SUBSTRUCTURE
  1 ****   5 GROUP 4 **** **** 0

# MOE 2024.06 (io_trps.svl 2023.06)
