@<TRIPOS>MOLECULE
NONAME
40 41 1 0 0 
SMALL
USER_CHARGES


@<TRIPOS>ATOM
  1 N       -0.0030     0.0140    -0.0550 N.ar  1 <1>  -0.6200 
  2 C       -1.1640     0.5110     0.3170 C.ar  1 <1>   0.4100 
  3 C        0.7530     0.8050    -0.7860 C.ar  1 <1>   0.4760 
  4 N       -1.9580    -0.2860     1.0930 N.pl3 1 <1>  -0.8690 
  5 C       -1.5690     1.7860    -0.0570 C.ar  1 <1>  -0.1430 
  6 N        0.4850     2.0270    -1.2030 N.ar  1 <1>  -0.6200 
  7 C        2.0900     0.2450    -1.2070 C.3   1 <1>  -0.0970 
  8 C       -2.0920    -1.7220     0.8480 C.3   1 <1>   0.4690 
  9 C       -0.6850     2.5030    -0.8270 C.ar  1 <1>   0.1600 
 10 C       -2.9380     2.3150     0.3860 C.3   1 <1>  -0.0160 
 11 C       -3.5670    -2.0130     0.5650 C.2   1 <1>   0.0060 
 12 C       -1.6120    -2.4520     2.0960 C.3   1 <1>  -0.2400 
 13 C       -3.2910     3.7250    -0.1130 C.3   1 <1>  -0.1600 
 14 N       -3.9580    -3.1530    -0.0470 N.pl3 1 <1>   0.0330 
 15 N       -4.5620    -1.2290     0.8650 N.2   1 <1>  -0.5650 
 16 C       -4.6790     4.1540     0.3730 C.3   1 <1>  -0.2400 
 17 C       -5.2980    -3.0760    -0.1340 C.2   1 <1>  -0.3320 
 18 C       -5.6460    -1.8970     0.4270 C.2   1 <1>   0.0770 
 19 C       -6.1650    -4.1530    -0.7600 C.3   1 <1>  -0.0600 
 20 H       -2.9090     0.0610     1.2640 H     1 <1>   0.4000 
 21 H        2.3770    -0.5630    -0.5610 H     1 <1>   0.0800 
 22 H        2.8380     1.0140    -1.1570 H     1 <1>   0.0800 
 23 H        2.0210    -0.1150    -2.2160 H     1 <1>   0.0800 
 24 H       -1.4980    -2.0120    -0.0020 H     1 <1>   0.0800 
 25 H       -0.9210     3.4970    -1.1580 H     1 <1>   0.1500 
 26 H       -2.9680     2.3130     1.4620 H     1 <1>   0.0800 
 27 H       -3.6930     1.6300     0.0380 H     1 <1>   0.0800 
 28 H       -2.2140    -2.1680     2.9400 H     1 <1>   0.0800 
 29 H       -0.5850    -2.1970     2.2890 H     1 <1>   0.0800 
 30 H       -1.6860    -3.5130     1.9570 H     1 <1>   0.0800 
 31 H       -3.2790     3.7400    -1.1900 H     1 <1>   0.0800 
 32 H       -2.5610     4.4300     0.2490 H     1 <1>   0.0800 
 33 H       -3.3580    -3.9140    -0.3780 H     1 <1>   0.2700 
 34 H       -5.4310     3.4740     0.0120 H     1 <1>   0.0800 
 35 H       -4.9080     5.1400     0.0110 H     1 <1>   0.0800 
 36 H       -4.7140     4.1680     1.4490 H     1 <1>   0.0800 
 37 H       -6.6360    -1.4870     0.5400 H     1 <1>   0.1500 
 38 H       -6.0430    -5.0820    -0.2320 H     1 <1>   0.0800 
 39 H       -5.8960    -4.2950    -1.7910 H     1 <1>   0.0800 
 40 H       -7.2010    -3.8660    -0.7130 H     1 <1>   0.0800 
@<TRIPOS>BOND
  1   1   2  ar  
  2   1   3  ar  
  3   2   4  1   
  4   2   5  ar  
  5   3   6  ar  
  6   3   7  1   
  7   4   8  1   
  8   4  20  1   
  9   5   9  ar  
 10   5  10  1   
 11   6   9  ar  
 12   7  21  1   
 13   7  22  1   
 14   7  23  1   
 15   8  11  1   
 16   8  12  1   
 17   8  24  1   
 18   9  25  1   
 19  10  13  1   
 20  10  26  1   
 21  10  27  1   
 22  11  14  1   
 23  11  15  2   
 24  12  28  1   
 25  12  29  1   
 26  12  30  1   
 27  13  16  1   
 28  13  31  1   
 29  13  32  1   
 30  14  17  1   
 31  14  33  1   
 32  15  18  1   
 33  16  34  1   
 34  16  35  1   
 35  16  36  1   
 36  17  18  2   
 37  17  19  1   
 38  18  37  1   
 39  19  38  1   
 40  19  39  1   
 41  19  40  1   
@<TRIPOS>SUBSTRUCTURE
  1 ****   4 GROUP 4 **** **** 0

# MOE 2024.06 (io_trps.svl 2023.06)
