@<TRIPOS>MOLECULE
NONAME
51 53 1 0 0 
SMALL
USER_CHARGES


@<TRIPOS>ATOM
  1 S       -0.8230    -0.0390     1.7890 S.o2  1 <1>   1.4470 
  2 O       -0.7620    -1.4760     1.9110 O.2   1 <1>  -0.6500 
  3 O       -1.3510     0.7300     2.8880 O.2   1 <1>  -0.6500 
  4 N       -1.8560     0.3090     0.5100 N.am  1 <1>  -0.9140 
  5 C        0.7830     0.6320     1.2730 C.ar  1 <1>  -0.0090 
  6 C       -1.7640    -0.3760    -0.7880 C.3   1 <1>   0.2760 
  7 C        0.8740     1.7740     0.4930 C.ar  1 <1>  -0.1500 
  8 C        1.9680     0.0180     1.6510 C.ar  1 <1>  -0.1500 
  9 C       -2.8220    -1.4440    -1.0340 C.3   1 <1>  -0.0800 
 10 C       -0.4570    -1.0700    -1.2000 C.3   1 <1>   0.1200 
 11 C        2.0850     2.3140     0.0500 C.ar  1 <1>   0.0860 
 12 C        3.1890     0.5220     1.2510 C.ar  1 <1>  -0.1500 
 13 C       -2.2080    -2.1450    -2.2470 C.3   1 <1>   0.1200 
 14 C       -3.0500    -2.4430     0.1200 C.3   1 <1>  -0.0160 
 15 O       -0.8260    -2.1120    -2.0570 O.3   1 <1>  -0.5600 
 16 C        3.2630     1.6600     0.4510 C.ar  1 <1>   0.0820 
 17 C        2.0460     3.4970    -0.7990 C.2   1 <1>   0.5440 
 18 C       -4.1380    -3.4500    -0.2250 C.ar  1 <1>  -0.1440 
 19 O        4.4620     2.1490     0.0420 O.3   1 <1>  -0.3630 
 20 O        1.0430     3.7560    -1.4370 O.2   1 <1>  -0.5700 
 21 N        3.1080     4.3510    -0.8990 N.am  1 <1>  -0.7300 
 22 C       -3.8420    -4.7560    -0.5600 C.ar  1 <1>  -0.1500 
 23 C       -5.4760    -3.1120    -0.2190 C.ar  1 <1>  -0.1500 
 24 C        5.6900     1.4970     0.2890 C.3   1 <1>   0.0400 
 25 C        3.1740     5.5850    -1.7220 C.3   1 <1>   0.0600 
 26 C       -4.8680    -5.6330    -0.8730 C.ar  1 <1>   0.1600 
 27 C       -6.4250    -4.0660    -0.5480 C.ar  1 <1>   0.1600 
 28 N       -6.1530    -5.3180    -0.8780 N.ar  1 <1>  -0.6200 
 29 H       -2.7920     0.1960     0.8910 H     1 <1>   0.4200 
 30 H       -1.9280     0.3880    -1.5310 H     1 <1>   0.0800 
 31 H       -0.0390     2.2730     0.2090 H     1 <1>   0.1500 
 32 H        1.9310    -0.8680     2.2660 H     1 <1>   0.1500 
 33 H       -3.7560    -0.9910    -1.3120 H     1 <1>   0.0800 
 34 H        0.0640    -1.5250    -0.3810 H     1 <1>   0.0800 
 35 H        0.1950    -0.4020    -1.7340 H     1 <1>   0.0800 
 36 H        4.0750     0.0070     1.5750 H     1 <1>   0.1500 
 37 H       -2.4230    -1.6010    -3.1510 H     1 <1>   0.0800 
 38 H       -2.5240    -3.1660    -2.3630 H     1 <1>   0.0800 
 39 H       -3.3460    -1.9230     1.0130 H     1 <1>   0.0800 
 40 H       -2.1360    -2.9680     0.3380 H     1 <1>   0.0800 
 41 H        3.9850     4.0360    -0.4700 H     1 <1>   0.3700 
 42 H       -2.8240    -5.1000    -0.5820 H     1 <1>   0.1500 
 43 H       -5.7910    -2.1180     0.0380 H     1 <1>   0.1500 
 44 H        6.4710     2.0630    -0.1860 H     1 <1>   0.0800 
 45 H        5.6530     0.5070    -0.1310 H     1 <1>   0.0800 
 46 H        5.8620     1.4610     1.3500 H     1 <1>   0.0800 
 47 H        2.2040     5.8200    -2.1250 H     1 <1>   0.0800 
 48 H        3.8630     5.4410    -2.5360 H     1 <1>   0.0800 
 49 H        3.5070     6.4090    -1.1150 H     1 <1>   0.0800 
 50 H       -4.6170    -6.6470    -1.1330 H     1 <1>   0.1500 
 51 H       -7.4640    -3.7840    -0.5380 H     1 <1>   0.1500 
@<TRIPOS>BOND
  1   1   2  2   
  2   1   3  2   
  3   1   4  am  
  4   1   5  1   
  5   4   6  1   
  6   4  29  1   
  7   5   7  ar  
  8   5   8  ar  
  9   6   9  1   
 10   6  10  1   
 11   6  30  1   
 12   7  11  ar  
 13   7  31  1   
 14   8  12  ar  
 15   8  32  1   
 16   9  13  1   
 17   9  14  1   
 18   9  33  1   
 19  10  15  1   
 20  10  34  1   
 21  10  35  1   
 22  11  16  ar  
 23  11  17  1   
 24  12  16  ar  
 25  12  36  1   
 26  13  15  1   
 27  13  37  1   
 28  13  38  1   
 29  14  18  1   
 30  14  39  1   
 31  14  40  1   
 32  16  19  1   
 33  17  20  2   
 34  17  21  am  
 35  18  22  ar  
 36  18  23  ar  
 37  19  24  1   
 38  21  25  1   
 39  21  41  1   
 40  22  26  ar  
 41  22  42  1   
 42  23  27  ar  
 43  23  43  1   
 44  24  44  1   
 45  24  45  1   
 46  24  46  1   
 47  25  47  1   
 48  25  48  1   
 49  25  49  1   
 50  26  28  ar  
 51  26  50  1   
 52  27  28  ar  
 53  27  51  1   
@<TRIPOS>SUBSTRUCTURE
  1 ****  10 GROUP 4 **** **** 0

# MOE 2024.06 (io_trps.svl 2023.06)
