@<TRIPOS>MOLECULE
NONAME
50 54 1 0 0 
SMALL
USER_CHARGES


@<TRIPOS>ATOM
  1 O       -0.8550     0.8520     1.1250 O.2   1 <1>  -0.5700 
  2 C       -1.8430     1.3000     0.5650 C.2   1 <1>   0.7160 
  3 N       -3.0440     0.6370     0.7600 N.am  1 <1>  -0.6600 
  4 C       -1.7030     2.4810    -0.2810 C.2   1 <1>   0.1410 
  5 C       -4.2160     0.7410    -0.1520 C.3   1 <1>   0.1400 
  6 C       -3.2650    -0.2680     1.9230 C.3   1 <1>   0.1400 
  7 N       -2.6800     3.4250    -0.4830 N.2   1 <1>  -0.5650 
  8 C       -0.6140     2.8840    -0.9830 C.2   1 <1>  -0.0400 
  9 C       -4.5750    -0.6520    -0.6710 C.3   1 <1>  -0.1600 
 10 C       -3.6090    -1.6690     1.4190 C.3   1 <1>  -0.1600 
 11 C       -2.1240     4.2840    -1.2530 C.2   1 <1>   0.3280 
 12 O       -0.8910     4.0030    -1.5840 O.3   1 <1>  -0.2800 
 13 C        0.7690     2.2800    -1.1660 C.3   1 <1>   0.0200 
 14 C       -4.8140    -1.6440     0.4750 C.3   1 <1>   0.4600 
 15 C        1.8250     3.1090    -0.4310 C.3   1 <1>  -0.2400 
 16 O       -5.9130    -1.2080     1.2450 O.3   1 <1>  -0.5600 
 17 C       -5.0970    -3.0440    -0.0580 C.2   1 <1>  -0.3320 
 18 C       -7.2090    -1.5000     0.7790 C.3   1 <1>   0.1200 
 19 N       -4.2170    -3.8570    -0.7180 N.pl3 1 <1>   0.0330 
 20 C       -6.2830    -3.6740     0.0580 C.2   1 <1>  -0.1810 
 21 C       -7.4570    -3.0180     0.7400 C.3   1 <1>   0.0210 
 22 C       -4.8670    -5.0290    -1.0190 C.ar  1 <1>  -0.1520 
 23 C       -6.1720    -4.9460    -0.5400 C.ar  1 <1>   0.0000 
 24 C       -4.4190    -6.1770    -1.6790 C.ar  1 <1>  -0.1500 
 25 C       -7.0450    -6.0230    -0.7190 C.ar  1 <1>  -0.1500 
 26 C       -5.2890    -7.2290    -1.8490 C.ar  1 <1>  -0.1500 
 27 C       -6.6020    -7.1520    -1.3690 C.ar  1 <1>  -0.1500 
 28 H       -4.0000     1.3760    -0.9920 H     1 <1>   0.0800 
 29 H       -5.0470     1.1640     0.3880 H     1 <1>   0.0800 
 30 H       -4.0780     0.1170     2.5160 H     1 <1>   0.0800 
 31 H       -2.3910    -0.3100     2.5500 H     1 <1>   0.0800 
 32 H       -3.7640    -1.0060    -1.2790 H     1 <1>   0.0800 
 33 H       -5.4420    -0.6000    -1.3010 H     1 <1>   0.0800 
 34 H       -3.8260    -2.3150     2.2500 H     1 <1>   0.0800 
 35 H       -2.7510    -2.0670     0.9110 H     1 <1>   0.0800 
 36 H       -2.5690     5.1860    -1.6380 H     1 <1>   0.1500 
 37 H        1.0010     2.2440    -2.2160 H     1 <1>   0.0800 
 38 H        0.7860     1.2730    -0.7910 H     1 <1>   0.0800 
 39 H        1.8380     4.1160    -0.8090 H     1 <1>   0.0800 
 40 H        2.7990     2.6740    -0.5670 H     1 <1>   0.0800 
 41 H        1.6020     3.1370     0.6210 H     1 <1>   0.0800 
 42 H       -7.3230    -1.0790    -0.2040 H     1 <1>   0.0800 
 43 H       -7.9110    -1.0270     1.4420 H     1 <1>   0.0800 
 44 H       -3.2400    -3.6500    -0.9420 H     1 <1>   0.2700 
 45 H       -8.3630    -3.2240     0.2000 H     1 <1>   0.0800 
 46 H       -7.5560    -3.3990     1.7400 H     1 <1>   0.0800 
 47 H       -3.4090    -6.2280    -2.0430 H     1 <1>   0.1500 
 48 H       -8.0490    -5.9510    -0.3450 H     1 <1>   0.1500 
 49 H       -4.9680    -8.1230    -2.3540 H     1 <1>   0.1500 
 50 H       -7.2620    -7.9890    -1.5150 H     1 <1>   0.1500 
@<TRIPOS>BOND
  1   1   2  2   
  2   2   3  am  
  3   2   4  1   
  4   3   5  1   
  5   3   6  1   
  6   4   7  1   
  7   4   8  2   
  8   5   9  1   
  9   5  28  1   
 10   5  29  1   
 11   6  10  1   
 12   6  30  1   
 13   6  31  1   
 14   7  11  2   
 15   8  12  1   
 16   8  13  1   
 17   9  14  1   
 18   9  32  1   
 19   9  33  1   
 20  10  14  1   
 21  10  34  1   
 22  10  35  1   
 23  11  12  1   
 24  11  36  1   
 25  13  15  1   
 26  13  37  1   
 27  13  38  1   
 28  14  16  1   
 29  14  17  1   
 30  15  39  1   
 31  15  40  1   
 32  15  41  1   
 33  16  18  1   
 34  17  19  1   
 35  17  20  2   
 36  18  21  1   
 37  18  42  1   
 38  18  43  1   
 39  19  22  1   
 40  19  44  1   
 41  20  21  1   
 42  20  23  1   
 43  21  45  1   
 44  21  46  1   
 45  22  23  ar  
 46  22  24  ar  
 47  23  25  ar  
 48  24  26  ar  
 49  24  47  1   
 50  25  27  ar  
 51  25  48  1   
 52  26  27  ar  
 53  26  49  1   
 54  27  50  1   
@<TRIPOS>SUBSTRUCTURE
  1 ****   9 GROUP 4 **** **** 0

# MOE 2024.06 (io_trps.svl 2023.06)
