@<TRIPOS>MOLECULE
NONAME
56 58 1 0 0 
SMALL
USER_CHARGES


@<TRIPOS>ATOM
  1 O       -4.3960     1.8710    -1.3130 O.2   1 <1>  -0.5700 
  2 C       -3.6490     1.0260    -0.8710 C.2   1 <1>   0.5690 
  3 N       -3.7670    -0.2870    -1.2770 N.am  1 <1>  -0.6600 
  4 C       -2.6190     1.4980     0.1570 C.3   1 <1>   0.1810 
  5 C       -3.0910    -1.4490    -0.5850 C.3   1 <1>   0.3640 
  6 C       -4.7630    -0.5970    -2.3470 C.3   1 <1>   0.1400 
  7 O       -1.4270     1.9130    -0.4930 O.3   1 <1>  -0.3630 
  8 C       -1.5710    -1.2890    -0.6600 C.ar  1 <1>  -0.1440 
  9 C       -3.4590    -2.8790    -1.1010 C.3   1 <1>   0.2000 
 10 C       -4.5600    -1.9790    -2.9620 C.3   1 <1>   0.1200 
 11 C       -0.3760     2.3830     0.2180 C.ar  1 <1>   0.0830 
 12 C       -0.8020    -1.4610     0.4830 C.ar  1 <1>  -0.1500 
 13 C       -0.9390    -0.9650    -1.8530 C.ar  1 <1>  -0.1500 
 14 O       -4.5770    -2.9220    -1.9440 O.3   1 <1>  -0.5600 
 15 C       -3.7580    -3.8590     0.0440 C.3   1 <1>   0.1200 
 16 C       -0.0630     1.9490     1.5020 C.ar  1 <1>  -0.1500 
 17 C        0.4190     3.3390    -0.3900 C.ar  1 <1>  -0.1500 
 18 C        0.5730    -1.3020     0.4540 C.ar  1 <1>   0.0830 
 19 C        0.4340    -0.7930    -1.8960 C.ar  1 <1>  -0.1500 
 20 O       -2.7080    -3.9180     0.9540 O.3   1 <1>  -0.6800 
 21 C        1.0300     2.4800     2.1640 C.ar  1 <1>  -0.1500 
 22 C        1.5110     3.8690     0.2750 C.ar  1 <1>  -0.1500 
 23 O        1.2300    -1.5110     1.6260 O.3   1 <1>  -0.3620 
 24 C        1.1930    -0.9370    -0.7480 C.ar  1 <1>   0.0830 
 25 C        1.8230     3.4410     1.5560 C.ar  1 <1>  -0.1430 
 26 C        2.4050    -2.2920     1.6120 C.3   1 <1>   0.0400 
 27 O        2.5190    -0.6870    -0.8400 O.3   1 <1>  -0.3630 
 28 C        3.0190     4.0200     2.2890 C.3   1 <1>  -0.0970 
 29 C        2.9060     0.5890    -0.3810 C.3   1 <1>   0.0400 
 30 H       -2.3950     0.7180     0.8540 H     1 <1>   0.0800 
 31 H       -3.0110     2.3450     0.6890 H     1 <1>   0.0800 
 32 H       -3.3780    -1.4000     0.4510 H     1 <1>   0.0800 
 33 H       -5.7530    -0.5410    -1.9280 H     1 <1>   0.0800 
 34 H       -4.6950     0.1450    -3.1240 H     1 <1>   0.0800 
 35 H       -2.6350    -3.2710    -1.6720 H     1 <1>   0.0800 
 36 H       -3.6270    -2.0400    -3.4970 H     1 <1>   0.0800 
 37 H       -5.3670    -2.2050    -3.6370 H     1 <1>   0.0800 
 38 H       -1.2610    -1.7230     1.4200 H     1 <1>   0.1500 
 39 H       -1.5140    -0.8260    -2.7520 H     1 <1>   0.1500 
 40 H       -3.9230    -4.8490    -0.3430 H     1 <1>   0.0800 
 41 H       -4.6340    -3.5370     0.5810 H     1 <1>   0.0800 
 42 H       -0.6450     1.1920     1.9910 H     1 <1>   0.1500 
 43 H        0.1740     3.6660    -1.3840 H     1 <1>   0.1500 
 44 H        0.9200    -0.5270    -2.8170 H     1 <1>   0.1500 
 45 H       -1.9110    -4.3170     0.5480 H     1 <1>   0.4000 
 46 H        1.2630     2.1360     3.1560 H     1 <1>   0.1500 
 47 H        2.1150     4.6160    -0.2090 H     1 <1>   0.1500 
 48 H        2.5590    -2.6840     2.6000 H     1 <1>   0.0800 
 49 H        3.2370    -1.6700     1.3350 H     1 <1>   0.0800 
 50 H        2.2870    -3.0970     0.9080 H     1 <1>   0.0800 
 51 H        3.4540     3.2820     2.9390 H     1 <1>   0.0800 
 52 H        2.7090     4.8630     2.8800 H     1 <1>   0.0800 
 53 H        3.7700     4.3430     1.5910 H     1 <1>   0.0800 
 54 H        3.9690     0.6870    -0.5040 H     1 <1>   0.0800 
 55 H        2.6420     0.6840     0.6570 H     1 <1>   0.0800 
 56 H        2.3950     1.3360    -0.9620 H     1 <1>   0.0800 
@<TRIPOS>BOND
  1   1   2  2   
  2   2   3  am  
  3   2   4  1   
  4   3   5  1   
  5   3   6  1   
  6   4   7  1   
  7   4  30  1   
  8   4  31  1   
  9   5   8  1   
 10   5   9  1   
 11   5  32  1   
 12   6  10  1   
 13   6  33  1   
 14   6  34  1   
 15   7  11  1   
 16   8  12  ar  
 17   8  13  ar  
 18   9  14  1   
 19   9  15  1   
 20   9  35  1   
 21  10  14  1   
 22  10  36  1   
 23  10  37  1   
 24  11  16  ar  
 25  11  17  ar  
 26  12  18  ar  
 27  12  38  1   
 28  13  19  ar  
 29  13  39  1   
 30  15  20  1   
 31  15  40  1   
 32  15  41  1   
 33  16  21  ar  
 34  16  42  1   
 35  17  22  ar  
 36  17  43  1   
 37  18  23  1   
 38  18  24  ar  
 39  19  24  ar  
 40  19  44  1   
 41  20  45  1   
 42  21  25  ar  
 43  21  46  1   
 44  22  25  ar  
 45  22  47  1   
 46  23  26  1   
 47  24  27  1   
 48  25  28  1   
 49  26  48  1   
 50  26  49  1   
 51  26  50  1   
 52  27  29  1   
 53  28  51  1   
 54  28  52  1   
 55  28  53  1   
 56  29  54  1   
 57  29  55  1   
 58  29  56  1   
@<TRIPOS>SUBSTRUCTURE
  1 ****   8 GROUP 4 **** **** 0

# MOE 2024.06 (io_trps.svl 2023.06)
