@<TRIPOS>MOLECULE
NONAME
47 48 1 0 0 
SMALL
USER_CHARGES


@<TRIPOS>ATOM
  1 O       -0.3140     2.0770     0.1580 O.2   1 <1>  -0.5700 
  2 C       -0.0180     0.9110     0.0540 C.2   1 <1>   0.5690 
  3 N        0.9780     0.4460    -0.7450 N.am  1 <1>  -0.7300 
  4 C       -0.7900    -0.1150     0.8920 C.3   1 <1>   0.1710 
  5 C        2.0010     1.1360    -1.5580 C.3   1 <1>   0.3640 
  6 N       -0.7480    -1.5190     0.3740 N.3   1 <1>  -0.8100 
  7 C        3.3050     1.2250    -0.7600 C.ar  1 <1>  -0.1430 
  8 C        1.5520     2.5060    -2.0670 C.3   1 <1>  -0.2400 
  9 C       -1.2250    -2.4620     1.4160 C.3   1 <1>   0.2530 
 10 C       -1.5720    -1.6390    -0.8450 C.3   1 <1>   0.0300 
 11 C        4.5000     0.6590    -1.2060 C.ar  1 <1>  -0.1430 
 12 C        3.2920     1.8980     0.4560 C.ar  1 <1>  -0.1500 
 13 C       -1.0340    -3.9290     1.0400 C.ar  1 <1>   0.1670 
 14 C        5.6420     0.7780    -0.4280 C.ar  1 <1>  -0.1500 
 15 C        4.6060    -0.0910    -2.5260 C.3   1 <1>  -0.0970 
 16 C        4.4340     2.0170     1.2280 C.ar  1 <1>  -0.1430 
 17 N       -2.0220    -4.7610     1.3430 N.ar  1 <1>  -0.6200 
 18 C        0.1440    -4.3320     0.4150 C.ar  1 <1>   0.1600 
 19 C        5.6120     1.4510     0.7800 C.ar  1 <1>  -0.1500 
 20 C        4.3880     2.7590     2.5510 C.3   1 <1>  -0.0970 
 21 C       -1.7520    -6.0040     0.9780 C.ar  1 <1>   0.1600 
 22 N        0.4150    -5.5760     0.0490 N.ar  1 <1>  -0.6200 
 23 C       -0.5750    -6.3970     0.3530 C.ar  1 <1>   0.1600 
 24 H        1.1290    -0.5630    -0.6720 H     1 <1>   0.3700 
 25 H       -1.8110     0.2130     0.9770 H     1 <1>   0.0800 
 26 H       -0.3560    -0.0880     1.8760 H     1 <1>   0.0800 
 27 H        2.1520     0.5250    -2.4280 H     1 <1>   0.0800 
 28 H        1.4570     3.2070    -1.2590 H     1 <1>   0.0800 
 29 H        0.6110     2.4200    -2.5790 H     1 <1>   0.0800 
 30 H        2.2860     2.8890    -2.7520 H     1 <1>   0.0800 
 31 H       -2.2680    -2.2830     1.6130 H     1 <1>   0.0800 
 32 H       -0.6840    -2.2890     2.3310 H     1 <1>   0.0800 
 33 H       -1.2320    -0.9500    -1.5990 H     1 <1>   0.0800 
 34 H       -2.6060    -1.4280    -0.6260 H     1 <1>   0.0800 
 35 H       -1.5020    -2.6350    -1.2490 H     1 <1>   0.0800 
 36 H        2.3730     2.3360     0.8060 H     1 <1>   0.1500 
 37 H        6.5700     0.3460    -0.7560 H     1 <1>   0.1500 
 38 H        4.3190     0.5500    -3.3400 H     1 <1>   0.0800 
 39 H        3.9670    -0.9560    -2.5110 H     1 <1>   0.0800 
 40 H        5.6130    -0.4230    -2.7030 H     1 <1>   0.0800 
 41 H        0.8930    -3.5880     0.2080 H     1 <1>   0.1500 
 42 H        6.5090     1.5310     1.3670 H     1 <1>   0.1500 
 43 H        3.6610     3.5510     2.5110 H     1 <1>   0.0800 
 44 H        5.3470     3.1900     2.7740 H     1 <1>   0.0800 
 45 H        4.1190     2.0790     3.3390 H     1 <1>   0.0800 
 46 H       -2.4990    -6.7500     1.1850 H     1 <1>   0.1500 
 47 H       -0.4490    -7.4340     0.0950 H     1 <1>   0.1500 
@<TRIPOS>BOND
  1   1   2  2   
  2   2   3  am  
  3   2   4  1   
  4   3   5  1   
  5   3  24  1   
  6   4   6  1   
  7   4  25  1   
  8   4  26  1   
  9   5   7  1   
 10   5   8  1   
 11   5  27  1   
 12   6   9  1   
 13   6  10  1   
 14   7  11  ar  
 15   7  12  ar  
 16   8  28  1   
 17   8  29  1   
 18   8  30  1   
 19   9  13  1   
 20   9  31  1   
 21   9  32  1   
 22  10  33  1   
 23  10  34  1   
 24  10  35  1   
 25  11  14  ar  
 26  11  15  1   
 27  12  16  ar  
 28  12  36  1   
 29  13  17  ar  
 30  13  18  ar  
 31  14  19  ar  
 32  14  37  1   
 33  15  38  1   
 34  15  39  1   
 35  15  40  1   
 36  16  19  ar  
 37  16  20  1   
 38  17  21  ar  
 39  18  22  ar  
 40  18  41  1   
 41  19  42  1   
 42  20  43  1   
 43  20  44  1   
 44  20  45  1   
 45  21  23  ar  
 46  21  46  1   
 47  22  23  ar  
 48  23  47  1   
@<TRIPOS>SUBSTRUCTURE
  1 ****   3 GROUP 4 **** **** 0

# MOE 2024.06 (io_trps.svl 2023.06)
