@<TRIPOS>MOLECULE
NONAME
58 59 1 0 0 
SMALL
USER_CHARGES


@<TRIPOS>ATOM
  1 O       -1.4020     0.0320    -0.0100 O.2   1 <1>  -0.5700 
  2 C       -2.1530     0.7110     0.6530 C.2   1 <1>   0.5690 
  3 N       -3.1640     0.1050     1.3580 N.am  1 <1>  -0.6600 
  4 C       -1.9510     2.2350     0.6680 C.3   1 <1>  -0.0190 
  5 C       -4.3910     0.7970     1.8620 C.3   1 <1>   0.2840 
  6 C       -3.1380    -1.3800     1.5450 C.3   1 <1>   0.1400 
  7 C       -2.6340     2.9100    -0.5380 C.3   1 <1>  -0.1600 
  8 C       -0.4550     2.6420     0.7370 C.3   1 <1>  -0.1600 
  9 C       -5.6250     0.1050     1.3010 C.ar  1 <1>  -0.1440 
 10 C       -3.6960    -2.0890     0.2940 C.3   1 <1>   0.3430 
 11 C       -2.6100     4.4460    -0.4280 C.3   1 <1>   0.2000 
 12 C       -0.1750     4.0790     0.2510 C.3   1 <1>  -0.1600 
 13 C       -6.4180    -0.6910     2.1130 C.ar  1 <1>  -0.1500 
 14 C       -5.9540     0.2450    -0.0390 C.ar  1 <1>  -0.1500 
 15 N       -2.8780    -3.2690    -0.1510 N.4   1 <1>  -0.9590 
 16 O       -2.5670     4.9420    -1.7420 O.3   1 <1>  -0.5600 
 17 C       -1.4040     4.9800     0.3910 C.3   1 <1>   0.2000 
 18 C       -7.5150    -1.3510     1.5870 C.ar  1 <1>  -0.1500 
 19 C       -7.0510    -0.4150    -0.5630 C.ar  1 <1>  -0.1500 
 20 C       -1.5490    -2.8210    -0.6840 C.3   1 <1>   0.2630 
 21 C       -3.6210    -4.0290    -1.2000 C.3   1 <1>   0.2630 
 22 C       -3.5540     5.8760    -2.0530 C.3   1 <1>   0.0400 
 23 O       -1.0590     6.2410    -0.0530 O.3   1 <1>  -0.6800 
 24 C       -7.8340    -1.2200     0.2470 C.ar  1 <1>  -0.1430 
 25 C       -9.0460    -1.9360    -0.3230 C.3   1 <1>  -0.0970 
 26 H       -2.4050     2.6170     1.5630 H     1 <1>   0.0800 
 27 H       -4.4010     0.7640     2.9390 H     1 <1>   0.0800 
 28 H       -4.4130     1.8280     1.5610 H     1 <1>   0.0800 
 29 H       -2.1220    -1.6830     1.7290 H     1 <1>   0.0800 
 30 H       -3.7220    -1.6490     2.4080 H     1 <1>   0.0800 
 31 H       -3.6540     2.5850    -0.6220 H     1 <1>   0.0800 
 32 H       -2.1140     2.6050    -1.4310 H     1 <1>   0.0800 
 33 H       -0.1190     2.5370     1.7550 H     1 <1>   0.0800 
 34 H        0.1440     1.9780     0.1380 H     1 <1>   0.0800 
 35 H       -3.7360    -1.3710    -0.5090 H     1 <1>   0.0800 
 36 H       -4.7070    -2.4010     0.5040 H     1 <1>   0.0800 
 37 H       -3.5150     4.7770     0.0530 H     1 <1>   0.0800 
 38 H        0.1020     4.0430    -0.7890 H     1 <1>   0.0800 
 39 H        0.6500     4.4930     0.8050 H     1 <1>   0.0800 
 40 H       -6.1930    -0.8030     3.1600 H     1 <1>   0.1500 
 41 H       -5.3580     0.8660    -0.6850 H     1 <1>   0.1500 
 42 H       -2.7210    -3.8890     0.6570 H     1 <1>   0.4500 
 43 H       -1.6670     5.0600     1.4310 H     1 <1>   0.0800 
 44 H       -8.1270    -1.9620     2.2290 H     1 <1>   0.1500 
 45 H       -7.3000    -0.2930    -1.6040 H     1 <1>   0.1500 
 46 H       -1.6860    -2.1210    -1.4930 H     1 <1>   0.0800 
 47 H       -0.9810    -3.6630    -1.0440 H     1 <1>   0.0800 
 48 H       -0.9790    -2.3270     0.0870 H     1 <1>   0.0800 
 49 H       -3.7980    -3.4020    -2.0590 H     1 <1>   0.0800 
 50 H       -4.5710    -4.3660    -0.8170 H     1 <1>   0.0800 
 51 H       -3.0510    -4.8900    -1.5120 H     1 <1>   0.0800 
 52 H       -3.3980     6.2040    -3.0660 H     1 <1>   0.0800 
 53 H       -3.4750     6.7150    -1.3830 H     1 <1>   0.0800 
 54 H       -4.5200     5.4110    -1.9670 H     1 <1>   0.0800 
 55 H       -1.1550     6.2250    -1.0300 H     1 <1>   0.4000 
 56 H       -9.1970    -2.8780     0.1740 H     1 <1>   0.0800 
 57 H       -8.9190    -2.1230    -1.3740 H     1 <1>   0.0800 
 58 H       -9.9230    -1.3290    -0.1850 H     1 <1>   0.0800 
@<TRIPOS>BOND
  1   1   2  2   
  2   2   3  am  
  3   2   4  1   
  4   3   5  1   
  5   3   6  1   
  6   4   7  1   
  7   4   8  1   
  8   4  26  1   
  9   5   9  1   
 10   5  27  1   
 11   5  28  1   
 12   6  10  1   
 13   6  29  1   
 14   6  30  1   
 15   7  11  1   
 16   7  31  1   
 17   7  32  1   
 18   8  12  1   
 19   8  33  1   
 20   8  34  1   
 21   9  13  ar  
 22   9  14  ar  
 23  10  15  1   
 24  10  35  1   
 25  10  36  1   
 26  11  16  1   
 27  11  17  1   
 28  11  37  1   
 29  12  17  1   
 30  12  38  1   
 31  12  39  1   
 32  13  18  ar  
 33  13  40  1   
 34  14  19  ar  
 35  14  41  1   
 36  15  20  1   
 37  15  21  1   
 38  15  42  1   
 39  16  22  1   
 40  17  23  1   
 41  17  43  1   
 42  18  24  ar  
 43  18  44  1   
 44  19  24  ar  
 45  19  45  1   
 46  20  46  1   
 47  20  47  1   
 48  20  48  1   
 49  21  49  1   
 50  21  50  1   
 51  21  51  1   
 52  22  52  1   
 53  22  53  1   
 54  22  54  1   
 55  23  55  1   
 56  24  25  1   
 57  25  56  1   
 58  25  57  1   
 59  25  58  1   
@<TRIPOS>SUBSTRUCTURE
  1 ****   3 GROUP 4 **** **** 0

# MOE 2024.06 (io_trps.svl 2023.06)
