@<TRIPOS>MOLECULE
NONAME
50 52 1 0 0 
SMALL
USER_CHARGES


@<TRIPOS>ATOM
  1 O       -0.3590    -2.6980     1.1860 O.2   1 <1>  -0.5700 
  2 C        0.4980    -2.1750     0.4950 C.2   1 <1>   0.6900 
  3 N        1.8030    -2.1160     0.9080 N.am  1 <1>  -0.6600 
  4 N        0.1660    -1.6950    -0.7260 N.am  1 <1>  -0.7300 
  5 C        2.2660    -2.8730     2.1040 C.3   1 <1>   0.0600 
  6 C        2.8230    -1.2120     0.3100 C.3   1 <1>   0.0600 
  7 C       -1.1930    -1.8370    -1.3400 C.3   1 <1>   0.2010 
  8 C       -1.4990    -3.2580    -1.8190 C.2   1 <1>   0.5690 
  9 O       -1.8090    -3.4450    -2.9720 O.2   1 <1>  -0.5700 
 10 N       -1.4040    -4.2750    -0.9280 N.am  1 <1>  -0.7300 
 11 C       -1.5780    -5.7130    -1.2110 C.3   1 <1>   0.2200 
 12 C       -2.6200    -6.2830    -0.2640 C.3   1 <1>  -0.0800 
 13 C       -0.3100    -6.4790    -0.8200 C.3   1 <1>   0.1200 
 14 C       -1.7610    -6.6150     0.9550 C.3   1 <1>   0.1200 
 15 C       -3.2900    -7.5360    -0.8620 C.3   1 <1>  -0.0170 
 16 O       -0.5330    -7.0320     0.4470 O.3   1 <1>  -0.5600 
 17 C       -4.3570    -8.1100     0.0660 C.ar  1 <1>  -0.1440 
 18 C       -5.6410    -7.5300     0.2000 C.ar  1 <1>   0.0000 
 19 C       -4.0900    -9.2260     0.8030 C.ar  1 <1>  -0.1500 
 20 C       -6.5500    -8.1460     1.0960 C.ar  1 <1>   0.3100 
 21 C       -6.0780    -6.3820    -0.5010 C.ar  1 <1>  -0.1500 
 22 C       -5.0620    -9.7560     1.6590 C.ar  1 <1>   0.1600 
 23 N       -6.2460    -9.2550     1.8160 N.ar  1 <1>  -0.6200 
 24 C       -7.8310    -7.5910     1.2520 C.ar  1 <1>  -0.1500 
 25 C       -7.3340    -5.8670    -0.3260 C.ar  1 <1>  -0.1500 
 26 C       -8.2230    -6.4770     0.5620 C.ar  1 <1>  -0.1500 
 27 H        0.9350    -1.5670    -1.3780 H     1 <1>   0.3700 
 28 H        3.2140    -3.3390     1.8990 H     1 <1>   0.0800 
 29 H        1.5590    -3.6410     2.3660 H     1 <1>   0.0800 
 30 H        2.3710    -2.2020     2.9390 H     1 <1>   0.0800 
 31 H        3.4100    -0.7580     1.0900 H     1 <1>   0.0800 
 32 H        2.3540    -0.4260    -0.2550 H     1 <1>   0.0800 
 33 H        3.4740    -1.7760    -0.3350 H     1 <1>   0.0800 
 34 H       -1.9360    -1.5590    -0.6140 H     1 <1>   0.0800 
 35 H       -1.2760    -1.1640    -2.1740 H     1 <1>   0.0800 
 36 H       -1.0760    -4.0360     0.0230 H     1 <1>   0.3700 
 37 H       -1.8270    -5.8560    -2.2490 H     1 <1>   0.0800 
 38 H       -3.3700    -5.5530    -0.0170 H     1 <1>   0.0800 
 39 H        0.5550    -5.8390    -0.7800 H     1 <1>   0.0800 
 40 H       -0.1310    -7.2920    -1.5000 H     1 <1>   0.0800 
 41 H       -2.1750    -7.3900     1.5750 H     1 <1>   0.0800 
 42 H       -1.5870    -5.7340     1.5500 H     1 <1>   0.0800 
 43 H       -2.5430    -8.2870    -1.0520 H     1 <1>   0.0800 
 44 H       -3.7370    -7.2970    -1.8110 H     1 <1>   0.0800 
 45 H       -3.1360    -9.7200     0.7500 H     1 <1>   0.1500 
 46 H       -5.4120    -5.8970    -1.1900 H     1 <1>   0.1500 
 47 H       -4.8070   -10.6370     2.2230 H     1 <1>   0.1500 
 48 H       -8.4980    -8.0780     1.9390 H     1 <1>   0.1500 
 49 H       -7.6520    -4.9910    -0.8660 H     1 <1>   0.1500 
 50 H       -9.2080    -6.0630     0.6920 H     1 <1>   0.1500 
@<TRIPOS>BOND
  1   1   2  2   
  2   2   3  am  
  3   2   4  am  
  4   3   5  1   
  5   3   6  1   
  6   4   7  1   
  7   4  27  1   
  8   5  28  1   
  9   5  29  1   
 10   5  30  1   
 11   6  31  1   
 12   6  32  1   
 13   6  33  1   
 14   7   8  1   
 15   7  34  1   
 16   7  35  1   
 17   8   9  2   
 18   8  10  am  
 19  10  11  1   
 20  10  36  1   
 21  11  12  1   
 22  11  13  1   
 23  11  37  1   
 24  12  14  1   
 25  12  15  1   
 26  12  38  1   
 27  13  16  1   
 28  13  39  1   
 29  13  40  1   
 30  14  16  1   
 31  14  41  1   
 32  14  42  1   
 33  15  17  1   
 34  15  43  1   
 35  15  44  1   
 36  17  18  ar  
 37  17  19  ar  
 38  18  20  ar  
 39  18  21  ar  
 40  19  22  ar  
 41  19  45  1   
 42  20  23  ar  
 43  20  24  ar  
 44  21  25  ar  
 45  21  46  1   
 46  22  23  ar  
 47  22  47  1   
 48  24  26  ar  
 49  24  48  1   
 50  25  26  ar  
 51  25  49  1   
 52  26  50  1   
@<TRIPOS>SUBSTRUCTURE
  1 ****  12 GROUP 4 **** **** 0

# MOE 2024.06 (io_trps.svl 2023.06)
