@<TRIPOS>MOLECULE
NONAME
39 41 1 0 0 
SMALL
USER_CHARGES


@<TRIPOS>ATOM
  1 CL       1.8660     0.0870    -0.4760 Cl    1 <1>  -0.1770 
  2 C        3.4930    -0.4890    -0.7460 C.ar  1 <1>   0.1770 
  3 C        4.5200     0.4170    -1.0190 C.ar  1 <1>   0.0860 
  4 C        3.7110    -1.8510    -0.6750 C.ar  1 <1>  -0.1500 
  5 C        4.2690     1.8380    -1.0900 C.2   1 <1>   0.5440 
  6 C        5.8040    -0.1000    -1.2170 C.ar  1 <1>  -0.1500 
  7 C        4.9950    -2.3140    -0.8790 C.ar  1 <1>   0.1900 
  8 O        4.2850     2.3820    -2.1790 O.2   1 <1>  -0.5700 
  9 N        4.0330     2.5930     0.0410 N.am  1 <1>  -0.6600 
 10 C        6.0490    -1.4600    -1.1480 C.ar  1 <1>  -0.1500 
 11 F        5.2210    -3.5950    -0.8140 F     1 <1>  -0.1900 
 12 C        4.4140     2.1180     1.4140 C.3   1 <1>   0.1400 
 13 C        3.5170     3.9870    -0.0580 C.3   1 <1>   0.1400 
 14 C        5.4070     3.0500     2.1370 C.3   1 <1>   0.1400 
 15 C        4.6470     4.9920    -0.3300 C.3   1 <1>  -0.1600 
 16 N        6.2540     3.8230     1.1830 N.am  1 <1>  -0.6600 
 17 C        5.6810     5.1400     0.7960 C.3   1 <1>   0.1400 
 18 C        7.1930     3.1730     0.4010 C.2   1 <1>   0.7160 
 19 O        7.4680     2.0120     0.6660 O.2   1 <1>  -0.5700 
 20 C        7.7960     3.8020    -0.7580 C.2   1 <1>   0.1410 
 21 N        8.6030     4.8870    -0.6990 N.2   1 <1>  -0.2270 
 22 C        7.6600     3.4660    -2.0630 C.2   1 <1>  -0.3020 
 23 N        8.9460     5.2140    -1.8940 N.2   1 <1>  -0.4180 
 24 N        8.3790     4.3520    -2.7390 N.pl3 1 <1>   0.3000 
 25 H        2.9070    -2.5330    -0.4670 H     1 <1>   0.1500 
 26 H        6.6140     0.5790    -1.4200 H     1 <1>   0.1500 
 27 H        7.0390    -1.8550    -1.2970 H     1 <1>   0.1500 
 28 H        4.8760     1.1490     1.3520 H     1 <1>   0.0800 
 29 H        3.5260     2.0070     2.0110 H     1 <1>   0.0800 
 30 H        2.9960     4.2460     0.8470 H     1 <1>   0.0800 
 31 H        2.8080     4.0330    -0.8680 H     1 <1>   0.0800 
 32 H        6.0400     2.4620     2.7800 H     1 <1>   0.0800 
 33 H        4.8600     3.7280     2.7670 H     1 <1>   0.0800 
 34 H        4.2010     5.9560    -0.4940 H     1 <1>   0.0800 
 35 H        5.1420     4.7270    -1.2460 H     1 <1>   0.0800 
 36 H        5.2170     5.5930     1.6550 H     1 <1>   0.0800 
 37 H        6.4670     5.8030     0.4780 H     1 <1>   0.0800 
 38 H        7.0900     2.6750    -2.5140 H     1 <1>   0.1500 
 39 H        8.5040     4.4110    -3.7550 H     1 <1>   0.2700 
@<TRIPOS>BOND
  1   1   2  1   
  2   2   3  ar  
  3   2   4  ar  
  4   3   5  1   
  5   3   6  ar  
  6   4   7  ar  
  7   4  25  1   
  8   5   8  2   
  9   5   9  am  
 10   6  10  ar  
 11   6  26  1   
 12   7  10  ar  
 13   7  11  1   
 14   9  12  1   
 15   9  13  1   
 16  10  27  1   
 17  12  14  1   
 18  12  28  1   
 19  12  29  1   
 20  13  15  1   
 21  13  30  1   
 22  13  31  1   
 23  14  16  1   
 24  14  32  1   
 25  14  33  1   
 26  15  17  1   
 27  15  34  1   
 28  15  35  1   
 29  16  17  1   
 30  16  18  am  
 31  17  36  1   
 32  17  37  1   
 33  18  19  2   
 34  18  20  1   
 35  20  21  1   
 36  20  22  2   
 37  21  23  2   
 38  22  24  1   
 39  22  38  1   
 40  23  24  1   
 41  24  39  1   
@<TRIPOS>SUBSTRUCTURE
  1 ****   5 GROUP 4 **** **** 0

# MOE 2024.06 (io_trps.svl 2023.06)
