@<TRIPOS>MOLECULE
NONAME
40 41 1 0 0 
SMALL
USER_CHARGES


@<TRIPOS>ATOM
  1 O        4.2980     2.0060    -1.4700 O.2   1 <1>  -0.5700 
  2 C        3.8220     0.8800    -1.3460 C.2   1 <1>   0.6160 
  3 N        3.0270     0.5680    -0.2480 N.am  1 <1>  -0.4690 
  4 C        4.0950    -0.1320    -2.3040 C.2   1 <1>  -0.1360 
  5 C        2.5660    -0.7350    -0.0760 C.2   1 <1>  -0.0290 
  6 C        2.6960     1.6700     0.7070 C.3   1 <1>   0.1400 
  7 C        3.6260    -1.3950    -2.1450 C.2   1 <1>  -0.1500 
  8 C        2.8540    -1.6950    -0.9990 C.2   1 <1>  -0.1500 
  9 C        1.7400    -1.0910     1.1520 C.3   1 <1>  -0.1020 
 10 C        3.8770     1.9370     1.6480 C.3   1 <1>  -0.0990 
 11 C        4.2080     3.4100     1.6870 C.2   1 <1>   0.5690 
 12 O        3.9970     4.0120     2.7090 O.2   1 <1>  -0.5700 
 13 N        4.7170     3.9730     0.5530 N.am  1 <1>  -0.4940 
 14 C        5.1270     5.2880     0.3120 C.2   1 <1>   0.2040 
 15 O        5.1230     6.2080     1.2470 O.3   1 <1>  -0.0190 
 16 C        5.5770     5.8620    -0.8220 C.2   1 <1>  -0.1810 
 17 N        5.5450     7.3640     0.7970 N.2   1 <1>  -0.4100 
 18 C        5.8230     7.1820    -0.4440 C.2   1 <1>   0.1080 
 19 C        5.7800     5.2530    -2.1990 C.3   1 <1>  -0.0590 
 20 C        6.3460     8.2850    -1.3470 C.3   1 <1>   0.0210 
 21 C        5.2070     8.9610    -2.1170 C.3   1 <1>  -0.2400 
 22 H        4.6900     0.1560    -3.1500 H     1 <1>   0.1500 
 23 H        1.8170     1.4410     1.2810 H     1 <1>   0.0800 
 24 H        2.4600     2.5540     0.1380 H     1 <1>   0.0800 
 25 H        3.8250    -2.1770    -2.8590 H     1 <1>   0.1500 
 26 H        2.5040    -2.7070    -0.8880 H     1 <1>   0.1500 
 27 H        2.2760    -0.8370     2.0480 H     1 <1>   0.0800 
 28 H        1.5300    -2.1450     1.1780 H     1 <1>   0.0800 
 29 H        0.8020    -0.5660     1.1340 H     1 <1>   0.0800 
 30 H        4.7540     1.4000     1.3360 H     1 <1>   0.0800 
 31 H        3.6240     1.6100     2.6400 H     1 <1>   0.0800 
 32 H        4.7550     3.3490    -0.2640 H     1 <1>   0.3700 
 33 H        5.5360     4.2070    -2.1920 H     1 <1>   0.0800 
 34 H        6.8060     5.3610    -2.5010 H     1 <1>   0.0800 
 35 H        5.1490     5.7460    -2.9160 H     1 <1>   0.0800 
 36 H        7.0630     7.8760    -2.0360 H     1 <1>   0.0800 
 37 H        6.8520     9.0170    -0.7420 H     1 <1>   0.0800 
 38 H        4.6960     8.2460    -2.7360 H     1 <1>   0.0800 
 39 H        5.5950     9.7470    -2.7400 H     1 <1>   0.0800 
 40 H        4.5010     9.3840    -1.4240 H     1 <1>   0.0800 
@<TRIPOS>BOND
  1   1   2  2   
  2   2   3  am  
  3   2   4  1   
  4   3   5  1   
  5   3   6  1   
  6   4   7  2   
  7   4  22  1   
  8   5   8  2   
  9   5   9  1   
 10   6  10  1   
 11   6  23  1   
 12   6  24  1   
 13   7   8  1   
 14   7  25  1   
 15   8  26  1   
 16   9  27  1   
 17   9  28  1   
 18   9  29  1   
 19  10  11  1   
 20  10  30  1   
 21  10  31  1   
 22  11  12  2   
 23  11  13  am  
 24  13  14  1   
 25  13  32  1   
 26  14  15  1   
 27  14  16  2   
 28  15  17  1   
 29  16  18  1   
 30  16  19  1   
 31  17  18  2   
 32  18  20  1   
 33  19  33  1   
 34  19  34  1   
 35  19  35  1   
 36  20  21  1   
 37  20  36  1   
 38  20  37  1   
 39  21  38  1   
 40  21  39  1   
 41  21  40  1   
@<TRIPOS>SUBSTRUCTURE
  1 ****  13 GROUP 4 **** **** 0

# MOE 2024.06 (io_trps.svl 2023.06)
