@<TRIPOS>MOLECULE
NONAME
40 42 1 0 0 
SMALL
USER_CHARGES


@<TRIPOS>ATOM
  1 CL       0.6020     1.4590    -2.1460 Cl    1 <1>  -0.1770 
  2 C        1.7480     1.6000    -0.8320 C.ar  1 <1>   0.1770 
  3 C        2.1840     2.8410    -0.4010 C.ar  1 <1>   0.1900 
  4 C        2.2170     0.4490    -0.2280 C.ar  1 <1>  -0.1500 
  5 F        1.7130     3.9090    -0.9900 F     1 <1>  -0.1900 
  6 C        3.1060     2.9850     0.6350 C.ar  1 <1>   0.0860 
  7 C        3.1250     0.5580     0.8130 C.ar  1 <1>  -0.1500 
  8 C        3.5770     4.2740     1.0970 C.2   1 <1>   0.5440 
  9 C        3.5570     1.8060     1.2360 C.ar  1 <1>  -0.1500 
 10 O        3.5640     4.5130     2.2890 O.2   1 <1>  -0.5700 
 11 N        4.0960     5.2450     0.2590 N.am  1 <1>  -0.6600 
 12 C        4.1360     6.6740     0.7120 C.3   1 <1>   0.1400 
 13 C        4.6540     4.9380    -1.0830 C.3   1 <1>   0.1400 
 14 C        5.5600     7.1900     1.0260 C.3   1 <1>   0.4230 
 15 C        6.0990     5.4380    -1.2610 C.3   1 <1>  -0.0800 
 16 N        6.2800     7.7480    -0.1760 N.4   1 <1>  -0.9590 
 17 C        6.4830     6.1260     1.6710 C.3   1 <1>   0.1200 
 18 C        7.0920     4.8300    -0.2350 C.3   1 <1>   0.1200 
 19 C        6.1410     6.9670    -1.4440 C.3   1 <1>   0.3430 
 20 C        6.0720     9.2120    -0.3720 C.3   1 <1>   0.2630 
 21 O        7.4860     5.7240     0.7670 O.3   1 <1>  -0.5600 
 22 H        1.8740    -0.5140    -0.5660 H     1 <1>   0.1500 
 23 H        3.4930    -0.3320     1.2970 H     1 <1>   0.1500 
 24 H        4.2540     1.8750     2.0550 H     1 <1>   0.1500 
 25 H        3.6670     7.3000    -0.0240 H     1 <1>   0.0800 
 26 H        3.5500     6.7720     1.6100 H     1 <1>   0.0800 
 27 H        4.6480     3.8730    -1.2410 H     1 <1>   0.0800 
 28 H        4.0150     5.3740    -1.8330 H     1 <1>   0.0800 
 29 H        5.4430     7.9820     1.7470 H     1 <1>   0.0800 
 30 H        6.3890     5.0340    -2.2140 H     1 <1>   0.0800 
 31 H        7.2670     7.5670     0.0960 H     1 <1>   0.4500 
 32 H        5.9530     5.2640     2.0350 H     1 <1>   0.0800 
 33 H        6.9820     6.5670     2.5150 H     1 <1>   0.0800 
 34 H        7.9940     4.5370    -0.7470 H     1 <1>   0.0800 
 35 H        6.6840     3.9490     0.2320 H     1 <1>   0.0800 
 36 H        5.2450     7.2760    -1.9580 H     1 <1>   0.0800 
 37 H        6.9760     7.2080    -2.0810 H     1 <1>   0.0800 
 38 H        5.0470     9.4120    -0.6390 H     1 <1>   0.0800 
 39 H        6.7130     9.5780    -1.1580 H     1 <1>   0.0800 
 40 H        6.3050     9.7470     0.5350 H     1 <1>   0.0800 
@<TRIPOS>BOND
  1   1   2  1   
  2   2   3  ar  
  3   2   4  ar  
  4   3   5  1   
  5   3   6  ar  
  6   4   7  ar  
  7   4  22  1   
  8   6   8  1   
  9   6   9  ar  
 10   7   9  ar  
 11   7  23  1   
 12   8  10  2   
 13   8  11  am  
 14   9  24  1   
 15  11  12  1   
 16  11  13  1   
 17  12  14  1   
 18  12  25  1   
 19  12  26  1   
 20  13  15  1   
 21  13  27  1   
 22  13  28  1   
 23  14  16  1   
 24  14  17  1   
 25  14  29  1   
 26  15  18  1   
 27  15  19  1   
 28  15  30  1   
 29  16  19  1   
 30  16  20  1   
 31  16  31  1   
 32  17  21  1   
 33  17  32  1   
 34  17  33  1   
 35  18  21  1   
 36  18  34  1   
 37  18  35  1   
 38  19  36  1   
 39  19  37  1   
 40  20  38  1   
 41  20  39  1   
 42  20  40  1   
@<TRIPOS>SUBSTRUCTURE
  1 ****  11 GROUP 4 **** **** 0

# MOE 2024.06 (io_trps.svl 2023.06)
