@<TRIPOS>MOLECULE
NONAME
51 55 1 0 0 
SMALL
USER_CHARGES


@<TRIPOS>ATOM
  1 S        2.1550    -0.3930    -0.6530 S.3   1 <1>  -0.0800 
  2 C        1.1700     1.0540    -0.7060 C.2   1 <1>  -0.1400 
  3 C        3.4440     0.4920     0.1530 C.2   1 <1>  -0.1100 
  4 C        1.7970     2.1050    -0.1630 C.2   1 <1>  -0.1810 
  5 C       -0.2150     1.0750    -1.2930 C.3   1 <1>   0.0200 
  6 C        3.1020     1.7820     0.3380 C.2   1 <1>  -0.1500 
  7 C        1.1310     3.4830    -0.1150 C.3   1 <1>   0.4610 
  8 C       -0.9100     2.3440    -0.7740 C.3   1 <1>   0.1200 
  9 O       -0.0650     3.4670    -0.8750 O.3   1 <1>  -0.5600 
 10 C        2.0330     4.5320    -0.7740 C.3   1 <1>  -0.1600 
 11 C        0.8060     3.8880     1.3300 C.3   1 <1>  -0.1600 
 12 C        1.4400     5.9390    -0.6680 C.3   1 <1>   0.1400 
 13 C        0.2080     5.2940     1.4010 C.3   1 <1>   0.1400 
 14 N        1.1520     6.2480     0.7600 N.am  1 <1>  -0.6600 
 15 C        1.7230     7.2940     1.4610 C.2   1 <1>   0.6160 
 16 O        1.2680     7.5860     2.5530 O.2   1 <1>  -0.5700 
 17 C        2.7870     8.0920     0.9280 C.2   1 <1>   0.0290 
 18 C        4.0690     7.4910     0.7410 C.2   1 <1>   0.6160 
 19 C        2.6250     9.4170     0.6050 C.2   1 <1>  -0.1500 
 20 O        4.3420     6.3280     1.0010 O.2   1 <1>  -0.5700 
 21 N        5.0770     8.2590     0.2240 N.am  1 <1>  -0.5390 
 22 C        3.6950    10.1710     0.0740 C.2   1 <1>  -0.1380 
 23 C        4.9130     9.5790    -0.1040 C.2   1 <1>  -0.0290 
 24 C        3.4470    11.6340    -0.2700 C.3   1 <1>  -0.0220 
 25 C        6.1260    10.3100    -0.6620 C.3   1 <1>  -0.0220 
 26 C        4.5390    12.2080    -1.1830 C.3   1 <1>  -0.1600 
 27 C        5.9330    11.8330    -0.6660 C.3   1 <1>  -0.1600 
 28 H        4.3330    -0.0560     0.4070 H     1 <1>   0.1500 
 29 H       -0.7670     0.2050    -0.9870 H     1 <1>   0.0800 
 30 H       -0.1580     1.0920    -2.3660 H     1 <1>   0.0800 
 31 H        3.7200     2.5270     0.8100 H     1 <1>   0.1500 
 32 H       -1.1930     2.2210     0.2570 H     1 <1>   0.0800 
 33 H       -1.7950     2.5460    -1.3510 H     1 <1>   0.0800 
 34 H        2.1810     4.2720    -1.8060 H     1 <1>   0.0800 
 35 H        2.9950     4.5300    -0.2990 H     1 <1>   0.0800 
 36 H        1.7100     3.8780     1.9100 H     1 <1>   0.0800 
 37 H        0.1370     3.1770     1.7760 H     1 <1>   0.0800 
 38 H        0.5200     5.9860    -1.2270 H     1 <1>   0.0800 
 39 H        2.1220     6.6540    -1.0930 H     1 <1>   0.0800 
 40 H        0.0320     5.5580     2.4290 H     1 <1>   0.0800 
 41 H       -0.7340     5.3250     0.8800 H     1 <1>   0.0800 
 42 H        1.6730     9.8960     0.7580 H     1 <1>   0.1500 
 43 H        5.9680     7.7740     0.1200 H     1 <1>   0.3700 
 44 H        3.4150    12.1980     0.6460 H     1 <1>   0.0800 
 45 H        2.4930    11.7380    -0.7570 H     1 <1>   0.0800 
 46 H        6.2940     9.9690    -1.6690 H     1 <1>   0.0800 
 47 H        6.9970    10.0700    -0.0790 H     1 <1>   0.0800 
 48 H        4.4410    13.2780    -1.2320 H     1 <1>   0.0800 
 49 H        4.4130    11.8170    -2.1780 H     1 <1>   0.0800 
 50 H        6.6900    12.2900    -1.2790 H     1 <1>   0.0800 
 51 H        6.0480    12.2060     0.3380 H     1 <1>   0.0800 
@<TRIPOS>BOND
  1   1   2  1   
  2   1   3  1   
  3   2   4  2   
  4   2   5  1   
  5   3   6  2   
  6   3  28  1   
  7   4   6  1   
  8   4   7  1   
  9   5   8  1   
 10   5  29  1   
 11   5  30  1   
 12   6  31  1   
 13   7   9  1   
 14   7  10  1   
 15   7  11  1   
 16   8   9  1   
 17   8  32  1   
 18   8  33  1   
 19  10  12  1   
 20  10  34  1   
 21  10  35  1   
 22  11  13  1   
 23  11  36  1   
 24  11  37  1   
 25  12  14  1   
 26  12  38  1   
 27  12  39  1   
 28  13  14  1   
 29  13  40  1   
 30  13  41  1   
 31  14  15  am  
 32  15  16  2   
 33  15  17  1   
 34  17  18  1   
 35  17  19  2   
 36  18  20  2   
 37  18  21  am  
 38  19  22  1   
 39  19  42  1   
 40  21  23  1   
 41  21  43  1   
 42  22  23  2   
 43  22  24  1   
 44  23  25  1   
 45  24  26  1   
 46  24  44  1   
 47  24  45  1   
 48  25  27  1   
 49  25  46  1   
 50  25  47  1   
 51  26  27  1   
 52  26  48  1   
 53  26  49  1   
 54  27  50  1   
 55  27  51  1   
@<TRIPOS>SUBSTRUCTURE
  1 ****  12 GROUP 4 **** **** 0

# MOE 2024.06 (io_trps.svl 2023.06)
