@<TRIPOS>MOLECULE
NONAME
45 48 1 0 0 
SMALL
USER_CHARGES


@<TRIPOS>ATOM
  1 O       -1.9280     0.5780    -1.9590 O.2   1 <1>  -0.5700 
  2 C       -1.7920     0.6810    -0.7550 C.2   1 <1>   0.5440 
  3 N       -1.7840    -0.4670    -0.0160 N.am  1 <1>  -0.7300 
  4 C       -1.6540     1.9830    -0.1240 C.ar  1 <1>   0.0860 
  5 C       -1.9070    -1.8400    -0.5610 C.3   1 <1>   0.2200 
  6 C       -1.2630     3.0980    -0.8700 C.ar  1 <1>  -0.1500 
  7 C       -1.9030     2.1800     1.2400 C.ar  1 <1>  -0.1500 
  8 C       -3.3060    -2.3990    -0.3410 C.3   1 <1>  -0.0800 
  9 C       -1.0920    -2.7860     0.3100 C.3   1 <1>   0.1200 
 10 C       -1.1200     4.3420    -0.2880 C.ar  1 <1>   0.0820 
 11 C       -1.7680     3.4240     1.8320 C.ar  1 <1>  -0.1500 
 12 C       -3.2410    -2.9410     1.0920 C.3   1 <1>   0.1200 
 13 C       -4.4690    -1.4230    -0.5990 C.3   1 <1>  -0.0160 
 14 O       -1.8860    -3.0160     1.4350 O.3   1 <1>  -0.5600 
 15 O       -0.7170     5.3860    -1.0570 O.3   1 <1>  -0.3630 
 16 C       -1.3820     4.5120     1.0720 C.ar  1 <1>   0.0820 
 17 C       -5.8110    -2.1170    -0.4230 C.ar  1 <1>  -0.1430 
 18 C       -0.2650     6.5440    -0.3810 C.3   1 <1>   0.1200 
 19 O       -1.2740     5.7240     1.6630 O.3   1 <1>  -0.3630 
 20 C       -6.5550    -1.9950     0.7330 C.ar  1 <1>  -0.1500 
 21 C       -6.3520    -2.9090    -1.4150 C.ar  1 <1>  -0.1500 
 22 C       -1.1770     6.8530     0.8140 C.3   1 <1>   0.1200 
 23 C       -7.7670    -2.6570     0.8400 C.ar  1 <1>   0.1600 
 24 C       -7.5740    -3.5280    -1.2070 C.ar  1 <1>   0.1600 
 25 N       -8.2930    -3.4230    -0.1020 N.ar  1 <1>  -0.6200 
 26 H       -1.6410    -0.4390     0.9950 H     1 <1>   0.3700 
 27 H       -1.6030    -1.8710    -1.5940 H     1 <1>   0.0800 
 28 H       -1.0650     2.9900    -1.9220 H     1 <1>   0.1500 
 29 H       -2.2150     1.3540     1.8520 H     1 <1>   0.1500 
 30 H       -3.4280    -3.2430    -0.9970 H     1 <1>   0.0800 
 31 H       -0.1460    -2.3700     0.6080 H     1 <1>   0.0800 
 32 H       -0.9400    -3.7290    -0.1860 H     1 <1>   0.0800 
 33 H       -1.9640     3.5610     2.8800 H     1 <1>   0.1500 
 34 H       -3.6770    -3.9220     1.1670 H     1 <1>   0.0800 
 35 H       -3.7160    -2.2760     1.7910 H     1 <1>   0.0800 
 36 H       -4.3950    -1.0370    -1.6010 H     1 <1>   0.0800 
 37 H       -4.4140    -0.5840     0.0720 H     1 <1>   0.0800 
 38 H        0.7410     6.3660    -0.0480 H     1 <1>   0.0800 
 39 H       -0.2650     7.3580    -1.0830 H     1 <1>   0.0800 
 40 H       -6.2060    -1.3920     1.5510 H     1 <1>   0.1500 
 41 H       -5.8370    -3.0490    -2.3480 H     1 <1>   0.1500 
 42 H       -2.1670     7.1010     0.4740 H     1 <1>   0.0800 
 43 H       -0.7870     7.6710     1.3930 H     1 <1>   0.0800 
 44 H       -8.3330    -2.5510     1.7490 H     1 <1>   0.1500 
 45 H       -7.9810    -4.1420    -1.9930 H     1 <1>   0.1500 
@<TRIPOS>BOND
  1   1   2  2   
  2   2   3  am  
  3   2   4  1   
  4   3   5  1   
  5   3  26  1   
  6   4   6  ar  
  7   4   7  ar  
  8   5   8  1   
  9   5   9  1   
 10   5  27  1   
 11   6  10  ar  
 12   6  28  1   
 13   7  11  ar  
 14   7  29  1   
 15   8  12  1   
 16   8  13  1   
 17   8  30  1   
 18   9  14  1   
 19   9  31  1   
 20   9  32  1   
 21  10  15  1   
 22  10  16  ar  
 23  11  16  ar  
 24  11  33  1   
 25  12  14  1   
 26  12  34  1   
 27  12  35  1   
 28  13  17  1   
 29  13  36  1   
 30  13  37  1   
 31  15  18  1   
 32  16  19  1   
 33  17  20  ar  
 34  17  21  ar  
 35  18  22  1   
 36  18  38  1   
 37  18  39  1   
 38  19  22  1   
 39  20  23  ar  
 40  20  40  1   
 41  21  24  ar  
 42  21  41  1   
 43  22  42  1   
 44  22  43  1   
 45  23  25  ar  
 46  23  44  1   
 47  24  25  ar  
 48  24  45  1   
@<TRIPOS>SUBSTRUCTURE
  1 ****   2 GROUP 4 **** **** 0

# MOE 2024.06 (io_trps.svl 2023.06)
