@<TRIPOS>MOLECULE
NONAME
46 48 1 0 0 
SMALL
USER_CHARGES


@<TRIPOS>ATOM
  1 CL      -1.7420    -0.6450     1.6790 Cl    1 <1>  -0.1770 
  2 C       -2.4180     0.4660     0.5120 C.ar  1 <1>   0.1770 
  3 C       -3.1570     0.0020    -0.5790 C.ar  1 <1>   0.0860 
  4 C       -2.1850     1.8130     0.7210 C.ar  1 <1>  -0.1500 
  5 C       -3.4420    -1.4010    -0.8060 C.2   1 <1>   0.5440 
  6 C       -3.6310     0.9640    -1.4730 C.ar  1 <1>  -0.1500 
  7 C       -2.6820     2.7430    -0.1740 C.ar  1 <1>  -0.1500 
  8 O       -3.3450    -1.8670    -1.9230 O.2   1 <1>  -0.5700 
  9 N       -3.9250    -2.2340     0.1790 N.am  1 <1>  -0.6600 
 10 C       -3.4030     2.3140    -1.2740 C.ar  1 <1>  -0.1500 
 11 C       -4.9260    -1.7850     1.1880 C.3   1 <1>   0.1400 
 12 C       -3.8540    -3.7150     0.0220 C.3   1 <1>   0.1400 
 13 C       -6.3290    -2.3470     0.8510 C.3   1 <1>   0.4230 
 14 C       -5.2390    -4.2630    -0.3570 C.3   1 <1>   0.3430 
 15 N       -6.3100    -3.8540     0.6360 N.4   1 <1>  -0.9590 
 16 C       -6.9210    -1.6240    -0.3810 C.3   1 <1>   0.1200 
 17 C       -7.6900    -4.3110     0.2420 C.3   1 <1>   0.4230 
 18 O       -8.1940    -2.1250    -0.6710 O.3   1 <1>  -0.5600 
 19 C       -8.2380    -3.4950    -0.9550 C.3   1 <1>   0.1200 
 20 C       -7.7080    -5.8280    -0.0090 C.3   1 <1>  -0.1600 
 21 C       -9.1340    -6.4010    -0.0350 C.3   1 <1>  -0.1600 
 22 C       -9.1060    -7.9220    -0.2040 C.3   1 <1>  -0.2400 
 23 H       -1.6130     2.1310     1.5750 H     1 <1>   0.1500 
 24 H       -4.1830     0.6440    -2.3420 H     1 <1>   0.1500 
 25 H       -2.5050     3.7940    -0.0190 H     1 <1>   0.1500 
 26 H       -3.7820     3.0350    -1.9800 H     1 <1>   0.1500 
 27 H       -4.6210    -2.1250     2.1620 H     1 <1>   0.0800 
 28 H       -4.9690    -0.7100     1.2230 H     1 <1>   0.0800 
 29 H       -3.1420    -3.9750    -0.7450 H     1 <1>   0.0800 
 30 H       -3.5150    -4.1590     0.9410 H     1 <1>   0.0800 
 31 H       -6.9760    -2.1210     1.6830 H     1 <1>   0.0800 
 32 H       -5.1810    -5.3370    -0.4170 H     1 <1>   0.0800 
 33 H       -5.4870    -3.8910    -1.3380 H     1 <1>   0.0800 
 34 H       -6.0830    -4.2910     1.5350 H     1 <1>   0.4500 
 35 H       -6.2950    -1.7420    -1.2500 H     1 <1>   0.0800 
 36 H       -7.0270    -0.5720    -0.1810 H     1 <1>   0.0800 
 37 H       -8.3520    -4.1210     1.0720 H     1 <1>   0.0800 
 38 H       -9.2670    -3.7470    -1.1400 H     1 <1>   0.0800 
 39 H       -7.6750    -3.6820    -1.8530 H     1 <1>   0.0800 
 40 H       -7.2320    -6.0570    -0.9470 H     1 <1>   0.0800 
 41 H       -7.1680    -6.3220     0.7800 H     1 <1>   0.0800 
 42 H       -9.6450    -6.1640     0.8830 H     1 <1>   0.0800 
 43 H       -9.6980    -5.9790    -0.8490 H     1 <1>   0.0800 
 44 H       -8.5820    -8.3900     0.6120 H     1 <1>   0.0800 
 45 H       -8.6260    -8.1960    -1.1280 H     1 <1>   0.0800 
 46 H      -10.1120    -8.3080    -0.2210 H     1 <1>   0.0800 
@<TRIPOS>BOND
  1   1   2  1   
  2   2   3  ar  
  3   2   4  ar  
  4   3   5  1   
  5   3   6  ar  
  6   4   7  ar  
  7   4  23  1   
  8   5   8  2   
  9   5   9  am  
 10   6  10  ar  
 11   6  24  1   
 12   7  10  ar  
 13   7  25  1   
 14   9  11  1   
 15   9  12  1   
 16  10  26  1   
 17  11  13  1   
 18  11  27  1   
 19  11  28  1   
 20  12  14  1   
 21  12  29  1   
 22  12  30  1   
 23  13  15  1   
 24  13  16  1   
 25  13  31  1   
 26  14  15  1   
 27  14  32  1   
 28  14  33  1   
 29  15  17  1   
 30  15  34  1   
 31  16  18  1   
 32  16  35  1   
 33  16  36  1   
 34  17  19  1   
 35  17  20  1   
 36  17  37  1   
 37  18  19  1   
 38  19  38  1   
 39  19  39  1   
 40  20  21  1   
 41  20  40  1   
 42  20  41  1   
 43  21  22  1   
 44  21  42  1   
 45  21  43  1   
 46  22  44  1   
 47  22  45  1   
 48  22  46  1   
@<TRIPOS>SUBSTRUCTURE
  1 ****   9 GROUP 4 **** **** 0

# MOE 2024.06 (io_trps.svl 2023.06)
