@<TRIPOS>MOLECULE
NONAME
44 46 1 0 0 
SMALL
USER_CHARGES


@<TRIPOS>ATOM
  1 CL       0.4750     1.0900    -1.6600 Cl    1 <1>  -0.1770 
  2 C        1.9050     1.5950    -0.7970 C.ar  1 <1>   0.1770 
  3 C        1.9660     2.8750    -0.2770 C.ar  1 <1>  -0.1500 
  4 C        2.9550     0.7080    -0.6490 C.ar  1 <1>  -0.1500 
  5 C        3.1010     3.2820     0.4080 C.ar  1 <1>  -0.1440 
  6 C        4.0880     1.1130     0.0360 C.ar  1 <1>  -0.1500 
  7 C        4.1580     2.3940     0.5610 C.ar  1 <1>  -0.1500 
  8 C        3.1930     4.6860     0.9820 C.3   1 <1>  -0.0160 
  9 C        3.8580     5.6320    -0.0280 C.3   1 <1>  -0.0990 
 10 C        4.0660     7.0450     0.4990 C.2   1 <1>   0.5690 
 11 O        3.4580     7.3750     1.4930 O.2   1 <1>  -0.5700 
 12 N        4.9240     7.9100    -0.1380 N.am  1 <1>  -0.6600 
 13 C        5.4070     9.1290     0.5890 C.3   1 <1>   0.1400 
 14 C        5.5720     7.6300    -1.4600 C.3   1 <1>   0.1400 
 15 C        6.9070     9.1020     0.9690 C.3   1 <1>   0.2200 
 16 C        7.1010     7.4330    -1.4110 C.3   1 <1>  -0.0190 
 17 N        7.7520     9.5090    -0.1900 N.am  1 <1>  -0.6600 
 18 C        7.4200     7.7860     1.6120 C.3   1 <1>   0.1200 
 19 C        7.8190     8.7610    -1.3290 C.2   1 <1>   0.5690 
 20 C        7.6670     6.4480    -0.3700 C.3   1 <1>   0.1200 
 21 C        8.4710    10.8090    -0.0550 C.3   1 <1>   0.0600 
 22 O        7.1300     6.6060     0.9080 O.3   1 <1>  -0.5600 
 23 O        8.4450     9.1210    -2.2990 O.2   1 <1>  -0.5700 
 24 H        1.1310     3.5390    -0.4100 H     1 <1>   0.1500 
 25 H        2.8820    -0.2810    -1.0620 H     1 <1>   0.1500 
 26 H        4.9130     0.4340     0.1630 H     1 <1>   0.1500 
 27 H        5.0430     2.7010     1.0920 H     1 <1>   0.1500 
 28 H        2.2090     5.0480     1.2270 H     1 <1>   0.0800 
 29 H        3.7690     4.6700     1.8920 H     1 <1>   0.0800 
 30 H        3.2560     5.6810    -0.9160 H     1 <1>   0.0800 
 31 H        4.8170     5.2200    -0.2830 H     1 <1>   0.0800 
 32 H        5.2080     9.9990    -0.0100 H     1 <1>   0.0800 
 33 H        4.8490     9.2480     1.5010 H     1 <1>   0.0800 
 34 H        5.1330     6.7590    -1.9080 H     1 <1>   0.0800 
 35 H        5.3540     8.4520    -2.1210 H     1 <1>   0.0800 
 36 H        7.0300     9.8610     1.7200 H     1 <1>   0.0800 
 37 H        7.3730     7.0270    -2.3680 H     1 <1>   0.0800 
 38 H        6.9530     7.6770     2.5750 H     1 <1>   0.0800 
 39 H        8.4830     7.8390     1.7640 H     1 <1>   0.0800 
 40 H        8.7380     6.5370    -0.3030 H     1 <1>   0.0800 
 41 H        7.4330     5.4430    -0.6740 H     1 <1>   0.0800 
 42 H        9.1250    10.7770     0.7990 H     1 <1>   0.0800 
 43 H        7.7600    11.6070     0.0680 H     1 <1>   0.0800 
 44 H        9.0640    11.0120    -0.9300 H     1 <1>   0.0800 
@<TRIPOS>BOND
  1   1   2  1   
  2   2   3  ar  
  3   2   4  ar  
  4   3   5  ar  
  5   3  24  1   
  6   4   6  ar  
  7   4  25  1   
  8   5   7  ar  
  9   5   8  1   
 10   6   7  ar  
 11   6  26  1   
 12   7  27  1   
 13   8   9  1   
 14   8  28  1   
 15   8  29  1   
 16   9  10  1   
 17   9  30  1   
 18   9  31  1   
 19  10  11  2   
 20  10  12  am  
 21  12  13  1   
 22  12  14  1   
 23  13  15  1   
 24  13  32  1   
 25  13  33  1   
 26  14  16  1   
 27  14  34  1   
 28  14  35  1   
 29  15  17  1   
 30  15  18  1   
 31  15  36  1   
 32  16  19  1   
 33  16  20  1   
 34  16  37  1   
 35  17  19  am  
 36  17  21  1   
 37  18  22  1   
 38  18  38  1   
 39  18  39  1   
 40  19  23  2   
 41  20  22  1   
 42  20  40  1   
 43  20  41  1   
 44  21  42  1   
 45  21  43  1   
 46  21  44  1   
@<TRIPOS>SUBSTRUCTURE
  1 ****   9 GROUP 4 **** **** 0

# MOE 2024.06 (io_trps.svl 2023.06)
