@<TRIPOS>MOLECULE
NONAME
49 51 1 0 0 
SMALL
USER_CHARGES


@<TRIPOS>ATOM
  1 F        0.1920    -0.7680     1.1040 F     1 <1>  -0.1900 
  2 C       -0.5040    -1.8040     0.7060 C.ar  1 <1>   0.1900 
  3 C        0.0670    -2.8350    -0.0490 C.ar  1 <1>   0.0820 
  4 C       -1.8360    -1.8250     1.0680 C.ar  1 <1>  -0.1500 
  5 O        1.3630    -2.9270    -0.4660 O.3   1 <1>  -0.3630 
  6 C       -0.7550    -3.8860    -0.4240 C.ar  1 <1>  -0.1500 
  7 C       -2.6270    -2.8880     0.6750 C.ar  1 <1>  -0.1500 
  8 C        2.3500    -1.9800    -0.1230 C.3   1 <1>   0.0400 
  9 C       -2.1070    -3.9450    -0.0760 C.ar  1 <1>   0.0530 
 10 C       -2.9270    -5.0610    -0.4890 C.2   1 <1>   0.0870 
 11 O       -2.5830    -5.7880    -1.5270 O.3   1 <1>  -0.0190 
 12 C       -4.0810    -5.5900    -0.0130 C.2   1 <1>  -0.2330 
 13 N       -3.4290    -6.7550    -1.7750 N.2   1 <1>  -0.4100 
 14 C       -4.3440    -6.6540    -0.8760 C.2   1 <1>   0.3720 
 15 C       -4.8800    -5.2090     1.1020 C.2   1 <1>   1.0330 
 16 N       -5.4340    -7.5260    -0.8260 N.pl3 1 <1>  -0.8210 
 17 O       -5.7460    -4.3250     0.9800 O.co2 1 <1>  -0.9000 
 18 O       -4.7210    -5.7430     2.2130 O.co2 1 <1>  -0.9000 
 19 C       -6.7420    -6.8480    -1.0100 C.3   1 <1>   0.2090 
 20 C       -5.4300    -8.3940     0.3760 C.3   1 <1>   0.2090 
 21 C       -7.8320    -7.9040    -1.2030 C.3   1 <1>  -0.1600 
 22 C       -6.4910    -9.4850     0.2160 C.3   1 <1>  -0.1600 
 23 C       -7.8950    -8.8740     0.0010 C.3   1 <1>  -0.0800 
 24 C       -9.0310    -9.9330    -0.1000 C.3   1 <1>   0.2800 
 25 O      -10.2210    -9.2680    -0.2670 O.3   1 <1>  -0.6800 
 26 C       -9.1910   -10.7370     1.1930 C.3   1 <1>  -0.2400 
 27 C       -8.9080   -10.8820    -1.2950 C.3   1 <1>  -0.2400 
 28 H       -2.2530    -1.0220     1.6480 H     1 <1>   0.1500 
 29 H       -0.3280    -4.6860    -1.0010 H     1 <1>   0.1500 
 30 H       -3.6670    -2.8930     0.9560 H     1 <1>   0.1500 
 31 H        3.2840    -2.3010    -0.5470 H     1 <1>   0.0800 
 32 H        2.4320    -1.9330     0.9490 H     1 <1>   0.0800 
 33 H        2.0740    -1.0240    -0.5320 H     1 <1>   0.0800 
 34 H       -6.6920    -6.2040    -1.8720 H     1 <1>   0.0800 
 35 H       -6.9730    -6.2440    -0.1490 H     1 <1>   0.0800 
 36 H       -5.6420    -7.8110     1.2560 H     1 <1>   0.0800 
 37 H       -4.4550    -8.8370     0.4920 H     1 <1>   0.0800 
 38 H       -7.6190    -8.4390    -2.1100 H     1 <1>   0.0800 
 39 H       -8.7730    -7.4000    -1.3290 H     1 <1>   0.0800 
 40 H       -6.4750   -10.0920     1.1010 H     1 <1>   0.0800 
 41 H       -6.2140   -10.1000    -0.6210 H     1 <1>   0.0800 
 42 H       -8.1010    -8.2770     0.8740 H     1 <1>   0.0800 
 43 H      -10.3130    -8.6010     0.4360 H     1 <1>   0.4000 
 44 H       -9.2600   -10.0820     2.0420 H     1 <1>   0.0800 
 45 H       -8.3500   -11.3890     1.3360 H     1 <1>   0.0800 
 46 H      -10.0760   -11.3470     1.1450 H     1 <1>   0.0800 
 47 H       -8.8890   -10.3330    -2.2180 H     1 <1>   0.0800 
 48 H       -9.7430   -11.5590    -1.3170 H     1 <1>   0.0800 
 49 H       -8.0080   -11.4630    -1.2250 H     1 <1>   0.0800 
@<TRIPOS>BOND
  1   1   2  1   
  2   2   3  ar  
  3   2   4  ar  
  4   3   5  1   
  5   3   6  ar  
  6   4   7  ar  
  7   4  28  1   
  8   5   8  1   
  9   6   9  ar  
 10   6  29  1   
 11   7   9  ar  
 12   7  30  1   
 13   8  31  1   
 14   8  32  1   
 15   8  33  1   
 16   9  10  1   
 17  10  11  1   
 18  10  12  2   
 19  11  13  1   
 20  12  14  1   
 21  12  15  1   
 22  13  14  2   
 23  14  16  1   
 24  15  17  ar  
 25  15  18  ar  
 26  16  19  1   
 27  16  20  1   
 28  19  21  1   
 29  19  34  1   
 30  19  35  1   
 31  20  22  1   
 32  20  36  1   
 33  20  37  1   
 34  21  23  1   
 35  21  38  1   
 36  21  39  1   
 37  22  23  1   
 38  22  40  1   
 39  22  41  1   
 40  23  24  1   
 41  23  42  1   
 42  24  25  1   
 43  24  26  1   
 44  24  27  1   
 45  25  43  1   
 46  26  44  1   
 47  26  45  1   
 48  26  46  1   
 49  27  47  1   
 50  27  48  1   
 51  27  49  1   
@<TRIPOS>SUBSTRUCTURE
  1 ****  12 GROUP 4 **** **** 0

# MOE 2024.06 (io_trps.svl 2023.06)
