@<TRIPOS>MOLECULE
NONAME
47 49 1 0 0 
SMALL
USER_CHARGES


@<TRIPOS>ATOM
  1 N       -0.6690     1.4390     1.1970 N.ar  1 <1>  -0.3100 
  2 N       -1.4630     0.4230     0.9620 N.ar  1 <1>  -0.3100 
  3 C       -1.0020     2.6620     0.7830 C.ar  1 <1>   0.4100 
  4 C       -2.6220     0.5920     0.3110 C.ar  1 <1>   0.3100 
  5 N       -0.0990     3.6550     1.0650 N.pl3 1 <1>  -0.8690 
  6 C       -2.1850     2.9120     0.1140 C.ar  1 <1>  -0.1500 
  7 C       -3.4610    -0.5650     0.0820 C.ar  1 <1>   0.0000 
  8 C       -3.0170     1.8470    -0.1270 C.ar  1 <1>  -0.1500 
  9 C        0.2950     4.6590     0.0640 C.3   1 <1>   0.2090 
 10 C       -4.0430    -0.8090    -1.1630 C.ar  1 <1>  -0.1500 
 11 C       -3.7200    -1.4790     1.1030 C.ar  1 <1>  -0.1500 
 12 C        1.7710     4.9900     0.2630 C.3   1 <1>  -0.1600 
 13 C       -4.8550    -1.9080    -1.3750 C.ar  1 <1>  -0.1500 
 14 C       -4.5300    -2.5810     0.8970 C.ar  1 <1>  -0.1500 
 15 C        2.2340     6.0570    -0.7360 C.3   1 <1>   0.0960 
 16 C       -5.1020    -2.7960    -0.3440 C.ar  1 <1>  -0.1500 
 17 N        3.6510     6.4120    -0.4980 N.pl3 1 <1>   0.0480 
 18 C        4.1990     7.5480     0.0140 C.2   1 <1>   0.0060 
 19 C        4.7000     5.6120    -0.7640 C.2   1 <1>  -0.3020 
 20 N        5.4930     7.4980     0.0870 N.2   1 <1>  -0.5650 
 21 C        3.3730     8.7590     0.4600 C.3   1 <1>   0.1000 
 22 C        5.8090     6.2880    -0.4010 C.2   1 <1>   0.0770 
 23 C        4.1920    10.0570     0.4320 C.3   1 <1>  -0.2400 
 24 C        2.8140     8.5340     1.8690 C.3   1 <1>  -0.2400 
 25 H        0.6870     3.2950     1.6160 H     1 <1>   0.4000 
 26 H       -2.4390     3.9080    -0.1920 H     1 <1>   0.1500 
 27 H       -3.9550     1.9780    -0.6330 H     1 <1>   0.1500 
 28 H       -0.3070     5.5430     0.1980 H     1 <1>   0.0800 
 29 H        0.1310     4.2700    -0.9270 H     1 <1>   0.0800 
 30 H       -3.8530    -0.1340    -1.9790 H     1 <1>   0.1500 
 31 H       -3.2760    -1.3210     2.0710 H     1 <1>   0.1500 
 32 H        2.3540     4.0960     0.1230 H     1 <1>   0.0800 
 33 H        1.9190     5.3530     1.2650 H     1 <1>   0.0800 
 34 H       -5.2940    -2.0760    -2.3430 H     1 <1>   0.1500 
 35 H       -4.7150    -3.2700     1.7020 H     1 <1>   0.1500 
 36 H        1.6250     6.9360    -0.6440 H     1 <1>   0.0800 
 37 H        2.1440     5.6870    -1.7420 H     1 <1>   0.0800 
 38 H       -5.7340    -3.6530    -0.5060 H     1 <1>   0.1500 
 39 H        4.6080     4.6280    -1.1850 H     1 <1>   0.1500 
 40 H        2.5540     8.8910    -0.2240 H     1 <1>   0.0800 
 41 H        6.8340     5.9630    -0.4650 H     1 <1>   0.1500 
 42 H        5.0100     9.9980     1.1280 H     1 <1>   0.0800 
 43 H        3.5770    10.9010     0.6880 H     1 <1>   0.0800 
 44 H        4.5980    10.2110    -0.5520 H     1 <1>   0.0800 
 45 H        3.6230     8.3840     2.5620 H     1 <1>   0.0800 
 46 H        2.1820     7.6660     1.8910 H     1 <1>   0.0800 
 47 H        2.2390     9.3850     2.1870 H     1 <1>   0.0800 
@<TRIPOS>BOND
  1   1   2  ar  
  2   1   3  ar  
  3   2   4  ar  
  4   3   5  1   
  5   3   6  ar  
  6   4   7  1   
  7   4   8  ar  
  8   5   9  1   
  9   5  25  1   
 10   6   8  ar  
 11   6  26  1   
 12   7  10  ar  
 13   7  11  ar  
 14   8  27  1   
 15   9  12  1   
 16   9  28  1   
 17   9  29  1   
 18  10  13  ar  
 19  10  30  1   
 20  11  14  ar  
 21  11  31  1   
 22  12  15  1   
 23  12  32  1   
 24  12  33  1   
 25  13  16  ar  
 26  13  34  1   
 27  14  16  ar  
 28  14  35  1   
 29  15  17  1   
 30  15  36  1   
 31  15  37  1   
 32  16  38  1   
 33  17  18  1   
 34  17  19  1   
 35  18  20  2   
 36  18  21  1   
 37  19  22  2   
 38  19  39  1   
 39  20  22  1   
 40  21  23  1   
 41  21  24  1   
 42  21  40  1   
 43  22  41  1   
 44  23  42  1   
 45  23  43  1   
 46  23  44  1   
 47  24  45  1   
 48  24  46  1   
 49  24  47  1   
@<TRIPOS>SUBSTRUCTURE
  1 ****   5 GROUP 4 **** **** 0

# MOE 2024.06 (io_trps.svl 2023.06)
