@<TRIPOS>MOLECULE
NONAME
58 61 1 0 0 
SMALL
USER_CHARGES


@<TRIPOS>ATOM
  1 O        2.5070     0.0410    -1.1840 O.3   1 <1>  -0.6800 
  2 C        2.8960    -0.7550    -0.1160 C.3   1 <1>   0.4240 
  3 C        1.7230    -1.7100     0.2000 C.ar  1 <1>   0.1660 
  4 C        3.2060     0.1950     1.0530 C.3   1 <1>  -0.1600 
  5 C        4.1770    -1.4780    -0.5580 C.3   1 <1>  -0.1600 
  6 N        0.5840    -1.5060    -0.4610 N.ar  1 <1>  -0.6200 
  7 C        1.8820    -2.7220     1.1400 C.ar  1 <1>  -0.1500 
  8 C        4.5590     0.9070     0.9300 C.3   1 <1>   0.3430 
  9 C        5.3000    -0.5130    -0.9660 C.3   1 <1>   0.3430 
 10 C       -0.4120    -2.3320    -0.1770 C.ar  1 <1>   0.1600 
 11 C        0.8350    -3.5720     1.4220 C.ar  1 <1>  -0.1500 
 12 N        5.0230     0.8740    -0.4870 N.4   1 <1>  -0.9590 
 13 C       -0.3450    -3.3680     0.7410 C.ar  1 <1>  -0.1430 
 14 C        6.1070     1.8400    -0.8180 C.3   1 <1>   0.4860 
 15 C       -1.5410    -4.2680     1.0040 C.3   1 <1>  -0.0970 
 16 C        5.6870     3.2330    -0.4130 C.ar  1 <1>  -0.1430 
 17 C        4.6620     3.8950    -1.0490 C.ar  1 <1>   0.1600 
 18 C        6.3080     3.8920     0.6210 C.ar  1 <1>   0.1600 
 19 N        4.2720     5.0900    -0.6770 N.ar  1 <1>  -0.6200 
 20 N        5.9330     5.0870     1.0100 N.ar  1 <1>  -0.6200 
 21 C        4.9290     5.6350     0.3390 C.ar  1 <1>   0.4770 
 22 C        4.4920     7.0330     0.7930 C.3   1 <1>   0.0630 
 23 C        3.0400     7.0380     1.3120 C.3   1 <1>  -0.1600 
 24 C        4.6730     8.0820    -0.3230 C.3   1 <1>  -0.1600 
 25 C        2.6090     8.4380     1.7740 C.3   1 <1>  -0.1600 
 26 C        4.2420     9.4810     0.1400 C.3   1 <1>  -0.1600 
 27 C        2.7970     9.4720     0.6560 C.3   1 <1>  -0.1600 
 28 H        1.5620    -0.2250    -1.3420 H     1 <1>   0.4000 
 29 H        3.2120    -0.3570     1.9750 H     1 <1>   0.0800 
 30 H        2.4160     0.9210     1.1390 H     1 <1>   0.0800 
 31 H        3.9540    -2.1410    -1.3760 H     1 <1>   0.0800 
 32 H        4.5360    -2.0920     0.2470 H     1 <1>   0.0800 
 33 H        2.8120    -2.8580     1.6600 H     1 <1>   0.1500 
 34 H        5.2870     0.4180     1.5580 H     1 <1>   0.0800 
 35 H        4.4480     1.9250     1.2720 H     1 <1>   0.0800 
 36 H        5.3720    -0.5040    -2.0420 H     1 <1>   0.0800 
 37 H        6.2390    -0.8670    -0.5700 H     1 <1>   0.0800 
 38 H       -1.3360    -2.1720    -0.7060 H     1 <1>   0.1500 
 39 H        0.9350    -4.3620     2.1470 H     1 <1>   0.1500 
 40 H        4.1730     1.1460    -1.0220 H     1 <1>   0.4500 
 41 H        6.3050     1.8220    -1.8780 H     1 <1>   0.0800 
 42 H        7.0120     1.5680    -0.3000 H     1 <1>   0.0800 
 43 H       -2.2920    -4.1420     0.2450 H     1 <1>   0.0800 
 44 H       -1.9740    -4.0310     1.9600 H     1 <1>   0.0800 
 45 H       -1.2340    -5.2990     1.0100 H     1 <1>   0.0800 
 46 H        4.1380     3.4460    -1.8760 H     1 <1>   0.1500 
 47 H        7.1280     3.4410     1.1550 H     1 <1>   0.1500 
 48 H        5.1280     7.3220     1.6120 H     1 <1>   0.0800 
 49 H        2.9510     6.3460     2.1310 H     1 <1>   0.0800 
 50 H        2.3810     6.7080     0.5280 H     1 <1>   0.0800 
 51 H        4.0850     7.7970    -1.1780 H     1 <1>   0.0800 
 52 H        5.7050     8.1050    -0.6260 H     1 <1>   0.0800 
 53 H        3.1950     8.7280     2.6300 H     1 <1>   0.0800 
 54 H        1.5760     8.4150     2.0740 H     1 <1>   0.0800 
 55 H        4.3270    10.1730    -0.6790 H     1 <1>   0.0800 
 56 H        4.8980     9.8170     0.9250 H     1 <1>   0.0800 
 57 H        2.5390    10.4500     1.0230 H     1 <1>   0.0800 
 58 H        2.1310     9.2390    -0.1580 H     1 <1>   0.0800 
@<TRIPOS>BOND
  1   1   2  1   
  2   1  28  1   
  3   2   3  1   
  4   2   4  1   
  5   2   5  1   
  6   3   6  ar  
  7   3   7  ar  
  8   4   8  1   
  9   4  29  1   
 10   4  30  1   
 11   5   9  1   
 12   5  31  1   
 13   5  32  1   
 14   6  10  ar  
 15   7  11  ar  
 16   7  33  1   
 17   8  12  1   
 18   8  34  1   
 19   8  35  1   
 20   9  12  1   
 21   9  36  1   
 22   9  37  1   
 23  10  13  ar  
 24  10  38  1   
 25  11  13  ar  
 26  11  39  1   
 27  12  14  1   
 28  12  40  1   
 29  13  15  1   
 30  14  16  1   
 31  14  41  1   
 32  14  42  1   
 33  15  43  1   
 34  15  44  1   
 35  15  45  1   
 36  16  17  ar  
 37  16  18  ar  
 38  17  19  ar  
 39  17  46  1   
 40  18  20  ar  
 41  18  47  1   
 42  19  21  ar  
 43  20  21  ar  
 44  21  22  1   
 45  22  23  1   
 46  22  24  1   
 47  22  48  1   
 48  23  25  1   
 49  23  49  1   
 50  23  50  1   
 51  24  26  1   
 52  24  51  1   
 53  24  52  1   
 54  25  27  1   
 55  25  53  1   
 56  25  54  1   
 57  26  27  1   
 58  26  55  1   
 59  26  56  1   
 60  27  57  1   
 61  27  58  1   
@<TRIPOS>SUBSTRUCTURE
  1 ****   8 GROUP 4 **** **** 0

# MOE 2024.06 (io_trps.svl 2023.06)
