@<TRIPOS>MOLECULE
NONAME
45 47 1 0 0 
SMALL
USER_CHARGES


@<TRIPOS>ATOM
  1 F       -1.0260    -0.3420    -2.1550 F     1 <1>  -0.3400 
  2 C       -1.7710    -1.1480    -1.4130 C.3   1 <1>   1.1640 
  3 F       -2.3910    -1.9700    -2.2550 F     1 <1>  -0.3400 
  4 F       -0.9350    -1.9080    -0.7190 F     1 <1>  -0.3400 
  5 C       -2.7840    -0.4310    -0.5000 C.ar  1 <1>  -0.1440 
  6 C       -3.5900    -1.1330     0.4070 C.ar  1 <1>  -0.1440 
  7 C       -2.9130     0.9550    -0.5700 C.ar  1 <1>  -0.1500 
  8 C       -4.4790    -0.4410     1.2180 C.ar  1 <1>  -0.1500 
  9 C       -3.5470    -2.6510     0.5690 C.3   1 <1>   0.4870 
 10 C       -3.8070     1.6310     0.2380 C.ar  1 <1>  -0.1500 
 11 C       -4.5910     0.9330     1.1340 C.ar  1 <1>  -0.1500 
 12 N       -4.2620    -3.3150    -0.5610 N.4   1 <1>  -0.9590 
 13 C       -5.7070    -2.9230    -0.6110 C.3   1 <1>   0.3430 
 14 C       -4.2370    -4.7980    -0.3680 C.3   1 <1>   0.3430 
 15 C       -6.4490    -3.9830     0.2060 C.3   1 <1>   0.2000 
 16 C       -5.6840    -5.2590    -0.1460 C.3   1 <1>  -0.0800 
 17 O       -6.2930    -3.6860     1.5590 O.3   1 <1>  -0.6800 
 18 C       -5.7900    -6.4150     0.8670 C.3   1 <1>   0.0210 
 19 C       -5.0230    -7.6320     0.3870 C.2   1 <1>   0.1080 
 20 N       -3.7440    -7.6180     0.1640 N.2   1 <1>  -0.7070 
 21 C       -5.5870    -8.8780     0.1400 C.2   1 <1>  -0.1500 
 22 N       -3.4540    -8.8790    -0.2240 N.pl3 1 <1>   0.3000 
 23 C       -4.5560    -9.6560    -0.2510 C.2   1 <1>  -0.3320 
 24 C       -4.5560   -11.1210    -0.6490 C.3   1 <1>  -0.0600 
 25 H       -2.3140     1.5350    -1.2550 H     1 <1>   0.1500 
 26 H       -5.0990    -0.9650     1.9290 H     1 <1>   0.1500 
 27 H       -4.0170    -2.9210     1.5020 H     1 <1>   0.0800 
 28 H       -2.5240    -2.9890     0.6090 H     1 <1>   0.0800 
 29 H       -3.8920     2.7030     0.1710 H     1 <1>   0.1500 
 30 H       -5.2840     1.4630     1.7670 H     1 <1>   0.1500 
 31 H       -3.7950    -3.0610    -1.4430 H     1 <1>   0.4500 
 32 H       -5.8850    -1.9340    -0.2260 H     1 <1>   0.0800 
 33 H       -6.0510    -2.9680    -1.6310 H     1 <1>   0.0800 
 34 H       -3.8180    -5.3000    -1.2260 H     1 <1>   0.0800 
 35 H       -3.6430    -5.0570     0.4940 H     1 <1>   0.0800 
 36 H       -7.5000    -4.0240    -0.0270 H     1 <1>   0.0800 
 37 H       -6.0490    -5.6170    -1.0940 H     1 <1>   0.0800 
 38 H       -6.9160    -4.2070     2.1100 H     1 <1>   0.4000 
 39 H       -6.8220    -6.6830     1.0090 H     1 <1>   0.0800 
 40 H       -5.3850    -6.1250     1.8200 H     1 <1>   0.0800 
 41 H       -6.6230    -9.1460     0.2480 H     1 <1>   0.1500 
 42 H       -2.5000    -9.1830    -0.4580 H     1 <1>   0.2700 
 43 H       -5.5520   -11.5210    -0.5880 H     1 <1>   0.0800 
 44 H       -3.9200   -11.6850     0.0100 H     1 <1>   0.0800 
 45 H       -4.2030   -11.2340    -1.6590 H     1 <1>   0.0800 
@<TRIPOS>BOND
  1   1   2  1   
  2   2   3  1   
  3   2   4  1   
  4   2   5  1   
  5   5   6  ar  
  6   5   7  ar  
  7   6   8  ar  
  8   6   9  1   
  9   7  10  ar  
 10   7  25  1   
 11   8  11  ar  
 12   8  26  1   
 13   9  12  1   
 14   9  27  1   
 15   9  28  1   
 16  10  11  ar  
 17  10  29  1   
 18  11  30  1   
 19  12  13  1   
 20  12  14  1   
 21  12  31  1   
 22  13  15  1   
 23  13  32  1   
 24  13  33  1   
 25  14  16  1   
 26  14  34  1   
 27  14  35  1   
 28  15  16  1   
 29  15  17  1   
 30  15  36  1   
 31  16  18  1   
 32  16  37  1   
 33  17  38  1   
 34  18  19  1   
 35  18  39  1   
 36  18  40  1   
 37  19  20  2   
 38  19  21  1   
 39  20  22  1   
 40  21  23  2   
 41  21  41  1   
 42  22  23  1   
 43  22  42  1   
 44  23  24  1   
 45  24  43  1   
 46  24  44  1   
 47  24  45  1   
@<TRIPOS>SUBSTRUCTURE
  1 ****  12 GROUP 4 **** **** 0

# MOE 2024.06 (io_trps.svl 2023.06)
