@<TRIPOS>MOLECULE
NONAME
40 42 1 0 0 
SMALL
USER_CHARGES


@<TRIPOS>ATOM
  1 O        0.7320     4.5220    -1.5160 O.2   1 <1>  -0.5700 
  2 C       -0.3050     4.0170    -1.1570 C.2   1 <1>   0.5690 
  3 N       -0.5010     3.4270     0.0390 N.am  1 <1>  -0.6600 
  4 C       -1.5660     4.0110    -1.9730 C.3   1 <1>  -0.0990 
  5 C       -1.8950     3.0080     0.2550 C.3   1 <1>   0.1400 
  6 C        0.5330     3.2880     1.1130 C.3   1 <1>   0.2010 
  7 C       -2.6430     3.5620    -0.9680 C.3   1 <1>  -0.1600 
  8 C        0.8610     4.6040     1.8170 C.2   1 <1>   0.5690 
  9 O        0.7670     4.6520     3.0230 O.2   1 <1>  -0.5700 
 10 N        1.2540     5.6630     1.0540 N.am  1 <1>  -0.4930 
 11 C        1.6150     6.9730     1.4480 C.2   1 <1>   0.0630 
 12 C        1.7010     7.5220     2.7280 C.2   1 <1>   0.1390 
 13 C        1.9590     7.9820     0.6240 C.2   1 <1>  -0.3020 
 14 N        2.0700     8.7700     2.7070 N.2   1 <1>  -0.7070 
 15 N        2.2280     9.0580     1.3990 N.pl3 1 <1>   0.3140 
 16 C        2.6810    10.3930     0.9520 C.3   1 <1>   0.2390 
 17 C        1.9250    10.8680    -0.2840 C.ar  1 <1>  -0.1440 
 18 C        0.5620    11.1160    -0.2110 C.ar  1 <1>  -0.1500 
 19 C        2.5880    11.0600    -1.4880 C.ar  1 <1>  -0.1500 
 20 C       -0.1300    11.5520    -1.3280 C.ar  1 <1>  -0.1500 
 21 C        1.8960    11.4970    -2.6040 C.ar  1 <1>  -0.1500 
 22 C        0.5370    11.7430    -2.5250 C.ar  1 <1>  -0.1500 
 23 H       -1.4600     3.3040    -2.7750 H     1 <1>   0.0800 
 24 H       -1.7670     4.9900    -2.3670 H     1 <1>   0.0800 
 25 H       -2.2790     3.4250     1.1710 H     1 <1>   0.0800 
 26 H       -1.9480     1.9330     0.2870 H     1 <1>   0.0800 
 27 H        1.4390     2.9090     0.6740 H     1 <1>   0.0800 
 28 H        0.1960     2.5770     1.8440 H     1 <1>   0.0800 
 29 H       -3.3010     2.8230    -1.3900 H     1 <1>   0.0800 
 30 H       -3.2290     4.4100    -0.6620 H     1 <1>   0.0800 
 31 H        1.2410     5.4940     0.0370 H     1 <1>   0.3700 
 32 H        1.4880     6.9780     3.6320 H     1 <1>   0.1500 
 33 H        2.0240     8.0000    -0.4480 H     1 <1>   0.1500 
 34 H        3.7350    10.3370     0.7530 H     1 <1>   0.0800 
 35 H        2.5260    11.0870     1.7570 H     1 <1>   0.0800 
 36 H        0.0340    10.9670     0.7160 H     1 <1>   0.1500 
 37 H        3.6450    10.8710    -1.5670 H     1 <1>   0.1500 
 38 H       -1.1870    11.7400    -1.2640 H     1 <1>   0.1500 
 39 H        2.4140    11.6450    -3.5360 H     1 <1>   0.1500 
 40 H       -0.0010    12.0830    -3.3930 H     1 <1>   0.1500 
@<TRIPOS>BOND
  1   1   2  2   
  2   2   3  am  
  3   2   4  1   
  4   3   5  1   
  5   3   6  1   
  6   4   7  1   
  7   4  23  1   
  8   4  24  1   
  9   5   7  1   
 10   5  25  1   
 11   5  26  1   
 12   6   8  1   
 13   6  27  1   
 14   6  28  1   
 15   7  29  1   
 16   7  30  1   
 17   8   9  2   
 18   8  10  am  
 19  10  11  1   
 20  10  31  1   
 21  11  12  1   
 22  11  13  2   
 23  12  14  2   
 24  12  32  1   
 25  13  15  1   
 26  13  33  1   
 27  14  15  1   
 28  15  16  1   
 29  16  17  1   
 30  16  34  1   
 31  16  35  1   
 32  17  18  ar  
 33  17  19  ar  
 34  18  20  ar  
 35  18  36  1   
 36  19  21  ar  
 37  19  37  1   
 38  20  22  ar  
 39  20  38  1   
 40  21  22  ar  
 41  21  39  1   
 42  22  40  1   
@<TRIPOS>SUBSTRUCTURE
  1 ****  13 GROUP 4 **** **** 0

# MOE 2024.06 (io_trps.svl 2023.06)
