@<TRIPOS>MOLECULE
NONAME
37 38 1 0 0 
SMALL
USER_CHARGES


@<TRIPOS>ATOM
  1 O        7.3280     1.7070     0.2790 O.2   1 <1>  -0.5700 
  2 C        8.1500     0.8440     0.5200 C.2   1 <1>   0.7800 
  3 O        9.4510     1.0240     0.3000 O.3   1 <1>  -0.4300 
  4 N        7.7580    -0.3850     0.9730 N.am  1 <1>  -0.6600 
  5 C       10.0830     2.1920    -0.1780 C.3   1 <1>   0.2800 
  6 C        6.3400    -0.6330     1.3280 C.3   1 <1>   0.1400 
  7 C        8.5200    -1.6150     0.5920 C.3   1 <1>   0.1400 
  8 C        9.5980     2.5160    -1.5960 C.3   1 <1>  -0.2400 
  9 C        9.8570     3.3530     0.7970 C.3   1 <1>  -0.2400 
 10 C       11.5730     1.8510    -0.2190 C.3   1 <1>  -0.2400 
 11 C        5.6920    -1.3140     0.1160 C.3   1 <1>   0.2580 
 12 C        7.5810    -2.8090     0.2890 C.3   1 <1>   0.1200 
 13 O        6.4190    -2.4200    -0.4120 O.3   1 <1>  -0.5380 
 14 C        4.1640    -1.5720     0.1580 C.3   1 <1>   0.4720 
 15 C        5.3190    -0.3230    -1.0200 C.3   1 <1>   0.4720 
 16 N        4.1410    -1.2140    -1.3020 N.4   1 <1>  -0.8440 
 17 H        5.8390     0.2910     1.5680 H     1 <1>   0.0800 
 18 H        6.2870    -1.2680     2.1950 H     1 <1>   0.0800 
 19 H        9.1950    -1.8780     1.3880 H     1 <1>   0.0800 
 20 H        9.1150    -1.4150    -0.2840 H     1 <1>   0.0800 
 21 H        8.5720     2.8330    -1.5940 H     1 <1>   0.0800 
 22 H        9.7080     1.6580    -2.2350 H     1 <1>   0.0800 
 23 H       10.1830     3.3200    -2.0050 H     1 <1>   0.0800 
 24 H        8.8290     3.6640     0.8030 H     1 <1>   0.0800 
 25 H       10.4480     4.2000     0.5010 H     1 <1>   0.0800 
 26 H       10.1470     3.0690     1.7930 H     1 <1>   0.0800 
 27 H       11.7500     1.0220    -0.8820 H     1 <1>   0.0800 
 28 H       11.9250     1.5950     0.7640 H     1 <1>   0.0800 
 29 H       12.1390     2.6930    -0.5730 H     1 <1>   0.0800 
 30 H        7.2770    -3.2790     1.2090 H     1 <1>   0.0800 
 31 H        8.0990    -3.5440    -0.3030 H     1 <1>   0.0800 
 32 H        3.6260    -0.8470     0.7430 H     1 <1>   0.0000 
 33 H        3.8870    -2.5940     0.3420 H     1 <1>   0.0000 
 34 H        6.0230    -0.2880    -1.8320 H     1 <1>   0.0000 
 35 H        4.9990     0.6380    -0.6580 H     1 <1>   0.0000 
 36 H        3.3040    -0.7250    -1.6310 H     1 <1>   0.4500 
 37 H        4.4370    -2.0100    -1.8800 H     1 <1>   0.4500 
@<TRIPOS>BOND
  1   1   2  2   
  2   2   3  1   
  3   2   4  am  
  4   3   5  1   
  5   4   6  1   
  6   4   7  1   
  7   5   8  1   
  8   5   9  1   
  9   5  10  1   
 10   6  11  1   
 11   6  17  1   
 12   6  18  1   
 13   7  12  1   
 14   7  19  1   
 15   7  20  1   
 16   8  21  1   
 17   8  22  1   
 18   8  23  1   
 19   9  24  1   
 20   9  25  1   
 21   9  26  1   
 22  10  27  1   
 23  10  28  1   
 24  10  29  1   
 25  11  13  1   
 26  11  14  1   
 27  11  15  1   
 28  12  13  1   
 29  12  30  1   
 30  12  31  1   
 31  14  16  1   
 32  14  32  1   
 33  14  33  1   
 34  15  16  1   
 35  15  34  1   
 36  15  35  1   
 37  16  36  1   
 38  16  37  1   
@<TRIPOS>SUBSTRUCTURE
  1 ****   2 GROUP 4 **** **** 0

# MOE 2024.06 (io_trps.svl 2023.06)
