@<TRIPOS>MOLECULE
NONAME
43 44 1 0 0 
SMALL
USER_CHARGES


@<TRIPOS>ATOM
  1 O       -1.5380    -0.2680    -0.6820 O.2   1 <1>  -0.5700 
  2 C       -2.0350     0.8450    -0.7200 C.2   1 <1>   0.5440 
  3 N       -3.2320     0.9910    -1.4040 N.am  1 <1>  -0.6600 
  4 C       -1.3590     1.9510    -0.0460 C.ar  1 <1>   0.3960 
  5 C       -3.8930    -0.1920    -2.0330 C.3   1 <1>   0.1400 
  6 C       -4.1680     2.1370    -1.1860 C.3   1 <1>   0.1400 
  7 N       -1.8630     2.4360     1.1020 N.ar  1 <1>  -0.6200 
  8 C       -0.1960     2.4680    -0.6200 C.ar  1 <1>  -0.1500 
  9 C       -4.8790    -0.8070    -1.0220 C.3   1 <1>   0.2000 
 10 C       -5.6110     1.6360    -0.9730 C.3   1 <1>  -0.1600 
 11 C       -1.1910     3.4220     1.6480 C.ar  1 <1>   0.3920 
 12 C        0.4850     3.5120    -0.0300 C.ar  1 <1>  -0.1500 
 13 O       -4.1430    -1.6390    -0.1860 O.3   1 <1>  -0.6800 
 14 C       -5.6800     0.2780    -0.2070 C.3   1 <1>   0.0000 
 15 O       -1.7070     3.8590     2.7800 O.3   1 <1>  -0.5320 
 16 C       -0.0380     4.0000     1.1450 C.ar  1 <1>  -0.1500 
 17 C       -5.0740     0.4500     1.2210 C.3   1 <1>   0.1200 
 18 C       -7.1560    -0.1820    -0.0320 C.3   1 <1>  -0.1600 
 19 O       -5.6470     1.5150     1.9120 O.3   1 <1>  -0.6800 
 20 C       -8.0210    -0.2470    -1.3060 C.3   1 <1>  -0.1600 
 21 C       -9.3960    -0.8450    -0.9950 C.3   1 <1>  -0.2400 
 22 H       -4.4270     0.1320    -2.9090 H     1 <1>   0.0800 
 23 H       -3.1720    -0.9260    -2.3520 H     1 <1>   0.0800 
 24 H       -3.8720     2.7040    -0.3230 H     1 <1>   0.0800 
 25 H       -4.1320     2.7940    -2.0380 H     1 <1>   0.0800 
 26 H        0.1680     2.0350    -1.5350 H     1 <1>   0.1500 
 27 H       -5.5500    -1.4510    -1.5580 H     1 <1>   0.0800 
 28 H       -6.1840     2.3920    -0.4670 H     1 <1>   0.0800 
 29 H       -6.0560     1.5260    -1.9450 H     1 <1>   0.0800 
 30 H        1.3830     3.9220    -0.4620 H     1 <1>   0.1500 
 31 H       -3.2190    -1.2930    -0.1300 H     1 <1>   0.4000 
 32 H       -2.4690     3.2990     3.0120 H     1 <1>   0.4500 
 33 H        0.4280     4.8090     1.6770 H     1 <1>   0.1500 
 34 H       -4.0140     0.6230     1.1800 H     1 <1>   0.0800 
 35 H       -5.2420    -0.4390     1.8050 H     1 <1>   0.0800 
 36 H       -7.1450    -1.1560     0.4280 H     1 <1>   0.0800 
 37 H       -7.6490     0.4790     0.6600 H     1 <1>   0.0800 
 38 H       -5.4490     2.3530     1.4540 H     1 <1>   0.4000 
 39 H       -8.1680     0.7420    -1.7030 H     1 <1>   0.0800 
 40 H       -7.5510    -0.8470    -2.0640 H     1 <1>   0.0800 
 41 H       -9.9060    -0.2520    -0.2570 H     1 <1>   0.0800 
 42 H       -9.2930    -1.8490    -0.6210 H     1 <1>   0.0800 
 43 H       -9.9970    -0.8730    -1.8870 H     1 <1>   0.0800 
@<TRIPOS>BOND
  1   1   2  2   
  2   2   3  am  
  3   2   4  1   
  4   3   5  1   
  5   3   6  1   
  6   4   7  ar  
  7   4   8  ar  
  8   5   9  1   
  9   5  22  1   
 10   5  23  1   
 11   6  10  1   
 12   6  24  1   
 13   6  25  1   
 14   7  11  ar  
 15   8  12  ar  
 16   8  26  1   
 17   9  13  1   
 18   9  14  1   
 19   9  27  1   
 20  10  14  1   
 21  10  28  1   
 22  10  29  1   
 23  11  15  1   
 24  11  16  ar  
 25  12  16  ar  
 26  12  30  1   
 27  13  31  1   
 28  14  17  1   
 29  14  18  1   
 30  15  32  1   
 31  16  33  1   
 32  17  19  1   
 33  17  34  1   
 34  17  35  1   
 35  18  20  1   
 36  18  36  1   
 37  18  37  1   
 38  19  38  1   
 39  20  21  1   
 40  20  39  1   
 41  20  40  1   
 42  21  41  1   
 43  21  42  1   
 44  21  43  1   
@<TRIPOS>SUBSTRUCTURE
  1 ****   3 GROUP 4 **** **** 0

# MOE 2024.06 (io_trps.svl 2023.06)
