@<TRIPOS>MOLECULE
NONAME
43 45 1 0 0 
SMALL
USER_CHARGES


@<TRIPOS>ATOM
  1 S       -2.1280    -1.6670    -0.0410 S.3   1 <1>  -0.0800 
  2 C       -1.8680    -2.1230     1.6090 C.2   1 <1>   0.4420 
  3 C       -1.4500    -0.1210     0.3560 C.2   1 <1>   0.1980 
  4 N       -1.3350    -1.1800     2.2970 N.2   1 <1>  -0.3380 
  5 N       -2.2460    -3.3990     1.9600 N.am  1 <1>  -0.4940 
  6 N       -1.1000    -0.0410     1.5770 N.2   1 <1>  -0.3380 
  7 C       -1.3280     0.9390    -0.7340 C.3   1 <1>   0.3800 
  8 C       -2.1980    -4.0400     3.1640 C.2   1 <1>   0.5690 
  9 O       -2.5430     1.0520    -1.4190 O.3   1 <1>  -0.5600 
 10 C       -0.2370     0.5840    -1.7470 C.3   1 <1>  -0.2400 
 11 O       -1.8150    -3.5240     4.1830 O.2   1 <1>  -0.5700 
 12 C       -2.6420    -5.4900     3.2220 C.3   1 <1>   0.0820 
 13 C       -2.8360     2.3190    -1.9190 C.3   1 <1>   0.0400 
 14 C       -3.7920    -5.7880     2.2730 C.2   1 <1>   0.0460 
 15 N       -3.6110    -5.7560     0.9390 N.2   1 <1>  -0.5650 
 16 C       -5.0670    -6.1070     2.5420 C.2   1 <1>  -0.0400 
 17 C       -4.7790    -6.0640     0.4580 C.2   1 <1>   0.4250 
 18 O       -5.6750    -6.2780     1.4050 O.3   1 <1>  -0.2800 
 19 C       -5.8560    -6.2860     3.8230 C.3   1 <1>  -0.0600 
 20 C       -5.1530    -6.1780    -0.9380 C.ar  1 <1>   0.0530 
 21 C       -6.4540    -6.5060    -1.3260 C.ar  1 <1>  -0.1500 
 22 C       -4.2200    -5.9620    -1.9540 C.ar  1 <1>  -0.1500 
 23 C       -6.8070    -6.6110    -2.6600 C.ar  1 <1>  -0.1500 
 24 C       -4.5650    -6.0650    -3.2890 C.ar  1 <1>  -0.1500 
 25 C       -5.8620    -6.3910    -3.6450 C.ar  1 <1>  -0.1500 
 26 H       -2.6590    -3.9620     1.2100 H     1 <1>   0.3700 
 27 H       -1.1040     1.8790    -0.2580 H     1 <1>   0.0800 
 28 H       -0.4900    -0.3250    -2.2620 H     1 <1>   0.0800 
 29 H        0.6960     0.4390    -1.2330 H     1 <1>   0.0800 
 30 H       -0.1100     1.3770    -2.4600 H     1 <1>   0.0800 
 31 H       -2.9330    -5.7190     4.2300 H     1 <1>   0.0800 
 32 H       -1.8050    -6.1140     2.9710 H     1 <1>   0.0800 
 33 H       -3.7840     2.2670    -2.4250 H     1 <1>   0.0800 
 34 H       -2.0720     2.6200    -2.6150 H     1 <1>   0.0800 
 35 H       -2.9030     3.0170    -1.1020 H     1 <1>   0.0800 
 36 H       -5.2400    -6.1010     4.6830 H     1 <1>   0.0800 
 37 H       -6.2380    -7.2890     3.8770 H     1 <1>   0.0800 
 38 H       -6.6840    -5.6000     3.8370 H     1 <1>   0.0800 
 39 H       -7.2030    -6.6810    -0.5740 H     1 <1>   0.1500 
 40 H       -3.2070    -5.7110    -1.6920 H     1 <1>   0.1500 
 41 H       -7.8160    -6.8650    -2.9330 H     1 <1>   0.1500 
 42 H       -3.8260    -5.8930    -4.0520 H     1 <1>   0.1500 
 43 H       -6.1330    -6.4720    -4.6830 H     1 <1>   0.1500 
@<TRIPOS>BOND
  1   1   2  1   
  2   1   3  1   
  3   2   4  2   
  4   2   5  1   
  5   3   6  2   
  6   3   7  1   
  7   4   6  1   
  8   5   8  am  
  9   5  26  1   
 10   7   9  1   
 11   7  10  1   
 12   7  27  1   
 13   8  11  2   
 14   8  12  1   
 15   9  13  1   
 16  10  28  1   
 17  10  29  1   
 18  10  30  1   
 19  12  14  1   
 20  12  31  1   
 21  12  32  1   
 22  13  33  1   
 23  13  34  1   
 24  13  35  1   
 25  14  15  1   
 26  14  16  2   
 27  15  17  2   
 28  16  18  1   
 29  16  19  1   
 30  17  18  1   
 31  17  20  1   
 32  19  36  1   
 33  19  37  1   
 34  19  38  1   
 35  20  21  ar  
 36  20  22  ar  
 37  21  23  ar  
 38  21  39  1   
 39  22  24  ar  
 40  22  40  1   
 41  23  25  ar  
 42  23  41  1   
 43  24  25  ar  
 44  24  42  1   
 45  25  43  1   
@<TRIPOS>SUBSTRUCTURE
  1 ****   5 GROUP 4 **** **** 0

# MOE 2024.06 (io_trps.svl 2023.06)
