@<TRIPOS>MOLECULE
NONAME
53 56 1 0 0 
SMALL
USER_CHARGES


@<TRIPOS>ATOM
  1 F       -5.6220     0.0770     1.9510 F     1 <1>  -0.1900 
  2 C       -5.9510     0.6420     0.8210 C.ar  1 <1>   0.1900 
  3 C       -6.0060    -0.1310    -0.3220 C.ar  1 <1>  -0.1500 
  4 C       -6.2360     1.9960     0.8160 C.ar  1 <1>  -0.1500 
  5 C       -6.3720     0.4830    -1.5080 C.ar  1 <1>   0.0830 
  6 C       -6.5910     2.5990    -0.3810 C.ar  1 <1>  -0.1500 
  7 O       -6.4160    -0.2360    -2.6460 O.3   1 <1>  -0.3630 
  8 C       -6.6580     1.8410    -1.5410 C.ar  1 <1>  -0.1500 
  9 C       -7.6530    -0.8400    -2.9980 C.3   1 <1>   0.1810 
 10 C       -8.0830    -1.9360    -2.0130 C.2   1 <1>   0.5690 
 11 O       -7.3280    -2.8740    -1.8890 O.2   1 <1>  -0.5700 
 12 N       -9.2790    -1.8990    -1.3230 N.am  1 <1>  -0.6600 
 13 C      -10.3540    -0.8580    -1.4530 C.3   1 <1>   0.1400 
 14 C       -9.6730    -3.0410    -0.4400 C.3   1 <1>   0.1400 
 15 C      -10.8070    -0.3190    -0.0810 C.3   1 <1>   0.1440 
 16 C      -10.1020    -2.5340     0.9410 C.3   1 <1>  -0.1600 
 17 C      -11.9380     0.6640    -0.3110 C.ar  1 <1>   0.1670 
 18 C      -11.2230    -1.4880     0.8340 C.3   1 <1>  -0.1600 
 19 C       -9.7180     0.5680     0.5780 C.3   1 <1>  -0.1600 
 20 N      -13.1510     0.3450    -0.6870 N.ar  1 <1>  -0.6200 
 21 C      -11.5380     1.9490    -0.1050 C.ar  1 <1>  -0.1440 
 22 C      -10.0860     2.0340     0.2890 C.3   1 <1>  -0.0170 
 23 C      -13.9890     1.3740    -0.8430 C.ar  1 <1>   0.7200 
 24 C      -12.4670     2.9420    -0.2890 C.ar  1 <1>   0.1600 
 25 N      -13.6950     2.6650    -0.6590 N.ar  1 <1>  -0.6200 
 26 N      -15.2780     1.0730    -1.2360 N.pl3 1 <1>  -0.8380 
 27 C      -16.2200     2.1200    -1.7220 C.3   1 <1>   0.1290 
 28 C      -15.8410    -0.3010    -1.1260 C.3   1 <1>   0.1290 
 29 H       -5.7710    -1.1800    -0.2940 H     1 <1>   0.1500 
 30 H       -6.1750     2.5610     1.7290 H     1 <1>   0.1500 
 31 H       -6.8080     3.6530    -0.4110 H     1 <1>   0.1500 
 32 H       -6.9220     2.3010    -2.4770 H     1 <1>   0.1500 
 33 H       -7.5130    -1.2950    -3.9600 H     1 <1>   0.0800 
 34 H       -8.3760    -0.0600    -3.1010 H     1 <1>   0.0800 
 35 H      -11.2030    -1.3060    -1.9420 H     1 <1>   0.0800 
 36 H      -10.0410    -0.0280    -2.0540 H     1 <1>   0.0800 
 37 H       -8.8590    -3.7350    -0.3210 H     1 <1>   0.0800 
 38 H      -10.4900    -3.5690    -0.9030 H     1 <1>   0.0800 
 39 H       -9.2450    -2.1160     1.4400 H     1 <1>   0.0800 
 40 H      -10.4450    -3.3670     1.5290 H     1 <1>   0.0800 
 41 H      -12.1000    -1.9590     0.4220 H     1 <1>   0.0800 
 42 H      -11.4860    -1.1210     1.8110 H     1 <1>   0.0800 
 43 H       -8.7340     0.3290     0.2220 H     1 <1>   0.0800 
 44 H       -9.7290     0.4260     1.6440 H     1 <1>   0.0800 
 45 H       -9.5110     2.4160    -0.5350 H     1 <1>   0.0800 
 46 H       -9.9430     2.6550     1.1570 H     1 <1>   0.0800 
 47 H      -12.2010     3.9730    -0.1350 H     1 <1>   0.1500 
 48 H      -15.6810     2.9190    -2.2010 H     1 <1>   0.0800 
 49 H      -16.7720     2.5200    -0.8900 H     1 <1>   0.0800 
 50 H      -16.9050     1.6990    -2.4360 H     1 <1>   0.0800 
 51 H      -15.3380    -0.8560    -0.3540 H     1 <1>   0.0800 
 52 H      -15.7200    -0.8150    -2.0630 H     1 <1>   0.0800 
 53 H      -16.8870    -0.2530    -0.8790 H     1 <1>   0.0800 
@<TRIPOS>BOND
  1   1   2  1   
  2   2   3  ar  
  3   2   4  ar  
  4   3   5  ar  
  5   3  29  1   
  6   4   6  ar  
  7   4  30  1   
  8   5   7  1   
  9   5   8  ar  
 10   6   8  ar  
 11   6  31  1   
 12   7   9  1   
 13   8  32  1   
 14   9  10  1   
 15   9  33  1   
 16   9  34  1   
 17  10  11  2   
 18  10  12  am  
 19  12  13  1   
 20  12  14  1   
 21  13  15  1   
 22  13  35  1   
 23  13  36  1   
 24  14  16  1   
 25  14  37  1   
 26  14  38  1   
 27  15  17  1   
 28  15  18  1   
 29  15  19  1   
 30  16  18  1   
 31  16  39  1   
 32  16  40  1   
 33  17  20  ar  
 34  17  21  ar  
 35  18  41  1   
 36  18  42  1   
 37  19  22  1   
 38  19  43  1   
 39  19  44  1   
 40  20  23  ar  
 41  21  22  1   
 42  21  24  ar  
 43  22  45  1   
 44  22  46  1   
 45  23  25  ar  
 46  23  26  1   
 47  24  25  ar  
 48  24  47  1   
 49  26  27  1   
 50  26  28  1   
 51  27  48  1   
 52  27  49  1   
 53  27  50  1   
 54  28  51  1   
 55  28  52  1   
 56  28  53  1   
@<TRIPOS>SUBSTRUCTURE
  1 ****  15 GROUP 4 **** **** 0

# MOE 2024.06 (io_trps.svl 2023.06)
