@<TRIPOS>MOLECULE
NONAME
52 54 1 0 0 
SMALL
USER_CHARGES


@<TRIPOS>ATOM
  1 S        1.1980     1.2120     0.0180 S.o2  1 <1>   1.3330 
  2 O        0.8440     0.2510     1.0320 O.2   1 <1>  -0.6500 
  3 O        2.1970     2.2190     0.3100 O.2   1 <1>  -0.6500 
  4 N        1.5880     0.4270    -1.4290 N.am  1 <1>  -0.8490 
  5 C       -0.2780     2.1440    -0.3870 C.3   1 <1>  -0.0550 
  6 C        3.0320     0.2120    -1.5830 C.3   1 <1>   0.1160 
  7 C        0.8830    -0.8500    -1.6060 C.3   1 <1>   0.1160 
  8 C       -1.0050     2.7440     0.8450 C.3   1 <1>  -0.0800 
  9 C       -1.8350     3.9590     0.4460 C.3   1 <1>   0.2000 
 10 C       -0.0710     3.3330     1.9160 C.3   1 <1>   0.3430 
 11 O       -2.7530     4.2030     1.4590 O.3   1 <1>  -0.6800 
 12 C       -0.8050     5.0980     0.4540 C.3   1 <1>   0.3430 
 13 N        0.1780     4.7550     1.5350 N.4   1 <1>  -0.9590 
 14 C        1.5980     5.0140     1.1530 C.3   1 <1>   0.5230 
 15 C        1.8260     6.4990     0.9700 C.2   1 <1>  -0.1400 
 16 S        3.2760     6.9650     0.1380 S.3   1 <1>  -0.0800 
 17 C        1.1640     7.6180     1.3030 C.2   1 <1>   0.0770 
 18 C        2.8470     8.6650     0.3110 C.2   1 <1>   0.3250 
 19 N        1.7280     8.8170     0.9310 N.2   1 <1>  -0.5650 
 20 C        3.7520     9.6540    -0.2360 C.ar  1 <1>   0.0530 
 21 C        3.3160    10.7670    -0.9720 C.ar  1 <1>  -0.1440 
 22 C        5.1270     9.5150    -0.0330 C.ar  1 <1>  -0.1500 
 23 C        4.2310    11.6800    -1.4720 C.ar  1 <1>  -0.1500 
 24 C        1.8370    11.0080    -1.2490 C.3   1 <1>  -0.0970 
 25 C        6.0350    10.4260    -0.5370 C.ar  1 <1>  -0.1500 
 26 C        5.5870    11.5140    -1.2590 C.ar  1 <1>  -0.1500 
 27 H        0.0030     2.9200    -1.0720 H     1 <1>   0.0800 
 28 H       -0.9660     1.5020    -0.9040 H     1 <1>   0.0800 
 29 H        3.2400    -0.2630    -2.5260 H     1 <1>   0.0800 
 30 H        3.4070    -0.4090    -0.7850 H     1 <1>   0.0800 
 31 H        3.5520     1.1540    -1.5610 H     1 <1>   0.0800 
 32 H        1.1060    -1.2650    -2.5750 H     1 <1>   0.0800 
 33 H       -0.1810    -0.7050    -1.5390 H     1 <1>   0.0800 
 34 H        1.1830    -1.5550    -0.8480 H     1 <1>   0.0800 
 35 H       -1.6120     1.9700     1.2850 H     1 <1>   0.0800 
 36 H       -2.3590     3.8670    -0.4900 H     1 <1>   0.0800 
 37 H        0.8430     2.7750     2.0400 H     1 <1>   0.0800 
 38 H       -0.5950     3.3170     2.8590 H     1 <1>   0.0800 
 39 H       -3.5350     3.6130     1.3900 H     1 <1>   0.4000 
 40 H       -1.2840     6.0480     0.6300 H     1 <1>   0.0800 
 41 H       -0.3020     5.1280    -0.4990 H     1 <1>   0.0800 
 42 H       -0.0430     5.3300     2.3580 H     1 <1>   0.4500 
 43 H        2.2650     4.6400     1.9130 H     1 <1>   0.0800 
 44 H        1.8270     4.5040     0.2310 H     1 <1>   0.0800 
 45 H        0.2300     7.6720     1.8360 H     1 <1>   0.1500 
 46 H        5.5000     8.6820     0.5360 H     1 <1>   0.1500 
 47 H        3.8950    12.5340    -2.0340 H     1 <1>   0.1500 
 48 H        1.6980    11.8100    -1.9520 H     1 <1>   0.0800 
 49 H        1.3330    11.2680    -0.3350 H     1 <1>   0.0800 
 50 H        1.3850    10.1220    -1.6570 H     1 <1>   0.0800 
 51 H        7.0890    10.2930    -0.3650 H     1 <1>   0.1500 
 52 H        6.2880    12.2290    -1.6530 H     1 <1>   0.1500 
@<TRIPOS>BOND
  1   1   2  2   
  2   1   3  2   
  3   1   4  am  
  4   1   5  1   
  5   4   6  1   
  6   4   7  1   
  7   5   8  1   
  8   5  27  1   
  9   5  28  1   
 10   6  29  1   
 11   6  30  1   
 12   6  31  1   
 13   7  32  1   
 14   7  33  1   
 15   7  34  1   
 16   8   9  1   
 17   8  10  1   
 18   8  35  1   
 19   9  11  1   
 20   9  12  1   
 21   9  36  1   
 22  10  13  1   
 23  10  37  1   
 24  10  38  1   
 25  11  39  1   
 26  12  13  1   
 27  12  40  1   
 28  12  41  1   
 29  13  14  1   
 30  13  42  1   
 31  14  15  1   
 32  14  43  1   
 33  14  44  1   
 34  15  16  1   
 35  15  17  2   
 36  16  18  1   
 37  17  19  1   
 38  17  45  1   
 39  18  19  2   
 40  18  20  1   
 41  20  21  ar  
 42  20  22  ar  
 43  21  23  ar  
 44  21  24  1   
 45  22  25  ar  
 46  22  46  1   
 47  23  26  ar  
 48  23  47  1   
 49  24  48  1   
 50  24  49  1   
 51  24  50  1   
 52  25  26  ar  
 53  25  51  1   
 54  26  52  1   
@<TRIPOS>SUBSTRUCTURE
  1 ****  15 GROUP 4 **** **** 0

# MOE 2024.06 (io_trps.svl 2023.06)
