@<TRIPOS>MOLECULE
NONAME
39 40 1 0 0 
SMALL
USER_CHARGES


@<TRIPOS>ATOM
  1 CL      -2.0040    -0.4140    -2.1740 Cl    1 <1>  -0.1230 
  2 C       -1.9170    -1.8050    -1.1080 C.2   1 <1>   0.1230 
  3 C       -1.6850    -1.7680     0.2580 C.2   1 <1>   0.1390 
  4 C       -2.0600    -3.1010    -1.4360 C.2   1 <1>  -0.3020 
  5 N       -1.6820    -2.9670     0.7660 N.2   1 <1>  -0.7070 
  6 N       -1.9110    -3.7900    -0.2840 N.pl3 1 <1>   0.3140 
  7 C       -1.9870    -5.2490    -0.1160 C.3   1 <1>   0.0960 
  8 C       -3.2340    -5.6070     0.6940 C.3   1 <1>   0.1400 
  9 N       -3.3260    -7.0770     0.8850 N.am  1 <1>  -0.7300 
 10 C       -3.6490    -7.9560    -0.0960 C.2   1 <1>   0.5690 
 11 O       -3.8250    -7.5980    -1.2340 O.2   1 <1>  -0.5700 
 12 C       -3.7780    -9.4210     0.2510 C.3   1 <1>  -0.0990 
 13 C       -5.0490   -10.0150    -0.3560 C.3   1 <1>   0.0700 
 14 S       -5.1690   -11.7340     0.1980 S.3   1 <1>  -0.4600 
 15 C       -6.6270   -12.3550    -0.6870 C.3   1 <1>   0.2130 
 16 C       -6.8720   -13.7930    -0.2640 C.ar  1 <1>  -0.1430 
 17 C       -6.0630   -14.8100    -0.7480 C.ar  1 <1>  -0.1500 
 18 C       -7.9080   -14.1040     0.6040 C.ar  1 <1>  -0.1500 
 19 C       -6.2900   -16.1230    -0.3760 C.ar  1 <1>  -0.1500 
 20 C       -8.1370   -15.4180     0.9780 C.ar  1 <1>  -0.1500 
 21 C       -7.3280   -16.4280     0.4870 C.ar  1 <1>  -0.1500 
 22 H       -1.5290    -0.8680     0.8270 H     1 <1>   0.1500 
 23 H       -2.2530    -3.5550    -2.3890 H     1 <1>   0.1500 
 24 H       -1.1040    -5.5750     0.4010 H     1 <1>   0.0800 
 25 H       -2.0270    -5.7080    -1.0860 H     1 <1>   0.0800 
 26 H       -4.1110    -5.2670     0.1680 H     1 <1>   0.0800 
 27 H       -3.1960    -5.1240     1.6560 H     1 <1>   0.0800 
 28 H       -3.1760    -7.4130     1.8400 H     1 <1>   0.3700 
 29 H       -3.8040    -9.5420     1.3180 H     1 <1>   0.0800 
 30 H       -2.9210    -9.9420    -0.1340 H     1 <1>   0.0800 
 31 H       -5.0080   -10.0150    -1.4320 H     1 <1>   0.0800 
 32 H       -5.9300    -9.5000    -0.0150 H     1 <1>   0.0800 
 33 H       -6.4190   -12.2870    -1.7400 H     1 <1>   0.0800 
 34 H       -7.4540   -11.7180    -0.4310 H     1 <1>   0.0800 
 35 H       -5.2490   -14.5780    -1.4130 H     1 <1>   0.1500 
 36 H       -8.5400   -13.3260     0.9950 H     1 <1>   0.1500 
 37 H       -5.6580   -16.9070    -0.7550 H     1 <1>   0.1500 
 38 H       -8.9420   -15.6530     1.6510 H     1 <1>   0.1500 
 39 H       -7.5050   -17.4490     0.7780 H     1 <1>   0.1500 
@<TRIPOS>BOND
  1   1   2  1   
  2   2   3  1   
  3   2   4  2   
  4   3   5  2   
  5   3  22  1   
  6   4   6  1   
  7   4  23  1   
  8   5   6  1   
  9   6   7  1   
 10   7   8  1   
 11   7  24  1   
 12   7  25  1   
 13   8   9  1   
 14   8  26  1   
 15   8  27  1   
 16   9  10  am  
 17   9  28  1   
 18  10  11  2   
 19  10  12  1   
 20  12  13  1   
 21  12  29  1   
 22  12  30  1   
 23  13  14  1   
 24  13  31  1   
 25  13  32  1   
 26  14  15  1   
 27  15  16  1   
 28  15  33  1   
 29  15  34  1   
 30  16  17  ar  
 31  16  18  ar  
 32  17  19  ar  
 33  17  35  1   
 34  18  20  ar  
 35  18  36  1   
 36  19  21  ar  
 37  19  37  1   
 38  20  21  ar  
 39  20  38  1   
 40  21  39  1   
@<TRIPOS>SUBSTRUCTURE
  1 ****  10 GROUP 4 **** **** 0

# MOE 2024.06 (io_trps.svl 2023.06)
