@<TRIPOS>MOLECULE
NONAME
59 62 1 0 0 
SMALL
USER_CHARGES


@<TRIPOS>ATOM
  1 O        0.2250    -0.9200     2.7120 O.2   1 <1>  -0.5700 
  2 C        0.7570    -1.8180     2.0960 C.2   1 <1>   0.5440 
  3 N        0.2960    -3.0690     2.3660 N.am  1 <1>  -0.7300 
  4 C        1.7950    -1.5340     1.1210 C.ar  1 <1>   0.0860 
  5 C        0.3770    -4.2990     1.5310 C.3   1 <1>   0.1400 
  6 C        2.9520    -2.3050     1.0310 C.ar  1 <1>  -0.1500 
  7 C        1.6670    -0.4610     0.2420 C.ar  1 <1>  -0.1500 
  8 C       -0.9130    -4.4990     0.7120 C.3   1 <1>   0.2200 
  9 C        3.9380    -2.0210     0.0960 C.ar  1 <1>   0.0830 
 10 C        2.6380    -0.1780    -0.7010 C.ar  1 <1>  -0.1500 
 11 N       -1.1570    -5.8920     0.2200 N.am  1 <1>  -0.6600 
 12 C       -1.0330    -3.5390    -0.4820 C.3   1 <1>  -0.1600 
 13 O        5.0560    -2.7790    -0.0030 O.3   1 <1>  -0.3630 
 14 C        3.7790    -0.9580    -0.7850 C.ar  1 <1>  -0.1430 
 15 C       -0.2850    -6.9470     0.0930 C.2   1 <1>   0.5690 
 16 C       -2.5520    -6.0540    -0.2760 C.3   1 <1>   0.1400 
 17 C       -2.4150    -3.6610    -1.1470 C.3   1 <1>  -0.1600 
 18 C        5.7810    -3.1520     1.1530 C.3   1 <1>   0.1200 
 19 C        4.8400    -0.6440    -1.8300 C.3   1 <1>  -0.0970 
 20 O       -0.6870    -8.0870     0.1320 O.2   1 <1>  -0.5700 
 21 C        1.2030    -6.7260    -0.1680 C.3   1 <1>  -0.0990 
 22 C       -2.7510    -5.1240    -1.4800 C.3   1 <1>  -0.1600 
 23 C        6.5100    -4.4640     0.8750 C.3   1 <1>   0.0960 
 24 C        1.9090    -7.9430    -0.8020 C.3   1 <1>  -0.1600 
 25 N        5.5520    -5.5430     0.5770 N.pl3 1 <1>   0.3140 
 26 C        3.3180    -7.6360    -1.3330 C.3   1 <1>   0.0210 
 27 N        5.1970    -6.4620     1.4790 N.2   1 <1>  -0.4180 
 28 C        4.9370    -5.7960    -0.5780 C.2   1 <1>  -0.3020 
 29 C        4.2100    -6.8980    -0.3490 C.2   1 <1>   0.0460 
 30 N        4.3860    -7.2920     0.9180 N.2   1 <1>  -0.2270 
 31 H       -0.3960    -3.0950     3.1200 H     1 <1>   0.3700 
 32 H        0.5120    -5.1380     2.1920 H     1 <1>   0.0800 
 33 H        1.2170    -4.2360     0.8660 H     1 <1>   0.0800 
 34 H        3.0610    -3.1370     1.6990 H     1 <1>   0.1500 
 35 H        0.7880     0.1580     0.3050 H     1 <1>   0.1500 
 36 H       -1.7200    -4.2750     1.3890 H     1 <1>   0.0800 
 37 H        2.5000     0.6570    -1.3660 H     1 <1>   0.1500 
 38 H       -0.2580    -3.7590    -1.1960 H     1 <1>   0.0800 
 39 H       -0.8970    -2.5250    -0.1510 H     1 <1>   0.0800 
 40 H       -3.2440    -5.8050     0.5100 H     1 <1>   0.0800 
 41 H       -2.7390    -7.0720    -0.5740 H     1 <1>   0.0800 
 42 H       -2.4410    -3.0670    -2.0440 H     1 <1>   0.0800 
 43 H       -3.1620    -3.2750    -0.4750 H     1 <1>   0.0800 
 44 H        5.1270    -3.2700     1.9960 H     1 <1>   0.0800 
 45 H        6.4830    -2.3650     1.3660 H     1 <1>   0.0800 
 46 H        4.9920    -1.5000    -2.4640 H     1 <1>   0.0800 
 47 H        5.7690    -0.4040    -1.3450 H     1 <1>   0.0800 
 48 H        4.5470     0.1890    -2.4440 H     1 <1>   0.0800 
 49 H        1.6880    -6.5130     0.7650 H     1 <1>   0.0800 
 50 H        1.3090    -5.8810    -0.8220 H     1 <1>   0.0800 
 51 H       -3.7710    -5.1930    -1.8170 H     1 <1>   0.0800 
 52 H       -2.1210    -5.4650    -2.2830 H     1 <1>   0.0800 
 53 H        7.0840    -4.7510     1.7360 H     1 <1>   0.0800 
 54 H        7.1770    -4.3480     0.0410 H     1 <1>   0.0800 
 55 H        1.3130    -8.3200    -1.6150 H     1 <1>   0.0800 
 56 H        1.9750    -8.7230    -0.0620 H     1 <1>   0.0800 
 57 H        3.2350    -7.0440    -2.2280 H     1 <1>   0.0800 
 58 H        3.7980    -8.5610    -1.5990 H     1 <1>   0.0800 
 59 H        5.0520    -5.1940    -1.4600 H     1 <1>   0.1500 
@<TRIPOS>BOND
  1   1   2  2   
  2   2   3  am  
  3   2   4  1   
  4   3   5  1   
  5   3  31  1   
  6   4   6  ar  
  7   4   7  ar  
  8   5   8  1   
  9   5  32  1   
 10   5  33  1   
 11   6   9  ar  
 12   6  34  1   
 13   7  10  ar  
 14   7  35  1   
 15   8  11  1   
 16   8  12  1   
 17   8  36  1   
 18   9  13  1   
 19   9  14  ar  
 20  10  14  ar  
 21  10  37  1   
 22  11  15  am  
 23  11  16  1   
 24  12  17  1   
 25  12  38  1   
 26  12  39  1   
 27  13  18  1   
 28  14  19  1   
 29  15  20  2   
 30  15  21  1   
 31  16  22  1   
 32  16  40  1   
 33  16  41  1   
 34  17  22  1   
 35  17  42  1   
 36  17  43  1   
 37  18  23  1   
 38  18  44  1   
 39  18  45  1   
 40  19  46  1   
 41  19  47  1   
 42  19  48  1   
 43  21  24  1   
 44  21  49  1   
 45  21  50  1   
 46  22  51  1   
 47  22  52  1   
 48  23  25  1   
 49  23  53  1   
 50  23  54  1   
 51  24  26  1   
 52  24  55  1   
 53  24  56  1   
 54  25  27  1   
 55  25  28  1   
 56  26  29  1   
 57  26  57  1   
 58  26  58  1   
 59  27  30  2   
 60  28  29  2   
 61  28  59  1   
 62  29  30  1   
@<TRIPOS>SUBSTRUCTURE
  1 ****   5 GROUP 4 **** **** 0

# MOE 2024.06 (io_trps.svl 2023.06)
