@<TRIPOS>MOLECULE
NONAME
51 54 1 0 0 
SMALL
USER_CHARGES


@<TRIPOS>ATOM
  1 S        1.2040     0.8080     1.1730 S.3   1 <1>  -0.0800 
  2 C       -0.3420     1.3900     0.5740 C.2   1 <1>  -0.1400 
  3 C        0.4630    -0.6910     1.7190 C.2   1 <1>  -0.1100 
  4 C       -1.3080     0.4920     0.8050 C.2   1 <1>  -0.1810 
  5 C       -0.5060     2.7440    -0.1080 C.3   1 <1>   0.4600 
  6 C       -0.8580    -0.7010     1.4520 C.2   1 <1>  -0.1500 
  7 C       -2.7270     0.8000     0.3830 C.3   1 <1>   0.0210 
  8 O       -1.8290     2.8470    -0.5980 O.3   1 <1>  -0.5600 
  9 C       -0.2440     3.8980     0.8670 C.3   1 <1>  -0.1600 
 10 C        0.4160     2.8590    -1.3250 C.3   1 <1>  -0.1600 
 11 C       -2.8740     2.3220     0.1890 C.3   1 <1>   0.1200 
 12 C       -0.3470     5.2600     0.1750 C.3   1 <1>   0.1400 
 13 C        0.2920     4.2270    -1.9970 C.3   1 <1>   0.1400 
 14 N        0.5740     5.3010    -0.9980 N.am  1 <1>  -0.6600 
 15 C        1.5340     6.2620    -1.2500 C.2   1 <1>   0.5690 
 16 O        2.1590     6.2570    -2.2910 O.2   1 <1>  -0.5700 
 17 C        1.8620     7.4020    -0.2530 C.3   1 <1>   0.2610 
 18 O        2.0930     8.5860    -0.9540 O.3   1 <1>  -0.6800 
 19 C        3.0910     7.1310     0.6520 C.3   1 <1>  -0.0800 
 20 C        4.4170     6.9770    -0.1260 C.3   1 <1>  -0.1600 
 21 C        2.8720     5.9020     1.5560 C.3   1 <1>  -0.1600 
 22 C        5.6040     6.7520     0.8200 C.3   1 <1>  -0.1600 
 23 C        4.0560     5.6800     2.5070 C.3   1 <1>  -0.1600 
 24 C        5.3690     5.5390     1.7280 C.3   1 <1>  -0.1600 
 25 H        1.1040    -1.4160     2.1880 H     1 <1>   0.1500 
 26 H       -1.5380    -1.5020     1.6840 H     1 <1>   0.1500 
 27 H       -3.4180     0.4690     1.1370 H     1 <1>   0.0800 
 28 H       -2.9530     0.2900    -0.5360 H     1 <1>   0.0800 
 29 H       -0.9330     3.8490     1.6890 H     1 <1>   0.0800 
 30 H        0.7420     3.7910     1.2770 H     1 <1>   0.0800 
 31 H        1.4380     2.7190    -1.0250 H     1 <1>   0.0800 
 32 H        0.1730     2.0830    -2.0270 H     1 <1>   0.0800 
 33 H       -2.8680     2.8220     1.1410 H     1 <1>   0.0800 
 34 H       -3.8020     2.5440    -0.3090 H     1 <1>   0.0800 
 35 H       -0.1230     6.0300     0.8870 H     1 <1>   0.0800 
 36 H       -1.3560     5.4130    -0.1720 H     1 <1>   0.0800 
 37 H       -0.7040     4.3590    -2.3840 H     1 <1>   0.0800 
 38 H        0.9770     4.2780    -2.8250 H     1 <1>   0.0800 
 39 H        1.0130     7.6020     0.3680 H     1 <1>   0.0800 
 40 H        2.5110     8.3340    -1.8060 H     1 <1>   0.4000 
 41 H        3.1880     7.9870     1.2990 H     1 <1>   0.0800 
 42 H        4.3490     6.1430    -0.8030 H     1 <1>   0.0800 
 43 H        4.6050     7.8600    -0.7120 H     1 <1>   0.0800 
 44 H        1.9770     6.0300     2.1390 H     1 <1>   0.0800 
 45 H        2.7550     5.0230     0.9460 H     1 <1>   0.0800 
 46 H        6.5000     6.6010     0.2430 H     1 <1>   0.0800 
 47 H        5.7470     7.6300     1.4270 H     1 <1>   0.0800 
 48 H        4.1310     6.5120     3.1860 H     1 <1>   0.0800 
 49 H        3.8880     4.7910     3.0900 H     1 <1>   0.0800 
 50 H        6.1890     5.4390     2.4170 H     1 <1>   0.0800 
 51 H        5.3320     4.6470     1.1260 H     1 <1>   0.0800 
@<TRIPOS>BOND
  1   1   2  1   
  2   1   3  1   
  3   2   4  2   
  4   2   5  1   
  5   3   6  2   
  6   3  25  1   
  7   4   6  1   
  8   4   7  1   
  9   5   8  1   
 10   5   9  1   
 11   5  10  1   
 12   6  26  1   
 13   7  11  1   
 14   7  27  1   
 15   7  28  1   
 16   8  11  1   
 17   9  12  1   
 18   9  29  1   
 19   9  30  1   
 20  10  13  1   
 21  10  31  1   
 22  10  32  1   
 23  11  33  1   
 24  11  34  1   
 25  12  14  1   
 26  12  35  1   
 27  12  36  1   
 28  13  14  1   
 29  13  37  1   
 30  13  38  1   
 31  14  15  am  
 32  15  16  2   
 33  15  17  1   
 34  17  18  1   
 35  17  19  1   
 36  17  39  1   
 37  18  40  1   
 38  19  20  1   
 39  19  21  1   
 40  19  41  1   
 41  20  22  1   
 42  20  42  1   
 43  20  43  1   
 44  21  23  1   
 45  21  44  1   
 46  21  45  1   
 47  22  24  1   
 48  22  46  1   
 49  22  47  1   
 50  23  24  1   
 51  23  48  1   
 52  23  49  1   
 53  24  50  1   
 54  24  51  1   
@<TRIPOS>SUBSTRUCTURE
  1 ****   9 GROUP 4 **** **** 0

# MOE 2024.06 (io_trps.svl 2023.06)
