@<TRIPOS>MOLECULE
NONAME
41 43 1 0 0 
SMALL
USER_CHARGES


@<TRIPOS>ATOM
  1 S        2.3890     0.3770     0.8920 S.3   1 <1>  -0.0800 
  2 C        1.2640    -0.8400     0.3360 C.2   1 <1>   0.1980 
  3 C        1.3510     1.5980     0.2180 C.2   1 <1>  -0.1100 
  4 N        0.2420    -0.3790    -0.2710 N.2   1 <1>  -0.5650 
  5 C        1.6080    -2.2960     0.6220 C.3   1 <1>   0.5230 
  6 C        0.2870     1.0040    -0.3440 C.2   1 <1>   0.0460 
  7 N        0.4660    -3.1850     0.2240 N.4   1 <1>  -0.9590 
  8 C       -0.8580     1.6970    -1.0510 C.3   1 <1>  -0.0590 
  9 C       -0.7060    -3.0250     1.1330 C.3   1 <1>   0.3430 
 10 C        0.8850    -4.6050     0.0130 C.3   1 <1>   0.3430 
 11 C       -1.9400    -3.7270     0.5510 C.3   1 <1>  -0.1600 
 12 C       -0.3130    -5.5670     0.0810 C.3   1 <1>  -0.1600 
 13 C       -1.6310    -4.9150    -0.3920 C.3   1 <1>   0.3430 
 14 C       -1.3990    -4.3970    -1.7860 C.1   1 <1>   0.3570 
 15 C       -2.8390    -5.8710    -0.3910 C.ar  1 <1>  -0.1440 
 16 N       -1.0740    -3.9090    -2.7600 N.1   1 <1>  -0.5570 
 17 C       -2.7930    -7.1560     0.1470 C.ar  1 <1>  -0.1500 
 18 C       -4.0420    -5.4350    -0.9400 C.ar  1 <1>  -0.1500 
 19 C       -3.9110    -7.9720     0.1340 C.ar  1 <1>  -0.1500 
 20 C       -5.1590    -6.2510    -0.9540 C.ar  1 <1>  -0.1500 
 21 C       -5.0950    -7.5210    -0.4160 C.ar  1 <1>  -0.1500 
 22 H        1.6490     2.6270     0.3120 H     1 <1>   0.1500 
 23 H        1.8300    -2.4160     1.6690 H     1 <1>   0.0800 
 24 H        2.4870    -2.5500     0.0530 H     1 <1>   0.0800 
 25 H        0.1670    -2.7810    -0.6870 H     1 <1>   0.4500 
 26 H       -0.7100     2.7610    -1.0520 H     1 <1>   0.0800 
 27 H       -1.7830     1.4740    -0.5530 H     1 <1>   0.0800 
 28 H       -0.9180     1.3540    -2.0680 H     1 <1>   0.0800 
 29 H       -0.9290    -1.9790     1.2800 H     1 <1>   0.0800 
 30 H       -0.4710    -3.4560     2.0940 H     1 <1>   0.0800 
 31 H        1.6090    -4.8970     0.7570 H     1 <1>   0.0800 
 32 H        1.3530    -4.6900    -0.9560 H     1 <1>   0.0800 
 33 H       -2.5450    -2.9990     0.0380 H     1 <1>   0.0800 
 34 H       -2.5290    -4.0770     1.3820 H     1 <1>   0.0800 
 35 H       -0.4200    -5.9030     1.0980 H     1 <1>   0.0800 
 36 H       -0.0900    -6.4310    -0.5210 H     1 <1>   0.0800 
 37 H       -1.9030    -7.5630     0.5880 H     1 <1>   0.1500 
 38 H       -4.1340    -4.4520    -1.3710 H     1 <1>   0.1500 
 39 H       -3.8620    -8.9630     0.5510 H     1 <1>   0.1500 
 40 H       -6.0810    -5.8980    -1.3850 H     1 <1>   0.1500 
 41 H       -5.9640    -8.1570    -0.4270 H     1 <1>   0.1500 
@<TRIPOS>BOND
  1   1   2  1   
  2   1   3  1   
  3   2   4  2   
  4   2   5  1   
  5   3   6  2   
  6   3  22  1   
  7   4   6  1   
  8   5   7  1   
  9   5  23  1   
 10   5  24  1   
 11   6   8  1   
 12   7   9  1   
 13   7  10  1   
 14   7  25  1   
 15   8  26  1   
 16   8  27  1   
 17   8  28  1   
 18   9  11  1   
 19   9  29  1   
 20   9  30  1   
 21  10  12  1   
 22  10  31  1   
 23  10  32  1   
 24  11  13  1   
 25  11  33  1   
 26  11  34  1   
 27  12  13  1   
 28  12  35  1   
 29  12  36  1   
 30  13  14  1   
 31  13  15  1   
 32  14  16  3   
 33  15  17  ar  
 34  15  18  ar  
 35  17  19  ar  
 36  17  37  1   
 37  18  20  ar  
 38  18  38  1   
 39  19  21  ar  
 40  19  39  1   
 41  20  21  ar  
 42  20  40  1   
 43  21  41  1   
@<TRIPOS>SUBSTRUCTURE
  1 ****  11 GROUP 4 **** **** 0

# MOE 2024.06 (io_trps.svl 2023.06)
