@<TRIPOS>MOLECULE
NONAME
40 42 1 0 0 
SMALL
USER_CHARGES


@<TRIPOS>ATOM
  1 O        1.5670    -0.7000     1.5540 O.3   1 <1>  -0.0190 
  2 N        1.7270     0.5660     1.7840 N.2   1 <1>  -0.4100 
  3 C        1.3160    -0.9360     0.2950 C.2   1 <1>  -0.0400 
  4 C        1.5930     1.1600     0.6520 C.2   1 <1>   0.1080 
  5 C        1.3220     0.2380    -0.3560 C.2   1 <1>  -0.1500 
  6 C        1.0680    -2.3640    -0.1430 C.3   1 <1>   0.5230 
  7 C        1.7170     2.6550     0.4570 C.3   1 <1>  -0.0590 
  8 N       -0.0060    -2.9780     0.7030 N.4   1 <1>  -0.9590 
  9 C       -0.1660    -4.4450     0.4640 C.3   1 <1>   0.6030 
 10 C       -1.2350    -2.1240     0.7090 C.3   1 <1>   0.3430 
 11 C        1.2180    -5.0910     0.4900 C.2   1 <1>  -0.0400 
 12 C       -0.9730    -4.7510    -0.8070 C.3   1 <1>  -0.1600 
 13 C       -2.5170    -2.8570     1.1030 C.3   1 <1>  -0.1600 
 14 O        1.9560    -4.8720     1.5640 O.3   1 <1>  -0.2800 
 15 C        1.8990    -5.8600    -0.3920 C.2   1 <1>  -0.1500 
 16 C       -2.4790    -4.8700    -0.5200 C.3   1 <1>  -0.1600 
 17 C       -3.1660    -3.5680    -0.0950 C.3   1 <1>  -0.1600 
 18 C        3.1070    -5.4940     1.3980 C.2   1 <1>  -0.0100 
 19 C        3.1360    -6.1240     0.2070 C.2   1 <1>  -0.1500 
 20 H        1.1630     0.4710    -1.3940 H     1 <1>   0.1500 
 21 H        1.9900    -2.9130    -0.0340 H     1 <1>   0.0800 
 22 H        0.7820    -2.3800    -1.1810 H     1 <1>   0.0800 
 23 H        1.9200     3.1340     1.3990 H     1 <1>   0.0800 
 24 H        0.8020     3.0520     0.0570 H     1 <1>   0.0800 
 25 H        2.5230     2.8710    -0.2200 H     1 <1>   0.0800 
 26 H        0.3870    -2.9360     1.6540 H     1 <1>   0.4500 
 27 H       -0.7090    -4.8670     1.2950 H     1 <1>   0.0800 
 28 H       -1.3810    -1.6930    -0.2680 H     1 <1>   0.0800 
 29 H       -1.0790    -1.3050     1.3960 H     1 <1>   0.0800 
 30 H       -0.6710    -5.7130    -1.1810 H     1 <1>   0.0800 
 31 H       -0.7800    -4.0330    -1.5820 H     1 <1>   0.0800 
 32 H       -3.2140    -2.1050     1.4340 H     1 <1>   0.0800 
 33 H       -2.3640    -3.5210     1.9350 H     1 <1>   0.0800 
 34 H        1.6100    -6.2280    -1.3630 H     1 <1>   0.1500 
 35 H       -2.6370    -5.6130     0.2450 H     1 <1>   0.0800 
 36 H       -2.9700    -5.2330    -1.4080 H     1 <1>   0.0800 
 37 H       -3.2090    -2.8950    -0.9360 H     1 <1>   0.0800 
 38 H       -4.1860    -3.8040     0.1620 H     1 <1>   0.0800 
 39 H        3.8490    -5.4400     2.1780 H     1 <1>   0.1500 
 40 H        3.9280    -6.7170    -0.2200 H     1 <1>   0.1500 
@<TRIPOS>BOND
  1   1   2  1   
  2   1   3  1   
  3   2   4  2   
  4   3   5  2   
  5   3   6  1   
  6   4   5  1   
  7   4   7  1   
  8   5  20  1   
  9   6   8  1   
 10   6  21  1   
 11   6  22  1   
 12   7  23  1   
 13   7  24  1   
 14   7  25  1   
 15   8   9  1   
 16   8  10  1   
 17   8  26  1   
 18   9  11  1   
 19   9  12  1   
 20   9  27  1   
 21  10  13  1   
 22  10  28  1   
 23  10  29  1   
 24  11  14  1   
 25  11  15  2   
 26  12  16  1   
 27  12  30  1   
 28  12  31  1   
 29  13  17  1   
 30  13  32  1   
 31  13  33  1   
 32  14  18  1   
 33  15  19  1   
 34  15  34  1   
 35  16  17  1   
 36  16  35  1   
 37  16  36  1   
 38  17  37  1   
 39  17  38  1   
 40  18  19  2   
 41  18  39  1   
 42  19  40  1   
@<TRIPOS>SUBSTRUCTURE
  1 ****   8 GROUP 4 **** **** 0

# MOE 2024.06 (io_trps.svl 2023.06)
