@<TRIPOS>MOLECULE
NONAME
47 49 1 0 0 
SMALL
USER_CHARGES


@<TRIPOS>ATOM
  1 O        0.7790     0.6390    -1.4510 O.co2 1 <1>  -0.9000 
  2 C        0.6310     1.8460    -1.1950 C.2   1 <1>   0.9790 
  3 O       -0.4720     2.3720    -1.4190 O.co2 1 <1>  -0.9000 
  4 C        1.7520     2.6120    -0.6830 C.ar  1 <1>  -0.1790 
  5 C        1.6300     3.6480     0.2480 C.ar  1 <1>   0.1660 
  6 C        3.0350     2.3130    -1.1280 C.ar  1 <1>  -0.1500 
  7 N        2.6410     4.3620     0.7140 N.ar  1 <1>  -0.6200 
  8 C        0.2780     4.0320     0.8220 C.3   1 <1>  -0.0960 
  9 C        4.1040     3.0420    -0.6580 C.ar  1 <1>   0.0730 
 10 C        3.8540     4.0620     0.2660 C.ar  1 <1>   0.4100 
 11 C        5.4360     2.7720    -1.1020 C.1   1 <1>   0.4840 
 12 N        4.8780     4.8270     0.7890 N.pl3 1 <1>  -0.8380 
 13 N        6.4940     2.5430    -1.4670 N.1   1 <1>  -0.5570 
 14 C        4.7670     6.3060     0.6720 C.3   1 <1>   0.2090 
 15 C        5.5370     4.3280     2.0230 C.3   1 <1>   0.1290 
 16 C        6.0940     6.9080     0.1950 C.3   1 <1>  -0.0800 
 17 C        5.9960     8.4130    -0.0330 C.3   1 <1>   0.2090 
 18 C        6.5750     6.3690    -1.1500 C.3   1 <1>  -0.1600 
 19 N        7.0030     8.7280    -1.0780 N.pl3 1 <1>  -0.8380 
 20 C        7.4740     7.4660    -1.7050 C.3   1 <1>   0.2090 
 21 C        7.9830     9.6550    -0.7360 C.ar  1 <1>   0.1000 
 22 C        8.0450    10.8640    -1.4150 C.ar  1 <1>  -0.1500 
 23 C        8.9100     9.4080     0.2710 C.ar  1 <1>  -0.1500 
 24 C        9.0050    11.8070    -1.0990 C.ar  1 <1>  -0.1500 
 25 C        9.8740    10.3470     0.5920 C.ar  1 <1>  -0.1500 
 26 C        9.9220    11.5500    -0.0940 C.ar  1 <1>  -0.1500 
 27 H        3.1710     1.5120    -1.8370 H     1 <1>   0.1500 
 28 H       -0.2690     3.1510     1.1040 H     1 <1>   0.0800 
 29 H       -0.2860     4.5650     0.0780 H     1 <1>   0.0800 
 30 H        0.3920     4.6560     1.6880 H     1 <1>   0.0800 
 31 H        4.4850     6.7220     1.6240 H     1 <1>   0.0800 
 32 H        3.9910     6.5470    -0.0360 H     1 <1>   0.0800 
 33 H        5.3850     3.2660     2.1200 H     1 <1>   0.0800 
 34 H        5.1180     4.8150     2.8860 H     1 <1>   0.0800 
 35 H        6.5940     4.5220     1.9770 H     1 <1>   0.0800 
 36 H        6.8510     6.7390     0.9390 H     1 <1>   0.0800 
 37 H        6.1840     8.9640     0.8730 H     1 <1>   0.0800 
 38 H        5.0240     8.6780    -0.4120 H     1 <1>   0.0800 
 39 H        5.7420     6.2310    -1.8170 H     1 <1>   0.0800 
 40 H        7.0990     5.4360    -1.0510 H     1 <1>   0.0800 
 41 H        7.3960     7.5300    -2.7760 H     1 <1>   0.0800 
 42 H        8.5000     7.2810    -1.4350 H     1 <1>   0.0800 
 43 H        7.3270    11.0510    -2.1920 H     1 <1>   0.1500 
 44 H        8.8710     8.4740     0.7990 H     1 <1>   0.1500 
 45 H        9.0390    12.7400    -1.6350 H     1 <1>   0.1500 
 46 H       10.5850    10.1450     1.3720 H     1 <1>   0.1500 
 47 H       10.6710    12.2830     0.1540 H     1 <1>   0.1500 
@<TRIPOS>BOND
  1   1   2  ar  
  2   2   3  ar  
  3   2   4  1   
  4   4   5  ar  
  5   4   6  ar  
  6   5   7  ar  
  7   5   8  1   
  8   6   9  ar  
  9   6  27  1   
 10   7  10  ar  
 11   8  28  1   
 12   8  29  1   
 13   8  30  1   
 14   9  10  ar  
 15   9  11  1   
 16  10  12  1   
 17  11  13  3   
 18  12  14  1   
 19  12  15  1   
 20  14  16  1   
 21  14  31  1   
 22  14  32  1   
 23  15  33  1   
 24  15  34  1   
 25  15  35  1   
 26  16  17  1   
 27  16  18  1   
 28  16  36  1   
 29  17  19  1   
 30  17  37  1   
 31  17  38  1   
 32  18  20  1   
 33  18  39  1   
 34  18  40  1   
 35  19  20  1   
 36  19  21  1   
 37  20  41  1   
 38  20  42  1   
 39  21  22  ar  
 40  21  23  ar  
 41  22  24  ar  
 42  22  43  1   
 43  23  25  ar  
 44  23  44  1   
 45  24  26  ar  
 46  24  45  1   
 47  25  26  ar  
 48  25  46  1   
 49  26  47  1   
@<TRIPOS>SUBSTRUCTURE
  1 ****  14 GROUP 4 **** **** 0

# MOE 2024.06 (io_trps.svl 2023.06)
