@<TRIPOS>MOLECULE
NONAME
63 65 1 0 0 
SMALL
USER_CHARGES


@<TRIPOS>ATOM
  1 O       -0.6640    -0.3880     0.6720 O.3   1 <1>  -0.6800 
  2 C        0.7150    -0.4810     0.6190 C.3   1 <1>   0.1200 
  3 C        1.1870     0.3000    -0.6180 C.3   1 <1>   0.3430 
  4 N        2.6030    -0.0140    -0.9910 N.4   1 <1>  -0.9590 
  5 C        3.2290     1.0010    -1.8740 C.3   1 <1>   0.4860 
  6 C        2.7940    -1.4050    -1.4820 C.3   1 <1>   0.5230 
  7 C        3.3440     2.3170    -1.1160 C.ar  1 <1>  -0.1430 
  8 C        3.5860    -2.1450    -0.4110 C.2   1 <1>   0.0070 
  9 C        4.3280     2.5710    -0.1570 C.ar  1 <1>  -0.1430 
 10 C        2.4000     3.2890    -1.4100 C.ar  1 <1>  -0.1500 
 11 N        4.0560    -1.5680     0.6560 N.2   1 <1>  -0.5650 
 12 N        3.8640    -3.4700    -0.4720 N.pl3 1 <1>   0.0330 
 13 C        4.3310     3.8030     0.5020 C.ar  1 <1>  -0.1430 
 14 C        5.3880     1.5240     0.1980 C.3   1 <1>  -0.0970 
 15 C        2.3950     4.5000    -0.7480 C.ar  1 <1>  -0.1430 
 16 C        4.6680    -2.5670     1.3220 C.2   1 <1>   0.0770 
 17 C        4.5590    -3.7310     0.6480 C.2   1 <1>  -0.3020 
 18 C        3.3570     4.7460     0.2100 C.ar  1 <1>  -0.1500 
 19 C        5.3640     4.1690     1.5600 C.3   1 <1>   0.4860 
 20 C        1.3410     5.5460    -1.0720 C.3   1 <1>  -0.0970 
 21 N        6.5800     4.7250     0.9000 N.4   1 <1>  -0.9590 
 22 C        7.7210     4.8130     1.8560 C.3   1 <1>   0.3430 
 23 C        6.3110     6.0330     0.2320 C.3   1 <1>   0.3430 
 24 C        8.9860     5.2440     1.1150 C.3   1 <1>  -0.1600 
 25 C        7.5520     6.4870    -0.5350 C.3   1 <1>  -0.1600 
 26 C        8.7850     6.5740     0.3760 C.3   1 <1>  -0.0800 
 27 C       10.0330     6.9360    -0.4360 C.3   1 <1>  -0.2400 
 28 H       -1.0220    -0.7990     1.4880 H     1 <1>   0.4000 
 29 H        0.9680    -1.5250     0.5600 H     1 <1>   0.0800 
 30 H        1.1210    -0.0520     1.5200 H     1 <1>   0.0800 
 31 H        1.0920     1.3500    -0.3970 H     1 <1>   0.0800 
 32 H        0.5360     0.0690    -1.4440 H     1 <1>   0.0800 
 33 H        3.1580    -0.0130    -0.1140 H     1 <1>   0.4500 
 34 H        2.6320     1.1400    -2.7610 H     1 <1>   0.0800 
 35 H        4.2110     0.6780    -2.1770 H     1 <1>   0.0800 
 36 H        3.3450    -1.4100    -2.4080 H     1 <1>   0.0800 
 37 H        1.8420    -1.8850    -1.6360 H     1 <1>   0.0800 
 38 H        1.6470     3.1120    -2.1610 H     1 <1>   0.1500 
 39 H        3.6120    -4.1550    -1.1950 H     1 <1>   0.2700 
 40 H        5.4430     0.7250    -0.5160 H     1 <1>   0.0800 
 41 H        5.1670     1.0910     1.1590 H     1 <1>   0.0800 
 42 H        6.3670     1.9620     0.2390 H     1 <1>   0.0800 
 43 H        5.1620    -2.4020     2.2670 H     1 <1>   0.1500 
 44 H        4.9330    -4.7080     0.9040 H     1 <1>   0.1500 
 45 H        3.3370     5.6900     0.7280 H     1 <1>   0.1500 
 46 H        5.6210     3.2870     2.1240 H     1 <1>   0.0800 
 47 H        4.9490     4.8930     2.2420 H     1 <1>   0.0800 
 48 H        0.4110     5.0770    -1.3390 H     1 <1>   0.0800 
 49 H        1.6690     6.1540    -1.8960 H     1 <1>   0.0800 
 50 H        1.1620     6.1820    -0.2240 H     1 <1>   0.0800 
 51 H        6.8360     4.0700     0.1530 H     1 <1>   0.4500 
 52 H        7.8900     3.8560     2.3240 H     1 <1>   0.0800 
 53 H        7.4960     5.5330     2.6270 H     1 <1>   0.0800 
 54 H        6.0520     6.7760     0.9700 H     1 <1>   0.0800 
 55 H        5.4870     5.9370    -0.4570 H     1 <1>   0.0800 
 56 H        9.2730     4.4720     0.4220 H     1 <1>   0.0800 
 57 H        9.7870     5.3500     1.8270 H     1 <1>   0.0800 
 58 H        7.3580     7.4540    -0.9670 H     1 <1>   0.0800 
 59 H        7.7360     5.8060    -1.3480 H     1 <1>   0.0800 
 60 H        8.6220     7.3540     1.1040 H     1 <1>   0.0800 
 61 H       10.2410     6.1870    -1.1810 H     1 <1>   0.0800 
 62 H       10.8900     7.0220     0.2100 H     1 <1>   0.0800 
 63 H        9.8960     7.8810    -0.9340 H     1 <1>   0.0800 
@<TRIPOS>BOND
  1   1   2  1   
  2   1  28  1   
  3   2   3  1   
  4   2  29  1   
  5   2  30  1   
  6   3   4  1   
  7   3  31  1   
  8   3  32  1   
  9   4   5  1   
 10   4   6  1   
 11   4  33  1   
 12   5   7  1   
 13   5  34  1   
 14   5  35  1   
 15   6   8  1   
 16   6  36  1   
 17   6  37  1   
 18   7   9  ar  
 19   7  10  ar  
 20   8  11  2   
 21   8  12  1   
 22   9  13  ar  
 23   9  14  1   
 24  10  15  ar  
 25  10  38  1   
 26  11  16  1   
 27  12  17  1   
 28  12  39  1   
 29  13  18  ar  
 30  13  19  1   
 31  14  40  1   
 32  14  41  1   
 33  14  42  1   
 34  15  18  ar  
 35  15  20  1   
 36  16  17  2   
 37  16  43  1   
 38  17  44  1   
 39  18  45  1   
 40  19  21  1   
 41  19  46  1   
 42  19  47  1   
 43  20  48  1   
 44  20  49  1   
 45  20  50  1   
 46  21  22  1   
 47  21  23  1   
 48  21  51  1   
 49  22  24  1   
 50  22  52  1   
 51  22  53  1   
 52  23  25  1   
 53  23  54  1   
 54  23  55  1   
 55  24  26  1   
 56  24  56  1   
 57  24  57  1   
 58  25  26  1   
 59  25  58  1   
 60  25  59  1   
 61  26  27  1   
 62  26  60  1   
 63  27  61  1   
 64  27  62  1   
 65  27  63  1   
@<TRIPOS>SUBSTRUCTURE
  1 ****   9 GROUP 4 **** **** 0

# MOE 2024.06 (io_trps.svl 2023.06)
