@<TRIPOS>MOLECULE
NONAME
24 24 1 0 0 
SMALL
USER_CHARGES


@<TRIPOS>ATOM
  1 N       -5.1020     1.7040    -0.5350 N.4   1 <1>  -0.9280 
  2 C       -3.9180     2.6250    -0.6040 C.3   1 <1>   0.4720 
  3 C       -5.9990     1.8340     0.6670 C.3   1 <1>   0.2630 
  4 C       -4.6700     0.2750    -0.6790 C.3   1 <1>   0.2630 
  5 C       -3.0010     2.6880     0.6520 C.3   1 <1>   0.0000 
  6 C       -4.2100     4.1420    -0.4210 C.3   1 <1>   0.0000 
  7 C       -2.9520     4.2330     0.4880 C.3   1 <1>   0.4720 
  8 N       -1.7340     4.7480    -0.1910 N.4   1 <1>  -0.8220 
  9 H       -5.6880     1.9120    -1.3620 H     1 <1>   0.4500 
 10 H       -3.3430     2.4500    -1.4950 H     1 <1>   0.0000 
 11 H       -5.4620     1.5990     1.5720 H     1 <1>   0.0800 
 12 H       -6.8300     1.1520     0.5840 H     1 <1>   0.0800 
 13 H       -6.3950     2.8330     0.7450 H     1 <1>   0.0800 
 14 H       -4.0600    -0.0230     0.1600 H     1 <1>   0.0800 
 15 H       -4.1000     0.1410    -1.5850 H     1 <1>   0.0800 
 16 H       -5.5300    -0.3750    -0.7210 H     1 <1>   0.0800 
 17 H       -2.0460     2.2120     0.5130 H     1 <1>   0.0000 
 18 H       -3.4910     2.4050     1.5650 H     1 <1>   0.0000 
 19 H       -5.1080     4.3520     0.1300 H     1 <1>   0.0000 
 20 H       -4.1230     4.7100    -1.3300 H     1 <1>   0.0000 
 21 H       -3.1390     4.7570     1.4080 H     1 <1>   0.0000 
 22 H       -1.5110     4.2840    -1.0780 H     1 <1>   0.4500 
 23 H       -0.9160     4.6540     0.4260 H     1 <1>   0.4500 
 24 H       -1.8330     5.7550    -0.3810 H     1 <1>   0.4500 
@<TRIPOS>BOND
  1   1   2  1   
  2   1   3  1   
  3   1   4  1   
  4   1   9  1   
  5   2   5  1   
  6   2   6  1   
  7   2  10  1   
  8   3  11  1   
  9   3  12  1   
 10   3  13  1   
 11   4  14  1   
 12   4  15  1   
 13   4  16  1   
 14   5   7  1   
 15   5  17  1   
 16   5  18  1   
 17   6   7  1   
 18   6  19  1   
 19   6  20  1   
 20   7   8  1   
 21   7  21  1   
 22   8  22  1   
 23   8  23  1   
 24   8  24  1   
@<TRIPOS>SUBSTRUCTURE
  1 ****   2 GROUP 4 **** **** 0

# MOE 2024.06 (io_trps.svl 2023.06)
