@<TRIPOS>MOLECULE
NONAME
51 53 1 0 0 
SMALL
USER_CHARGES


@<TRIPOS>ATOM
  1 F        0.9570     0.0260    -1.3620 F     1 <1>  -0.1900 
  2 C        1.8140     0.9040    -0.8810 C.ar  1 <1>   0.1900 
  3 C        3.0070     0.5180    -0.2660 C.ar  1 <1>   0.4100 
  4 C        1.5140     2.2330    -0.9860 C.ar  1 <1>   0.1600 
  5 N        3.8110     1.4510     0.2160 N.ar  1 <1>  -0.6200 
  6 N        3.4230    -0.8030    -0.1080 N.pl3 1 <1>  -0.8380 
  7 N        2.3210     3.1640    -0.5170 N.ar  1 <1>  -0.6200 
  8 C        3.4220     2.7040     0.0690 C.ar  1 <1>   0.7200 
  9 C        3.0790    -1.8880    -1.0580 C.3   1 <1>   0.2090 
 10 C        4.6380    -1.1570     0.6660 C.3   1 <1>   0.2090 
 11 N        4.2860     3.6020     0.5880 N.pl3 1 <1>  -0.8690 
 12 C        4.2470    -2.8650    -0.9840 C.3   1 <1>  -0.1600 
 13 C        4.8510    -2.6400     0.3980 C.3   1 <1>  -0.1600 
 14 C        4.5280     4.8990    -0.0540 C.3   1 <1>   0.4330 
 15 C        6.0370     5.0860    -0.1080 C.ar  1 <1>  -0.1430 
 16 C        3.7680     5.9830     0.7350 C.3   1 <1>  -0.1600 
 17 C        6.7840     5.2370     1.0530 C.ar  1 <1>   0.1600 
 18 C        6.6970     5.0980    -1.3230 C.ar  1 <1>  -0.1500 
 19 C        3.7060     7.4100     0.1320 C.3   1 <1>   0.0000 
 20 N        8.0960     5.4070     1.0980 N.ar  1 <1>  -0.6200 
 21 C        8.0640     5.2730    -1.2950 C.ar  1 <1>  -0.1500 
 22 C        3.1790     7.3860    -1.3110 C.3   1 <1>  -0.2400 
 23 C        2.7340     8.2390     0.9850 C.3   1 <1>  -0.2400 
 24 C        5.0700     8.1170     0.1590 C.3   1 <1>  -0.2400 
 25 C        8.7040     5.4220    -0.0770 C.ar  1 <1>   0.1600 
 26 H        0.5980     2.5400    -1.4590 H     1 <1>   0.1500 
 27 H        2.9530    -1.5080    -2.0580 H     1 <1>   0.0800 
 28 H        2.1710    -2.3650    -0.7310 H     1 <1>   0.0800 
 29 H        4.4940    -0.9560     1.7140 H     1 <1>   0.0800 
 30 H        5.4750    -0.5870     0.2990 H     1 <1>   0.0800 
 31 H        5.1510     3.1340     0.8510 H     1 <1>   0.4000 
 32 H        4.9640    -2.6050    -1.7430 H     1 <1>   0.0800 
 33 H        3.9270    -3.8810    -1.1340 H     1 <1>   0.0800 
 34 H        4.3080    -3.2080     1.1330 H     1 <1>   0.0800 
 35 H        5.8920    -2.9080     0.4420 H     1 <1>   0.0800 
 36 H        4.1450     4.8640    -1.0600 H     1 <1>   0.0800 
 37 H        4.1670     6.0390     1.7300 H     1 <1>   0.0800 
 38 H        2.7550     5.6330     0.8290 H     1 <1>   0.0800 
 39 H        6.2750     5.2170     2.0010 H     1 <1>   0.1500 
 40 H        6.1730     4.9770    -2.2550 H     1 <1>   0.1500 
 41 H        8.6320     5.2930    -2.2070 H     1 <1>   0.1500 
 42 H        2.2430     6.8590    -1.3610 H     1 <1>   0.0800 
 43 H        3.8790     6.9080    -1.9720 H     1 <1>   0.0800 
 44 H        3.0220     8.3880    -1.6690 H     1 <1>   0.0800 
 45 H        1.7520     7.8000     0.9770 H     1 <1>   0.0800 
 46 H        2.6550     9.2440     0.6080 H     1 <1>   0.0800 
 47 H        3.0740     8.2890     2.0050 H     1 <1>   0.0800 
 48 H        5.7610     7.6670    -0.5290 H     1 <1>   0.0800 
 49 H        5.4980     8.0810     1.1450 H     1 <1>   0.0800 
 50 H        4.9640     9.1490    -0.1240 H     1 <1>   0.0800 
 51 H        9.7720     5.5590    -0.0680 H     1 <1>   0.1500 
@<TRIPOS>BOND
  1   1   2  1   
  2   2   3  ar  
  3   2   4  ar  
  4   3   5  ar  
  5   3   6  1   
  6   4   7  ar  
  7   4  26  1   
  8   5   8  ar  
  9   6   9  1   
 10   6  10  1   
 11   7   8  ar  
 12   8  11  1   
 13   9  12  1   
 14   9  27  1   
 15   9  28  1   
 16  10  13  1   
 17  10  29  1   
 18  10  30  1   
 19  11  14  1   
 20  11  31  1   
 21  12  13  1   
 22  12  32  1   
 23  12  33  1   
 24  13  34  1   
 25  13  35  1   
 26  14  15  1   
 27  14  16  1   
 28  14  36  1   
 29  15  17  ar  
 30  15  18  ar  
 31  16  19  1   
 32  16  37  1   
 33  16  38  1   
 34  17  20  ar  
 35  17  39  1   
 36  18  21  ar  
 37  18  40  1   
 38  19  22  1   
 39  19  23  1   
 40  19  24  1   
 41  20  25  ar  
 42  21  25  ar  
 43  21  41  1   
 44  22  42  1   
 45  22  43  1   
 46  22  44  1   
 47  23  45  1   
 48  23  46  1   
 49  23  47  1   
 50  24  48  1   
 51  24  49  1   
 52  24  50  1   
 53  25  51  1   
@<TRIPOS>SUBSTRUCTURE
  1 ****  11 GROUP 4 **** **** 0

# MOE 2024.06 (io_trps.svl 2023.06)
