@<TRIPOS>MOLECULE
NONAME
31 32 1 0 0 
SMALL
USER_CHARGES


@<TRIPOS>ATOM
  1 S        1.5400    -0.7350    -2.0910 S.3   1 <1>  -0.0800 
  2 C        1.2430    -0.7710    -0.3670 C.2   1 <1>   0.4620 
  3 C        0.9080    -2.3480    -2.2010 C.2   1 <1>  -0.1100 
  4 N        0.7310    -1.8600     0.0580 N.2   1 <1>  -0.5650 
  5 N        1.5640     0.3160     0.3730 N.pl3 1 <1>  -0.8840 
  6 C        0.5230    -2.7830    -0.9800 C.2   1 <1>   0.1410 
  7 C       -0.0360    -4.1100    -0.7280 C.2   1 <1>   0.7160 
  8 O        0.2710    -5.0320    -1.4680 O.2   1 <1>  -0.5700 
  9 N       -0.9150    -4.3930     0.2980 N.am  1 <1>  -0.6600 
 10 C       -0.9530    -5.7610     0.8940 C.3   1 <1>   0.3200 
 11 C       -1.8490    -3.3830     0.8880 C.3   1 <1>   0.1400 
 12 C       -1.9650    -6.6450     0.1840 C.2   1 <1>   0.0060 
 13 C       -3.3180    -3.7530     0.6440 C.3   1 <1>   0.1200 
 14 N       -2.9720    -7.2290     0.7540 N.2   1 <1>  -0.5650 
 15 N       -1.8790    -6.8880    -1.1400 N.pl3 1 <1>   0.0330 
 16 O       -4.1300    -2.7220     1.0970 O.3   1 <1>  -0.6800 
 17 C       -3.5740    -7.8870    -0.2560 C.2   1 <1>   0.0770 
 18 C       -2.9210    -7.6900    -1.4220 C.2   1 <1>  -0.3020 
 19 H        0.8880    -2.8220    -3.1650 H     1 <1>   0.1500 
 20 H        1.4500     0.2890     1.3870 H     1 <1>   0.4000 
 21 H        2.0300     1.1310    -0.0270 H     1 <1>   0.4000 
 22 H       -1.2050    -5.6970     1.9380 H     1 <1>   0.0800 
 23 H        0.0210    -6.2150     0.8200 H     1 <1>   0.0800 
 24 H       -1.6810    -2.4200     0.4400 H     1 <1>   0.0800 
 25 H       -1.6600    -3.3040     1.9440 H     1 <1>   0.0800 
 26 H       -3.5960    -4.6510     1.1660 H     1 <1>   0.0800 
 27 H       -3.5010    -3.8750    -0.4100 H     1 <1>   0.0800 
 28 H       -1.1550    -6.5000    -1.7630 H     1 <1>   0.2700 
 29 H       -4.1810    -2.7230     2.0720 H     1 <1>   0.4000 
 30 H       -4.4600    -8.4770    -0.0880 H     1 <1>   0.1500 
 31 H       -3.1330    -8.0640    -2.4070 H     1 <1>   0.1500 
@<TRIPOS>BOND
  1   1   2  1   
  2   1   3  1   
  3   2   4  2   
  4   2   5  1   
  5   3   6  2   
  6   3  19  1   
  7   4   6  1   
  8   5  20  1   
  9   5  21  1   
 10   6   7  1   
 11   7   8  2   
 12   7   9  am  
 13   9  10  1   
 14   9  11  1   
 15  10  12  1   
 16  10  22  1   
 17  10  23  1   
 18  11  13  1   
 19  11  24  1   
 20  11  25  1   
 21  12  14  2   
 22  12  15  1   
 23  13  16  1   
 24  13  26  1   
 25  13  27  1   
 26  14  17  1   
 27  15  18  1   
 28  15  28  1   
 29  16  29  1   
 30  17  18  2   
 31  17  30  1   
 32  18  31  1   
@<TRIPOS>SUBSTRUCTURE
  1 ****   9 GROUP 4 **** **** 0

# MOE 2024.06 (io_trps.svl 2023.06)
