@<TRIPOS>MOLECULE
NONAME
45 48 1 0 0 
SMALL
USER_CHARGES


@<TRIPOS>ATOM
  1 F       -1.6530    -0.4580     1.8640 F     1 <1>  -0.1900 
  2 C       -2.1340    -1.1110     0.8400 C.ar  1 <1>   0.1900 
  3 C       -2.5550    -0.4110    -0.2780 C.ar  1 <1>   0.1600 
  4 C       -2.2160    -2.4820     0.8980 C.ar  1 <1>  -0.1500 
  5 N       -3.0520    -0.9980    -1.3600 N.ar  1 <1>  -0.6200 
  6 C       -2.7430    -3.1210    -0.2170 C.ar  1 <1>   0.0860 
  7 C       -3.1180    -2.3230    -1.3010 C.ar  1 <1>   0.1600 
  8 C       -2.8950    -4.5580    -0.2690 C.2   1 <1>   0.5440 
  9 O       -1.9630    -5.2600     0.0690 O.2   1 <1>  -0.5700 
 10 N       -4.0690    -5.1490    -0.6830 N.am  1 <1>  -0.6600 
 11 C       -5.4130    -4.4890    -0.6230 C.3   1 <1>   0.1400 
 12 C       -4.1500    -6.6120    -0.9910 C.3   1 <1>   0.1400 
 13 C       -6.3670    -5.2570     0.3130 C.3   1 <1>   0.1900 
 14 C       -5.1420    -7.3210    -0.0560 C.3   1 <1>   0.1100 
 15 N       -6.4750    -6.6790    -0.0960 N.3   1 <1>  -0.8100 
 16 C       -7.7570    -4.5900     0.3270 C.3   1 <1>   0.1200 
 17 C       -7.4510    -7.3830     0.7700 C.3   1 <1>   0.3330 
 18 O       -8.6240    -5.2860     1.1750 O.3   1 <1>  -0.5600 
 19 C       -7.6880    -8.8120     0.2810 C.ar  1 <1>  -0.1430 
 20 C       -8.7970    -6.6280     0.8050 C.3   1 <1>   0.1200 
 21 C       -7.9250    -9.0750    -1.0610 C.ar  1 <1>  -0.1500 
 22 C       -7.6720    -9.8670     1.1820 C.ar  1 <1>  -0.1500 
 23 C       -8.1450   -10.3700    -1.4970 C.ar  1 <1>  -0.1500 
 24 C       -7.8920   -11.1630     0.7480 C.ar  1 <1>  -0.1500 
 25 C       -8.1290   -11.4150    -0.5920 C.ar  1 <1>  -0.1500 
 26 H       -2.4760     0.6620    -0.2780 H     1 <1>   0.1500 
 27 H       -1.8870    -3.0340     1.7610 H     1 <1>   0.1500 
 28 H       -3.4990    -2.8230    -2.1760 H     1 <1>   0.1500 
 29 H       -5.3240    -3.4790    -0.2670 H     1 <1>   0.0800 
 30 H       -5.8340    -4.4620    -1.6130 H     1 <1>   0.0800 
 31 H       -4.4780    -6.7400    -2.0070 H     1 <1>   0.0800 
 32 H       -3.1830    -7.0760    -0.8990 H     1 <1>   0.0800 
 33 H       -5.9660    -5.2020     1.3110 H     1 <1>   0.0800 
 34 H       -4.7520    -7.3060     0.9480 H     1 <1>   0.0800 
 35 H       -5.2210    -8.3490    -0.3660 H     1 <1>   0.0800 
 36 H       -8.1820    -4.5740    -0.6620 H     1 <1>   0.0800 
 37 H       -7.6850    -3.5820     0.6930 H     1 <1>   0.0800 
 38 H       -7.0660    -7.4170     1.7750 H     1 <1>   0.0800 
 39 H       -9.4550    -7.0850     1.5220 H     1 <1>   0.0800 
 40 H       -9.2680    -6.6600    -0.1610 H     1 <1>   0.0800 
 41 H       -7.9330    -8.2640    -1.7700 H     1 <1>   0.1500 
 42 H       -7.4900    -9.6870     2.2270 H     1 <1>   0.1500 
 43 H       -8.3280   -10.5620    -2.5400 H     1 <1>   0.1500 
 44 H       -7.8780   -11.9760     1.4530 H     1 <1>   0.1500 
 45 H       -8.3000   -12.4230    -0.9290 H     1 <1>   0.1500 
@<TRIPOS>BOND
  1   1   2  1   
  2   2   3  ar  
  3   2   4  ar  
  4   3   5  ar  
  5   3  26  1   
  6   4   6  ar  
  7   4  27  1   
  8   5   7  ar  
  9   6   7  ar  
 10   6   8  1   
 11   7  28  1   
 12   8   9  2   
 13   8  10  am  
 14  10  11  1   
 15  10  12  1   
 16  11  13  1   
 17  11  29  1   
 18  11  30  1   
 19  12  14  1   
 20  12  31  1   
 21  12  32  1   
 22  13  15  1   
 23  13  16  1   
 24  13  33  1   
 25  14  15  1   
 26  14  34  1   
 27  14  35  1   
 28  15  17  1   
 29  16  18  1   
 30  16  36  1   
 31  16  37  1   
 32  17  19  1   
 33  17  20  1   
 34  17  38  1   
 35  18  20  1   
 36  19  21  ar  
 37  19  22  ar  
 38  20  39  1   
 39  20  40  1   
 40  21  23  ar  
 41  21  41  1   
 42  22  24  ar  
 43  22  42  1   
 44  23  25  ar  
 45  23  43  1   
 46  24  25  ar  
 47  24  44  1   
 48  25  45  1   
@<TRIPOS>SUBSTRUCTURE
  1 ****  13 GROUP 4 **** **** 0

# MOE 2024.06 (io_trps.svl 2023.06)
