@<TRIPOS>MOLECULE
NONAME
28 29 1 0 0 
SMALL
USER_CHARGES


@<TRIPOS>ATOM
  1 O       -2.2110     3.1290    -0.9360 O.2   1 <1>  -0.5700 
  2 C       -3.1880     2.5330    -0.5560 C.2   1 <1>   0.5690 
  3 N       -4.4100     3.1150    -0.6220 N.am  1 <1>  -0.7300 
  4 C       -3.0540     1.1000    -0.0150 C.3   1 <1>   0.1710 
  5 C       -5.6520     2.5000    -0.0830 C.3   1 <1>   0.2200 
  6 N       -4.2230     0.6180     0.7730 N.3   1 <1>  -0.9000 
  7 C       -5.4890     0.9680     0.1030 C.3   1 <1>   0.1100 
  8 C       -6.8210     2.8400    -1.0180 C.3   1 <1>  -0.0170 
  9 C       -8.1300     2.2320    -0.5340 C.ar  1 <1>  -0.1440 
 10 C       -8.7720     2.7560     0.5770 C.ar  1 <1>  -0.1500 
 11 C       -8.6910     1.1490    -1.1940 C.ar  1 <1>  -0.1500 
 12 C       -9.9580     2.2020     1.0270 C.ar  1 <1>  -0.1500 
 13 C       -9.8770     0.5940    -0.7460 C.ar  1 <1>  -0.1500 
 14 C      -10.5110     1.1190     0.3650 C.ar  1 <1>  -0.1500 
 15 H       -4.4410     4.0920    -0.9120 H     1 <1>   0.3700 
 16 H       -2.1740     1.0520     0.6010 H     1 <1>   0.0800 
 17 H       -2.9020     0.4490    -0.8570 H     1 <1>   0.0800 
 18 H       -5.8470     2.9290     0.8840 H     1 <1>   0.0800 
 19 H       -4.1590    -0.4010     0.8840 H     1 <1>   0.3600 
 20 H       -5.5310     0.4850    -0.8590 H     1 <1>   0.0800 
 21 H       -6.3110     0.5980     0.6920 H     1 <1>   0.0800 
 22 H       -6.9360     3.9080    -1.0680 H     1 <1>   0.0800 
 23 H       -6.6000     2.4830    -2.0080 H     1 <1>   0.0800 
 24 H       -8.3550     3.5990     1.1000 H     1 <1>   0.1500 
 25 H       -8.2100     0.7300    -2.0620 H     1 <1>   0.1500 
 26 H      -10.4520     2.6130     1.8900 H     1 <1>   0.1500 
 27 H      -10.3070    -0.2460    -1.2620 H     1 <1>   0.1500 
 28 H      -11.4330     0.6880     0.7140 H     1 <1>   0.1500 
@<TRIPOS>BOND
  1   1   2  2   
  2   2   3  am  
  3   2   4  1   
  4   3   5  1   
  5   3  15  1   
  6   4   6  1   
  7   4  16  1   
  8   4  17  1   
  9   5   7  1   
 10   5   8  1   
 11   5  18  1   
 12   6   7  1   
 13   6  19  1   
 14   7  20  1   
 15   7  21  1   
 16   8   9  1   
 17   8  22  1   
 18   8  23  1   
 19   9  10  ar  
 20   9  11  ar  
 21  10  12  ar  
 22  10  24  1   
 23  11  13  ar  
 24  11  25  1   
 25  12  14  ar  
 26  12  26  1   
 27  13  14  ar  
 28  13  27  1   
 29  14  28  1   
@<TRIPOS>SUBSTRUCTURE
  1 ****   5 GROUP 4 **** **** 0

# MOE 2024.06 (io_trps.svl 2023.06)
