@<TRIPOS>MOLECULE
NONAME
33 34 1 0 0 
SMALL
USER_CHARGES


@<TRIPOS>ATOM
  1 S       -1.2730    -0.5440    -0.8900 S.3   1 <1>  -0.0800 
  2 C       -1.7930    -1.3130     0.5710 C.2   1 <1>   0.4420 
  3 C       -0.4010     0.5820     0.0980 C.2   1 <1>   0.1980 
  4 N       -1.3240    -0.7370     1.6180 N.2   1 <1>  -0.3380 
  5 N       -2.6130    -2.4090     0.4290 N.am  1 <1>  -0.4940 
  6 N       -0.5320     0.3440     1.3410 N.2   1 <1>  -0.3380 
  7 C        0.3920     1.7000    -0.5760 C.3   1 <1>   0.3800 
  8 C       -3.2240    -3.1920     1.3640 C.2   1 <1>   0.5690 
  9 O       -0.4250     2.4570    -1.4230 O.3   1 <1>  -0.5600 
 10 C        1.5410     1.1630    -1.4270 C.3   1 <1>  -0.2400 
 11 O       -3.1320    -3.0100     2.5510 O.2   1 <1>  -0.5700 
 12 C       -4.0580    -4.3650     0.8800 C.3   1 <1>   0.0820 
 13 C       -1.3770     3.2440    -0.7740 C.3   1 <1>   0.0400 
 14 C       -4.8130    -4.0660    -0.4080 C.2   1 <1>   0.0460 
 15 N       -4.0720    -3.8760    -1.5690 N.2   1 <1>  -0.5650 
 16 C       -6.1460    -3.9710    -0.5320 C.2   1 <1>  -0.1100 
 17 C       -4.8270    -3.6420    -2.5660 C.2   1 <1>   0.1980 
 18 S       -6.5350    -3.6230    -2.1910 S.3   1 <1>  -0.0800 
 19 C       -4.4300    -3.3840    -4.0010 C.3   1 <1>  -0.0600 
 20 H       -2.8450    -2.6710    -0.5350 H     1 <1>   0.3700 
 21 H        0.7920     2.3550     0.1800 H     1 <1>   0.0800 
 22 H        1.1630     0.5530    -2.2270 H     1 <1>   0.0800 
 23 H        2.1980     0.5690    -0.8180 H     1 <1>   0.0800 
 24 H        2.1010     1.9820    -1.8400 H     1 <1>   0.0800 
 25 H       -4.7590    -4.6260     1.6510 H     1 <1>   0.0800 
 26 H       -3.4100    -5.2070     0.7240 H     1 <1>   0.0800 
 27 H       -1.9140     3.8010    -1.5210 H     1 <1>   0.0800 
 28 H       -0.8820     3.9240    -0.1030 H     1 <1>   0.0800 
 29 H       -2.0630     2.6130    -0.2340 H     1 <1>   0.0800 
 30 H       -6.9580    -4.0660     0.1660 H     1 <1>   0.1500 
 31 H       -3.3610    -3.4270    -4.0980 H     1 <1>   0.0800 
 32 H       -4.7710    -2.4120    -4.3050 H     1 <1>   0.0800 
 33 H       -4.8690    -4.1290    -4.6390 H     1 <1>   0.0800 
@<TRIPOS>BOND
  1   1   2  1   
  2   1   3  1   
  3   2   4  2   
  4   2   5  1   
  5   3   6  2   
  6   3   7  1   
  7   4   6  1   
  8   5   8  am  
  9   5  20  1   
 10   7   9  1   
 11   7  10  1   
 12   7  21  1   
 13   8  11  2   
 14   8  12  1   
 15   9  13  1   
 16  10  22  1   
 17  10  23  1   
 18  10  24  1   
 19  12  14  1   
 20  12  25  1   
 21  12  26  1   
 22  13  27  1   
 23  13  28  1   
 24  13  29  1   
 25  14  15  1   
 26  14  16  2   
 27  15  17  2   
 28  16  18  1   
 29  16  30  1   
 30  17  18  1   
 31  17  19  1   
 32  19  31  1   
 33  19  32  1   
 34  19  33  1   
@<TRIPOS>SUBSTRUCTURE
  1 ****   5 GROUP 4 **** **** 0

# MOE 2024.06 (io_trps.svl 2023.06)
