@<TRIPOS>MOLECULE
NONAME
53 56 1 0 0 
SMALL
USER_CHARGES


@<TRIPOS>ATOM
  1 O        3.6770    -2.0770    -1.7960 O.2   1 <1>  -0.5700 
  2 C        2.8030    -1.7320    -1.0170 C.2   1 <1>   0.5440 
  3 N        2.7720    -0.3820    -0.7560 N.am  1 <1>  -0.6600 
  4 C        2.0050    -2.7250    -0.3100 C.ar  1 <1>   0.0860 
  5 C        3.0680     0.0370     0.6540 C.3   1 <1>   0.2200 
  6 C        2.9870     0.6030    -1.8630 C.3   1 <1>   0.1400 
  7 C        0.7390    -2.4740     0.2720 C.ar  1 <1>   0.1000 
  8 C        2.5330    -4.0160    -0.1780 C.ar  1 <1>  -0.1500 
  9 C        2.5500     1.4430     0.9910 C.3   1 <1>   0.1200 
 10 C        4.5910    -0.0820     0.9240 C.3   1 <1>   0.3430 
 11 C        4.0630     1.6680    -1.5740 C.3   1 <1>  -0.0800 
 12 N        0.0870    -1.2420     0.1680 N.pl3 1 <1>  -0.8380 
 13 C        0.0950    -3.5040     0.9580 C.ar  1 <1>  -0.1500 
 14 C        1.8790    -5.0180     0.5070 C.ar  1 <1>  -0.1500 
 15 O        3.5010     2.4120     0.6590 O.3   1 <1>  -0.5600 
 16 N        5.3980    -0.1510    -0.3490 N.4   1 <1>  -0.9590 
 17 C        3.5300     2.7950    -0.6740 C.3   1 <1>   0.1200 
 18 C        5.4370     1.1390    -1.1060 C.3   1 <1>   0.3430 
 19 C       -0.4250    -0.8300    -1.1780 C.3   1 <1>   0.2090 
 20 C       -0.6970    -0.6470     1.3010 C.3   1 <1>   0.2090 
 21 C        0.6510    -4.7580     1.0830 C.ar  1 <1>  -0.1500 
 22 C        6.7590    -0.7080    -0.1210 C.3   1 <1>   0.2630 
 23 C       -1.9590    -0.9250    -1.2540 C.3   1 <1>   0.1200 
 24 C       -2.2170    -0.7280     1.0600 C.3   1 <1>   0.1200 
 25 O       -2.5540    -0.2230    -0.2000 O.3   1 <1>  -0.5600 
 26 H        2.5570    -0.6380     1.3190 H     1 <1>   0.0800 
 27 H        3.2560     0.0770    -2.7640 H     1 <1>   0.0800 
 28 H        2.0490     1.0920    -2.0640 H     1 <1>   0.0800 
 29 H        3.4850    -4.2440    -0.6250 H     1 <1>   0.1500 
 30 H        2.3990     1.5160     2.0530 H     1 <1>   0.0800 
 31 H        1.6120     1.6500     0.5030 H     1 <1>   0.0800 
 32 H        4.7520    -0.9830     1.4900 H     1 <1>   0.0800 
 33 H        4.9190     0.7460     1.5310 H     1 <1>   0.0800 
 34 H        4.2440     2.1510    -2.5170 H     1 <1>   0.0800 
 35 H       -0.8700    -3.3300     1.3940 H     1 <1>   0.1500 
 36 H        2.3160    -5.9980     0.5900 H     1 <1>   0.1500 
 37 H        4.8610    -0.8130    -0.9570 H     1 <1>   0.4500 
 38 H        2.5420     3.1090    -0.9700 H     1 <1>   0.0800 
 39 H        4.1810     3.6510    -0.7360 H     1 <1>   0.0800 
 40 H        5.9150     1.8950    -0.5040 H     1 <1>   0.0800 
 41 H        6.0450     0.9920    -1.9830 H     1 <1>   0.0800 
 42 H       -0.1280     0.1850    -1.3730 H     1 <1>   0.0800 
 43 H        0.0050    -1.4540    -1.9420 H     1 <1>   0.0800 
 44 H       -0.4490    -1.1440     2.2220 H     1 <1>   0.0800 
 45 H       -0.4230     0.3880     1.4060 H     1 <1>   0.0800 
 46 H        0.1310    -5.5350     1.6170 H     1 <1>   0.1500 
 47 H        7.3320    -0.0510     0.5120 H     1 <1>   0.0800 
 48 H        7.2750    -0.8240    -1.0610 H     1 <1>   0.0800 
 49 H        6.6910    -1.6750     0.3500 H     1 <1>   0.0800 
 50 H       -2.2740    -1.9530    -1.2080 H     1 <1>   0.0800 
 51 H       -2.3110    -0.4970    -2.1750 H     1 <1>   0.0800 
 52 H       -2.7390    -0.1440     1.7970 H     1 <1>   0.0800 
 53 H       -2.5600    -1.7450     1.1240 H     1 <1>   0.0800 
@<TRIPOS>BOND
  1   1   2  2   
  2   2   3  am  
  3   2   4  1   
  4   3   5  1   
  5   3   6  1   
  6   4   7  ar  
  7   4   8  ar  
  8   5   9  1   
  9   5  10  1   
 10   5  26  1   
 11   6  11  1   
 12   6  27  1   
 13   6  28  1   
 14   7  12  1   
 15   7  13  ar  
 16   8  14  ar  
 17   8  29  1   
 18   9  15  1   
 19   9  30  1   
 20   9  31  1   
 21  10  16  1   
 22  10  32  1   
 23  10  33  1   
 24  11  17  1   
 25  11  18  1   
 26  11  34  1   
 27  12  19  1   
 28  12  20  1   
 29  13  21  ar  
 30  13  35  1   
 31  14  21  ar  
 32  14  36  1   
 33  15  17  1   
 34  16  18  1   
 35  16  22  1   
 36  16  37  1   
 37  17  38  1   
 38  17  39  1   
 39  18  40  1   
 40  18  41  1   
 41  19  23  1   
 42  19  42  1   
 43  19  43  1   
 44  20  24  1   
 45  20  44  1   
 46  20  45  1   
 47  21  46  1   
 48  22  47  1   
 49  22  48  1   
 50  22  49  1   
 51  23  25  1   
 52  23  50  1   
 53  23  51  1   
 54  24  25  1   
 55  24  52  1   
 56  24  53  1   
@<TRIPOS>SUBSTRUCTURE
  1 ****   3 GROUP 4 **** **** 0

# MOE 2024.06 (io_trps.svl 2023.06)
