@<TRIPOS>MOLECULE
NONAME
54 56 1 0 0 
SMALL
USER_CHARGES


@<TRIPOS>ATOM
  1 O       -2.3990     0.2260     2.4330 O.2   1 <1>  -0.5700 
  2 C       -2.1840     0.7530     1.3570 C.2   1 <1>   0.5440 
  3 N       -2.1830    -0.0240     0.2190 N.am  1 <1>  -0.6600 
  4 C       -1.9780     2.1850     1.3020 C.ar  1 <1>   0.0860 
  5 C       -2.1520    -1.5210     0.2860 C.3   1 <1>   0.3640 
  6 C       -2.2950     0.5720    -1.1440 C.3   1 <1>   0.1400 
  7 C       -0.7670     2.7420     0.8740 C.ar  1 <1>   0.0830 
  8 C       -3.0020     3.0540     1.6780 C.ar  1 <1>  -0.1500 
  9 C       -0.6970    -2.0150     0.1620 C.ar  1 <1>  -0.1440 
 10 C       -3.1430    -2.1230    -0.7530 C.3   1 <1>   0.2000 
 11 C       -2.1980    -0.4780    -2.2600 C.3   1 <1>   0.1200 
 12 O        0.2260     1.8870     0.5350 O.3   1 <1>  -0.3630 
 13 C       -0.6100     4.1240     0.8070 C.ar  1 <1>  -0.1500 
 14 C       -2.8450     4.4250     1.6120 C.ar  1 <1>  -0.1500 
 15 C        0.1920    -1.6810     1.1750 C.ar  1 <1>  -0.1500 
 16 C       -0.2250    -2.7890    -0.8950 C.ar  1 <1>  -0.1500 
 17 O       -3.0680    -1.5600    -2.0520 O.3   1 <1>  -0.5600 
 18 C       -4.5990    -1.9770    -0.2880 C.3   1 <1>   0.1200 
 19 C        1.3900     2.2790    -0.1510 C.3   1 <1>   0.1200 
 20 C       -1.6470     4.9620     1.1730 C.ar  1 <1>  -0.1500 
 21 C        1.5110    -2.0980     1.1380 C.ar  1 <1>  -0.1500 
 22 C        1.0950    -3.2040    -0.9380 C.ar  1 <1>  -0.1500 
 23 O       -4.8750    -2.8790     0.7360 O.3   1 <1>  -0.6800 
 24 C        2.1600     1.0060    -0.5030 C.3   1 <1>  -0.1600 
 25 C        1.9660    -2.8590     0.0790 C.ar  1 <1>  -0.1500 
 26 C        3.4040     1.3080    -1.3470 C.3   1 <1>  -0.1600 
 27 C        4.1550     0.0170    -1.6820 C.3   1 <1>  -0.2400 
 28 H       -2.4930    -1.8380     1.2570 H     1 <1>   0.0800 
 29 H       -3.2380     1.0840    -1.2260 H     1 <1>   0.0800 
 30 H       -1.5120     1.2930    -1.2890 H     1 <1>   0.0800 
 31 H       -3.9300     2.6350     2.0280 H     1 <1>   0.1500 
 32 H       -2.9430    -3.1720    -0.8640 H     1 <1>   0.0800 
 33 H       -1.1920    -0.8490    -2.3310 H     1 <1>   0.0800 
 34 H       -2.4530    -0.0330    -3.2060 H     1 <1>   0.0800 
 35 H        0.3140     4.5620     0.4810 H     1 <1>   0.1500 
 36 H       -3.6510     5.0760     1.9060 H     1 <1>   0.1500 
 37 H       -0.1440    -1.0840     2.0070 H     1 <1>   0.1500 
 38 H       -0.8690    -3.0800    -1.7040 H     1 <1>   0.1500 
 39 H       -5.2760    -2.1810    -1.0990 H     1 <1>   0.0800 
 40 H       -4.7760    -0.9840     0.0890 H     1 <1>   0.0800 
 41 H        1.0970     2.8070    -1.0420 H     1 <1>   0.0800 
 42 H        1.9710     2.9150     0.4930 H     1 <1>   0.0800 
 43 H       -1.5240     6.0300     1.1220 H     1 <1>   0.1500 
 44 H        2.1800    -1.8240     1.9360 H     1 <1>   0.1500 
 45 H        1.4450    -3.7990    -1.7640 H     1 <1>   0.1500 
 46 H       -4.9190    -3.7930     0.3940 H     1 <1>   0.4000 
 47 H        2.4570     0.5200     0.4100 H     1 <1>   0.0800 
 48 H        1.5110     0.3400    -1.0460 H     1 <1>   0.0800 
 49 H        2.9920    -3.1820     0.0470 H     1 <1>   0.1500 
 50 H        3.1130     1.7970    -2.2610 H     1 <1>   0.0800 
 51 H        4.0590     1.9700    -0.8050 H     1 <1>   0.0800 
 52 H        3.5200    -0.6540    -2.2340 H     1 <1>   0.0800 
 53 H        4.4760    -0.4760    -0.7810 H     1 <1>   0.0800 
 54 H        5.0230     0.2380    -2.2790 H     1 <1>   0.0800 
@<TRIPOS>BOND
  1   1   2  2   
  2   2   3  am  
  3   2   4  1   
  4   3   5  1   
  5   3   6  1   
  6   4   7  ar  
  7   4   8  ar  
  8   5   9  1   
  9   5  10  1   
 10   5  28  1   
 11   6  11  1   
 12   6  29  1   
 13   6  30  1   
 14   7  12  1   
 15   7  13  ar  
 16   8  14  ar  
 17   8  31  1   
 18   9  15  ar  
 19   9  16  ar  
 20  10  17  1   
 21  10  18  1   
 22  10  32  1   
 23  11  17  1   
 24  11  33  1   
 25  11  34  1   
 26  12  19  1   
 27  13  20  ar  
 28  13  35  1   
 29  14  20  ar  
 30  14  36  1   
 31  15  21  ar  
 32  15  37  1   
 33  16  22  ar  
 34  16  38  1   
 35  18  23  1   
 36  18  39  1   
 37  18  40  1   
 38  19  24  1   
 39  19  41  1   
 40  19  42  1   
 41  20  43  1   
 42  21  25  ar  
 43  21  44  1   
 44  22  25  ar  
 45  22  45  1   
 46  23  46  1   
 47  24  26  1   
 48  24  47  1   
 49  24  48  1   
 50  25  49  1   
 51  26  27  1   
 52  26  50  1   
 53  26  51  1   
 54  27  52  1   
 55  27  53  1   
 56  27  54  1   
@<TRIPOS>SUBSTRUCTURE
  1 ****   3 GROUP 4 **** **** 0

# MOE 2024.06 (io_trps.svl 2023.06)
