@<TRIPOS>MOLECULE
NONAME
45 46 1 0 0 
SMALL
USER_CHARGES


@<TRIPOS>ATOM
  1 N       -0.3790     0.1850     0.7210 N.ar  1 <1>  -0.6200 
  2 C       -1.4590     0.6840     0.1360 C.ar  1 <1>   0.4100 
  3 C        0.3810     1.1140     1.2820 C.ar  1 <1>   0.1600 
  4 N       -2.2670    -0.2700    -0.5120 N.pl3 1 <1>  -0.8380 
  5 C       -1.7660     2.0960     0.1400 C.ar  1 <1>   0.4100 
  6 C        0.0960     2.4630     1.2740 C.ar  1 <1>   0.1600 
  7 C       -2.3000    -1.6750    -0.0280 C.3   1 <1>   0.2090 
  8 C       -2.4470    -0.0960    -1.9810 C.3   1 <1>   0.1290 
  9 N       -0.9760     2.9960     0.7080 N.ar  1 <1>  -0.6200 
 10 N       -2.9320     2.6300    -0.4460 N.pl3 1 <1>  -0.8380 
 11 C       -3.7300    -2.2070    -0.0970 C.3   1 <1>  -0.1600 
 12 C       -4.2380     2.1140     0.0420 C.3   1 <1>   0.1290 
 13 C       -2.9580     4.0530    -0.8830 C.3   1 <1>   0.1290 
 14 C       -3.8180    -3.6010     0.5340 C.3   1 <1>   0.0960 
 15 N       -5.1920    -4.1310     0.4440 N.pl3 1 <1>   0.3140 
 16 N       -5.5750    -4.8780    -0.6070 N.2   1 <1>  -0.7070 
 17 C       -6.2040    -3.9690     1.3280 C.2   1 <1>  -0.3320 
 18 C       -6.8130    -5.1740    -0.3720 C.2   1 <1>   0.1080 
 19 C       -7.2660    -4.6330     0.8250 C.2   1 <1>  -0.1500 
 20 C       -6.1190    -3.1800     2.6240 C.3   1 <1>  -0.0600 
 21 C       -7.6370    -6.0150    -1.3180 C.3   1 <1>  -0.0590 
 22 H        1.2770     0.7750     1.7700 H     1 <1>   0.1500 
 23 H        0.7760     3.1430     1.7540 H     1 <1>   0.1500 
 24 H       -1.9640    -1.7120     0.9950 H     1 <1>   0.0800 
 25 H       -1.6360    -2.2790    -0.6230 H     1 <1>   0.0800 
 26 H       -2.0500     0.8520    -2.3000 H     1 <1>   0.0800 
 27 H       -3.4950    -0.1260    -2.2220 H     1 <1>   0.0800 
 28 H       -1.9350    -0.8780    -2.5130 H     1 <1>   0.0800 
 29 H       -4.0420    -2.2700    -1.1240 H     1 <1>   0.0800 
 30 H       -4.3790    -1.5330     0.4310 H     1 <1>   0.0800 
 31 H       -4.0950     1.2490     0.6660 H     1 <1>   0.0800 
 32 H       -4.8500     1.8340    -0.7970 H     1 <1>   0.0800 
 33 H       -4.7430     2.8700     0.6160 H     1 <1>   0.0800 
 34 H       -2.0200     4.3100    -1.3450 H     1 <1>   0.0800 
 35 H       -3.1140     4.6930    -0.0320 H     1 <1>   0.0800 
 36 H       -3.7480     4.2050    -1.5970 H     1 <1>   0.0800 
 37 H       -3.5270    -3.5680     1.5670 H     1 <1>   0.0800 
 38 H       -3.1670    -4.2820     0.0160 H     1 <1>   0.0800 
 39 H       -8.2540    -4.7400     1.2350 H     1 <1>   0.1500 
 40 H       -5.8640    -2.1550     2.4210 H     1 <1>   0.0800 
 41 H       -5.3740    -3.6070     3.2710 H     1 <1>   0.0800 
 42 H       -7.0660    -3.2020     3.1320 H     1 <1>   0.0800 
 43 H       -7.6900    -5.5290    -2.2740 H     1 <1>   0.0800 
 44 H       -8.6300    -6.1500    -0.9340 H     1 <1>   0.0800 
 45 H       -7.1700    -6.9750    -1.4400 H     1 <1>   0.0800 
@<TRIPOS>BOND
  1   1   2  ar  
  2   1   3  ar  
  3   2   4  1   
  4   2   5  ar  
  5   3   6  ar  
  6   3  22  1   
  7   4   7  1   
  8   4   8  1   
  9   5   9  ar  
 10   5  10  1   
 11   6   9  ar  
 12   6  23  1   
 13   7  11  1   
 14   7  24  1   
 15   7  25  1   
 16   8  26  1   
 17   8  27  1   
 18   8  28  1   
 19  10  12  1   
 20  10  13  1   
 21  11  14  1   
 22  11  29  1   
 23  11  30  1   
 24  12  31  1   
 25  12  32  1   
 26  12  33  1   
 27  13  34  1   
 28  13  35  1   
 29  13  36  1   
 30  14  15  1   
 31  14  37  1   
 32  14  38  1   
 33  15  16  1   
 34  15  17  1   
 35  16  18  2   
 36  17  19  2   
 37  17  20  1   
 38  18  19  1   
 39  18  21  1   
 40  19  39  1   
 41  20  40  1   
 42  20  41  1   
 43  20  42  1   
 44  21  43  1   
 45  21  44  1   
 46  21  45  1   
@<TRIPOS>SUBSTRUCTURE
  1 ****  11 GROUP 4 **** **** 0

# MOE 2024.06 (io_trps.svl 2023.06)
