@<TRIPOS>MOLECULE
NONAME
54 57 1 0 0 
SMALL
USER_CHARGES


@<TRIPOS>ATOM
  1 F       -0.9580    -1.2410     1.4510 F     1 <1>  -0.1900 
  2 C       -0.3080    -2.3660     1.3270 C.ar  1 <1>   0.1900 
  3 C       -0.7880    -3.3190     0.4510 C.ar  1 <1>  -0.1500 
  4 C        0.8340    -2.5590     2.0790 C.ar  1 <1>  -0.1500 
  5 C       -0.1070    -4.5260     0.3150 C.ar  1 <1>  -0.0230 
  6 C        1.5190    -3.7540     1.9410 C.ar  1 <1>  -0.1500 
  7 N       -0.5920    -5.5310    -0.5720 N.pl3 1 <1>   0.5930 
  8 C        1.0530    -4.7240     1.0670 C.ar  1 <1>  -0.1500 
  9 N       -1.2620    -5.2600    -1.7210 N.2   1 <1>  -0.7070 
 10 C       -0.5130    -6.8790    -0.4130 C.2   1 <1>  -0.3020 
 11 C       -1.5520    -6.4000    -2.2530 C.2   1 <1>   0.1390 
 12 C       -1.1190    -7.4630    -1.4710 C.2   1 <1>  -0.1810 
 13 C       -1.3310    -8.9260    -1.7880 C.3   1 <1>   0.5240 
 14 N       -2.3300    -9.4610    -0.8290 N.4   1 <1>  -0.9590 
 15 C       -3.6650    -8.7710    -0.9600 C.3   1 <1>   0.3430 
 16 C       -2.4890   -10.9490    -0.9550 C.3   1 <1>   0.3430 
 17 C       -4.7140    -9.3520     0.0090 C.3   1 <1>   0.1900 
 18 C       -3.5680   -11.5010    -0.0010 C.3   1 <1>   0.1100 
 19 N       -4.8700   -10.8190    -0.1910 N.3   1 <1>  -0.8100 
 20 C       -6.0540    -8.6250    -0.1810 C.3   1 <1>   0.1200 
 21 C       -5.9610   -11.3490     0.6830 C.3   1 <1>   0.1900 
 22 O       -6.9750    -9.1240     0.7310 O.3   1 <1>  -0.5600 
 23 C       -7.2440   -10.4850     0.5540 C.3   1 <1>   0.1200 
 24 C       -6.2690   -12.8200     0.3260 C.3   1 <1>  -0.1600 
 25 C       -7.4420   -13.4290     1.1160 C.3   1 <1>  -0.1600 
 26 C       -7.5790   -14.9260     0.8260 C.3   1 <1>  -0.2400 
 27 H       -1.6790    -3.1180    -0.1170 H     1 <1>   0.1500 
 28 H        1.1760    -1.7910     2.7500 H     1 <1>   0.1500 
 29 H        2.4160    -3.9250     2.5130 H     1 <1>   0.1500 
 30 H        1.6100    -5.6390     0.9700 H     1 <1>   0.1500 
 31 H       -0.0320    -7.3130     0.4440 H     1 <1>   0.1500 
 32 H       -2.0750    -6.4850    -3.1940 H     1 <1>   0.1500 
 33 H       -0.3960    -9.4530    -1.6840 H     1 <1>   0.0800 
 34 H       -1.6820    -9.0410    -2.8010 H     1 <1>   0.0800 
 35 H       -1.9800    -9.2520     0.1130 H     1 <1>   0.4500 
 36 H       -3.5540    -7.7170    -0.7620 H     1 <1>   0.0800 
 37 H       -4.0370    -8.8840    -1.9650 H     1 <1>   0.0800 
 38 H       -2.7790   -11.1990    -1.9630 H     1 <1>   0.0800 
 39 H       -1.5520   -11.4400    -0.7480 H     1 <1>   0.0800 
 40 H       -4.3890    -9.1600     1.0180 H     1 <1>   0.0800 
 41 H       -3.2440   -11.4010     1.0220 H     1 <1>   0.0800 
 42 H       -3.6680   -12.5500    -0.2140 H     1 <1>   0.0800 
 43 H       -6.4410    -8.7650    -1.1770 H     1 <1>   0.0800 
 44 H       -5.9500    -7.5720     0.0120 H     1 <1>   0.0800 
 45 H       -5.6450   -11.3050     1.7120 H     1 <1>   0.0800 
 46 H       -7.9590   -10.7620     1.3070 H     1 <1>   0.0800 
 47 H       -7.6960   -10.6220    -0.4130 H     1 <1>   0.0800 
 48 H       -6.4830   -12.8900    -0.7260 H     1 <1>   0.0800 
 49 H       -5.4100   -13.4260     0.5380 H     1 <1>   0.0800 
 50 H       -7.2840   -13.2880     2.1720 H     1 <1>   0.0800 
 51 H       -8.3670   -12.9480     0.8470 H     1 <1>   0.0800 
 52 H       -6.6880   -15.4530     1.1200 H     1 <1>   0.0800 
 53 H       -7.7530   -15.0940    -0.2220 H     1 <1>   0.0800 
 54 H       -8.4100   -15.3320     1.3770 H     1 <1>   0.0800 
@<TRIPOS>BOND
  1   1   2  1   
  2   2   3  ar  
  3   2   4  ar  
  4   3   5  ar  
  5   3  27  1   
  6   4   6  ar  
  7   4  28  1   
  8   5   7  1   
  9   5   8  ar  
 10   6   8  ar  
 11   6  29  1   
 12   7   9  1   
 13   7  10  1   
 14   8  30  1   
 15   9  11  2   
 16  10  12  2   
 17  10  31  1   
 18  11  12  1   
 19  11  32  1   
 20  12  13  1   
 21  13  14  1   
 22  13  33  1   
 23  13  34  1   
 24  14  15  1   
 25  14  16  1   
 26  14  35  1   
 27  15  17  1   
 28  15  36  1   
 29  15  37  1   
 30  16  18  1   
 31  16  38  1   
 32  16  39  1   
 33  17  19  1   
 34  17  20  1   
 35  17  40  1   
 36  18  19  1   
 37  18  41  1   
 38  18  42  1   
 39  19  21  1   
 40  20  22  1   
 41  20  43  1   
 42  20  44  1   
 43  21  23  1   
 44  21  24  1   
 45  21  45  1   
 46  22  23  1   
 47  23  46  1   
 48  23  47  1   
 49  24  25  1   
 50  24  48  1   
 51  24  49  1   
 52  25  26  1   
 53  25  50  1   
 54  25  51  1   
 55  26  52  1   
 56  26  53  1   
 57  26  54  1   
@<TRIPOS>SUBSTRUCTURE
  1 ****  15 GROUP 4 **** **** 0

# MOE 2024.06 (io_trps.svl 2023.06)
