@<TRIPOS>MOLECULE
NONAME
51 53 1 0 0 
SMALL
USER_CHARGES


@<TRIPOS>ATOM
  1 O        1.0250    -0.0170     1.5830 O.2   1 <1>  -0.5700 
  2 C        2.0730     0.0440     0.9800 C.2   1 <1>   0.7150 
  3 N        2.6700    -1.1550     0.7530 N.am  1 <1>  -0.7300 
  4 C        2.5830     1.3180     0.5620 C.2   1 <1>  -0.2370 
  5 C        4.0530    -1.5630     0.3800 C.3   1 <1>   0.1400 
  6 N        3.5680     1.5400    -0.3400 N.pl3 1 <1>   0.3140 
  7 C        2.1810     2.5540     0.9540 C.2   1 <1>  -0.1500 
  8 C        4.9900    -0.4290    -0.0630 C.3   1 <1>   0.2000 
  9 N        3.8090     2.8410    -0.5290 N.2   1 <1>  -0.7070 
 10 C        4.3560     0.5330    -1.0640 C.3   1 <1>   0.0960 
 11 C        2.9600     3.4770     0.2630 C.2   1 <1>   0.2030 
 12 O        6.1100    -1.0040    -0.6510 O.3   1 <1>  -0.6800 
 13 C        2.8560     4.9230     0.3970 C.2   1 <1>   0.7160 
 14 O        2.0630     5.4460     1.1610 O.2   1 <1>  -0.5700 
 15 N        3.6750     5.7170    -0.3540 N.am  1 <1>  -0.7300 
 16 C        3.7720     7.1880    -0.3140 C.3   1 <1>   0.1400 
 17 C        5.2040     7.5740     0.0500 C.3   1 <1>  -0.1600 
 18 C        5.3700     9.1000     0.1050 C.3   1 <1>  -0.0170 
 19 C        6.7920     9.6020     0.3800 C.ar  1 <1>  -0.1430 
 20 C        7.0580    10.9640     0.2410 C.ar  1 <1>   0.0820 
 21 C        7.8220     8.7530     0.7700 C.ar  1 <1>  -0.1500 
 22 O        6.0290    11.7740    -0.1300 O.3   1 <1>  -0.3620 
 23 C        8.3410    11.4520     0.4830 C.ar  1 <1>  -0.1500 
 24 C        9.0930     9.2430     1.0090 C.ar  1 <1>  -0.1500 
 25 C        6.1890    13.1650    -0.2750 C.3   1 <1>   0.1200 
 26 C        9.3530    10.5920     0.8650 C.ar  1 <1>  -0.1500 
 27 C        4.8420    13.7550    -0.6840 C.3   1 <1>  -0.2400 
 28 H        2.0970    -1.9210     1.1140 H     1 <1>   0.3700 
 29 H        3.9720    -2.2770    -0.4210 H     1 <1>   0.0800 
 30 H        4.4990    -2.0600     1.2250 H     1 <1>   0.0800 
 31 H        1.4070     2.8010     1.6610 H     1 <1>   0.1500 
 32 H        5.3440     0.1160     0.7970 H     1 <1>   0.0800 
 33 H        5.1240     1.0500    -1.6100 H     1 <1>   0.0800 
 34 H        3.7120     0.0160    -1.7490 H     1 <1>   0.0800 
 35 H        5.8870    -1.4830    -1.4730 H     1 <1>   0.4000 
 36 H        4.3190     5.2160    -0.9720 H     1 <1>   0.3700 
 37 H        3.0860     7.5830     0.4170 H     1 <1>   0.0800 
 38 H        3.5100     7.5860    -1.2800 H     1 <1>   0.0800 
 39 H        5.8780     7.1730    -0.6860 H     1 <1>   0.0800 
 40 H        5.4390     7.1560     1.0130 H     1 <1>   0.0800 
 41 H        4.7210     9.4980     0.8650 H     1 <1>   0.0800 
 42 H        5.0490     9.5070    -0.8390 H     1 <1>   0.0800 
 43 H        7.6590     7.6990     0.8950 H     1 <1>   0.1500 
 44 H        8.5730    12.4940     0.3810 H     1 <1>   0.1500 
 45 H        9.8790     8.5720     1.3090 H     1 <1>   0.1500 
 46 H        6.9300    13.3460    -1.0350 H     1 <1>   0.0800 
 47 H        6.5110    13.5710     0.6680 H     1 <1>   0.0800 
 48 H       10.3430    10.9720     1.0510 H     1 <1>   0.1500 
 49 H        4.5220    13.3290    -1.6180 H     1 <1>   0.0800 
 50 H        4.9320    14.8190    -0.8030 H     1 <1>   0.0800 
 51 H        4.1070    13.5540     0.0750 H     1 <1>   0.0800 
@<TRIPOS>BOND
  1   1   2  2   
  2   2   3  am  
  3   2   4  1   
  4   3   5  1   
  5   3  28  1   
  6   4   6  1   
  7   4   7  2   
  8   5   8  1   
  9   5  29  1   
 10   5  30  1   
 11   6   9  1   
 12   6  10  1   
 13   7  11  1   
 14   7  31  1   
 15   8  10  1   
 16   8  12  1   
 17   8  32  1   
 18   9  11  2   
 19  10  33  1   
 20  10  34  1   
 21  11  13  1   
 22  12  35  1   
 23  13  14  2   
 24  13  15  am  
 25  15  16  1   
 26  15  36  1   
 27  16  17  1   
 28  16  37  1   
 29  16  38  1   
 30  17  18  1   
 31  17  39  1   
 32  17  40  1   
 33  18  19  1   
 34  18  41  1   
 35  18  42  1   
 36  19  20  ar  
 37  19  21  ar  
 38  20  22  1   
 39  20  23  ar  
 40  21  24  ar  
 41  21  43  1   
 42  22  25  1   
 43  23  26  ar  
 44  23  44  1   
 45  24  26  ar  
 46  24  45  1   
 47  25  27  1   
 48  25  46  1   
 49  25  47  1   
 50  26  48  1   
 51  27  49  1   
 52  27  50  1   
 53  27  51  1   
@<TRIPOS>SUBSTRUCTURE
  1 ****  15 GROUP 4 **** **** 0

# MOE 2024.06 (io_trps.svl 2023.06)
