@<TRIPOS>MOLECULE
NONAME
45 46 1 0 0 
SMALL
USER_CHARGES


@<TRIPOS>ATOM
  1 O       -0.8600    -0.1550    -0.6490 O.2   1 <1>  -0.5700 
  2 C       -1.7630     0.6430    -0.5080 C.2   1 <1>   0.5690 
  3 N       -2.9680     0.4170    -1.1440 N.am  1 <1>  -0.6600 
  4 C       -1.4920     1.8840     0.4050 C.3   1 <1>   0.2040 
  5 C       -3.2340    -0.9360    -1.7310 C.3   1 <1>   0.3210 
  6 C       -4.0110     1.4490    -1.4450 C.3   1 <1>   0.1400 
  7 C       -1.4820     3.1970    -0.4090 C.ar  1 <1>  -0.1440 
  8 C       -0.1030     1.7980     1.0780 C.3   1 <1>  -0.2400 
  9 C       -2.5250     1.8920     1.5560 C.3   1 <1>  -0.2400 
 10 C       -3.7230    -1.9260    -0.6730 C.2   1 <1>   0.0460 
 11 C       -5.3590     1.1340    -0.7840 C.3   1 <1>   0.1200 
 12 C       -2.0160     4.3880     0.0740 C.ar  1 <1>  -0.1500 
 13 C       -0.9090     3.2050    -1.6770 C.ar  1 <1>  -0.1500 
 14 N       -5.0140    -1.9360    -0.2720 N.2   1 <1>  -0.5650 
 15 C       -3.0160    -2.8830    -0.0220 C.2   1 <1>  -0.3320 
 16 O       -6.1730     2.2590    -0.8510 O.3   1 <1>  -0.6800 
 17 C       -1.9940     5.5410    -0.6920 C.ar  1 <1>  -0.1500 
 18 C       -0.8860     4.3550    -2.4450 C.ar  1 <1>  -0.1500 
 19 C       -5.0620    -2.8790     0.6090 C.2   1 <1>   0.0360 
 20 N       -3.8790    -3.4940     0.8090 N.pl3 1 <1>   0.0330 
 21 C       -1.5520    -3.2790    -0.1130 C.3   1 <1>  -0.0600 
 22 C       -1.4310     5.5260    -1.9540 C.ar  1 <1>  -0.1500 
 23 H       -2.3360    -1.3150    -2.1840 H     1 <1>   0.0800 
 24 H       -3.9750    -0.8640    -2.5070 H     1 <1>   0.0800 
 25 H       -4.1500     1.5020    -2.5110 H     1 <1>   0.0800 
 26 H       -3.6890     2.4150    -1.1160 H     1 <1>   0.0800 
 27 H        0.6700     1.7610     0.3310 H     1 <1>   0.0800 
 28 H       -0.0300     0.9110     1.6820 H     1 <1>   0.0800 
 29 H        0.0720     2.6580     1.6990 H     1 <1>   0.0800 
 30 H       -3.5020     2.1510     1.1990 H     1 <1>   0.0800 
 31 H       -2.2470     2.5910     2.3240 H     1 <1>   0.0800 
 32 H       -2.5790     0.9130     2.0010 H     1 <1>   0.0800 
 33 H       -5.2350     0.8640     0.2500 H     1 <1>   0.0800 
 34 H       -5.8590     0.3370    -1.3050 H     1 <1>   0.0800 
 35 H       -2.4540     4.4470     1.0530 H     1 <1>   0.1500 
 36 H       -0.4680     2.3090    -2.0810 H     1 <1>   0.1500 
 37 H       -5.8260     2.9710    -0.2800 H     1 <1>   0.4000 
 38 H       -2.4130     6.4530    -0.3040 H     1 <1>   0.1500 
 39 H       -0.4410     4.3380    -3.4240 H     1 <1>   0.1500 
 40 H       -5.9510    -3.1640     1.1430 H     1 <1>   0.1500 
 41 H       -3.6830    -4.2620     1.4560 H     1 <1>   0.2700 
 42 H       -1.0610    -2.7500    -0.9090 H     1 <1>   0.0800 
 43 H       -1.4600    -4.3330    -0.3010 H     1 <1>   0.0800 
 44 H       -1.0490    -3.0400     0.8070 H     1 <1>   0.0800 
 45 H       -1.4140     6.4220    -2.5500 H     1 <1>   0.1500 
@<TRIPOS>BOND
  1   1   2  2   
  2   2   3  am  
  3   2   4  1   
  4   3   5  1   
  5   3   6  1   
  6   4   7  1   
  7   4   8  1   
  8   4   9  1   
  9   5  10  1   
 10   5  23  1   
 11   5  24  1   
 12   6  11  1   
 13   6  25  1   
 14   6  26  1   
 15   7  12  ar  
 16   7  13  ar  
 17   8  27  1   
 18   8  28  1   
 19   8  29  1   
 20   9  30  1   
 21   9  31  1   
 22   9  32  1   
 23  10  14  1   
 24  10  15  2   
 25  11  16  1   
 26  11  33  1   
 27  11  34  1   
 28  12  17  ar  
 29  12  35  1   
 30  13  18  ar  
 31  13  36  1   
 32  14  19  2   
 33  15  20  1   
 34  15  21  1   
 35  16  37  1   
 36  17  22  ar  
 37  17  38  1   
 38  18  22  ar  
 39  18  39  1   
 40  19  20  1   
 41  19  40  1   
 42  20  41  1   
 43  21  42  1   
 44  21  43  1   
 45  21  44  1   
 46  22  45  1   
@<TRIPOS>SUBSTRUCTURE
  1 ****   3 GROUP 4 **** **** 0

# MOE 2024.06 (io_trps.svl 2023.06)
