@<TRIPOS>MOLECULE
NONAME
55 58 1 0 0 
SMALL
USER_CHARGES


@<TRIPOS>ATOM
  1 S       -0.4580    -0.3220    -1.3980 S.o2  1 <1>   1.2950 
  2 O       -1.1110    -1.4600    -2.0260 O.2   1 <1>  -0.6500 
  3 O        0.2100     0.6630    -2.2200 O.2   1 <1>  -0.6500 
  4 N       -1.6860     0.4790    -0.3930 N.pl3 1 <1>   0.3170 
  5 C        0.6670    -0.9330    -0.1190 C.ar  1 <1>  -0.0090 
  6 C       -2.6070    -0.1010     0.4580 C.2   1 <1>  -0.3320 
  7 C       -1.8930     1.8280    -0.2840 C.2   1 <1>  -0.3020 
  8 C        1.2280    -0.0690     0.8150 C.ar  1 <1>  -0.1500 
  9 C        0.9800    -2.2860    -0.0270 C.ar  1 <1>  -0.1500 
 10 C       -3.3440     0.8620     1.0730 C.2   1 <1>  -0.1500 
 11 C       -2.7420    -1.5960     0.6720 C.3   1 <1>   0.5230 
 12 C       -2.8910     2.0920     0.5970 C.2   1 <1>  -0.1500 
 13 C        2.0530    -0.5400     1.8210 C.ar  1 <1>  -0.1500 
 14 C        1.8040    -2.7640     0.9770 C.ar  1 <1>  -0.1500 
 15 N       -3.3070    -2.2180    -0.5500 N.4   1 <1>  -0.9590 
 16 C        2.3380    -1.8900     1.9050 C.ar  1 <1>  -0.1500 
 17 C       -4.6700    -1.6860    -0.8680 C.3   1 <1>   0.3430 
 18 C       -3.4640    -3.6880    -0.3410 C.3   1 <1>   0.3430 
 19 C       -5.6480    -2.6690    -0.2230 C.3   1 <1>   0.2000 
 20 C       -4.9570    -4.0080    -0.4660 C.3   1 <1>  -0.0800 
 21 O       -5.6800    -2.4300     1.1560 O.3   1 <1>  -0.5600 
 22 C       -5.4140    -5.1580     0.4550 C.3   1 <1>   0.0200 
 23 C       -6.7000    -1.5800     1.5850 C.3   1 <1>   0.0400 
 24 C       -4.6330    -6.4230     0.1560 C.2   1 <1>  -0.0400 
 25 O       -3.3610    -6.4850     0.4450 O.3   1 <1>  -0.0190 
 26 C       -4.9860    -7.5940    -0.3930 C.2   1 <1>  -0.1500 
 27 N       -2.8390    -7.6230     0.1030 N.2   1 <1>  -0.4100 
 28 C       -3.7960    -8.3180    -0.3990 C.2   1 <1>   0.1080 
 29 C       -3.6410    -9.7290    -0.9220 C.3   1 <1>  -0.0590 
 30 H       -1.3080     2.5340    -0.8510 H     1 <1>   0.1500 
 31 H        1.0290     0.9890     0.7630 H     1 <1>   0.1500 
 32 H        0.5850    -2.9820    -0.7490 H     1 <1>   0.1500 
 33 H       -4.1350     0.7480     1.7990 H     1 <1>   0.1500 
 34 H       -3.4010    -1.7790     1.5060 H     1 <1>   0.0800 
 35 H       -1.7810    -2.0280     0.9020 H     1 <1>   0.0800 
 36 H       -3.2770     3.0560     0.8920 H     1 <1>   0.1500 
 37 H        2.4790     0.1430     2.5380 H     1 <1>   0.1500 
 38 H        2.0370    -3.8150     1.0340 H     1 <1>   0.1500 
 39 H       -2.6570    -2.0540    -1.3440 H     1 <1>   0.4500 
 40 H        2.9810    -2.2590     2.6870 H     1 <1>   0.1500 
 41 H       -4.8190    -0.6840    -0.5020 H     1 <1>   0.0800 
 42 H       -4.8160    -1.6960    -1.9360 H     1 <1>   0.0800 
 43 H       -2.8970    -4.2500    -1.0660 H     1 <1>   0.0800 
 44 H       -3.1240    -3.9610     0.6460 H     1 <1>   0.0800 
 45 H       -6.6430    -2.6290    -0.6360 H     1 <1>   0.0800 
 46 H       -5.1380    -4.3040    -1.4850 H     1 <1>   0.0800 
 47 H       -6.4630    -5.3450     0.3050 H     1 <1>   0.0800 
 48 H       -5.2690    -4.9040     1.4910 H     1 <1>   0.0800 
 49 H       -6.6100    -1.4570     2.6510 H     1 <1>   0.0800 
 50 H       -7.6550    -2.0240     1.3590 H     1 <1>   0.0800 
 51 H       -6.6050    -0.6220     1.1030 H     1 <1>   0.0800 
 52 H       -5.9390    -7.9330    -0.7560 H     1 <1>   0.1500 
 53 H       -3.9270    -9.7690    -1.9570 H     1 <1>   0.0800 
 54 H       -4.2610   -10.3990    -0.3560 H     1 <1>   0.0800 
 55 H       -2.6170   -10.0430    -0.8320 H     1 <1>   0.0800 
@<TRIPOS>BOND
  1   1   2  2   
  2   1   3  2   
  3   1   4  1   
  4   1   5  1   
  5   4   6  1   
  6   4   7  1   
  7   5   8  ar  
  8   5   9  ar  
  9   6  10  2   
 10   6  11  1   
 11   7  12  2   
 12   7  30  1   
 13   8  13  ar  
 14   8  31  1   
 15   9  14  ar  
 16   9  32  1   
 17  10  12  1   
 18  10  33  1   
 19  11  15  1   
 20  11  34  1   
 21  11  35  1   
 22  12  36  1   
 23  13  16  ar  
 24  13  37  1   
 25  14  16  ar  
 26  14  38  1   
 27  15  17  1   
 28  15  18  1   
 29  15  39  1   
 30  16  40  1   
 31  17  19  1   
 32  17  41  1   
 33  17  42  1   
 34  18  20  1   
 35  18  43  1   
 36  18  44  1   
 37  19  20  1   
 38  19  21  1   
 39  19  45  1   
 40  20  22  1   
 41  20  46  1   
 42  21  23  1   
 43  22  24  1   
 44  22  47  1   
 45  22  48  1   
 46  23  49  1   
 47  23  50  1   
 48  23  51  1   
 49  24  25  1   
 50  24  26  2   
 51  25  27  1   
 52  26  28  1   
 53  26  52  1   
 54  27  28  2   
 55  28  29  1   
 56  29  53  1   
 57  29  54  1   
 58  29  55  1   
@<TRIPOS>SUBSTRUCTURE
  1 ****  15 GROUP 4 **** **** 0

# MOE 2024.06 (io_trps.svl 2023.06)
