@<TRIPOS>MOLECULE
NONAME
47 49 1 0 0 
SMALL
USER_CHARGES


@<TRIPOS>ATOM
  1 S        1.0720    -0.6590     0.6680 S.o2  1 <1>   1.3330 
  2 O        1.8420    -1.5300     1.5260 O.2   1 <1>  -0.6500 
  3 O       -0.0930     0.0280     1.1800 O.2   1 <1>  -0.6500 
  4 N        2.1470     0.5850     0.2250 N.am  1 <1>  -0.8490 
  5 C        0.6330    -1.4810    -0.8740 C.3   1 <1>   0.0890 
  6 C        2.3240     1.5040     1.3830 C.3   1 <1>   0.1960 
  7 C        3.4600     0.0700    -0.2060 C.3   1 <1>   0.1960 
  8 C       -0.3700    -2.6130    -0.7080 C.ar  1 <1>  -0.1440 
  9 C        3.0750     2.8390     1.1090 C.3   1 <1>   0.4230 
 10 C        4.3190     1.1570    -0.8900 C.3   1 <1>  -0.0800 
 11 C       -1.7080    -2.3270    -0.4850 C.ar  1 <1>  -0.1500 
 12 C        0.0430    -3.9350    -0.7740 C.ar  1 <1>  -0.1500 
 13 N        3.0180     3.3230    -0.3290 N.4   1 <1>  -0.9590 
 14 C        4.5190     2.8220     1.6550 C.3   1 <1>   0.1200 
 15 C        5.5540     1.5660    -0.0740 C.3   1 <1>   0.1200 
 16 C        3.4870     2.3530    -1.3810 C.3   1 <1>   0.3430 
 17 C       -2.6330    -3.3480    -0.3340 C.ar  1 <1>  -0.1430 
 18 C       -0.8770    -4.9580    -0.6270 C.ar  1 <1>  -0.1500 
 19 C        1.6200     3.7440    -0.6570 C.3   1 <1>   0.2630 
 20 O        5.2360     1.6930     1.2700 O.3   1 <1>  -0.5600 
 21 C       -2.2120    -4.6650    -0.4090 C.ar  1 <1>  -0.1500 
 22 C       -4.0940    -3.0200    -0.0870 C.3   1 <1>  -0.0970 
 23 H        0.2140    -0.7600    -1.5470 H     1 <1>   0.0800 
 24 H        1.5140    -1.8790    -1.3350 H     1 <1>   0.0800 
 25 H        1.3550     1.7900     1.7540 H     1 <1>   0.0800 
 26 H        2.8050     0.9770     2.1920 H     1 <1>   0.0800 
 27 H        3.9840    -0.3690     0.6300 H     1 <1>   0.0800 
 28 H        3.3080    -0.7200    -0.9200 H     1 <1>   0.0800 
 29 H        2.5730     3.5820     1.7060 H     1 <1>   0.0800 
 30 H        4.7130     0.7010    -1.7810 H     1 <1>   0.0800 
 31 H       -2.0400    -1.3050    -0.4200 H     1 <1>   0.1500 
 32 H        1.0770    -4.1830    -0.9360 H     1 <1>   0.1500 
 33 H        3.6240     4.1520    -0.3870 H     1 <1>   0.4500 
 34 H        4.4810     2.7990     2.7310 H     1 <1>   0.0800 
 35 H        5.0650     3.7030     1.3640 H     1 <1>   0.0800 
 36 H        5.9990     2.4820    -0.4280 H     1 <1>   0.0800 
 37 H        6.2970     0.7880    -0.1370 H     1 <1>   0.0800 
 38 H        2.6260     1.9500    -1.8890 H     1 <1>   0.0800 
 39 H        4.0620     2.8930    -2.1160 H     1 <1>   0.0800 
 40 H       -0.5550    -5.9830    -0.6790 H     1 <1>   0.1500 
 41 H        0.9560     2.8950    -0.6020 H     1 <1>   0.0800 
 42 H        1.5740     4.1540    -1.6530 H     1 <1>   0.0800 
 43 H        1.2780     4.4940     0.0380 H     1 <1>   0.0800 
 44 H       -2.9190    -5.4670    -0.2960 H     1 <1>   0.1500 
 45 H       -4.5890    -3.8400     0.4020 H     1 <1>   0.0800 
 46 H       -4.5860    -2.8240    -1.0230 H     1 <1>   0.0800 
 47 H       -4.1800    -2.1510     0.5400 H     1 <1>   0.0800 
@<TRIPOS>BOND
  1   1   2  2   
  2   1   3  2   
  3   1   4  am  
  4   1   5  1   
  5   4   6  1   
  6   4   7  1   
  7   5   8  1   
  8   5  23  1   
  9   5  24  1   
 10   6   9  1   
 11   6  25  1   
 12   6  26  1   
 13   7  10  1   
 14   7  27  1   
 15   7  28  1   
 16   8  11  ar  
 17   8  12  ar  
 18   9  13  1   
 19   9  14  1   
 20   9  29  1   
 21  10  15  1   
 22  10  16  1   
 23  10  30  1   
 24  11  17  ar  
 25  11  31  1   
 26  12  18  ar  
 27  12  32  1   
 28  13  16  1   
 29  13  19  1   
 30  13  33  1   
 31  14  20  1   
 32  14  34  1   
 33  14  35  1   
 34  15  20  1   
 35  15  36  1   
 36  15  37  1   
 37  16  38  1   
 38  16  39  1   
 39  17  21  ar  
 40  17  22  1   
 41  18  21  ar  
 42  18  40  1   
 43  19  41  1   
 44  19  42  1   
 45  19  43  1   
 46  21  44  1   
 47  22  45  1   
 48  22  46  1   
 49  22  47  1   
@<TRIPOS>SUBSTRUCTURE
  1 ****   1 GROUP 4 **** **** 0

# MOE 2024.06 (io_trps.svl 2023.06)
