@<TRIPOS>MOLECULE
NONAME
49 51 1 0 0 
SMALL
USER_CHARGES


@<TRIPOS>ATOM
  1 O        1.5800    -1.1820    -1.5100 O.2   1 <1>  -0.5700 
  2 C        1.5340    -1.3490    -0.3110 C.2   1 <1>   0.6300 
  3 N        1.6200    -0.2930     0.5780 N.am  1 <1>  -0.6600 
  4 C        1.3740    -2.8000     0.1860 C.3   1 <1>   0.0320 
  5 C        1.9280     1.1090     0.1650 C.3   1 <1>   0.2200 
  6 C        1.3430    -0.4300     2.0360 C.3   1 <1>   0.0600 
  7 C       -0.1020    -3.1900     0.3010 C.ar  1 <1>  -0.0320 
  8 C        2.3520    -3.8680    -0.2550 C.3   1 <1>  -0.1900 
  9 C        2.3960    -3.3850     1.1490 C.3   1 <1>  -0.2000 
 10 C        0.8120     1.7230    -0.6810 C.3   1 <1>  -0.1600 
 11 C        3.2740     1.2320    -0.5530 C.3   1 <1>  -0.1600 
 12 C       -0.8770    -3.2330    -0.8460 C.ar  1 <1>  -0.1500 
 13 C       -0.6910    -3.5010     1.5180 C.ar  1 <1>  -0.1500 
 14 C        3.5390    -3.5180    -1.1640 C.3   1 <1>  -0.1450 
 15 C        1.8670    -5.3030    -0.5100 C.3   1 <1>  -0.1450 
 16 C        1.1930     3.1560    -1.0670 C.3   1 <1>   0.1200 
 17 C        3.5100     2.6950    -0.9420 C.3   1 <1>   0.1200 
 18 C       -2.2160    -3.5790    -0.7830 C.ar  1 <1>  -0.1500 
 19 C       -2.0300    -3.8490     1.5840 C.ar  1 <1>  -0.1500 
 20 O        2.4360     3.1620    -1.7030 O.3   1 <1>  -0.5600 
 21 C       -2.8000    -3.8880     0.4340 C.ar  1 <1>  -0.1430 
 22 C       -4.2670    -4.2700     0.5050 C.3   1 <1>  -0.0970 
 23 H        2.0060     1.7070     1.0580 H     1 <1>   0.0800 
 24 H        0.8860    -1.3730     2.2640 H     1 <1>   0.0800 
 25 H        0.6690     0.3460     2.3520 H     1 <1>   0.0800 
 26 H        2.2630    -0.3460     2.5880 H     1 <1>   0.0800 
 27 H        2.0840    -4.0610     1.9240 H     1 <1>   0.1000 
 28 H        3.2200    -2.7660     1.4560 H     1 <1>   0.1000 
 29 H       -0.1080     1.7300    -0.1260 H     1 <1>   0.0800 
 30 H        0.6620     1.1590    -1.5830 H     1 <1>   0.0800 
 31 H        3.2860     0.6420    -1.4510 H     1 <1>   0.0800 
 32 H        4.0650     0.8960     0.0900 H     1 <1>   0.0800 
 33 H       -0.4310    -2.9920    -1.7970 H     1 <1>   0.1500 
 34 H       -0.1130    -3.4780     2.4230 H     1 <1>   0.1500 
 35 H        3.9410    -2.5500    -0.9270 H     1 <1>   0.0800 
 36 H        3.2200    -3.5060    -2.1920 H     1 <1>   0.0800 
 37 H        4.3240    -4.2450    -1.0530 H     1 <1>   0.0800 
 38 H        1.1000    -5.5880     0.1880 H     1 <1>   0.0800 
 39 H        2.6830    -5.9960    -0.4100 H     1 <1>   0.0800 
 40 H        1.4650    -5.3810    -1.5040 H     1 <1>   0.0800 
 41 H        1.2480     3.7940    -0.2020 H     1 <1>   0.0800 
 42 H        0.4720     3.5620    -1.7560 H     1 <1>   0.0800 
 43 H        4.3990     2.7840    -1.5430 H     1 <1>   0.0800 
 44 H        3.6110     3.3210    -0.0720 H     1 <1>   0.0800 
 45 H       -2.7970    -3.6060    -1.6870 H     1 <1>   0.1500 
 46 H       -2.4690    -4.0900     2.5360 H     1 <1>   0.1500 
 47 H       -4.8190    -3.7910    -0.2830 H     1 <1>   0.0800 
 48 H       -4.6890    -3.9680     1.4460 H     1 <1>   0.0800 
 49 H       -4.3700    -5.3360     0.4030 H     1 <1>   0.0800 
@<TRIPOS>BOND
  1   1   2  2   
  2   2   3  am  
  3   2   4  1   
  4   3   5  1   
  5   3   6  1   
  6   4   7  1   
  7   4   8  1   
  8   4   9  1   
  9   5  10  1   
 10   5  11  1   
 11   5  23  1   
 12   6  24  1   
 13   6  25  1   
 14   6  26  1   
 15   7  12  ar  
 16   7  13  ar  
 17   8   9  1   
 18   8  14  1   
 19   8  15  1   
 20   9  27  1   
 21   9  28  1   
 22  10  16  1   
 23  10  29  1   
 24  10  30  1   
 25  11  17  1   
 26  11  31  1   
 27  11  32  1   
 28  12  18  ar  
 29  12  33  1   
 30  13  19  ar  
 31  13  34  1   
 32  14  35  1   
 33  14  36  1   
 34  14  37  1   
 35  15  38  1   
 36  15  39  1   
 37  15  40  1   
 38  16  20  1   
 39  16  41  1   
 40  16  42  1   
 41  17  20  1   
 42  17  43  1   
 43  17  44  1   
 44  18  21  ar  
 45  18  45  1   
 46  19  21  ar  
 47  19  46  1   
 48  21  22  1   
 49  22  47  1   
 50  22  48  1   
 51  22  49  1   
@<TRIPOS>SUBSTRUCTURE
  1 ****   2 GROUP 4 **** **** 0

# MOE 2024.06 (io_trps.svl 2023.06)
