@<TRIPOS>MOLECULE
NONAME
51 54 1 0 0 
SMALL
USER_CHARGES


@<TRIPOS>ATOM
  1 O       -0.6740     0.6390     1.5820 O.2   1 <1>  -0.5700 
  2 C       -1.6900     0.9640     1.0110 C.2   1 <1>   0.5690 
  3 N       -2.8740     0.3010     1.2190 N.am  1 <1>  -0.6600 
  4 C       -1.6300     2.1290     0.0370 C.3   1 <1>  -0.0990 
  5 C       -2.9720    -0.8290     2.1870 C.3   1 <1>   0.1400 
  6 C       -4.1580     0.5760     0.5150 C.3   1 <1>   0.1400 
  7 C       -0.2470     2.7740    -0.0310 C.3   1 <1>   0.1200 
  8 C       -3.3710    -2.0980     1.4340 C.3   1 <1>  -0.1600 
  9 C       -4.5650    -0.6720    -0.2700 C.3   1 <1>  -0.1600 
 10 O       -0.3060     3.8130    -0.9540 O.3   1 <1>  -0.5600 
 11 C       -4.6680    -1.9020     0.6430 C.3   1 <1>   0.4600 
 12 C        0.8920     4.4970    -1.1040 C.3   1 <1>   0.1200 
 13 O       -5.6860    -1.6820     1.5970 O.3   1 <1>  -0.5600 
 14 C       -4.9920    -3.1560    -0.1600 C.2   1 <1>  -0.3320 
 15 C        0.6680     5.5930    -2.1380 C.3   1 <1>  -0.2400 
 16 C       -7.0200    -1.9180     1.2150 C.3   1 <1>   0.1200 
 17 N       -4.1800    -3.7680    -1.0740 N.pl3 1 <1>   0.0330 
 18 C       -6.1490    -3.8410    -0.0650 C.2   1 <1>  -0.1810 
 19 C       -7.2480    -3.3990     0.8680 C.3   1 <1>   0.0210 
 20 C       -4.8430    -4.8680    -1.5630 C.ar  1 <1>  -0.1520 
 21 C       -6.0880    -4.9430    -0.9430 C.ar  1 <1>   0.0000 
 22 C       -4.4550    -5.8210    -2.5080 C.ar  1 <1>  -0.1500 
 23 C       -6.9610    -5.9850    -1.2690 C.ar  1 <1>  -0.1500 
 24 C       -5.3250    -6.8400    -2.8200 C.ar  1 <1>  -0.1500 
 25 C       -6.5780    -6.9230    -2.2000 C.ar  1 <1>  -0.1500 
 26 H       -2.3370     2.8740     0.3490 H     1 <1>   0.0800 
 27 H       -1.8910     1.7720    -0.9400 H     1 <1>   0.0800 
 28 H       -3.7140    -0.5930     2.9320 H     1 <1>   0.0800 
 29 H       -2.0340    -0.9860     2.6920 H     1 <1>   0.0800 
 30 H       -4.0720     1.4110    -0.1540 H     1 <1>   0.0800 
 31 H       -4.9140     0.8110     1.2450 H     1 <1>   0.0800 
 32 H        0.4890     2.0570    -0.3580 H     1 <1>   0.0800 
 33 H        0.0320     3.1720     0.9300 H     1 <1>   0.0800 
 34 H       -3.5000    -2.9100     2.1260 H     1 <1>   0.0800 
 35 H       -2.5710    -2.3610     0.7680 H     1 <1>   0.0800 
 36 H       -3.8250    -0.8540    -1.0270 H     1 <1>   0.0800 
 37 H       -5.4980    -0.5060    -0.7730 H     1 <1>   0.0800 
 38 H        1.6490     3.8070    -1.4380 H     1 <1>   0.0800 
 39 H        1.1720     4.9210    -0.1540 H     1 <1>   0.0800 
 40 H        0.3760     5.1580    -3.0770 H     1 <1>   0.0800 
 41 H        1.5760     6.1490    -2.2820 H     1 <1>   0.0800 
 42 H       -0.0990     6.2660    -1.8000 H     1 <1>   0.0800 
 43 H       -7.2480    -1.2970     0.3670 H     1 <1>   0.0800 
 44 H       -7.6530    -1.6280     2.0350 H     1 <1>   0.0800 
 45 H       -3.2350    -3.4810    -1.3460 H     1 <1>   0.2700 
 46 H       -8.2060    -3.5180     0.3950 H     1 <1>   0.0800 
 47 H       -7.2270    -3.9940     1.7620 H     1 <1>   0.0800 
 48 H       -3.4910    -5.7510    -2.9780 H     1 <1>   0.1500 
 49 H       -7.9180    -6.0360    -0.7840 H     1 <1>   0.1500 
 50 H       -5.0500    -7.5870    -3.5440 H     1 <1>   0.1500 
 51 H       -7.2390    -7.7310    -2.4610 H     1 <1>   0.1500 
@<TRIPOS>BOND
  1   1   2  2   
  2   2   3  am  
  3   2   4  1   
  4   3   5  1   
  5   3   6  1   
  6   4   7  1   
  7   4  26  1   
  8   4  27  1   
  9   5   8  1   
 10   5  28  1   
 11   5  29  1   
 12   6   9  1   
 13   6  30  1   
 14   6  31  1   
 15   7  10  1   
 16   7  32  1   
 17   7  33  1   
 18   8  11  1   
 19   8  34  1   
 20   8  35  1   
 21   9  11  1   
 22   9  36  1   
 23   9  37  1   
 24  10  12  1   
 25  11  13  1   
 26  11  14  1   
 27  12  15  1   
 28  12  38  1   
 29  12  39  1   
 30  13  16  1   
 31  14  17  1   
 32  14  18  2   
 33  15  40  1   
 34  15  41  1   
 35  15  42  1   
 36  16  19  1   
 37  16  43  1   
 38  16  44  1   
 39  17  20  1   
 40  17  45  1   
 41  18  19  1   
 42  18  21  1   
 43  19  46  1   
 44  19  47  1   
 45  20  21  ar  
 46  20  22  ar  
 47  21  23  ar  
 48  22  24  ar  
 49  22  48  1   
 50  23  25  ar  
 51  23  49  1   
 52  24  25  ar  
 53  24  50  1   
 54  25  51  1   
@<TRIPOS>SUBSTRUCTURE
  1 ****   9 GROUP 4 **** **** 0

# MOE 2024.06 (io_trps.svl 2023.06)
