@<TRIPOS>MOLECULE
NONAME
51 53 1 0 0 
SMALL
USER_CHARGES


@<TRIPOS>ATOM
  1 S       -0.7690    -0.3950    -0.4020 S.3   1 <1>  -0.3320 
  2 C       -0.5670     1.3560    -0.6680 C.ar  1 <1>   0.7220 
  3 C       -0.8160    -0.5930     1.4470 C.3   1 <1>   0.1310 
  4 N       -0.4600     2.1000     0.4220 N.ar  1 <1>  -0.6200 
  5 N       -0.5570     1.7200    -1.9380 N.ar  1 <1>  -0.6200 
  6 C       -1.5350    -1.8770     1.8390 C.2   1 <1>   0.5690 
  7 C       -0.3090     3.3830     0.1920 C.ar  1 <1>   0.1660 
  8 C       -0.4030     3.0080    -2.1360 C.ar  1 <1>   0.1660 
  9 O       -0.8610    -2.7310     2.3690 O.2   1 <1>  -0.5700 
 10 N       -2.8900    -2.0530     1.6410 N.am  1 <1>  -0.6600 
 11 C       -0.2730     3.8910    -1.0880 C.ar  1 <1>  -0.1500 
 12 C       -0.1730     4.2860     1.4000 C.3   1 <1>  -0.0970 
 13 C       -0.3740     3.4810    -3.5740 C.3   1 <1>  -0.0970 
 14 C       -3.7750    -1.0040     1.0450 C.3   1 <1>   0.2200 
 15 C       -3.5180    -3.3500     2.0490 C.3   1 <1>   0.0600 
 16 C       -4.2750    -1.3680    -0.3490 C.3   1 <1>  -0.1600 
 17 C       -5.0470    -0.7300     1.8440 C.3   1 <1>  -0.1600 
 18 C       -5.4800    -0.4450    -0.5730 C.3   1 <1>  -0.0800 
 19 C       -5.9890    -0.0580     0.8360 C.3   1 <1>  -0.0800 
 20 C       -6.5380    -1.0620    -1.5070 C.3   1 <1>   0.1400 
 21 C       -7.4710    -0.3990     1.0720 C.3   1 <1>  -0.0990 
 22 N       -7.8270    -0.3390    -1.3680 N.am  1 <1>  -0.6600 
 23 C       -8.3040    -0.0060    -0.1300 C.2   1 <1>   0.5690 
 24 C       -8.5650    -0.0340    -2.6230 C.3   1 <1>   0.0600 
 25 O       -9.3480     0.5750     0.0460 O.2   1 <1>  -0.5700 
 26 H        0.2040    -0.6130     1.7830 H     1 <1>   0.0800 
 27 H       -1.3180     0.2530     1.8740 H     1 <1>   0.0800 
 28 H       -0.1480     4.9420    -1.2630 H     1 <1>   0.1500 
 29 H       -0.0520     5.3120     1.1060 H     1 <1>   0.0800 
 30 H        0.6830     3.9870     1.9780 H     1 <1>   0.0800 
 31 H       -1.0510     4.2010     2.0140 H     1 <1>   0.0800 
 32 H       -0.2420     4.5450    -3.6310 H     1 <1>   0.0800 
 33 H       -1.2960     3.2170    -4.0580 H     1 <1>   0.0800 
 34 H        0.4370     3.0010    -4.0920 H     1 <1>   0.0800 
 35 H       -3.2500    -0.0690     0.9650 H     1 <1>   0.0800 
 36 H       -4.3450    -3.5970     1.4110 H     1 <1>   0.0800 
 37 H       -3.8640    -3.2760     3.0640 H     1 <1>   0.0800 
 38 H       -2.7990    -4.1490     1.9890 H     1 <1>   0.0800 
 39 H       -3.5160    -1.2100    -1.0950 H     1 <1>   0.0800 
 40 H       -4.5890    -2.3940    -0.3770 H     1 <1>   0.0800 
 41 H       -5.4870    -1.6470     2.1880 H     1 <1>   0.0800 
 42 H       -4.8500    -0.0910     2.6860 H     1 <1>   0.0800 
 43 H       -5.1200     0.4550    -1.0450 H     1 <1>   0.0800 
 44 H       -5.8810     1.0110     0.9300 H     1 <1>   0.0800 
 45 H       -6.7030    -2.0950    -1.2510 H     1 <1>   0.0800 
 46 H       -6.1910    -1.0170    -2.5250 H     1 <1>   0.0800 
 47 H       -7.8340     0.1120     1.9450 H     1 <1>   0.0800 
 48 H       -7.5980    -1.4550     1.2220 H     1 <1>   0.0800 
 49 H       -7.9710     0.6100    -3.2470 H     1 <1>   0.0800 
 50 H       -9.4950     0.4620    -2.4030 H     1 <1>   0.0800 
 51 H       -8.7790    -0.9470    -3.1500 H     1 <1>   0.0800 
@<TRIPOS>BOND
  1   1   2  1   
  2   1   3  1   
  3   2   4  ar  
  4   2   5  ar  
  5   3   6  1   
  6   3  26  1   
  7   3  27  1   
  8   4   7  ar  
  9   5   8  ar  
 10   6   9  2   
 11   6  10  am  
 12   7  11  ar  
 13   7  12  1   
 14   8  11  ar  
 15   8  13  1   
 16  10  14  1   
 17  10  15  1   
 18  11  28  1   
 19  12  29  1   
 20  12  30  1   
 21  12  31  1   
 22  13  32  1   
 23  13  33  1   
 24  13  34  1   
 25  14  16  1   
 26  14  17  1   
 27  14  35  1   
 28  15  36  1   
 29  15  37  1   
 30  15  38  1   
 31  16  18  1   
 32  16  39  1   
 33  16  40  1   
 34  17  19  1   
 35  17  41  1   
 36  17  42  1   
 37  18  19  1   
 38  18  20  1   
 39  18  43  1   
 40  19  21  1   
 41  19  44  1   
 42  20  22  1   
 43  20  45  1   
 44  20  46  1   
 45  21  23  1   
 46  21  47  1   
 47  21  48  1   
 48  22  23  am  
 49  22  24  1   
 50  23  25  2   
 51  24  49  1   
 52  24  50  1   
 53  24  51  1   
@<TRIPOS>SUBSTRUCTURE
  1 ****  14 GROUP 4 **** **** 0

# MOE 2024.06 (io_trps.svl 2023.06)
