@<TRIPOS>MOLECULE
NONAME
57 60 1 0 0 
SMALL
USER_CHARGES


@<TRIPOS>ATOM
  1 O       -2.6170     0.2360    -1.5140 O.2   1 <1>  -0.5700 
  2 C       -1.8920     0.5850    -0.5980 C.2   1 <1>   0.7160 
  3 N       -1.2710    -0.3910     0.1210 N.am  1 <1>  -0.7300 
  4 C       -1.7320     1.9470    -0.2210 C.2   1 <1>  -0.0860 
  5 C       -1.5690    -1.8370    -0.0020 C.3   1 <1>   0.2200 
  6 C       -2.7670     2.8400     0.0640 C.2   1 <1>   0.3720 
  7 C       -0.6100     2.6650     0.0410 C.2   1 <1>   0.0870 
  8 C       -2.9340    -2.2190     0.6020 C.3   1 <1>   0.4230 
  9 C       -0.5690    -2.7030     0.7590 C.3   1 <1>  -0.1600 
 10 N       -2.3010     3.9730     0.4580 N.2   1 <1>  -0.4100 
 11 N       -4.1340     2.5450    -0.0390 N.pl3 1 <1>  -0.8210 
 12 O       -1.0000     3.8490     0.4360 O.3   1 <1>  -0.0190 
 13 C        0.7880     2.3270    -0.0290 C.ar  1 <1>   0.0530 
 14 N       -4.1030    -1.7030    -0.1950 N.4   1 <1>  -0.9590 
 15 C       -2.8130    -3.7330     0.7660 C.3   1 <1>  -0.1600 
 16 C       -1.3560    -3.9480     1.2050 C.3   1 <1>  -0.1600 
 17 C       -4.9980     3.3030     0.9250 C.3   1 <1>   0.2090 
 18 C       -4.6440     2.7930    -1.4250 C.3   1 <1>   0.2090 
 19 C        1.6950     2.8420     0.8970 C.ar  1 <1>  -0.1500 
 20 C        1.2850     1.4710    -1.0120 C.ar  1 <1>  -0.1500 
 21 C       -4.8780    -0.7060     0.6020 C.3   1 <1>   0.2630 
 22 C       -5.0070    -2.7190    -0.8150 C.3   1 <1>   0.2630 
 23 C       -6.4810     2.9280     0.7470 C.3   1 <1>   0.1200 
 24 C       -6.1370     2.4380    -1.5380 C.3   1 <1>   0.1200 
 25 C        3.0350     2.5060     0.8560 C.ar  1 <1>  -0.1500 
 26 C        2.6240     1.1300    -1.0570 C.ar  1 <1>  -0.1500 
 27 O       -6.8970     3.1170    -0.5770 O.3   1 <1>  -0.5600 
 28 C        3.5030     1.6460    -0.1210 C.ar  1 <1>  -0.1500 
 29 H       -0.5410    -0.1200     0.7880 H     1 <1>   0.3700 
 30 H       -1.5510    -2.1250    -1.0410 H     1 <1>   0.0800 
 31 H       -2.9670    -1.7950     1.5920 H     1 <1>   0.0800 
 32 H        0.2600    -2.9740     0.1270 H     1 <1>   0.0800 
 33 H       -0.1970    -2.1870     1.6280 H     1 <1>   0.0800 
 34 H       -3.6700    -1.1420    -0.9630 H     1 <1>   0.4500 
 35 H       -3.5030    -4.1150     1.4980 H     1 <1>   0.0800 
 36 H       -2.9510    -4.2370    -0.1740 H     1 <1>   0.0800 
 37 H       -1.3000    -4.0470     2.2780 H     1 <1>   0.0800 
 38 H       -0.9520    -4.8450     0.7630 H     1 <1>   0.0800 
 39 H       -4.6890     3.0860     1.9320 H     1 <1>   0.0800 
 40 H       -4.8880     4.3630     0.7660 H     1 <1>   0.0800 
 41 H       -4.5090     3.8320    -1.6790 H     1 <1>   0.0800 
 42 H       -4.0850     2.2080    -2.1330 H     1 <1>   0.0800 
 43 H        1.3440     3.5150     1.6610 H     1 <1>   0.1500 
 44 H        0.6230     1.0720    -1.7590 H     1 <1>   0.1500 
 45 H       -5.3270    -1.1750     1.4610 H     1 <1>   0.0800 
 46 H       -5.6560    -0.2690    -0.0040 H     1 <1>   0.0800 
 47 H       -4.2310     0.0910     0.9340 H     1 <1>   0.0800 
 48 H       -5.4640    -3.3290    -0.0530 H     1 <1>   0.0800 
 49 H       -4.4520    -3.3550    -1.4850 H     1 <1>   0.0800 
 50 H       -5.7850    -2.2290    -1.3790 H     1 <1>   0.0800 
 51 H       -7.0950     3.5510     1.3730 H     1 <1>   0.0800 
 52 H       -6.6460     1.9000     1.0150 H     1 <1>   0.0800 
 53 H       -6.2840     1.3820    -1.4070 H     1 <1>   0.0800 
 54 H       -6.5100     2.7200    -2.5060 H     1 <1>   0.0800 
 55 H        3.7170     2.9160     1.5820 H     1 <1>   0.1500 
 56 H        2.9890     0.4680    -1.8240 H     1 <1>   0.1500 
 57 H        4.5470     1.3850    -0.1560 H     1 <1>   0.1500 
@<TRIPOS>BOND
  1   1   2  2   
  2   2   3  am  
  3   2   4  1   
  4   3   5  1   
  5   3  29  1   
  6   4   6  1   
  7   4   7  2   
  8   5   8  1   
  9   5   9  1   
 10   5  30  1   
 11   6  10  2   
 12   6  11  1   
 13   7  12  1   
 14   7  13  1   
 15   8  14  1   
 16   8  15  1   
 17   8  31  1   
 18   9  16  1   
 19   9  32  1   
 20   9  33  1   
 21  10  12  1   
 22  11  17  1   
 23  11  18  1   
 24  13  19  ar  
 25  13  20  ar  
 26  14  21  1   
 27  14  22  1   
 28  14  34  1   
 29  15  16  1   
 30  15  35  1   
 31  15  36  1   
 32  16  37  1   
 33  16  38  1   
 34  17  23  1   
 35  17  39  1   
 36  17  40  1   
 37  18  24  1   
 38  18  41  1   
 39  18  42  1   
 40  19  25  ar  
 41  19  43  1   
 42  20  26  ar  
 43  20  44  1   
 44  21  45  1   
 45  21  46  1   
 46  21  47  1   
 47  22  48  1   
 48  22  49  1   
 49  22  50  1   
 50  23  27  1   
 51  23  51  1   
 52  23  52  1   
 53  24  27  1   
 54  24  53  1   
 55  24  54  1   
 56  25  28  ar  
 57  25  55  1   
 58  26  28  ar  
 59  26  56  1   
 60  28  57  1   
@<TRIPOS>SUBSTRUCTURE
  1 ****   2 GROUP 4 **** **** 0

# MOE 2024.06 (io_trps.svl 2023.06)
