@<TRIPOS>MOLECULE
NONAME
51 53 1 0 0 
SMALL
USER_CHARGES


@<TRIPOS>ATOM
  1 O       -0.1890    -0.6620     0.4080 O.2   1 <1>  -0.5700 
  2 C       -0.4670     0.4370    -0.0330 C.2   1 <1>   0.7800 
  3 O       -1.7300     0.8450    -0.0490 O.3   1 <1>  -0.4300 
  4 N        0.4340     1.3110    -0.5280 N.am  1 <1>  -0.4930 
  5 C       -2.7510     0.0060     0.4440 C.3   1 <1>   0.2640 
  6 C        1.8130     1.2140    -0.6480 C.2   1 <1>   0.3520 
  7 C       -4.0820     0.7270     0.3090 C.ar  1 <1>  -0.1440 
  8 N        2.4700     2.1920    -1.1840 N.2   1 <1>  -0.7070 
  9 C        2.6450     0.1680    -0.2560 C.2   1 <1>  -0.1500 
 10 C       -4.4100     1.7520     1.1830 C.ar  1 <1>  -0.1500 
 11 C       -4.9810     0.3660    -0.6840 C.ar  1 <1>  -0.1500 
 12 N        3.7590     1.7940    -1.1460 N.pl3 1 <1>   0.3140 
 13 C        3.8880     0.5720    -0.5930 C.2   1 <1>  -0.3320 
 14 C       -5.6250     2.4060     1.0700 C.ar  1 <1>  -0.1500 
 15 C       -6.1960     1.0190    -0.7980 C.ar  1 <1>  -0.1500 
 16 C        4.8670     2.6290    -1.6310 C.3   1 <1>   0.0960 
 17 C        5.2320    -0.1190    -0.4340 C.3   1 <1>   0.3200 
 18 C       -6.5190     2.0390     0.0800 C.ar  1 <1>  -0.1500 
 19 C        6.0960     1.7540    -1.8870 C.3   1 <1>   0.1400 
 20 N        6.3290     0.8410    -0.7300 N.am  1 <1>  -0.6600 
 21 C        7.4470     0.8820     0.0570 C.2   1 <1>   0.7800 
 22 O        7.6380     0.0740     0.9430 O.2   1 <1>  -0.5700 
 23 O        8.3250     1.8560    -0.1900 O.3   1 <1>  -0.4300 
 24 C        9.5330     2.1140     0.4930 C.3   1 <1>   0.2800 
 25 C        9.2500     2.4500     1.9620 C.3   1 <1>  -0.2400 
 26 C       10.1260     3.3430    -0.1980 C.3   1 <1>  -0.2400 
 27 C       10.4960     0.9320     0.3360 C.3   1 <1>  -0.2400 
 28 H        0.0640     2.1880    -0.8740 H     1 <1>   0.3700 
 29 H       -2.5430    -0.2140     1.4770 H     1 <1>   0.0800 
 30 H       -2.7450    -0.9080    -0.1240 H     1 <1>   0.0800 
 31 H        2.3300    -0.7480     0.2120 H     1 <1>   0.1500 
 32 H       -3.7180     2.0460     1.9530 H     1 <1>   0.1500 
 33 H       -4.7380    -0.4230    -1.3750 H     1 <1>   0.1500 
 34 H       -5.8740     3.2000     1.7520 H     1 <1>   0.1500 
 35 H       -6.8900     0.7350    -1.5700 H     1 <1>   0.1500 
 36 H        5.0890     3.3650    -0.8810 H     1 <1>   0.0800 
 37 H        4.5630     3.1280    -2.5310 H     1 <1>   0.0800 
 38 H        5.2970    -0.9460    -1.1190 H     1 <1>   0.0800 
 39 H        5.3180    -0.5030     0.5690 H     1 <1>   0.0800 
 40 H       -7.4640     2.5460    -0.0080 H     1 <1>   0.1500 
 41 H        6.9520     2.3810    -2.0680 H     1 <1>   0.0800 
 42 H        5.9340     1.1620    -2.7720 H     1 <1>   0.0800 
 43 H        8.5170     3.2330     2.0340 H     1 <1>   0.0800 
 44 H       10.1520     2.7820     2.4430 H     1 <1>   0.0800 
 45 H        8.8980     1.5870     2.4970 H     1 <1>   0.0800 
 46 H        9.4530     4.1770    -0.1190 H     1 <1>   0.0800 
 47 H       10.3100     3.1350    -1.2370 H     1 <1>   0.0800 
 48 H       11.0590     3.6160     0.2620 H     1 <1>   0.0800 
 49 H       10.1440     0.0700     0.8710 H     1 <1>   0.0800 
 50 H       11.4600     1.1890     0.7360 H     1 <1>   0.0800 
 51 H       10.6140     0.6800    -0.7020 H     1 <1>   0.0800 
@<TRIPOS>BOND
  1   1   2  2   
  2   2   3  1   
  3   2   4  am  
  4   3   5  1   
  5   4   6  1   
  6   4  28  1   
  7   5   7  1   
  8   5  29  1   
  9   5  30  1   
 10   6   8  2   
 11   6   9  1   
 12   7  10  ar  
 13   7  11  ar  
 14   8  12  1   
 15   9  13  2   
 16   9  31  1   
 17  10  14  ar  
 18  10  32  1   
 19  11  15  ar  
 20  11  33  1   
 21  12  13  1   
 22  12  16  1   
 23  13  17  1   
 24  14  18  ar  
 25  14  34  1   
 26  15  18  ar  
 27  15  35  1   
 28  16  19  1   
 29  16  36  1   
 30  16  37  1   
 31  17  20  1   
 32  17  38  1   
 33  17  39  1   
 34  18  40  1   
 35  19  20  1   
 36  19  41  1   
 37  19  42  1   
 38  20  21  am  
 39  21  22  2   
 40  21  23  1   
 41  23  24  1   
 42  24  25  1   
 43  24  26  1   
 44  24  27  1   
 45  25  43  1   
 46  25  44  1   
 47  25  45  1   
 48  26  46  1   
 49  26  47  1   
 50  26  48  1   
 51  27  49  1   
 52  27  50  1   
 53  27  51  1   
@<TRIPOS>SUBSTRUCTURE
  1 ****   6 GROUP 4 **** **** 0

# MOE 2024.06 (io_trps.svl 2023.06)
