@<TRIPOS>MOLECULE
NONAME
46 48 1 0 0 
SMALL
USER_CHARGES


@<TRIPOS>ATOM
  1 F        2.3150     0.2770     3.0610 F     1 <1>  -0.1900 
  2 C        2.9330    -0.4390     2.1590 C.ar  1 <1>   0.1900 
  3 C        3.7580     0.2010     1.2530 C.ar  1 <1>  -0.1500 
  4 C        2.7410    -1.8070     2.1510 C.ar  1 <1>  -0.1500 
  5 C        4.4210    -0.5540     0.2930 C.ar  1 <1>  -0.1440 
  6 C        3.3980    -2.5580     1.1940 C.ar  1 <1>  -0.1500 
  7 C        4.2310    -1.9400     0.2660 C.ar  1 <1>   0.1170 
  8 C        5.3840     0.0720    -0.7300 C.3   1 <1>   0.1250 
  9 N        4.8810    -2.6980    -0.7090 N.am  1 <1>  -0.5470 
 10 C        5.1620     1.5700    -0.9490 C.2   1 <1>   0.5690 
 11 C        5.3440    -0.7010    -2.0620 C.3   1 <1>  -0.0990 
 12 C        5.4720    -2.1850    -1.8140 C.2   1 <1>   0.5690 
 13 O        4.3280     1.9300    -1.7450 O.2   1 <1>  -0.5700 
 14 N        5.9320     2.4440    -0.2260 N.am  1 <1>  -0.4940 
 15 O        6.0820    -2.8830    -2.5810 O.2   1 <1>  -0.5700 
 16 C        6.0070     3.8590    -0.2400 C.2   1 <1>  -0.0880 
 17 N        5.0050     4.7580    -0.4650 N.pl3 1 <1>   0.3140 
 18 C        7.1210     4.5890     0.0100 C.2   1 <1>  -0.1810 
 19 N        5.4540     6.0270    -0.3630 N.2   1 <1>  -0.7070 
 20 C        3.5740     4.5190    -0.6920 C.3   1 <1>   0.0160 
 21 C        6.7140     5.9180    -0.0840 C.2   1 <1>   0.1080 
 22 C        8.5200     4.0820     0.3180 C.3   1 <1>   0.0210 
 23 C        7.5940     7.1410     0.1060 C.3   1 <1>   0.0210 
 24 C        8.7150     3.9280     1.8280 C.3   1 <1>  -0.2400 
 25 C        8.2330     7.5730    -1.2170 C.3   1 <1>  -0.2400 
 26 H        3.8620     1.2690     1.3240 H     1 <1>   0.1500 
 27 H        2.0910    -2.2650     2.8760 H     1 <1>   0.1500 
 28 H        3.2610    -3.6240     1.1640 H     1 <1>   0.1500 
 29 H        6.3760    -0.0520    -0.3320 H     1 <1>   0.0800 
 30 H        4.9260    -3.7130    -0.6210 H     1 <1>   0.3700 
 31 H        6.1370    -0.3720    -2.7090 H     1 <1>   0.0800 
 32 H        4.4070    -0.5290    -2.5610 H     1 <1>   0.0800 
 33 H        6.6380     2.0160     0.3710 H     1 <1>   0.3700 
 34 H        3.2540     3.6760    -0.1110 H     1 <1>   0.0800 
 35 H        3.4140     4.3280    -1.7360 H     1 <1>   0.0800 
 36 H        3.0200     5.3910    -0.3980 H     1 <1>   0.0800 
 37 H        9.2500     4.7670    -0.0760 H     1 <1>   0.0800 
 38 H        8.6740     3.1340    -0.1660 H     1 <1>   0.0800 
 39 H        8.3570     6.9300     0.8320 H     1 <1>   0.0800 
 40 H        6.9880     7.9430     0.4890 H     1 <1>   0.0800 
 41 H        8.5870     4.8780     2.3170 H     1 <1>   0.0800 
 42 H        9.7030     3.5610     2.0400 H     1 <1>   0.0800 
 43 H        7.9940     3.2390     2.2290 H     1 <1>   0.0800 
 44 H        8.8450     6.7830    -1.6130 H     1 <1>   0.0800 
 45 H        8.8400     8.4480    -1.0690 H     1 <1>   0.0800 
 46 H        7.4620     7.8010    -1.9320 H     1 <1>   0.0800 
@<TRIPOS>BOND
  1   1   2  1   
  2   2   3  ar  
  3   2   4  ar  
  4   3   5  ar  
  5   3  26  1   
  6   4   6  ar  
  7   4  27  1   
  8   5   7  ar  
  9   5   8  1   
 10   6   7  ar  
 11   6  28  1   
 12   7   9  1   
 13   8  10  1   
 14   8  11  1   
 15   8  29  1   
 16   9  12  am  
 17   9  30  1   
 18  10  13  2   
 19  10  14  am  
 20  11  12  1   
 21  11  31  1   
 22  11  32  1   
 23  12  15  2   
 24  14  16  1   
 25  14  33  1   
 26  16  17  1   
 27  16  18  2   
 28  17  19  1   
 29  17  20  1   
 30  18  21  1   
 31  18  22  1   
 32  19  21  2   
 33  20  34  1   
 34  20  35  1   
 35  20  36  1   
 36  21  23  1   
 37  22  24  1   
 38  22  37  1   
 39  22  38  1   
 40  23  25  1   
 41  23  39  1   
 42  23  40  1   
 43  24  41  1   
 44  24  42  1   
 45  24  43  1   
 46  25  44  1   
 47  25  45  1   
 48  25  46  1   
@<TRIPOS>SUBSTRUCTURE
  1 ****  10 GROUP 4 **** **** 0

# MOE 2024.06 (io_trps.svl 2023.06)
