@<TRIPOS>MOLECULE
NONAME
51 54 1 0 0 
SMALL
USER_CHARGES


@<TRIPOS>ATOM
  1 O        1.0430    -0.2480     1.9500 O.2   1 <1>  -0.5700 
  2 C        1.0750    -1.1130     1.0900 C.2   1 <1>   0.5440 
  3 N        1.7130    -0.7910    -0.0950 N.am  1 <1>  -0.6600 
  4 C        0.4710    -2.4190     1.3750 C.ar  1 <1>   0.3960 
  5 C        2.2820     0.5500    -0.3580 C.3   1 <1>   0.1400 
  6 C        1.9880    -1.7100    -1.2220 C.3   1 <1>   0.1400 
  7 N       -0.0050    -3.1980     0.3890 N.ar  1 <1>  -0.6200 
  8 C        0.4020    -2.8240     2.7130 C.ar  1 <1>   0.1600 
  9 C        2.7360     0.5060    -1.8130 C.3   1 <1>  -0.1600 
 10 C        2.9990    -0.9710    -2.0910 C.3   1 <1>  -0.1600 
 11 C       -0.5210    -4.3420     0.8030 C.ar  1 <1>   0.4100 
 12 N       -0.1090    -3.9650     3.1530 N.ar  1 <1>  -0.6200 
 13 N       -1.0100    -5.1910    -0.1740 N.pl3 1 <1>  -0.8380 
 14 C       -0.5710    -4.6970     2.1600 C.ar  1 <1>   0.1600 
 15 C       -0.5140    -6.5950    -0.2580 C.3   1 <1>   0.3530 
 16 C       -1.6920    -4.6820    -1.3990 C.3   1 <1>   0.2090 
 17 C       -1.4340    -7.5770     0.4610 C.ar  1 <1>  -0.1430 
 18 C       -3.2050    -4.5760    -1.1810 C.3   1 <1>  -0.1600 
 19 C       -2.7610    -7.7590     0.0760 C.ar  1 <1>   0.0830 
 20 C       -0.9280    -8.3210     1.5190 C.ar  1 <1>  -0.1500 
 21 C       -3.8280    -5.7620    -0.4350 C.3   1 <1>   0.1200 
 22 O       -3.2800    -6.9790    -0.9040 O.3   1 <1>  -0.3630 
 23 C       -3.5610    -8.7040     0.7320 C.ar  1 <1>   0.0830 
 24 C       -1.7250    -9.2350     2.1850 C.ar  1 <1>  -0.1500 
 25 O       -4.8550    -8.9600     0.4040 O.3   1 <1>  -0.3630 
 26 C       -3.0370    -9.4250     1.7910 C.ar  1 <1>  -0.1500 
 27 C       -5.1670    -9.2140    -0.9490 C.3   1 <1>   0.0400 
 28 H        3.1210     0.7070     0.2980 H     1 <1>   0.0800 
 29 H        1.5450     1.3170    -0.1910 H     1 <1>   0.0800 
 30 H        1.0760    -1.8780    -1.7680 H     1 <1>   0.0800 
 31 H        2.3800    -2.6500    -0.8720 H     1 <1>   0.0800 
 32 H        0.7960    -2.1580     3.4610 H     1 <1>   0.1500 
 33 H        3.6050     1.1180    -1.9780 H     1 <1>   0.0800 
 34 H        1.9340     0.8600    -2.4370 H     1 <1>   0.0800 
 35 H        2.8890    -1.2190    -3.1310 H     1 <1>   0.0800 
 36 H        3.9920    -1.2320    -1.7700 H     1 <1>   0.0800 
 37 H       -1.0290    -5.6360     2.4090 H     1 <1>   0.1500 
 38 H        0.4730    -6.6410     0.1700 H     1 <1>   0.0800 
 39 H       -0.4240    -6.8960    -1.2870 H     1 <1>   0.0800 
 40 H       -1.5090    -5.3500    -2.2230 H     1 <1>   0.0800 
 41 H       -1.3020    -3.7180    -1.6780 H     1 <1>   0.0800 
 42 H       -3.6850    -4.4700    -2.1360 H     1 <1>   0.0800 
 43 H       -3.4090    -3.6790    -0.6240 H     1 <1>   0.0800 
 44 H        0.0930    -8.1940     1.8360 H     1 <1>   0.1500 
 45 H       -4.8930    -5.7960    -0.5800 H     1 <1>   0.0800 
 46 H       -3.6270    -5.6680     0.6200 H     1 <1>   0.0800 
 47 H       -1.3260    -9.8020     3.0080 H     1 <1>   0.1500 
 48 H       -3.6620   -10.1350     2.3010 H     1 <1>   0.1500 
 49 H       -6.0810    -9.7780    -0.9820 H     1 <1>   0.0800 
 50 H       -4.3680    -9.7790    -1.3950 H     1 <1>   0.0800 
 51 H       -5.2990    -8.2780    -1.4610 H     1 <1>   0.0800 
@<TRIPOS>BOND
  1   1   2  2   
  2   2   3  am  
  3   2   4  1   
  4   3   5  1   
  5   3   6  1   
  6   4   7  ar  
  7   4   8  ar  
  8   5   9  1   
  9   5  28  1   
 10   5  29  1   
 11   6  10  1   
 12   6  30  1   
 13   6  31  1   
 14   7  11  ar  
 15   8  12  ar  
 16   8  32  1   
 17   9  10  1   
 18   9  33  1   
 19   9  34  1   
 20  10  35  1   
 21  10  36  1   
 22  11  13  1   
 23  11  14  ar  
 24  12  14  ar  
 25  13  15  1   
 26  13  16  1   
 27  14  37  1   
 28  15  17  1   
 29  15  38  1   
 30  15  39  1   
 31  16  18  1   
 32  16  40  1   
 33  16  41  1   
 34  17  19  ar  
 35  17  20  ar  
 36  18  21  1   
 37  18  42  1   
 38  18  43  1   
 39  19  22  1   
 40  19  23  ar  
 41  20  24  ar  
 42  20  44  1   
 43  21  22  1   
 44  21  45  1   
 45  21  46  1   
 46  23  25  1   
 47  23  26  ar  
 48  24  26  ar  
 49  24  47  1   
 50  25  27  1   
 51  26  48  1   
 52  27  49  1   
 53  27  50  1   
 54  27  51  1   
@<TRIPOS>SUBSTRUCTURE
  1 ****  11 GROUP 4 **** **** 0

# MOE 2024.06 (io_trps.svl 2023.06)
