@<TRIPOS>MOLECULE
NONAME
43 45 1 0 0 
SMALL
USER_CHARGES


@<TRIPOS>ATOM
  1 S        0.1840    -0.0340    -0.5550 S.3   1 <1>  -0.2860 
  2 C        0.7570     0.4220     1.0860 C.2   1 <1>   0.2420 
  3 C       -0.4610    -1.7450    -0.3000 C.3   1 <1>   0.0700 
  4 N        0.7170    -0.3420     2.1060 N.2   1 <1>  -0.3380 
  5 N        1.2740     1.5990     1.3780 N.pl3 1 <1>   0.3140 
  6 C       -0.9910    -2.2720    -1.6310 C.3   1 <1>   0.1400 
  7 N        1.2360     0.3950     3.0870 N.2   1 <1>   0.0000 
  8 N        1.5750     1.5650     2.6610 N.2   1 <1>  -0.4180 
  9 C        1.5010     2.7640     0.5110 C.3   1 <1>   0.0160 
 10 N       -1.4660    -3.6630    -1.4520 N.am  1 <1>  -0.7300 
 11 C       -2.7070    -4.0270    -1.0320 C.2   1 <1>   0.5690 
 12 O       -3.5550    -3.1960    -0.8110 O.2   1 <1>  -0.5700 
 13 C       -3.0090    -5.5140    -0.8050 C.3   1 <1>   0.2610 
 14 O       -1.8510    -6.2920    -1.1070 O.3   1 <1>  -0.5600 
 15 C       -3.5060    -5.7250     0.6550 C.3   1 <1>   0.3640 
 16 C       -1.9930    -7.6770    -0.8920 C.3   1 <1>   0.1810 
 17 N       -3.1240    -7.0440     1.2180 N.am  1 <1>  -0.7300 
 18 C       -5.0260    -5.5970     0.7490 C.ar  1 <1>  -0.1440 
 19 C       -2.4510    -7.9910     0.5310 C.2   1 <1>   0.5690 
 20 C       -5.5920    -4.4200     1.2200 C.ar  1 <1>  -0.1500 
 21 C       -5.8640    -6.6380     0.3680 C.ar  1 <1>  -0.1500 
 22 O       -2.2380    -9.0730     1.0150 O.2   1 <1>  -0.5700 
 23 C       -6.9660    -4.2860     1.3110 C.ar  1 <1>  -0.1500 
 24 C       -7.2390    -6.5050     0.4590 C.ar  1 <1>  -0.1500 
 25 C       -7.7910    -5.3280     0.9310 C.ar  1 <1>  -0.1500 
 26 H        0.3560    -2.3400     0.0670 H     1 <1>   0.0800 
 27 H       -1.2440    -1.6820     0.4350 H     1 <1>   0.0800 
 28 H       -0.2150    -2.2510    -2.3760 H     1 <1>   0.0800 
 29 H       -1.8090    -1.6540    -1.9630 H     1 <1>   0.0800 
 30 H        2.1730     2.4890    -0.2810 H     1 <1>   0.0800 
 31 H        1.9310     3.5600     1.0900 H     1 <1>   0.0800 
 32 H        0.5630     3.0850     0.0980 H     1 <1>   0.0800 
 33 H       -0.7890    -4.4200    -1.6030 H     1 <1>   0.3700 
 34 H       -3.7820    -5.8040    -1.4920 H     1 <1>   0.0800 
 35 H       -3.0570    -4.9680     1.2760 H     1 <1>   0.0800 
 36 H       -2.7060    -8.0640    -1.5970 H     1 <1>   0.0800 
 37 H       -1.0380    -8.1380    -1.0690 H     1 <1>   0.0800 
 38 H       -3.4870    -7.2760     2.1440 H     1 <1>   0.3700 
 39 H       -4.9670    -3.5930     1.5110 H     1 <1>   0.1500 
 40 H       -5.4560    -7.5630    -0.0010 H     1 <1>   0.1500 
 41 H       -7.3920    -3.3670     1.6750 H     1 <1>   0.1500 
 42 H       -7.8800    -7.3170     0.1630 H     1 <1>   0.1500 
 43 H       -8.8600    -5.2230     1.0020 H     1 <1>   0.1500 
@<TRIPOS>BOND
  1   1   2  1   
  2   1   3  1   
  3   2   4  2   
  4   2   5  1   
  5   3   6  1   
  6   3  26  1   
  7   3  27  1   
  8   4   7  1   
  9   5   8  1   
 10   5   9  1   
 11   6  10  1   
 12   6  28  1   
 13   6  29  1   
 14   7   8  2   
 15   9  30  1   
 16   9  31  1   
 17   9  32  1   
 18  10  11  am  
 19  10  33  1   
 20  11  12  2   
 21  11  13  1   
 22  13  14  1   
 23  13  15  1   
 24  13  34  1   
 25  14  16  1   
 26  15  17  1   
 27  15  18  1   
 28  15  35  1   
 29  16  19  1   
 30  16  36  1   
 31  16  37  1   
 32  17  19  am  
 33  17  38  1   
 34  18  20  ar  
 35  18  21  ar  
 36  19  22  2   
 37  20  23  ar  
 38  20  39  1   
 39  21  24  ar  
 40  21  40  1   
 41  23  25  ar  
 42  23  41  1   
 43  24  25  ar  
 44  24  42  1   
 45  25  43  1   
@<TRIPOS>SUBSTRUCTURE
  1 ****  11 GROUP 4 **** **** 0

# MOE 2024.06 (io_trps.svl 2023.06)
