@<TRIPOS>MOLECULE
NONAME
53 54 1 0 0 
SMALL
USER_CHARGES


@<TRIPOS>ATOM
  1 O       -1.4470     1.4520     2.5450 O.2   1 <1>  -0.5700 
  2 C       -1.9610     1.7970     1.4980 C.2   1 <1>   0.7800 
  3 O       -2.7720     0.9570     0.8620 O.3   1 <1>  -0.4300 
  4 N       -1.7470     3.0260     0.9310 N.am  1 <1>  -0.6600 
  5 C       -3.0340    -0.3200     1.3950 C.3   1 <1>   0.2640 
  6 C       -0.8710     4.0410     1.5750 C.3   1 <1>   0.1400 
  7 C       -2.3850     3.4590    -0.3410 C.3   1 <1>   0.1400 
  8 C       -3.9800    -1.0440     0.4510 C.ar  1 <1>  -0.1440 
  9 C        0.2090     4.4790     0.5850 C.3   1 <1>  -0.1600 
 10 C       -1.3070     3.9240    -1.3280 C.3   1 <1>  -0.1600 
 11 C       -5.3530    -0.9280     0.6110 C.ar  1 <1>  -0.1500 
 12 C       -3.4790    -1.8240    -0.5790 C.ar  1 <1>  -0.1500 
 13 C       -0.3880     5.0030    -0.7330 C.3   1 <1>   0.3000 
 14 C       -6.2150    -1.5890    -0.2470 C.ar  1 <1>  -0.1500 
 15 C       -4.3400    -2.4860    -1.4380 C.ar  1 <1>  -0.1500 
 16 N       -1.2070     6.2060    -0.5070 N.am  1 <1>  -0.7300 
 17 C        0.7150     5.3540    -1.7320 C.3   1 <1>  -0.2400 
 18 C       -5.7090    -2.3690    -1.2710 C.ar  1 <1>  -0.1500 
 19 C       -0.8820     7.3660     0.1060 C.2   1 <1>   0.7800 
 20 O        0.2160     7.5980     0.5640 O.2   1 <1>  -0.5700 
 21 O       -1.8770     8.2450     0.1770 O.3   1 <1>  -0.4300 
 22 C       -1.8410     9.5240     0.7730 C.3   1 <1>   0.2800 
 23 C       -3.2460    10.0950     0.5770 C.3   1 <1>  -0.2400 
 24 C       -1.5500     9.4040     2.2730 C.3   1 <1>  -0.2400 
 25 C       -0.8270    10.4180     0.0490 C.3   1 <1>  -0.2400 
 26 H       -3.4770    -0.2000     2.3680 H     1 <1>   0.0800 
 27 H       -2.1020    -0.8500     1.4880 H     1 <1>   0.0800 
 28 H       -0.4060     3.6380     2.4590 H     1 <1>   0.0800 
 29 H       -1.4680     4.8880     1.8700 H     1 <1>   0.0800 
 30 H       -3.0690     4.2620    -0.1270 H     1 <1>   0.0800 
 31 H       -2.9490     2.6560    -0.7840 H     1 <1>   0.0800 
 32 H        0.8360     3.6300     0.3790 H     1 <1>   0.0800 
 33 H        0.8360     5.2220     1.0400 H     1 <1>   0.0800 
 34 H       -1.7720     4.2900    -2.2260 H     1 <1>   0.0800 
 35 H       -0.7180     3.0670    -1.6010 H     1 <1>   0.0800 
 36 H       -5.7540    -0.3200     1.4030 H     1 <1>   0.1500 
 37 H       -2.4160    -1.9170    -0.7190 H     1 <1>   0.1500 
 38 H       -7.2790    -1.4950    -0.1170 H     1 <1>   0.1500 
 39 H       -3.9460    -3.0910    -2.2360 H     1 <1>   0.1500 
 40 H       -2.1460     6.1690    -0.8890 H     1 <1>   0.3700 
 41 H        1.2990     4.4820    -1.9640 H     1 <1>   0.0800 
 42 H        1.3750     6.0950    -1.3190 H     1 <1>   0.0800 
 43 H        0.2920     5.7340    -2.6450 H     1 <1>   0.0800 
 44 H       -6.3790    -2.8820    -1.9390 H     1 <1>   0.1500 
 45 H       -3.9750     9.4640     1.0550 H     1 <1>   0.0800 
 46 H       -3.4770    10.1690    -0.4700 H     1 <1>   0.0800 
 47 H       -3.3140    11.0770     1.0090 H     1 <1>   0.0800 
 48 H       -2.2360     8.7170     2.7340 H     1 <1>   0.0800 
 49 H       -1.6590    10.3630     2.7460 H     1 <1>   0.0800 
 50 H       -0.5440     9.0690     2.4480 H     1 <1>   0.0800 
 51 H       -1.0200    10.4230    -1.0080 H     1 <1>   0.0800 
 52 H        0.1790    10.0850     0.2240 H     1 <1>   0.0800 
 53 H       -0.9020    11.4260     0.4140 H     1 <1>   0.0800 
@<TRIPOS>BOND
  1   1   2  2   
  2   2   3  1   
  3   2   4  am  
  4   3   5  1   
  5   4   6  1   
  6   4   7  1   
  7   5   8  1   
  8   5  26  1   
  9   5  27  1   
 10   6   9  1   
 11   6  28  1   
 12   6  29  1   
 13   7  10  1   
 14   7  30  1   
 15   7  31  1   
 16   8  11  ar  
 17   8  12  ar  
 18   9  13  1   
 19   9  32  1   
 20   9  33  1   
 21  10  13  1   
 22  10  34  1   
 23  10  35  1   
 24  11  14  ar  
 25  11  36  1   
 26  12  15  ar  
 27  12  37  1   
 28  13  16  1   
 29  13  17  1   
 30  14  18  ar  
 31  14  38  1   
 32  15  18  ar  
 33  15  39  1   
 34  16  19  am  
 35  16  40  1   
 36  17  41  1   
 37  17  42  1   
 38  17  43  1   
 39  18  44  1   
 40  19  20  2   
 41  19  21  1   
 42  21  22  1   
 43  22  23  1   
 44  22  24  1   
 45  22  25  1   
 46  23  45  1   
 47  23  46  1   
 48  23  47  1   
 49  24  48  1   
 50  24  49  1   
 51  24  50  1   
 52  25  51  1   
 53  25  52  1   
 54  25  53  1   
@<TRIPOS>SUBSTRUCTURE
  1 ****   7 GROUP 4 **** **** 0

# MOE 2024.06 (io_trps.svl 2023.06)
