@<TRIPOS>MOLECULE
NONAME
38 40 1 0 0 
SMALL
USER_CHARGES


@<TRIPOS>ATOM
  1 O        0.6660     2.8950     1.9490 O.co2 1 <1>  -0.9000 
  2 C        0.8860     2.5270     0.7880 C.2   1 <1>   0.9470 
  3 O        0.0950     2.7920    -0.1290 O.co2 1 <1>  -0.9000 
  4 C        2.2500     1.9300     0.4430 C.3   1 <1>  -0.2420 
  5 C        2.8090     0.5340     0.5650 C.3   1 <1>  -0.2420 
  6 C        3.3570     2.8970     0.8190 C.3   1 <1>   0.2350 
  7 C        2.3620     1.0530    -0.7790 C.3   1 <1>  -0.2000 
  8 C        2.1910    -0.7590     1.1070 C.2   1 <1>   0.9470 
  9 C        4.2630     0.6620     0.9940 C.3   1 <1>   0.2350 
 10 N        4.6140     2.0900     0.7390 N.am  1 <1>  -0.6600 
 11 O        2.3950    -1.0700     2.2890 O.co2 1 <1>  -0.9000 
 12 O        1.6360    -1.5480     0.3280 O.co2 1 <1>  -0.9000 
 13 C        5.8500     2.4650     0.2720 C.2   1 <1>   0.5690 
 14 O        6.7700     1.6720     0.3100 O.2   1 <1>  -0.5700 
 15 C        6.1320     3.8590    -0.3610 C.3   1 <1>   0.3170 
 16 N        5.6510     4.9600     0.5390 N.pl3 1 <1>   0.0480 
 17 C        5.4750     3.9350    -1.7590 C.3   1 <1>  -0.2400 
 18 C        7.6460     4.1040    -0.5670 C.3   1 <1>  -0.2400 
 19 C        4.9930     6.1090     0.1980 C.2   1 <1>  -0.3020 
 20 C        5.8650     5.0300     1.8860 C.2   1 <1>  -0.3020 
 21 C        4.7930     6.8740     1.3020 C.2   1 <1>  -0.1500 
 22 C        5.3500     6.1850     2.3800 C.2   1 <1>  -0.1500 
 23 H        3.2150     3.2340     1.8320 H     1 <1>   0.0800 
 24 H        3.3500     3.7440     0.1620 H     1 <1>   0.0800 
 25 H        3.0930     1.2750    -1.5320 H     1 <1>   0.1000 
 26 H        1.4500     0.6540    -1.1930 H     1 <1>   0.1000 
 27 H        4.8870    -0.0090     0.4300 H     1 <1>   0.0800 
 28 H        4.3630     0.4530     2.0450 H     1 <1>   0.0800 
 29 H        5.8240     3.1170    -2.3630 H     1 <1>   0.0800 
 30 H        5.7290     4.8530    -2.2580 H     1 <1>   0.0800 
 31 H        4.4060     3.8540    -1.6940 H     1 <1>   0.0800 
 32 H        8.0550     3.3730    -1.2410 H     1 <1>   0.0800 
 33 H        8.1640     4.0160     0.3720 H     1 <1>   0.0800 
 34 H        7.8220     5.0840    -0.9730 H     1 <1>   0.0800 
 35 H        4.6900     6.3320    -0.8080 H     1 <1>   0.1500 
 36 H        6.3680     4.2470     2.4260 H     1 <1>   0.1500 
 37 H        4.3000     7.8290     1.3650 H     1 <1>   0.1500 
 38 H        5.3520     6.5260     3.4010 H     1 <1>   0.1500 
@<TRIPOS>BOND
  1   1   2  ar  
  2   2   3  ar  
  3   2   4  1   
  4   4   5  1   
  5   4   6  1   
  6   4   7  1   
  7   5   7  1   
  8   5   8  1   
  9   5   9  1   
 10   6  10  1   
 11   6  23  1   
 12   6  24  1   
 13   7  25  1   
 14   7  26  1   
 15   8  11  ar  
 16   8  12  ar  
 17   9  10  1   
 18   9  27  1   
 19   9  28  1   
 20  10  13  am  
 21  13  14  2   
 22  13  15  1   
 23  15  16  1   
 24  15  17  1   
 25  15  18  1   
 26  16  19  1   
 27  16  20  1   
 28  17  29  1   
 29  17  30  1   
 30  17  31  1   
 31  18  32  1   
 32  18  33  1   
 33  18  34  1   
 34  19  21  2   
 35  19  35  1   
 36  20  22  2   
 37  20  36  1   
 38  21  22  1   
 39  21  37  1   
 40  22  38  1   
@<TRIPOS>SUBSTRUCTURE
  1 ****   6 GROUP 4 **** **** 0

# MOE 2024.06 (io_trps.svl 2023.06)
