@<TRIPOS>MOLECULE
NONAME
44 46 1 0 0 
SMALL
USER_CHARGES


@<TRIPOS>ATOM
  1 O       -1.8110     0.6880     2.5320 O.2   1 <1>  -0.5700 
  2 C       -2.4490     1.0140     1.5330 C.2   1 <1>   0.5440 
  3 N       -3.6470     0.3460     1.3410 N.am  1 <1>  -0.6600 
  4 C       -1.9520     2.0800     0.6970 C.ar  1 <1>   0.0860 
  5 C       -4.6750     0.8080     0.3700 C.3   1 <1>   0.1400 
  6 C       -3.6080    -1.1250     1.2790 C.3   1 <1>   0.1400 
  7 C       -1.9200     2.0920    -0.7190 C.ar  1 <1>  -0.1710 
  8 C       -1.4240     3.2230     1.2930 C.ar  1 <1>  -0.1500 
  9 C       -4.8970    -0.3540    -0.6120 C.3   1 <1>   0.2000 
 10 C       -3.8990    -1.4370    -0.1860 C.3   1 <1>  -0.0800 
 11 O       -2.3240     1.1300    -1.4210 O.3   1 <1>  -0.8290 
 12 C       -1.4050     3.2340    -1.3670 C.ar  1 <1>   0.1600 
 13 C       -0.9430     4.2780     0.5510 C.ar  1 <1>   0.1660 
 14 O       -6.2120    -0.8400    -0.4930 O.3   1 <1>  -0.5600 
 15 C       -4.3420    -2.8880    -0.4360 C.3   1 <1>   0.0200 
 16 N       -0.9330     4.3050    -0.7820 N.ar  1 <1>  -0.6200 
 17 C       -0.3780     5.5080     1.2260 C.3   1 <1>  -0.0970 
 18 C       -7.1480    -0.1210    -1.2310 C.3   1 <1>   0.0400 
 19 C       -3.2330    -3.8920    -0.1640 C.2   1 <1>  -0.0400 
 20 O       -3.5150    -5.1680    -0.1200 O.3   1 <1>  -0.0190 
 21 C       -1.9160    -3.7570     0.0530 C.2   1 <1>  -0.1500 
 22 N       -2.4590    -5.8920     0.1210 N.2   1 <1>  -0.4100 
 23 C       -1.4800    -5.0660     0.2300 C.2   1 <1>   0.1080 
 24 C       -0.0500    -5.4660     0.5120 C.3   1 <1>  -0.0590 
 25 H       -5.5810     1.0330     0.9010 H     1 <1>   0.0800 
 26 H       -4.3540     1.6860    -0.1570 H     1 <1>   0.0800 
 27 H       -2.6490    -1.5050     1.5850 H     1 <1>   0.0800 
 28 H       -4.3770    -1.5230     1.9180 H     1 <1>   0.0800 
 29 H       -1.3990     3.2630     2.3640 H     1 <1>   0.1500 
 30 H       -4.7100    -0.0500    -1.6290 H     1 <1>   0.0800 
 31 H       -2.9920    -1.2520    -0.7360 H     1 <1>   0.0800 
 32 H       -1.4100     3.1960    -2.4400 H     1 <1>   0.1500 
 33 H       -4.6550    -2.9920    -1.4590 H     1 <1>   0.0800 
 34 H       -5.1840    -3.1190     0.1930 H     1 <1>   0.0800 
 35 H       -0.4170     5.4130     2.2950 H     1 <1>   0.0800 
 36 H       -0.9460     6.3690     0.9280 H     1 <1>   0.0800 
 37 H        0.6440     5.6410     0.9230 H     1 <1>   0.0800 
 38 H       -8.1150    -0.5610    -1.0640 H     1 <1>   0.0800 
 39 H       -6.8960    -0.1820    -2.2750 H     1 <1>   0.0800 
 40 H       -7.1530     0.9040    -0.9040 H     1 <1>   0.0800 
 41 H       -1.3100    -2.8680     0.0860 H     1 <1>   0.1500 
 42 H        0.2870    -4.9920     1.4150 H     1 <1>   0.0800 
 43 H        0.5790    -5.1630    -0.3040 H     1 <1>   0.0800 
 44 H        0.0170    -6.5320     0.6300 H     1 <1>   0.0800 
@<TRIPOS>BOND
  1   1   2  2   
  2   2   3  am  
  3   2   4  1   
  4   3   5  1   
  5   3   6  1   
  6   4   7  ar  
  7   4   8  ar  
  8   5   9  1   
  9   5  25  1   
 10   5  26  1   
 11   6  10  1   
 12   6  27  1   
 13   6  28  1   
 14   7  11  1   
 15   7  12  ar  
 16   8  13  ar  
 17   8  29  1   
 18   9  10  1   
 19   9  14  1   
 20   9  30  1   
 21  10  15  1   
 22  10  31  1   
 23  12  16  ar  
 24  12  32  1   
 25  13  16  ar  
 26  13  17  1   
 27  14  18  1   
 28  15  19  1   
 29  15  33  1   
 30  15  34  1   
 31  17  35  1   
 32  17  36  1   
 33  17  37  1   
 34  18  38  1   
 35  18  39  1   
 36  18  40  1   
 37  19  20  1   
 38  19  21  2   
 39  20  22  1   
 40  21  23  1   
 41  21  41  1   
 42  22  23  2   
 43  23  24  1   
 44  24  42  1   
 45  24  43  1   
 46  24  44  1   
@<TRIPOS>SUBSTRUCTURE
  1 ****   3 GROUP 4 **** **** 0

# MOE 2024.06 (io_trps.svl 2023.06)
