@<TRIPOS>MOLECULE
NONAME
30 30 1 0 0 
SMALL
USER_CHARGES


@<TRIPOS>ATOM
  1 O        5.1320     1.3740    -1.6510 O.2   1 <1>  -0.5700 
  2 C        5.5520     1.2930    -0.5250 C.2   1 <1>   0.6590 
  3 O        5.8420     2.3610     0.2040 O.3   1 <1>  -0.4300 
  4 C        5.7780    -0.0580     0.1560 C.3   1 <1>  -0.0190 
  5 C        5.6850     3.6650    -0.3050 C.3   1 <1>   0.1200 
  6 C        5.0860    -1.2120    -0.6050 C.3   1 <1>  -0.1600 
  7 C        7.2830    -0.3490     0.3190 C.3   1 <1>  -0.1600 
  8 C        6.1120     4.6500     0.7790 C.3   1 <1>  -0.2400 
  9 C        5.3430    -2.5650     0.0590 C.3   1 <1>   0.4230 
 10 C        7.5380    -1.7130     0.9760 C.3   1 <1>  -0.1600 
 11 N        4.7410    -3.6170    -0.7710 N.4   1 <1>  -0.8530 
 12 C        6.8420    -2.8420     0.2020 C.3   1 <1>  -0.1600 
 13 H        5.3410     0.0150     1.1370 H     1 <1>   0.0800 
 14 H        6.3010     3.7660    -1.1830 H     1 <1>   0.0800 
 15 H        4.6510     3.8070    -0.5710 H     1 <1>   0.0800 
 16 H        5.4630    -1.2260    -1.6150 H     1 <1>   0.0800 
 17 H        4.0290    -1.0140    -0.6400 H     1 <1>   0.0800 
 18 H        7.7600    -0.3210    -0.6470 H     1 <1>   0.0800 
 19 H        7.7350     0.4230     0.9210 H     1 <1>   0.0800 
 20 H        7.1430     4.4900     1.0410 H     1 <1>   0.0800 
 21 H        5.4950     4.5320     1.6520 H     1 <1>   0.0800 
 22 H        6.0040     5.6560     0.4170 H     1 <1>   0.0800 
 23 H        4.8910    -2.5670     1.0400 H     1 <1>   0.0800 
 24 H        7.1820    -1.6920     1.9930 H     1 <1>   0.0800 
 25 H        8.5990    -1.8980     1.0100 H     1 <1>   0.0800 
 26 H        5.1660    -3.6110    -1.7040 H     1 <1>   0.4500 
 27 H        3.7340    -3.4620    -0.8780 H     1 <1>   0.4500 
 28 H        4.8890    -4.5410    -0.3530 H     1 <1>   0.4500 
 29 H        6.9990    -3.7660     0.7310 H     1 <1>   0.0800 
 30 H        7.3000    -2.9190    -0.7690 H     1 <1>   0.0800 
@<TRIPOS>BOND
  1   1   2  2   
  2   2   3  1   
  3   2   4  1   
  4   3   5  1   
  5   4   6  1   
  6   4   7  1   
  7   4  13  1   
  8   5   8  1   
  9   5  14  1   
 10   5  15  1   
 11   6   9  1   
 12   6  16  1   
 13   6  17  1   
 14   7  10  1   
 15   7  18  1   
 16   7  19  1   
 17   8  20  1   
 18   8  21  1   
 19   8  22  1   
 20   9  11  1   
 21   9  12  1   
 22   9  23  1   
 23  10  12  1   
 24  10  24  1   
 25  10  25  1   
 26  11  26  1   
 27  11  27  1   
 28  11  28  1   
 29  12  29  1   
 30  12  30  1   
@<TRIPOS>SUBSTRUCTURE
  1 ****   4 GROUP 4 **** **** 0

# MOE 2024.06 (io_trps.svl 2023.06)
