@<TRIPOS>MOLECULE
NONAME
52 55 1 0 0 
SMALL
USER_CHARGES


@<TRIPOS>ATOM
  1 O        3.5110     1.3650     2.5980 O.2   1 <1>  -0.5700 
  2 C        3.5120     1.8040     1.4560 C.2   1 <1>   0.4690 
  3 C        4.2240     1.1570     0.3890 C.ar  1 <1>   0.0860 
  4 C        2.8050     2.9900     1.1500 C.2   1 <1>  -0.1360 
  5 C        4.3290     1.8140    -0.8510 C.ar  1 <1>   0.1000 
  6 C        4.8000    -0.1090     0.5390 C.ar  1 <1>  -0.1500 
  7 C        2.9640     3.6280    -0.0340 C.2   1 <1>  -0.0380 
  8 N        3.8530     3.1320    -0.9730 N.pl3 1 <1>  -0.5690 
  9 C        4.9180     1.1280    -1.9210 C.ar  1 <1>  -0.1500 
 10 C        5.4190    -0.7420    -0.5140 C.ar  1 <1>  -0.1500 
 11 C        2.1660     4.8870    -0.3480 C.3   1 <1>  -0.1020 
 12 C        4.5420     4.1000    -1.9120 C.3   1 <1>   0.2700 
 13 C        5.4660    -0.1240    -1.7550 C.ar  1 <1>  -0.1500 
 14 C        5.3110     5.2200    -1.1900 C.2   1 <1>   0.5690 
 15 O        5.2370     6.3390    -1.6440 O.2   1 <1>  -0.5700 
 16 N        6.0780     4.9980    -0.0680 N.am  1 <1>  -0.6600 
 17 C        6.2130     6.0760     0.9610 C.3   1 <1>   0.1400 
 18 C        6.8580     3.7520     0.1750 C.3   1 <1>   0.1400 
 19 C        7.6670     6.4680     1.3120 C.3   1 <1>   0.4230 
 20 C        8.3740     3.9810    -0.0230 C.3   1 <1>  -0.0800 
 21 N        8.6030     6.5450     0.1230 N.4   1 <1>  -0.9590 
 22 C        8.2560     5.5660     2.4250 C.3   1 <1>   0.1200 
 23 C        9.2070     3.7400     1.2540 C.3   1 <1>   0.1200 
 24 C        8.7010     5.3110    -0.7350 C.3   1 <1>   0.3430 
 25 C        8.3120     7.7360    -0.7290 C.3   1 <1>   0.2630 
 26 O        9.4110     4.9080     1.9880 O.3   1 <1>  -0.5600 
 27 H        2.1420     3.3500     1.9130 H     1 <1>   0.1500 
 28 H        4.7410    -0.5960     1.4980 H     1 <1>   0.1500 
 29 H        4.9390     1.5660    -2.9000 H     1 <1>   0.1500 
 30 H        5.8540    -1.7190    -0.3840 H     1 <1>   0.1500 
 31 H        1.6910     4.7910    -1.3070 H     1 <1>   0.0800 
 32 H        2.7940     5.7580    -0.3500 H     1 <1>   0.0800 
 33 H        1.3960     5.0370     0.3880 H     1 <1>   0.0800 
 34 H        5.2410     3.5940    -2.5440 H     1 <1>   0.0800 
 35 H        3.8010     4.5470    -2.5500 H     1 <1>   0.0800 
 36 H        5.9240    -0.6360    -2.5850 H     1 <1>   0.1500 
 37 H        5.7050     6.9620     0.6230 H     1 <1>   0.0800 
 38 H        5.6990     5.7630     1.8540 H     1 <1>   0.0800 
 39 H        6.6380     3.3760     1.1600 H     1 <1>   0.0800 
 40 H        6.5510     2.9970    -0.5230 H     1 <1>   0.0800 
 41 H        7.6050     7.4500     1.7490 H     1 <1>   0.0800 
 42 H        8.6760     3.2000    -0.6990 H     1 <1>   0.0800 
 43 H        9.5330     6.6250     0.5640 H     1 <1>   0.4500 
 44 H        7.5470     4.8430     2.7900 H     1 <1>   0.0800 
 45 H        8.5440     6.1840     3.2580 H     1 <1>   0.0800 
 46 H       10.1850     3.3780     0.9820 H     1 <1>   0.0800 
 47 H        8.7520     3.0020     1.8950 H     1 <1>   0.0800 
 48 H        8.0260     5.4130    -1.5700 H     1 <1>   0.0800 
 49 H        9.6990     5.2510    -1.1360 H     1 <1>   0.0800 
 50 H        7.3380     7.6370    -1.1820 H     1 <1>   0.0800 
 51 H        9.0480     7.8260    -1.5110 H     1 <1>   0.0800 
 52 H        8.3290     8.6360    -0.1370 H     1 <1>   0.0800 
@<TRIPOS>BOND
  1   1   2  2   
  2   2   3  1   
  3   2   4  1   
  4   3   5  ar  
  5   3   6  ar  
  6   4   7  2   
  7   4  27  1   
  8   5   8  1   
  9   5   9  ar  
 10   6  10  ar  
 11   6  28  1   
 12   7   8  1   
 13   7  11  1   
 14   8  12  1   
 15   9  13  ar  
 16   9  29  1   
 17  10  13  ar  
 18  10  30  1   
 19  11  31  1   
 20  11  32  1   
 21  11  33  1   
 22  12  14  1   
 23  12  34  1   
 24  12  35  1   
 25  13  36  1   
 26  14  15  2   
 27  14  16  am  
 28  16  17  1   
 29  16  18  1   
 30  17  19  1   
 31  17  37  1   
 32  17  38  1   
 33  18  20  1   
 34  18  39  1   
 35  18  40  1   
 36  19  21  1   
 37  19  22  1   
 38  19  41  1   
 39  20  23  1   
 40  20  24  1   
 41  20  42  1   
 42  21  24  1   
 43  21  25  1   
 44  21  43  1   
 45  22  26  1   
 46  22  44  1   
 47  22  45  1   
 48  23  26  1   
 49  23  46  1   
 50  23  47  1   
 51  24  48  1   
 52  24  49  1   
 53  25  50  1   
 54  25  51  1   
 55  25  52  1   
@<TRIPOS>SUBSTRUCTURE
  1 ****  18 GROUP 4 **** **** 0

# MOE 2024.06 (io_trps.svl 2023.06)
