@<TRIPOS>MOLECULE
NONAME
45 46 1 0 0 
SMALL
USER_CHARGES


@<TRIPOS>ATOM
  1 S       -0.2780    -0.0990    -0.7760 S.o2  1 <1>   1.3330 
  2 O       -1.1080    -1.1760    -0.2880 O.2   1 <1>  -0.6500 
  3 O        0.1030    -0.0620    -2.1710 O.2   1 <1>  -0.6500 
  4 N        1.1400    -0.0840     0.1590 N.am  1 <1>  -0.8490 
  5 C       -1.0610     1.4670    -0.3830 C.3   1 <1>  -0.0550 
  6 C        2.2240    -0.8570    -0.4540 C.3   1 <1>   0.1160 
  7 C        0.9340    -0.5230     1.5430 C.3   1 <1>   0.1160 
  8 C       -0.2900     2.7090    -0.8830 C.3   1 <1>  -0.0800 
  9 C       -1.0660     4.0230    -0.7460 C.3   1 <1>   0.2000 
 10 C        1.0370     2.9750    -0.1580 C.3   1 <1>   0.1400 
 11 O       -1.6480     4.0750     0.5120 O.3   1 <1>  -0.6800 
 12 C        0.0220     5.0910    -0.8020 C.3   1 <1>   0.1400 
 13 N        1.1790     4.4530    -0.1270 N.am  1 <1>  -0.6600 
 14 C        2.3320     5.0850     0.2770 C.2   1 <1>   0.5440 
 15 O        3.2720     4.4030     0.6370 O.2   1 <1>  -0.5700 
 16 C        2.4450     6.5300     0.2740 C.ar  1 <1>   0.0860 
 17 C        1.6060     7.3300     1.0480 C.ar  1 <1>  -0.1500 
 18 C        3.4070     7.1700    -0.5050 C.ar  1 <1>  -0.1500 
 19 C        1.7070     8.7090     1.0300 C.ar  1 <1>  -0.1500 
 20 C        3.5130     8.5480    -0.5260 C.ar  1 <1>  -0.1500 
 21 C        2.6620     9.3290     0.2390 C.ar  1 <1>  -0.1440 
 22 C        2.7840    10.8430     0.2150 C.3   1 <1>   0.2630 
 23 O        3.9640    11.1770     0.8440 O.3   1 <1>  -0.6800 
 24 H       -2.0330     1.4760    -0.8380 H     1 <1>   0.0800 
 25 H       -1.2090     1.5350     0.6770 H     1 <1>   0.0800 
 26 H        3.1100    -0.8070     0.1560 H     1 <1>   0.0800 
 27 H        2.4630    -0.4530    -1.4240 H     1 <1>   0.0800 
 28 H        1.9300    -1.8870    -0.5710 H     1 <1>   0.0800 
 29 H        1.8410    -0.3970     2.1090 H     1 <1>   0.0800 
 30 H        0.6430    -1.5600     1.5700 H     1 <1>   0.0800 
 31 H        0.1600     0.0640     2.0080 H     1 <1>   0.0800 
 32 H       -0.0650     2.5750    -1.9270 H     1 <1>   0.0800 
 33 H       -1.8330     4.1520    -1.4900 H     1 <1>   0.0800 
 34 H        1.8670     2.5240    -0.6760 H     1 <1>   0.0800 
 35 H        1.0130     2.6070     0.8540 H     1 <1>   0.0800 
 36 H       -0.9330     4.1340     1.1780 H     1 <1>   0.4000 
 37 H       -0.2910     6.0000    -0.3180 H     1 <1>   0.0800 
 38 H        0.2840     5.2980    -1.8250 H     1 <1>   0.0800 
 39 H        0.8690     6.8580     1.6730 H     1 <1>   0.1500 
 40 H        4.0780     6.5700    -1.0950 H     1 <1>   0.1500 
 41 H        1.0420     9.2980     1.6390 H     1 <1>   0.1500 
 42 H        4.2680     9.0170    -1.1360 H     1 <1>   0.1500 
 43 H        1.9740    11.3110     0.7470 H     1 <1>   0.0800 
 44 H        2.8180    11.2200    -0.7930 H     1 <1>   0.0800 
 45 H        4.1290    10.5340     1.5610 H     1 <1>   0.4000 
@<TRIPOS>BOND
  1   1   2  2   
  2   1   3  2   
  3   1   4  am  
  4   1   5  1   
  5   4   6  1   
  6   4   7  1   
  7   5   8  1   
  8   5  24  1   
  9   5  25  1   
 10   6  26  1   
 11   6  27  1   
 12   6  28  1   
 13   7  29  1   
 14   7  30  1   
 15   7  31  1   
 16   8   9  1   
 17   8  10  1   
 18   8  32  1   
 19   9  11  1   
 20   9  12  1   
 21   9  33  1   
 22  10  13  1   
 23  10  34  1   
 24  10  35  1   
 25  11  36  1   
 26  12  13  1   
 27  12  37  1   
 28  12  38  1   
 29  13  14  am  
 30  14  15  2   
 31  14  16  1   
 32  16  17  ar  
 33  16  18  ar  
 34  17  19  ar  
 35  17  39  1   
 36  18  20  ar  
 37  18  40  1   
 38  19  21  ar  
 39  19  41  1   
 40  20  21  ar  
 41  20  42  1   
 42  21  22  1   
 43  22  23  1   
 44  22  43  1   
 45  22  44  1   
 46  23  45  1   
@<TRIPOS>SUBSTRUCTURE
  1 ****  13 GROUP 4 **** **** 0

# MOE 2024.06 (io_trps.svl 2023.06)
