@<TRIPOS>MOLECULE
NONAME
47 50 1 0 0 
SMALL
USER_CHARGES


@<TRIPOS>ATOM
  1 O        2.7610    -0.9910    -0.9890 O.2   1 <1>  -0.5700 
  2 C        1.6870    -1.5420    -0.8080 C.2   1 <1>   0.5440 
  3 N        0.6320    -0.7370    -0.4160 N.am  1 <1>  -0.6600 
  4 C        1.5840    -2.9870    -1.0390 C.ar  1 <1>   0.3960 
  5 C       -0.7820    -1.1500    -0.2600 C.3   1 <1>   0.1400 
  6 C        0.7870     0.7120    -0.1570 C.3   1 <1>   0.1400 
  7 N        0.6540    -3.7290    -0.4120 N.ar  1 <1>  -0.6200 
  8 C        2.4890    -3.5710    -1.9320 C.ar  1 <1>   0.1600 
  9 C       -1.5620     0.1560    -0.1620 C.3   1 <1>  -0.1600 
 10 C       -0.5600     1.1600     0.3990 C.3   1 <1>  -0.1600 
 11 C        0.6830    -5.0130    -0.7240 C.ar  1 <1>   0.4100 
 12 N        2.5370    -4.8560    -2.2610 N.ar  1 <1>  -0.6200 
 13 N       -0.2720    -5.8200    -0.1250 N.pl3 1 <1>  -0.8380 
 14 C        1.6150    -5.5480    -1.6250 C.ar  1 <1>   0.1600 
 15 C       -1.3410    -6.3880    -1.0010 C.3   1 <1>   0.2090 
 16 C       -0.7780    -5.4470     1.2370 C.3   1 <1>   0.2090 
 17 C       -2.0540    -7.5750    -0.3250 C.3   1 <1>   0.1400 
 18 C       -1.4740    -6.6380     1.9140 C.3   1 <1>   0.1400 
 19 N       -2.5490    -7.2020     1.0370 N.am  1 <1>  -0.6600 
 20 C       -3.8860    -6.9880     1.3100 C.2   1 <1>   0.7150 
 21 O       -4.1760    -6.1530     2.1490 O.2   1 <1>  -0.5700 
 22 C       -4.9200    -7.7330     0.6220 C.2   1 <1>   0.0550 
 23 O       -6.0570    -7.1500     0.2500 O.3   1 <1>  -0.2800 
 24 C       -4.9680    -9.0410     0.2390 C.2   1 <1>  -0.1500 
 25 C       -6.8160    -8.0380    -0.3500 C.2   1 <1>  -0.0100 
 26 C       -6.1970    -9.2360    -0.3920 C.2   1 <1>  -0.1500 
 27 H       -0.8840    -1.7160     0.6500 H     1 <1>   0.0800 
 28 H       -1.1090    -1.7440    -1.0960 H     1 <1>   0.0800 
 29 H        1.0010     1.2120    -1.0870 H     1 <1>   0.0800 
 30 H        1.5880     0.8920     0.5400 H     1 <1>   0.0800 
 31 H        3.2160    -2.9320    -2.4030 H     1 <1>   0.1500 
 32 H       -2.4340     0.0540     0.4590 H     1 <1>   0.0800 
 33 H       -1.8660     0.4550    -1.1500 H     1 <1>   0.0800 
 34 H       -0.7900     2.1730     0.1200 H     1 <1>   0.0800 
 35 H       -0.5330     1.0900     1.4730 H     1 <1>   0.0800 
 36 H        1.5730    -6.6050    -1.8060 H     1 <1>   0.1500 
 37 H       -0.9170    -6.7130    -1.9350 H     1 <1>   0.0800 
 38 H       -2.0640    -5.6190    -1.2160 H     1 <1>   0.0800 
 39 H       -1.4760    -4.6310     1.1520 H     1 <1>   0.0800 
 40 H        0.0440    -5.1190     1.8490 H     1 <1>   0.0800 
 41 H       -1.3630    -8.3950    -0.2360 H     1 <1>   0.0800 
 42 H       -2.8650    -7.8910    -0.9550 H     1 <1>   0.0800 
 43 H       -1.8810    -6.3220     2.8590 H     1 <1>   0.0800 
 44 H       -0.7440    -7.4030     2.1130 H     1 <1>   0.0800 
 45 H       -4.2170    -9.7960     0.3910 H     1 <1>   0.1500 
 46 H       -7.7830    -7.7370    -0.7150 H     1 <1>   0.1500 
 47 H       -6.5530   -10.1610    -0.8110 H     1 <1>   0.1500 
@<TRIPOS>BOND
  1   1   2  2   
  2   2   3  am  
  3   2   4  1   
  4   3   5  1   
  5   3   6  1   
  6   4   7  ar  
  7   4   8  ar  
  8   5   9  1   
  9   5  27  1   
 10   5  28  1   
 11   6  10  1   
 12   6  29  1   
 13   6  30  1   
 14   7  11  ar  
 15   8  12  ar  
 16   8  31  1   
 17   9  10  1   
 18   9  32  1   
 19   9  33  1   
 20  10  34  1   
 21  10  35  1   
 22  11  13  1   
 23  11  14  ar  
 24  12  14  ar  
 25  13  15  1   
 26  13  16  1   
 27  14  36  1   
 28  15  17  1   
 29  15  37  1   
 30  15  38  1   
 31  16  18  1   
 32  16  39  1   
 33  16  40  1   
 34  17  19  1   
 35  17  41  1   
 36  17  42  1   
 37  18  19  1   
 38  18  43  1   
 39  18  44  1   
 40  19  20  am  
 41  20  21  2   
 42  20  22  1   
 43  22  23  1   
 44  22  24  2   
 45  23  25  1   
 46  24  26  1   
 47  24  45  1   
 48  25  26  2   
 49  25  46  1   
 50  26  47  1   
@<TRIPOS>SUBSTRUCTURE
  1 ****  13 GROUP 4 **** **** 0

# MOE 2024.06 (io_trps.svl 2023.06)
