@<TRIPOS>MOLECULE
NONAME
69 74 1 0 0 
SMALL
USER_CHARGES


@<TRIPOS>ATOM
  1 O       -4.2110     3.0810    -2.3600 O.2   1 <1>  -0.5700 
  2 C       -3.8160     2.8130    -1.2460 C.2   1 <1>   0.5690 
  3 N       -4.5210     1.8890    -0.4930 N.am  1 <1>  -0.6600 
  4 C       -2.5230     3.5440    -0.7700 C.3   1 <1>   0.0610 
  5 C       -5.8100     1.3310    -1.0020 C.3   1 <1>   0.1400 
  6 C       -4.1290     1.2340     0.7880 C.3   1 <1>   0.1400 
  7 C       -2.0800     4.6070    -1.8210 C.3   1 <1>  -0.1600 
  8 C       -1.3300     2.5590    -0.6260 C.3   1 <1>  -0.1600 
  9 C       -2.7470     4.3180     0.5590 C.3   1 <1>  -0.1600 
 10 C       -5.6250    -0.1570    -1.3030 C.3   1 <1>  -0.1600 
 11 C       -3.9000    -0.2580     0.5310 C.3   1 <1>  -0.1600 
 12 C       -0.8040     5.3260    -1.3710 C.3   1 <1>   0.2800 
 13 C       -0.0350     3.2640    -0.1570 C.3   1 <1>   0.0000 
 14 C       -1.4580     5.0230     1.0180 C.3   1 <1>  -0.0800 
 15 C       -5.1460    -0.9320    -0.0630 C.3   1 <1>   0.4240 
 16 O       -0.4570     6.2550    -2.3210 O.3   1 <1>  -0.6800 
 17 C        0.3450     4.3230    -1.2160 C.3   1 <1>  -0.1600 
 18 C       -1.0470     6.0540    -0.0460 C.3   1 <1>  -0.1600 
 19 C       -0.3320     3.9830     1.1810 C.3   1 <1>  -0.1600 
 20 C        1.0720     2.1930     0.0000 C.3   1 <1>  -0.1600 
 21 O       -6.1330    -0.8130     0.9340 O.3   1 <1>  -0.5600 
 22 C       -4.8450    -2.4080    -0.4030 C.ar  1 <1>  -0.1430 
 23 C        2.4510     2.7080     0.4430 C.3   1 <1>  -0.2400 
 24 C       -7.2010    -1.7070     0.8920 C.3   1 <1>   0.1200 
 25 C       -5.5670    -3.4430     0.1840 C.ar  1 <1>  -0.1430 
 26 C       -3.8440    -2.7310    -1.3130 C.ar  1 <1>  -0.1500 
 27 C       -6.6760    -3.1140     1.1630 C.3   1 <1>  -0.0170 
 28 C       -5.2840    -4.7650    -0.1210 C.ar  1 <1>  -0.1500 
 29 C       -3.5630    -4.0490    -1.6200 C.ar  1 <1>  -0.1500 
 30 C       -4.2760    -5.0760    -1.0280 C.ar  1 <1>   0.0820 
 31 O       -3.9360    -6.3400    -1.3810 O.3   1 <1>  -0.3630 
 32 C       -4.5860    -7.4580    -0.8180 C.3   1 <1>   0.0400 
 33 H       -6.1350     1.8420    -1.8920 H     1 <1>   0.0800 
 34 H       -6.5730     1.4650    -0.2540 H     1 <1>   0.0800 
 35 H       -4.9220     1.3630     1.5060 H     1 <1>   0.0800 
 36 H       -3.2430     1.6530     1.2130 H     1 <1>   0.0800 
 37 H       -2.8670     5.3290    -1.9550 H     1 <1>   0.0800 
 38 H       -1.9040     4.1250    -2.7670 H     1 <1>   0.0800 
 39 H       -1.1590     2.0850    -1.5770 H     1 <1>   0.0800 
 40 H       -1.5590     1.7770     0.0660 H     1 <1>   0.0800 
 41 H       -3.0760     3.6750     1.3480 H     1 <1>   0.0800 
 42 H       -3.5250     5.0490     0.4150 H     1 <1>   0.0800 
 43 H       -4.9000    -0.2460    -2.0910 H     1 <1>   0.0800 
 44 H       -6.5410    -0.5760    -1.6710 H     1 <1>   0.0800 
 45 H       -3.6400    -0.7530     1.4490 H     1 <1>   0.0800 
 46 H       -3.0680    -0.3600    -0.1380 H     1 <1>   0.0800 
 47 H       -1.6320     5.5240     1.9550 H     1 <1>   0.0800 
 48 H       -0.3760     5.8170    -3.1860 H     1 <1>   0.4000 
 49 H        1.2270     4.8550    -0.9100 H     1 <1>   0.0800 
 50 H        0.5430     3.8410    -2.1570 H     1 <1>   0.0800 
 51 H       -1.8270     6.7850    -0.1690 H     1 <1>   0.0800 
 52 H       -0.1500     6.5620     0.2620 H     1 <1>   0.0800 
 53 H        0.5490     4.4890     1.5320 H     1 <1>   0.0800 
 54 H       -0.6120     3.2620     1.9300 H     1 <1>   0.0800 
 55 H        1.1950     1.6820    -0.9390 H     1 <1>   0.0800 
 56 H        0.7460     1.4600     0.7170 H     1 <1>   0.0800 
 57 H        2.8560     3.4020    -0.2700 H     1 <1>   0.0800 
 58 H        3.1350     1.8810     0.5210 H     1 <1>   0.0800 
 59 H        2.4000     3.1840     1.4050 H     1 <1>   0.0800 
 60 H       -7.6760    -1.6500    -0.0710 H     1 <1>   0.0800 
 61 H       -7.9060    -1.4160     1.6510 H     1 <1>   0.0800 
 62 H       -3.2720    -1.9580    -1.7940 H     1 <1>   0.1500 
 63 H       -7.4830    -3.8170     1.0630 H     1 <1>   0.0800 
 64 H       -6.3000    -3.1680     2.1690 H     1 <1>   0.0800 
 65 H       -5.8540    -5.5410     0.3520 H     1 <1>   0.1500 
 66 H       -2.7870    -4.2920    -2.3240 H     1 <1>   0.1500 
 67 H       -4.1460    -8.3450    -1.2370 H     1 <1>   0.0800 
 68 H       -5.6310    -7.4160    -1.0670 H     1 <1>   0.0800 
 69 H       -4.4410    -7.4460     0.2470 H     1 <1>   0.0800 
@<TRIPOS>BOND
  1   1   2  2   
  2   2   3  am  
  3   2   4  1   
  4   3   5  1   
  5   3   6  1   
  6   4   7  1   
  7   4   8  1   
  8   4   9  1   
  9   5  10  1   
 10   5  33  1   
 11   5  34  1   
 12   6  11  1   
 13   6  35  1   
 14   6  36  1   
 15   7  12  1   
 16   7  37  1   
 17   7  38  1   
 18   8  13  1   
 19   8  39  1   
 20   8  40  1   
 21   9  14  1   
 22   9  41  1   
 23   9  42  1   
 24  10  15  1   
 25  10  43  1   
 26  10  44  1   
 27  11  15  1   
 28  11  45  1   
 29  11  46  1   
 30  12  16  1   
 31  12  17  1   
 32  12  18  1   
 33  13  17  1   
 34  13  19  1   
 35  13  20  1   
 36  14  18  1   
 37  14  19  1   
 38  14  47  1   
 39  15  21  1   
 40  15  22  1   
 41  16  48  1   
 42  17  49  1   
 43  17  50  1   
 44  18  51  1   
 45  18  52  1   
 46  19  53  1   
 47  19  54  1   
 48  20  23  1   
 49  20  55  1   
 50  20  56  1   
 51  21  24  1   
 52  22  25  ar  
 53  22  26  ar  
 54  23  57  1   
 55  23  58  1   
 56  23  59  1   
 57  24  27  1   
 58  24  60  1   
 59  24  61  1   
 60  25  27  1   
 61  25  28  ar  
 62  26  29  ar  
 63  26  62  1   
 64  27  63  1   
 65  27  64  1   
 66  28  30  ar  
 67  28  65  1   
 68  29  30  ar  
 69  29  66  1   
 70  30  31  1   
 71  31  32  1   
 72  32  67  1   
 73  32  68  1   
 74  32  69  1   
@<TRIPOS>SUBSTRUCTURE
  1 ****  11 GROUP 4 **** **** 0

# MOE 2024.06 (io_trps.svl 2023.06)
