@<TRIPOS>MOLECULE
NONAME
46 47 1 0 0 
SMALL
USER_CHARGES


@<TRIPOS>ATOM
  1 O       -1.2750     0.7430     0.2430 O.2   1 <1>  -0.5700 
  2 C       -0.8690     1.6900    -0.3980 C.2   1 <1>   0.7800 
  3 O       -1.3200     1.9320    -1.6250 O.3   1 <1>  -0.4300 
  4 N        0.0460     2.5610     0.0690 N.am  1 <1>  -0.7300 
  5 C       -2.2890     1.0900    -2.2180 C.3   1 <1>   0.0400 
  6 C        0.4820     2.6470     1.4880 C.3   1 <1>   0.2810 
  7 C        0.9060     4.0760     1.9020 C.2   1 <1>   0.5690 
  8 C        1.5660     1.5950     1.7580 C.3   1 <1>  -0.2400 
  9 O        0.3430     4.5470     2.8650 O.2   1 <1>  -0.5700 
 10 N        1.8580     4.8080     1.2210 N.am  1 <1>  -0.6600 
 11 C        2.6780     4.3740     0.0430 C.3   1 <1>   0.1400 
 12 C        2.2140     6.2000     1.6440 C.3   1 <1>   0.1400 
 13 C        2.5370     5.3530    -1.1400 C.3   1 <1>   0.2090 
 14 C        2.0180     7.1950     0.4880 C.3   1 <1>   0.2090 
 15 N        2.7650     6.7770    -0.7380 N.pl3 1 <1>  -0.8380 
 16 C        4.0340     7.3170    -0.9070 C.ar  1 <1>   0.4100 
 17 N        5.0360     6.5600    -0.4750 N.ar  1 <1>  -0.6200 
 18 C        4.2400     8.5960    -1.4750 C.ar  1 <1>   0.1660 
 19 C        6.2160     7.1290    -0.6220 C.ar  1 <1>   0.1670 
 20 N        5.4230     9.1640    -1.6140 N.ar  1 <1>  -0.6200 
 21 C        3.0690     9.4250    -1.9780 C.3   1 <1>  -0.0970 
 22 C        6.4020     8.3920    -1.1720 C.ar  1 <1>   0.1600 
 23 C        7.4030     6.3170    -0.1450 C.3   1 <1>  -0.0970 
 24 H        0.1660     3.4140    -0.4720 H     1 <1>   0.3700 
 25 H       -2.5100     1.4630    -3.2010 H     1 <1>   0.0800 
 26 H       -3.1760     1.0980    -1.6090 H     1 <1>   0.0800 
 27 H       -1.8910     0.0910    -2.2790 H     1 <1>   0.0800 
 28 H       -0.3670     2.3920     2.1020 H     1 <1>   0.0800 
 29 H        2.4430     1.7640     1.1640 H     1 <1>   0.0800 
 30 H        1.1820     0.6120     1.5520 H     1 <1>   0.0800 
 31 H        1.8470     1.6340     2.7950 H     1 <1>   0.0800 
 32 H        2.4080     3.3920    -0.2900 H     1 <1>   0.0800 
 33 H        3.7130     4.3400     0.3370 H     1 <1>   0.0800 
 34 H        3.2450     6.2220     1.9510 H     1 <1>   0.0800 
 35 H        1.6160     6.5140     2.4810 H     1 <1>   0.0800 
 36 H        1.5510     5.2650    -1.5580 H     1 <1>   0.0800 
 37 H        3.2420     5.0820    -1.9070 H     1 <1>   0.0800 
 38 H        2.3550     8.1670     0.8020 H     1 <1>   0.0800 
 39 H        0.9700     7.2670     0.2570 H     1 <1>   0.0800 
 40 H        2.2540     8.7970    -2.2860 H     1 <1>   0.0800 
 41 H        3.3750    10.0150    -2.8230 H     1 <1>   0.0800 
 42 H        2.7350    10.0830    -1.1990 H     1 <1>   0.0800 
 43 H        7.3990     8.7860    -1.2540 H     1 <1>   0.1500 
 44 H        7.2870     6.0930     0.9000 H     1 <1>   0.0800 
 45 H        8.3240     6.8510    -0.2870 H     1 <1>   0.0800 
 46 H        7.4480     5.3930    -0.6930 H     1 <1>   0.0800 
@<TRIPOS>BOND
  1   1   2  2   
  2   2   3  1   
  3   2   4  am  
  4   3   5  1   
  5   4   6  1   
  6   4  24  1   
  7   5  25  1   
  8   5  26  1   
  9   5  27  1   
 10   6   7  1   
 11   6   8  1   
 12   6  28  1   
 13   7   9  2   
 14   7  10  am  
 15   8  29  1   
 16   8  30  1   
 17   8  31  1   
 18  10  11  1   
 19  10  12  1   
 20  11  13  1   
 21  11  32  1   
 22  11  33  1   
 23  12  14  1   
 24  12  34  1   
 25  12  35  1   
 26  13  15  1   
 27  13  36  1   
 28  13  37  1   
 29  14  15  1   
 30  14  38  1   
 31  14  39  1   
 32  15  16  1   
 33  16  17  ar  
 34  16  18  ar  
 35  17  19  ar  
 36  18  20  ar  
 37  18  21  1   
 38  19  22  ar  
 39  19  23  1   
 40  20  22  ar  
 41  21  40  1   
 42  21  41  1   
 43  21  42  1   
 44  22  43  1   
 45  23  44  1   
 46  23  45  1   
 47  23  46  1   
@<TRIPOS>SUBSTRUCTURE
  1 ****  11 GROUP 4 **** **** 0

# MOE 2024.06 (io_trps.svl 2023.06)
