@<TRIPOS>MOLECULE
NONAME
41 43 1 0 0 
SMALL
USER_CHARGES


@<TRIPOS>ATOM
  1 O       -1.3370    -2.1740    -0.1600 O.co2 1 <1>  -0.9000 
  2 C       -0.3070    -2.7670    -0.5240 C.2   1 <1>   1.0330 
  3 O       -0.3460    -3.3470    -1.6250 O.co2 1 <1>  -0.9000 
  4 C        0.7590    -2.9970     0.3880 C.2   1 <1>  -0.2330 
  5 C        0.8180    -4.0610     1.2920 C.2   1 <1>   0.3720 
  6 C        1.9090    -2.3150     0.6120 C.2   1 <1>   0.0870 
  7 N        1.9040    -4.0230     1.9770 N.2   1 <1>  -0.4100 
  8 N       -0.1540    -5.0570     1.4900 N.pl3 1 <1>  -0.8210 
  9 O        2.5520    -2.9670     1.5530 O.3   1 <1>  -0.0190 
 10 C        2.4620    -1.1120     0.0380 C.ar  1 <1>   0.0530 
 11 C       -0.5710    -5.7480     0.2400 C.3   1 <1>   0.2090 
 12 C       -1.3830    -4.5350     2.1540 C.3   1 <1>   0.2090 
 13 C        1.6550    -0.1420    -0.5570 C.ar  1 <1>  -0.1500 
 14 C        3.8370    -0.8720     0.0640 C.ar  1 <1>  -0.1500 
 15 C       -2.0020    -5.2630    -0.0310 C.3   1 <1>   0.4230 
 16 C       -2.5740    -5.0810     1.3660 C.3   1 <1>  -0.1600 
 17 C        2.1930     1.0070    -1.1070 C.ar  1 <1>  -0.1500 
 18 C        4.3820     0.2760    -0.4820 C.ar  1 <1>  -0.1500 
 19 N       -2.8120    -6.1030    -0.9700 N.4   1 <1>  -0.9590 
 20 C        3.5590     1.2200    -1.0700 C.ar  1 <1>  -0.1500 
 21 C       -4.0120    -5.3190    -1.3850 C.3   1 <1>   0.2630 
 22 C       -3.1490    -7.4700    -0.4750 C.3   1 <1>   0.2630 
 23 H        0.0900    -5.5190    -0.5780 H     1 <1>   0.0800 
 24 H       -0.5510    -6.8060     0.4230 H     1 <1>   0.0800 
 25 H       -1.4110    -4.8560     3.1820 H     1 <1>   0.0800 
 26 H       -1.3890    -3.4560     2.1310 H     1 <1>   0.0800 
 27 H        0.5880    -0.2830    -0.5900 H     1 <1>   0.1500 
 28 H        4.4860    -1.6010     0.5160 H     1 <1>   0.1500 
 29 H       -1.9450    -4.2880    -0.4690 H     1 <1>   0.0800 
 30 H       -3.3850    -4.3770     1.3820 H     1 <1>   0.0800 
 31 H       -2.8730    -6.0130     1.8060 H     1 <1>   0.0800 
 32 H        1.5440     1.7350    -1.5620 H     1 <1>   0.1500 
 33 H        5.4450     0.4350    -0.4500 H     1 <1>   0.1500 
 34 H       -2.2120    -6.1730    -1.8090 H     1 <1>   0.4500 
 35 H        3.9780     2.1130    -1.4980 H     1 <1>   0.1500 
 36 H       -4.6710    -5.1680    -0.5450 H     1 <1>   0.0800 
 37 H       -4.5490    -5.8340    -2.1640 H     1 <1>   0.0800 
 38 H       -3.7070    -4.3520    -1.7570 H     1 <1>   0.0800 
 39 H       -3.7900    -7.4070     0.3890 H     1 <1>   0.0800 
 40 H       -2.2530    -8.0020    -0.2020 H     1 <1>   0.0800 
 41 H       -3.6600    -8.0270    -1.2430 H     1 <1>   0.0800 
@<TRIPOS>BOND
  1   1   2  ar  
  2   2   3  ar  
  3   2   4  1   
  4   4   5  1   
  5   4   6  2   
  6   5   7  2   
  7   5   8  1   
  8   6   9  1   
  9   6  10  1   
 10   7   9  1   
 11   8  11  1   
 12   8  12  1   
 13  10  13  ar  
 14  10  14  ar  
 15  11  15  1   
 16  11  23  1   
 17  11  24  1   
 18  12  16  1   
 19  12  25  1   
 20  12  26  1   
 21  13  17  ar  
 22  13  27  1   
 23  14  18  ar  
 24  14  28  1   
 25  15  16  1   
 26  15  19  1   
 27  15  29  1   
 28  16  30  1   
 29  16  31  1   
 30  17  20  ar  
 31  17  32  1   
 32  18  20  ar  
 33  18  33  1   
 34  19  21  1   
 35  19  22  1   
 36  19  34  1   
 37  20  35  1   
 38  21  36  1   
 39  21  37  1   
 40  21  38  1   
 41  22  39  1   
 42  22  40  1   
 43  22  41  1   
@<TRIPOS>SUBSTRUCTURE
  1 ****   4 GROUP 4 **** **** 0

# MOE 2024.06 (io_trps.svl 2023.06)
