@<TRIPOS>MOLECULE
NONAME
52 55 1 0 0 
SMALL
USER_CHARGES


@<TRIPOS>ATOM
  1 O       -1.4180     1.0990     2.5730 O.2   1 <1>  -0.5700 
  2 C       -2.1690     1.5910     1.7660 C.2   1 <1>   0.5690 
  3 N       -2.7140     0.8190     0.7640 N.am  1 <1>  -0.6600 
  4 C       -2.4740     3.0730     1.9070 C.3   1 <1>   0.0820 
  5 C       -3.6850     1.3370    -0.2610 C.3   1 <1>   0.1400 
  6 C       -2.1650    -0.5580     0.5250 C.3   1 <1>   0.1400 
  7 C       -2.0190     3.8410     0.6830 C.2   1 <1>   0.1080 
  8 C       -4.7830     0.3160    -0.6570 C.3   1 <1>   0.4230 
  9 C       -3.1340    -1.4810    -0.2380 C.3   1 <1>   0.3430 
 10 N       -2.8300     4.4210    -0.1400 N.2   1 <1>  -0.7070 
 11 C       -0.6680     3.9950     0.3220 C.ar  1 <1>   0.0000 
 12 N       -4.5610    -1.0520    -0.0430 N.4   1 <1>  -0.9590 
 13 C       -4.9120     0.2270    -2.1960 C.3   1 <1>   0.1200 
 14 N       -2.0250     5.0120    -1.0580 N.pl3 1 <1>   0.3000 
 15 C       -0.7070     4.7650    -0.8200 C.ar  1 <1>  -0.1520 
 16 C        0.5680     3.5670     0.8280 C.ar  1 <1>  -0.1500 
 17 C       -5.5990    -2.0180    -0.5420 C.3   1 <1>   0.4230 
 18 O       -5.8860    -0.7090    -2.5590 O.3   1 <1>  -0.5600 
 19 C        0.4650     5.1370    -1.4870 C.ar  1 <1>  -0.1500 
 20 C        1.7230     3.9280     0.1770 C.ar  1 <1>  -0.1500 
 21 C       -5.6740    -2.0100    -2.0870 C.3   1 <1>   0.1200 
 22 C       -5.3580    -3.4200     0.0400 C.3   1 <1>  -0.1600 
 23 C        1.6720     4.7150    -0.9830 C.ar  1 <1>  -0.1500 
 24 C       -6.5800    -4.3390    -0.1220 C.3   1 <1>  -0.1600 
 25 C       -6.3320    -5.6970     0.5400 C.3   1 <1>  -0.2400 
 26 H       -3.5250     3.2150     2.0660 H     1 <1>   0.0800 
 27 H       -1.9590     3.4600     2.7670 H     1 <1>   0.0800 
 28 H       -4.1860     2.2150     0.1060 H     1 <1>   0.0800 
 29 H       -3.1280     1.6420    -1.1310 H     1 <1>   0.0800 
 30 H       -1.2380    -0.4820    -0.0160 H     1 <1>   0.0800 
 31 H       -1.9400    -1.0170     1.4730 H     1 <1>   0.0800 
 32 H       -5.7200     0.7040    -0.2940 H     1 <1>   0.0800 
 33 H       -2.9870    -2.4890     0.1110 H     1 <1>   0.0800 
 34 H       -2.8880    -1.4590    -1.2870 H     1 <1>   0.0800 
 35 H       -4.6840    -0.9300     0.9710 H     1 <1>   0.4500 
 36 H       -3.9790    -0.0520    -2.6550 H     1 <1>   0.0800 
 37 H       -5.2150     1.1790    -2.5960 H     1 <1>   0.0800 
 38 H       -2.3830     5.5990    -1.8210 H     1 <1>   0.2700 
 39 H        0.5950     2.9630     1.7190 H     1 <1>   0.1500 
 40 H       -6.5610    -1.6870    -0.1840 H     1 <1>   0.0800 
 41 H        0.4170     5.7420    -2.3760 H     1 <1>   0.1500 
 42 H        2.6810     3.6100     0.5510 H     1 <1>   0.1500 
 43 H       -6.5020    -2.6070    -2.4240 H     1 <1>   0.0800 
 44 H       -4.7730    -2.3990    -2.5290 H     1 <1>   0.0800 
 45 H       -4.5160    -3.8860    -0.4420 H     1 <1>   0.0800 
 46 H       -5.1480    -3.3320     1.0920 H     1 <1>   0.0800 
 47 H        2.5930     4.9840    -1.4710 H     1 <1>   0.1500 
 48 H       -7.4460    -3.8860     0.3330 H     1 <1>   0.0800 
 49 H       -6.7980    -4.5020    -1.1640 H     1 <1>   0.0800 
 50 H       -6.1460    -5.5820     1.5940 H     1 <1>   0.0800 
 51 H       -5.4880    -6.1930     0.0910 H     1 <1>   0.0800 
 52 H       -7.1960    -6.3280     0.4180 H     1 <1>   0.0800 
@<TRIPOS>BOND
  1   1   2  2   
  2   2   3  am  
  3   2   4  1   
  4   3   5  1   
  5   3   6  1   
  6   4   7  1   
  7   4  26  1   
  8   4  27  1   
  9   5   8  1   
 10   5  28  1   
 11   5  29  1   
 12   6   9  1   
 13   6  30  1   
 14   6  31  1   
 15   7  10  2   
 16   7  11  1   
 17   8  12  1   
 18   8  13  1   
 19   8  32  1   
 20   9  12  1   
 21   9  33  1   
 22   9  34  1   
 23  10  14  1   
 24  11  15  ar  
 25  11  16  ar  
 26  12  17  1   
 27  12  35  1   
 28  13  18  1   
 29  13  36  1   
 30  13  37  1   
 31  14  15  1   
 32  14  38  1   
 33  15  19  ar  
 34  16  20  ar  
 35  16  39  1   
 36  17  21  1   
 37  17  22  1   
 38  17  40  1   
 39  18  21  1   
 40  19  23  ar  
 41  19  41  1   
 42  20  23  ar  
 43  20  42  1   
 44  21  43  1   
 45  21  44  1   
 46  22  24  1   
 47  22  45  1   
 48  22  46  1   
 49  23  47  1   
 50  24  25  1   
 51  24  48  1   
 52  24  49  1   
 53  25  50  1   
 54  25  51  1   
 55  25  52  1   
@<TRIPOS>SUBSTRUCTURE
  1 ****   5 GROUP 4 **** **** 0

# MOE 2024.06 (io_trps.svl 2023.06)
