@<TRIPOS>MOLECULE
NONAME
56 57 1 0 0 
SMALL
USER_CHARGES


@<TRIPOS>ATOM
  1 O       -1.5850    -0.2200     1.3970 O.2   1 <1>  -0.5700 
  2 C       -1.8080     0.5160     0.4630 C.2   1 <1>   0.5690 
  3 N       -2.3390     0.0140    -0.7070 N.am  1 <1>  -0.6600 
  4 C       -1.4700     1.9970     0.6910 C.3   1 <1>  -0.0190 
  5 C       -2.5300    -1.4650    -0.8460 C.3   1 <1>   0.1400 
  6 C       -2.6690     0.7910    -1.9360 C.3   1 <1>   0.1400 
  7 C       -2.6970     2.9340     0.6650 C.3   1 <1>  -0.1600 
  8 C       -0.2920     2.5010    -0.1810 C.3   1 <1>  -0.1600 
  9 C       -3.7370    -1.9420    -0.0370 C.3   1 <1>   0.1200 
 10 C       -4.1840     0.8700    -2.1170 C.3   1 <1>  -0.2400 
 11 C       -2.3450     4.3710     1.1010 C.3   1 <1>   0.2000 
 12 C       -0.3380     4.0160    -0.4500 C.3   1 <1>  -0.1600 
 13 O       -4.0740    -3.2460    -0.4620 O.3   1 <1>  -0.3630 
 14 O       -3.2280     5.2470     0.4440 O.3   1 <1>  -0.5600 
 15 C       -0.8810     4.7690     0.7660 C.3   1 <1>   0.2000 
 16 C       -5.1620    -3.8840     0.0390 C.ar  1 <1>   0.0820 
 17 C       -4.4750     5.3970     1.0500 C.3   1 <1>   0.0400 
 18 O       -0.8290     6.1200     0.4890 O.3   1 <1>  -0.6800 
 19 C       -5.9330    -3.3910     1.0880 C.ar  1 <1>  -0.1500 
 20 C       -5.5020    -5.0910    -0.5480 C.ar  1 <1>  -0.1500 
 21 C       -7.0350    -4.1000     1.5370 C.ar  1 <1>  -0.1440 
 22 C       -6.6020    -5.8070    -0.1060 C.ar  1 <1>  -0.1440 
 23 C       -7.3650    -5.3040     0.9350 C.ar  1 <1>  -0.1500 
 24 C       -7.8790    -3.5640     2.6790 C.3   1 <1>  -0.0970 
 25 C       -6.9750    -7.1270    -0.7550 C.3   1 <1>  -0.0970 
 26 H       -1.1120     2.0470     1.7060 H     1 <1>   0.0800 
 27 H       -2.6760    -1.7190    -1.8810 H     1 <1>   0.0800 
 28 H       -1.6490    -1.9730    -0.4940 H     1 <1>   0.0800 
 29 H       -2.2670     1.7840    -1.8880 H     1 <1>   0.0800 
 30 H       -2.2250     0.3100    -2.7920 H     1 <1>   0.0800 
 31 H       -3.4540     2.5400     1.3200 H     1 <1>   0.0800 
 32 H       -3.1030     2.9720    -0.3270 H     1 <1>   0.0800 
 33 H        0.6250     2.2650     0.3320 H     1 <1>   0.0800 
 34 H       -0.2530     1.9830    -1.1220 H     1 <1>   0.0800 
 35 H       -4.5850    -1.3060    -0.2120 H     1 <1>   0.0800 
 36 H       -3.4960    -1.9750     1.0110 H     1 <1>   0.0800 
 37 H       -4.6470     1.2840    -1.2390 H     1 <1>   0.0800 
 38 H       -4.5960    -0.1030    -2.3130 H     1 <1>   0.0800 
 39 H       -4.4130     1.5040    -2.9540 H     1 <1>   0.0800 
 40 H       -2.4750     4.4770     2.1650 H     1 <1>   0.0800 
 41 H       -0.9790     4.2110    -1.2920 H     1 <1>   0.0800 
 42 H        0.6510     4.3690    -0.6870 H     1 <1>   0.0800 
 43 H       -0.2420     4.5820     1.6120 H     1 <1>   0.0800 
 44 H       -5.0520     6.0880     0.4610 H     1 <1>   0.0800 
 45 H       -4.3420     5.7920     2.0430 H     1 <1>   0.0800 
 46 H       -4.9770     4.4460     1.0830 H     1 <1>   0.0800 
 47 H       -1.7260     6.3580     0.1600 H     1 <1>   0.4000 
 48 H       -5.6870    -2.4610     1.5640 H     1 <1>   0.1500 
 49 H       -4.8960    -5.4610    -1.3540 H     1 <1>   0.1500 
 50 H       -8.2230    -5.8540     1.2780 H     1 <1>   0.1500 
 51 H       -8.2870    -4.3740     3.2560 H     1 <1>   0.0800 
 52 H       -8.6880    -2.9740     2.2870 H     1 <1>   0.0800 
 53 H       -7.2850    -2.9500     3.3320 H     1 <1>   0.0800 
 54 H       -7.2660    -7.8400    -0.0040 H     1 <1>   0.0800 
 55 H       -6.1420    -7.5300    -1.3020 H     1 <1>   0.0800 
 56 H       -7.7960    -6.9790    -1.4320 H     1 <1>   0.0800 
@<TRIPOS>BOND
  1   1   2  2   
  2   2   3  am  
  3   2   4  1   
  4   3   5  1   
  5   3   6  1   
  6   4   7  1   
  7   4   8  1   
  8   4  26  1   
  9   5   9  1   
 10   5  27  1   
 11   5  28  1   
 12   6  10  1   
 13   6  29  1   
 14   6  30  1   
 15   7  11  1   
 16   7  31  1   
 17   7  32  1   
 18   8  12  1   
 19   8  33  1   
 20   8  34  1   
 21   9  13  1   
 22   9  35  1   
 23   9  36  1   
 24  10  37  1   
 25  10  38  1   
 26  10  39  1   
 27  11  14  1   
 28  11  15  1   
 29  11  40  1   
 30  12  15  1   
 31  12  41  1   
 32  12  42  1   
 33  13  16  1   
 34  14  17  1   
 35  15  18  1   
 36  15  43  1   
 37  16  19  ar  
 38  16  20  ar  
 39  17  44  1   
 40  17  45  1   
 41  17  46  1   
 42  18  47  1   
 43  19  21  ar  
 44  19  48  1   
 45  20  22  ar  
 46  20  49  1   
 47  21  23  ar  
 48  21  24  1   
 49  22  23  ar  
 50  22  25  1   
 51  23  50  1   
 52  24  51  1   
 53  24  52  1   
 54  24  53  1   
 55  25  54  1   
 56  25  55  1   
 57  25  56  1   
@<TRIPOS>SUBSTRUCTURE
  1 ****   3 GROUP 4 **** **** 0

# MOE 2024.06 (io_trps.svl 2023.06)
