@<TRIPOS>MOLECULE
NONAME
41 43 1 0 0 
SMALL
USER_CHARGES


@<TRIPOS>ATOM
  1 O       -0.7120    -0.0050    -0.4720 O.2   1 <1>  -0.5700 
  2 C       -1.8160     0.0200     0.0400 C.2   1 <1>   0.7150 
  3 N       -2.2390    -1.1170     0.7210 N.am  1 <1>  -0.6600 
  4 C       -2.6170     1.2220    -0.1080 C.2   1 <1>   0.0550 
  5 C       -3.3870    -1.1150     1.6750 C.3   1 <1>   0.1400 
  6 C       -1.4250    -2.3670     0.6950 C.3   1 <1>   0.1400 
  7 O       -3.9410     1.2450     0.0580 O.3   1 <1>  -0.2800 
  8 C       -2.2140     2.4780    -0.4510 C.2   1 <1>  -0.1500 
  9 C       -4.6870    -1.5510     0.9720 C.3   1 <1>   0.3430 
 10 C       -2.2940    -3.6200     0.5400 C.3   1 <1>  -0.1600 
 11 C       -4.3770     2.4660    -0.1590 C.2   1 <1>  -0.0100 
 12 C       -3.3530     3.2830    -0.4800 C.2   1 <1>  -0.1500 
 13 N       -4.6940    -2.9800     0.5050 N.4   1 <1>  -0.9590 
 14 C       -3.5290    -3.4020    -0.3350 C.3   1 <1>   0.3430 
 15 C       -5.9790    -3.3400    -0.1610 C.3   1 <1>   0.5230 
 16 C       -6.2190    -4.8300     0.0340 C.2   1 <1>   0.0060 
 17 N       -7.1100    -5.5680    -0.6380 N.pl3 1 <1>   0.0330 
 18 N       -5.5740    -5.5460     0.8920 N.2   1 <1>  -0.3380 
 19 C       -6.9450    -6.7850    -0.1210 C.2   1 <1>   0.0060 
 20 N       -6.0350    -6.7890     0.7880 N.2   1 <1>  -0.3380 
 21 C       -7.7350    -8.0040    -0.5540 C.3   1 <1>  -0.0600 
 22 H       -3.5150    -0.1250     2.0780 H     1 <1>   0.0800 
 23 H       -3.1790    -1.7650     2.5080 H     1 <1>   0.0800 
 24 H       -0.8380    -2.4320     1.5970 H     1 <1>   0.0800 
 25 H       -0.7350    -2.3340    -0.1320 H     1 <1>   0.0800 
 26 H       -1.2100     2.8030    -0.6660 H     1 <1>   0.1500 
 27 H       -4.8500    -0.8980     0.1320 H     1 <1>   0.0800 
 28 H       -5.5030    -1.4030     1.6600 H     1 <1>   0.0800 
 29 H       -2.5730    -4.0090     1.5030 H     1 <1>   0.0800 
 30 H       -1.6820    -4.3730     0.0760 H     1 <1>   0.0800 
 31 H       -5.4280     2.6810    -0.0680 H     1 <1>   0.1500 
 32 H       -3.3750     4.3330    -0.7160 H     1 <1>   0.1500 
 33 H       -4.6740    -3.6130     1.3230 H     1 <1>   0.4500 
 34 H       -3.7630    -4.3410    -0.8130 H     1 <1>   0.0800 
 35 H       -3.3220    -2.6720    -1.1020 H     1 <1>   0.0800 
 36 H       -5.9380    -3.0960    -1.2090 H     1 <1>   0.0800 
 37 H       -6.7930    -2.8000     0.2930 H     1 <1>   0.0800 
 38 H       -7.7730    -5.3050    -1.3720 H     1 <1>   0.2700 
 39 H       -7.5730    -8.2040    -1.5980 H     1 <1>   0.0800 
 40 H       -8.7850    -7.8510    -0.3790 H     1 <1>   0.0800 
 41 H       -7.4180    -8.8630     0.0110 H     1 <1>   0.0800 
@<TRIPOS>BOND
  1   1   2  2   
  2   2   3  am  
  3   2   4  1   
  4   3   5  1   
  5   3   6  1   
  6   4   7  1   
  7   4   8  2   
  8   5   9  1   
  9   5  22  1   
 10   5  23  1   
 11   6  10  1   
 12   6  24  1   
 13   6  25  1   
 14   7  11  1   
 15   8  12  1   
 16   8  26  1   
 17   9  13  1   
 18   9  27  1   
 19   9  28  1   
 20  10  14  1   
 21  10  29  1   
 22  10  30  1   
 23  11  12  2   
 24  11  31  1   
 25  12  32  1   
 26  13  14  1   
 27  13  15  1   
 28  13  33  1   
 29  14  34  1   
 30  14  35  1   
 31  15  16  1   
 32  15  36  1   
 33  15  37  1   
 34  16  17  1   
 35  16  18  2   
 36  17  19  1   
 37  17  38  1   
 38  18  20  1   
 39  19  20  2   
 40  19  21  1   
 41  21  39  1   
 42  21  40  1   
 43  21  41  1   
@<TRIPOS>SUBSTRUCTURE
  1 ****  13 GROUP 4 **** **** 0

# MOE 2024.06 (io_trps.svl 2023.06)
