@<TRIPOS>MOLECULE
NONAME
48 50 1 0 0 
SMALL
USER_CHARGES


@<TRIPOS>ATOM
  1 F       -0.7400    -1.7960    -1.7110 F     1 <1>  -0.1900 
  2 C       -1.8460    -2.3270    -1.2600 C.ar  1 <1>   0.1900 
  3 C       -2.0170    -3.6950    -1.3640 C.ar  1 <1>  -0.1500 
  4 C       -2.8010    -1.5020    -0.6980 C.ar  1 <1>  -0.1500 
  5 C       -3.1890    -4.2580    -0.8860 C.ar  1 <1>  -0.1500 
  6 C       -3.9690    -2.0740    -0.2230 C.ar  1 <1>  -0.1500 
  7 C       -4.1700    -3.4450    -0.3130 C.ar  1 <1>   0.0820 
  8 O       -5.3440    -3.9160     0.1770 O.3   1 <1>  -0.3630 
  9 C       -5.6540    -5.2870     0.1460 C.3   1 <1>   0.1200 
 10 C       -7.0430    -5.4510     0.7600 C.3   1 <1>  -0.1600 
 11 C       -7.4590    -6.9180     0.7440 C.3   1 <1>   0.3430 
 12 N       -8.8070    -7.0860     1.3610 N.4   1 <1>  -0.9590 
 13 C       -9.9140    -6.5300     0.5060 C.3   1 <1>   0.3430 
 14 C       -9.0970    -8.5410     1.5560 C.3   1 <1>   0.3430 
 15 C      -10.9240    -7.6670     0.2960 C.3   1 <1>   0.2000 
 16 C      -10.0980    -8.9370     0.4660 C.3   1 <1>  -0.0800 
 17 O      -11.8980    -7.6210     1.2860 O.3   1 <1>  -0.6800 
 18 C       -9.4240    -9.3300    -0.8700 C.3   1 <1>  -0.0170 
 19 C       -8.2790   -10.3130    -0.6880 C.ar  1 <1>   0.1670 
 20 N       -7.0960    -9.7840    -0.4040 N.ar  1 <1>  -0.6200 
 21 C       -8.5150   -11.6730    -0.8260 C.ar  1 <1>  -0.1500 
 22 C       -6.1040   -10.6560    -0.2670 C.ar  1 <1>   0.1600 
 23 C       -7.4750   -12.5630    -0.6690 C.ar  1 <1>  -0.1500 
 24 C       -6.2380   -12.0280    -0.3840 C.ar  1 <1>  -0.1500 
 25 H       -1.2480    -4.2990    -1.8090 H     1 <1>   0.1500 
 26 H       -2.6310    -0.4420    -0.6350 H     1 <1>   0.1500 
 27 H       -3.3150    -5.3200    -0.9700 H     1 <1>   0.1500 
 28 H       -4.7310    -1.4580     0.2200 H     1 <1>   0.1500 
 29 H       -5.6410    -5.6120    -0.8810 H     1 <1>   0.0800 
 30 H       -4.9080    -5.8140     0.7170 H     1 <1>   0.0800 
 31 H       -7.0130    -5.0930     1.7740 H     1 <1>   0.0800 
 32 H       -7.7340    -4.8590     0.1880 H     1 <1>   0.0800 
 33 H       -6.7350    -7.4970     1.2960 H     1 <1>   0.0800 
 34 H       -7.4680    -7.2880    -0.2700 H     1 <1>   0.0800 
 35 H       -8.8050    -6.6160     2.2770 H     1 <1>   0.4500 
 36 H      -10.3890    -5.6770     0.9630 H     1 <1>   0.0800 
 37 H       -9.5170    -6.2380    -0.4520 H     1 <1>   0.0800 
 38 H       -8.2020    -9.1400     1.5290 H     1 <1>   0.0800 
 39 H       -9.5630    -8.6820     2.5180 H     1 <1>   0.0800 
 40 H      -11.4240    -7.6000    -0.6570 H     1 <1>   0.0800 
 41 H      -10.7030    -9.7640     0.7950 H     1 <1>   0.0800 
 42 H      -11.5500    -7.7730     2.1850 H     1 <1>   0.4000 
 43 H       -9.0370    -8.4650    -1.3770 H     1 <1>   0.0800 
 44 H      -10.1630    -9.7640    -1.5210 H     1 <1>   0.0800 
 45 H       -9.4990   -12.0410    -1.0570 H     1 <1>   0.1500 
 46 H       -5.1260   -10.2600    -0.0510 H     1 <1>   0.1500 
 47 H       -7.6200   -13.6260    -0.7690 H     1 <1>   0.1500 
 48 H       -5.3840   -12.6690    -0.2570 H     1 <1>   0.1500 
@<TRIPOS>BOND
  1   1   2  1   
  2   2   3  ar  
  3   2   4  ar  
  4   3   5  ar  
  5   3  25  1   
  6   4   6  ar  
  7   4  26  1   
  8   5   7  ar  
  9   5  27  1   
 10   6   7  ar  
 11   6  28  1   
 12   7   8  1   
 13   8   9  1   
 14   9  10  1   
 15   9  29  1   
 16   9  30  1   
 17  10  11  1   
 18  10  31  1   
 19  10  32  1   
 20  11  12  1   
 21  11  33  1   
 22  11  34  1   
 23  12  13  1   
 24  12  14  1   
 25  12  35  1   
 26  13  15  1   
 27  13  36  1   
 28  13  37  1   
 29  14  16  1   
 30  14  38  1   
 31  14  39  1   
 32  15  16  1   
 33  15  17  1   
 34  15  40  1   
 35  16  18  1   
 36  16  41  1   
 37  17  42  1   
 38  18  19  1   
 39  18  43  1   
 40  18  44  1   
 41  19  20  ar  
 42  19  21  ar  
 43  20  22  ar  
 44  21  23  ar  
 45  21  45  1   
 46  22  24  ar  
 47  22  46  1   
 48  23  24  ar  
 49  23  47  1   
 50  24  48  1   
@<TRIPOS>SUBSTRUCTURE
  1 ****  11 GROUP 4 **** **** 0

# MOE 2024.06 (io_trps.svl 2023.06)
