@<TRIPOS>MOLECULE
NONAME
52 55 1 0 0 
SMALL
USER_CHARGES


@<TRIPOS>ATOM
  1 O       -2.6090     0.6670    -2.7080 O.2   1 <1>  -0.5700 
  2 C       -2.3150     0.9280    -1.5680 C.2   1 <1>   0.5690 
  3 N       -2.0750    -0.0390    -0.6520 N.am  1 <1>  -0.7300 
  4 C       -2.2240     2.3780    -1.1360 C.3   1 <1>  -0.0990 
  5 C       -2.0630    -1.4930    -0.9330 C.3   1 <1>   0.2200 
  6 C       -0.7990     2.7710    -0.7120 C.3   1 <1>  -0.1600 
  7 C       -3.2720    -2.1850    -0.3160 C.3   1 <1>  -0.0800 
  8 C       -0.9380    -2.1340    -0.1340 C.3   1 <1>   0.1200 
  9 C       -0.7150     4.2470    -0.3050 C.3   1 <1>   0.0210 
 10 C       -2.8230    -2.4440     1.1270 C.3   1 <1>   0.1200 
 11 C       -4.6110    -1.4350    -0.4410 C.3   1 <1>  -0.0160 
 12 O       -1.4380    -2.2500     1.1630 O.3   1 <1>  -0.5600 
 13 C        0.6760     4.6390     0.1660 C.2   1 <1>  -0.1810 
 14 C       -5.7530    -2.2700     0.1160 C.ar  1 <1>  -0.1440 
 15 C        0.9910     5.9310     0.6460 C.ar  1 <1>   0.0000 
 16 C        1.8100     3.8980     0.2240 C.2   1 <1>  -0.3020 
 17 C       -6.2500    -2.0790     1.3900 C.ar  1 <1>  -0.1500 
 18 C       -6.3510    -3.2670    -0.6280 C.ar  1 <1>  -0.1500 
 19 C        2.3400     5.9110     0.9820 C.ar  1 <1>  -0.1520 
 20 C        0.2560     7.1090     0.8230 C.ar  1 <1>  -0.1500 
 21 N        2.8300     4.6590     0.7180 N.pl3 1 <1>   0.0330 
 22 C       -7.2870    -2.8760     1.8460 C.ar  1 <1>   0.1600 
 23 C       -7.3830    -4.0080    -0.0770 C.ar  1 <1>   0.1600 
 24 C        2.9720     7.0470     1.4950 C.ar  1 <1>  -0.1500 
 25 C        0.8770     8.2280     1.3280 C.ar  1 <1>  -0.1500 
 26 N       -7.8640    -3.8380     1.1440 N.ar  1 <1>  -0.6200 
 27 C        2.2360     8.1970     1.6650 C.ar  1 <1>  -0.1500 
 28 H       -1.8240     0.2000     0.3100 H     1 <1>   0.3700 
 29 H       -2.5380     2.9960    -1.9580 H     1 <1>   0.0800 
 30 H       -2.9090     2.5350    -0.3230 H     1 <1>   0.0800 
 31 H       -1.9730    -1.6770    -1.9910 H     1 <1>   0.0800 
 32 H       -0.4860     2.1620     0.1180 H     1 <1>   0.0800 
 33 H       -0.1240     2.5920    -1.5320 H     1 <1>   0.0800 
 34 H       -3.3790    -3.1420    -0.7950 H     1 <1>   0.0800 
 35 H       -0.0390    -1.5440    -0.1290 H     1 <1>   0.0800 
 36 H       -0.7260    -3.1250    -0.4980 H     1 <1>   0.0800 
 37 H       -1.4100     4.4410     0.4920 H     1 <1>   0.0800 
 38 H       -0.9820     4.8690    -1.1420 H     1 <1>   0.0800 
 39 H       -3.0440    -3.4510     1.4380 H     1 <1>   0.0800 
 40 H       -3.2670    -1.7460     1.8160 H     1 <1>   0.0800 
 41 H       -4.8010    -1.2170    -1.4780 H     1 <1>   0.0800 
 42 H       -4.5690    -0.4970     0.0820 H     1 <1>   0.0800 
 43 H        1.9620     2.8710    -0.0570 H     1 <1>   0.1500 
 44 H       -5.8440    -1.3200     2.0320 H     1 <1>   0.1500 
 45 H       -6.0250    -3.4740    -1.6310 H     1 <1>   0.1500 
 46 H       -0.7850     7.1220     0.5600 H     1 <1>   0.1500 
 47 H        3.7970     4.3590     0.8710 H     1 <1>   0.2700 
 48 H       -7.6620    -2.7130     2.8420 H     1 <1>   0.1500 
 49 H       -7.8380    -4.7810    -0.6720 H     1 <1>   0.1500 
 50 H        4.0150     7.0140     1.7510 H     1 <1>   0.1500 
 51 H        0.3240     9.1400     1.4690 H     1 <1>   0.1500 
 52 H        2.6980     9.0850     2.0580 H     1 <1>   0.1500 
@<TRIPOS>BOND
  1   1   2  2   
  2   2   3  am  
  3   2   4  1   
  4   3   5  1   
  5   3  28  1   
  6   4   6  1   
  7   4  29  1   
  8   4  30  1   
  9   5   7  1   
 10   5   8  1   
 11   5  31  1   
 12   6   9  1   
 13   6  32  1   
 14   6  33  1   
 15   7  10  1   
 16   7  11  1   
 17   7  34  1   
 18   8  12  1   
 19   8  35  1   
 20   8  36  1   
 21   9  13  1   
 22   9  37  1   
 23   9  38  1   
 24  10  12  1   
 25  10  39  1   
 26  10  40  1   
 27  11  14  1   
 28  11  41  1   
 29  11  42  1   
 30  13  15  1   
 31  13  16  2   
 32  14  17  ar  
 33  14  18  ar  
 34  15  19  ar  
 35  15  20  ar  
 36  16  21  1   
 37  16  43  1   
 38  17  22  ar  
 39  17  44  1   
 40  18  23  ar  
 41  18  45  1   
 42  19  21  1   
 43  19  24  ar  
 44  20  25  ar  
 45  20  46  1   
 46  21  47  1   
 47  22  26  ar  
 48  22  48  1   
 49  23  26  ar  
 50  23  49  1   
 51  24  27  ar  
 52  24  50  1   
 53  25  27  ar  
 54  25  51  1   
 55  27  52  1   
@<TRIPOS>SUBSTRUCTURE
  1 ****   3 GROUP 4 **** **** 0

# MOE 2024.06 (io_trps.svl 2023.06)
