@<TRIPOS>MOLECULE
NONAME
52 53 1 0 0 
SMALL
USER_CHARGES


@<TRIPOS>ATOM
  1 CL      -3.4770    -0.3470    -2.8950 Cl    1 <1>  -0.1770 
  2 C       -3.6340    -1.6480    -1.7290 C.ar  1 <1>   0.1770 
  3 C       -4.7350    -1.6710    -0.8840 C.ar  1 <1>  -0.1440 
  4 C       -2.6530    -2.6290    -1.6740 C.ar  1 <1>  -0.1440 
  5 C       -4.8530    -2.7040     0.0330 C.ar  1 <1>  -0.1500 
  6 C       -5.8020    -0.5880    -0.9520 C.3   1 <1>  -0.0960 
  7 C       -2.7930    -3.6530    -0.7520 C.ar  1 <1>  -0.1500 
  8 C       -1.4470    -2.5930    -2.6000 C.3   1 <1>  -0.0960 
  9 C       -3.8850    -3.7040     0.1010 C.ar  1 <1>   0.0820 
 10 O       -3.9230    -4.7730     0.9420 O.3   1 <1>  -0.3630 
 11 C       -4.9410    -5.0730     1.8940 C.3   1 <1>   0.3410 
 12 C       -6.3800    -5.0910     1.2750 C.2   1 <1>   0.5690 
 13 C       -4.7750    -4.0720     3.0570 C.3   1 <1>  -0.2400 
 14 C       -4.5890    -6.4650     2.4420 C.3   1 <1>  -0.2400 
 15 O       -7.2820    -4.6890     1.9790 O.2   1 <1>  -0.5700 
 16 N       -6.6770    -5.5260    -0.0020 N.am  1 <1>  -0.6600 
 17 C       -5.7170    -6.1850    -0.9320 C.3   1 <1>   0.3200 
 18 C       -7.9740    -5.1090    -0.6290 C.3   1 <1>   0.1400 
 19 C       -6.3630    -7.3760    -1.6130 C.2   1 <1>  -0.3320 
 20 C       -9.1110    -6.0660    -0.2550 C.3   1 <1>   0.1200 
 21 N       -6.7820    -8.5030    -0.9990 N.pl3 1 <1>   0.0480 
 22 C       -6.6300    -7.5360    -2.9290 C.2   1 <1>   0.0770 
 23 O      -10.3300    -5.4390    -0.4670 O.3   1 <1>  -0.6800 
 24 C       -7.2790    -9.2690    -1.9960 C.2   1 <1>   0.0360 
 25 C       -6.7340    -8.8500     0.4320 C.3   1 <1>   0.0160 
 26 N       -7.2060    -8.7270    -3.1670 N.2   1 <1>  -0.5650 
 27 H       -5.7070    -2.7100     0.6800 H     1 <1>   0.1500 
 28 H       -5.3620     0.3730    -0.7500 H     1 <1>   0.0800 
 29 H       -6.5810    -0.7620    -0.2320 H     1 <1>   0.0800 
 30 H       -6.2430    -0.5680    -1.9330 H     1 <1>   0.0800 
 31 H       -2.0500    -4.4280    -0.6830 H     1 <1>   0.1500 
 32 H       -0.8900    -1.6870    -2.4420 H     1 <1>   0.0800 
 33 H       -1.7690    -2.6280    -3.6260 H     1 <1>   0.0800 
 34 H       -0.7940    -3.4290    -2.4200 H     1 <1>   0.0800 
 35 H       -5.0370    -3.0750     2.7600 H     1 <1>   0.0800 
 36 H       -3.7610    -4.0730     3.4140 H     1 <1>   0.0800 
 37 H       -5.4220    -4.3450     3.8720 H     1 <1>   0.0800 
 38 H       -4.5980    -7.1990     1.6610 H     1 <1>   0.0800 
 39 H       -5.3070    -6.7550     3.1880 H     1 <1>   0.0800 
 40 H       -3.6130    -6.4540     2.8950 H     1 <1>   0.0800 
 41 H       -4.8410    -6.5260    -0.4170 H     1 <1>   0.0800 
 42 H       -5.4050    -5.4680    -1.6740 H     1 <1>   0.0800 
 43 H       -7.8760    -5.0720    -1.7000 H     1 <1>   0.0800 
 44 H       -8.2170    -4.1200    -0.2830 H     1 <1>   0.0800 
 45 H       -9.0580    -6.3390     0.7850 H     1 <1>   0.0800 
 46 H       -9.0810    -6.9480    -0.8700 H     1 <1>   0.0800 
 47 H       -6.4370    -6.8470    -3.7340 H     1 <1>   0.1500 
 48 H      -10.4610    -4.7290     0.1930 H     1 <1>   0.4000 
 49 H       -7.6960   -10.2440    -1.8120 H     1 <1>   0.1500 
 50 H       -7.0840    -8.0200     1.0170 H     1 <1>   0.0800 
 51 H       -5.7230    -9.0880     0.7050 H     1 <1>   0.0800 
 52 H       -7.3640    -9.7010     0.6170 H     1 <1>   0.0800 
@<TRIPOS>BOND
  1   1   2  1   
  2   2   3  ar  
  3   2   4  ar  
  4   3   5  ar  
  5   3   6  1   
  6   4   7  ar  
  7   4   8  1   
  8   5   9  ar  
  9   5  27  1   
 10   6  28  1   
 11   6  29  1   
 12   6  30  1   
 13   7   9  ar  
 14   7  31  1   
 15   8  32  1   
 16   8  33  1   
 17   8  34  1   
 18   9  10  1   
 19  10  11  1   
 20  11  12  1   
 21  11  13  1   
 22  11  14  1   
 23  12  15  2   
 24  12  16  am  
 25  13  35  1   
 26  13  36  1   
 27  13  37  1   
 28  14  38  1   
 29  14  39  1   
 30  14  40  1   
 31  16  17  1   
 32  16  18  1   
 33  17  19  1   
 34  17  41  1   
 35  17  42  1   
 36  18  20  1   
 37  18  43  1   
 38  18  44  1   
 39  19  21  1   
 40  19  22  2   
 41  20  23  1   
 42  20  45  1   
 43  20  46  1   
 44  21  24  1   
 45  21  25  1   
 46  22  26  1   
 47  22  47  1   
 48  23  48  1   
 49  24  26  2   
 50  24  49  1   
 51  25  50  1   
 52  25  51  1   
 53  25  52  1   
@<TRIPOS>SUBSTRUCTURE
  1 ****  16 GROUP 4 **** **** 0

# MOE 2024.06 (io_trps.svl 2023.06)
