@<TRIPOS>MOLECULE
NONAME
55 57 1 0 0 
SMALL
USER_CHARGES


@<TRIPOS>ATOM
  1 F       -0.1860    -0.8260    -0.3820 F     1 <1>  -0.1900 
  2 C       -1.4110    -1.2640    -0.2720 C.ar  1 <1>   0.1900 
  3 C       -2.2040    -1.3190    -1.4010 C.ar  1 <1>  -0.1500 
  4 C       -1.8690    -1.6560     0.9710 C.ar  1 <1>  -0.1500 
  5 C       -3.5030    -1.7830    -1.2770 C.ar  1 <1>  -0.1500 
  6 C       -3.1700    -2.1180     1.0820 C.ar  1 <1>  -0.1500 
  7 C       -3.9900    -2.1820    -0.0380 C.ar  1 <1>  -0.1430 
  8 C       -5.4160    -2.6920     0.0900 C.3   1 <1>  -0.0160 
  9 C       -5.4640    -4.2110    -0.1160 C.3   1 <1>  -0.1600 
 10 C       -6.9000    -4.7570    -0.0100 C.3   1 <1>  -0.0990 
 11 C       -7.0110    -6.2590    -0.2430 C.2   1 <1>   0.5690 
 12 O       -6.0330    -6.9530    -0.0910 O.2   1 <1>  -0.5700 
 13 N       -8.2120    -6.8270    -0.5870 N.am  1 <1>  -0.6600 
 14 C       -8.2730    -8.2650    -0.9660 C.3   1 <1>   0.1400 
 15 C       -9.5440    -6.2270    -0.2990 C.3   1 <1>   0.1400 
 16 C       -8.8790    -9.0670     0.2050 C.3   1 <1>   0.4230 
 17 C      -10.1680    -7.0010     0.8700 C.3   1 <1>  -0.1600 
 18 N       -8.8160   -10.5770     0.0190 N.4   1 <1>  -0.9590 
 19 C      -10.2870    -8.5340     0.6130 C.3   1 <1>   0.0000 
 20 C       -9.7430   -11.3430     0.9130 C.3   1 <1>   0.3430 
 21 C       -8.9500   -11.0610    -1.3940 C.3   1 <1>   0.2630 
 22 C      -10.7350    -9.2290     1.9330 C.3   1 <1>  -0.1600 
 23 C      -11.3150    -8.8120    -0.5220 C.3   1 <1>   0.1200 
 24 C      -10.0270   -10.5710     2.2010 C.3   1 <1>  -0.1600 
 25 O      -12.5180    -8.1670    -0.2920 O.3   1 <1>  -0.6800 
 26 H       -1.8110    -1.0070    -2.3520 H     1 <1>   0.1500 
 27 H       -1.2220    -1.6000     1.8270 H     1 <1>   0.1500 
 28 H       -4.1320    -1.8350    -2.1480 H     1 <1>   0.1500 
 29 H       -3.5410    -2.4310     2.0430 H     1 <1>   0.1500 
 30 H       -5.8000    -2.4430     1.0640 H     1 <1>   0.0800 
 31 H       -6.0370    -2.2040    -0.6410 H     1 <1>   0.0800 
 32 H       -4.8420    -4.6870     0.6240 H     1 <1>   0.0800 
 33 H       -5.0610    -4.4520    -1.0850 H     1 <1>   0.0800 
 34 H       -7.5070    -4.2550    -0.7410 H     1 <1>   0.0800 
 35 H       -7.2910    -4.5390     0.9670 H     1 <1>   0.0800 
 36 H       -8.8640    -8.3580    -1.8580 H     1 <1>   0.0800 
 37 H       -7.2840    -8.6310    -1.1820 H     1 <1>   0.0800 
 38 H       -9.4560    -5.1890    -0.0320 H     1 <1>   0.0800 
 39 H      -10.1690    -6.2880    -1.1740 H     1 <1>   0.0800 
 40 H       -8.2420    -8.8440     1.0460 H     1 <1>   0.0800 
 41 H       -9.5530    -6.8230     1.7350 H     1 <1>   0.0800 
 42 H      -11.1330    -6.5770     1.0900 H     1 <1>   0.0800 
 43 H       -7.8620   -10.8260     0.3240 H     1 <1>   0.4500 
 44 H      -10.6790   -11.5160     0.4070 H     1 <1>   0.0800 
 45 H       -9.3140   -12.3040     1.1500 H     1 <1>   0.0800 
 46 H       -9.9130   -10.7930    -1.7970 H     1 <1>   0.0800 
 47 H       -8.8500   -12.1340    -1.4330 H     1 <1>   0.0800 
 48 H       -8.1830   -10.6300    -2.0170 H     1 <1>   0.0800 
 49 H      -10.5430    -8.5920     2.7810 H     1 <1>   0.0800 
 50 H      -11.7980    -9.3920     1.9210 H     1 <1>   0.0800 
 51 H      -11.5260    -9.8620    -0.6170 H     1 <1>   0.0800 
 52 H      -10.9600    -8.4510    -1.4710 H     1 <1>   0.0800 
 53 H      -10.6450   -11.1720     2.8460 H     1 <1>   0.0800 
 54 H       -9.1000   -10.4050     2.7230 H     1 <1>   0.0800 
 55 H      -12.9660    -8.4920     0.5150 H     1 <1>   0.4000 
@<TRIPOS>BOND
  1   1   2  1   
  2   2   3  ar  
  3   2   4  ar  
  4   3   5  ar  
  5   3  26  1   
  6   4   6  ar  
  7   4  27  1   
  8   5   7  ar  
  9   5  28  1   
 10   6   7  ar  
 11   6  29  1   
 12   7   8  1   
 13   8   9  1   
 14   8  30  1   
 15   8  31  1   
 16   9  10  1   
 17   9  32  1   
 18   9  33  1   
 19  10  11  1   
 20  10  34  1   
 21  10  35  1   
 22  11  12  2   
 23  11  13  am  
 24  13  14  1   
 25  13  15  1   
 26  14  16  1   
 27  14  36  1   
 28  14  37  1   
 29  15  17  1   
 30  15  38  1   
 31  15  39  1   
 32  16  18  1   
 33  16  19  1   
 34  16  40  1   
 35  17  19  1   
 36  17  41  1   
 37  17  42  1   
 38  18  20  1   
 39  18  21  1   
 40  18  43  1   
 41  19  22  1   
 42  19  23  1   
 43  20  24  1   
 44  20  44  1   
 45  20  45  1   
 46  21  46  1   
 47  21  47  1   
 48  21  48  1   
 49  22  24  1   
 50  22  49  1   
 51  22  50  1   
 52  23  25  1   
 53  23  51  1   
 54  23  52  1   
 55  24  53  1   
 56  24  54  1   
 57  25  55  1   
@<TRIPOS>SUBSTRUCTURE
  1 ****  11 GROUP 4 **** **** 0

# MOE 2024.06 (io_trps.svl 2023.06)
