@<TRIPOS>MOLECULE
NONAME
47 50 1 0 0 
SMALL
USER_CHARGES


@<TRIPOS>ATOM
  1 S       -3.0070    -1.7360     3.5600 S.3   1 <1>  -0.0800 
  2 C       -3.4770    -2.9580     2.3930 C.2   1 <1>  -0.1100 
  3 C       -2.1510    -0.8280     2.3290 C.2   1 <1>  -0.1100 
  4 C       -3.0040    -2.6570     1.1670 C.2   1 <1>  -0.1810 
  5 C       -2.2420    -1.4410     1.1340 C.2   1 <1>  -0.1500 
  6 C       -3.2310    -3.4770    -0.0860 C.3   1 <1>   0.5240 
  7 N       -4.6760    -3.4280    -0.4190 N.4   1 <1>  -0.9590 
  8 C       -5.0840    -4.4060    -1.4770 C.3   1 <1>   0.3430 
  9 C       -5.1940    -2.0530    -0.6480 C.3   1 <1>   0.3430 
 10 C       -6.6220    -4.5320    -1.5900 C.3   1 <1>   0.1400 
 11 C       -6.4440    -1.8480     0.2110 C.3   1 <1>  -0.1600 
 12 N       -7.3000    -4.1730    -0.3060 N.am  1 <1>  -0.6600 
 13 C       -7.6520    -2.7310    -0.1450 C.3   1 <1>   0.1400 
 14 C       -7.1530    -4.9930     0.7850 C.2   1 <1>   0.6160 
 15 O       -6.3320    -4.6370     1.6100 O.2   1 <1>  -0.5700 
 16 C       -7.8020    -6.2820     0.8780 C.2   1 <1>   0.0290 
 17 C       -9.0670    -6.5980     0.4360 C.2   1 <1>  -0.1690 
 18 C       -7.0170    -7.3250     1.4690 C.2   1 <1>   0.3760 
 19 N       -9.4660    -7.9220     0.5260 N.pl3 1 <1>   0.6010 
 20 C      -10.0970    -5.6230    -0.1420 C.3   1 <1>  -0.1020 
 21 N       -7.3760    -8.5590     1.5600 N.2   1 <1>  -0.5760 
 22 N      -10.6190    -8.4890     0.1040 N.2   1 <1>  -0.7070 
 23 C       -8.6210    -8.8630     1.0670 C.2   1 <1>  -0.0260 
 24 C      -10.4880    -9.7530     0.3930 C.2   1 <1>   0.1390 
 25 C       -9.2740   -10.0470     0.9900 C.2   1 <1>  -0.1500 
 26 H       -4.0710    -3.7760     2.7680 H     1 <1>   0.1500 
 27 H       -1.6610     0.0790     2.6390 H     1 <1>   0.1500 
 28 H       -1.7890    -1.0730     0.2290 H     1 <1>   0.1500 
 29 H       -2.9300    -4.4950     0.1010 H     1 <1>   0.0800 
 30 H       -2.6410    -3.0850    -0.8980 H     1 <1>   0.0800 
 31 H       -5.1680    -3.7370     0.4480 H     1 <1>   0.4500 
 32 H       -4.6880    -5.3770    -1.2270 H     1 <1>   0.0800 
 33 H       -4.6730    -4.1230    -2.4330 H     1 <1>   0.0800 
 34 H       -5.4240    -1.9020    -1.6900 H     1 <1>   0.0800 
 35 H       -4.4550    -1.3240    -0.3570 H     1 <1>   0.0800 
 36 H       -6.8790    -5.5400    -1.8680 H     1 <1>   0.0800 
 37 H       -6.9770    -3.8870    -2.3750 H     1 <1>   0.0800 
 38 H       -6.7490    -0.8210     0.1150 H     1 <1>   0.0800 
 39 H       -6.1900    -1.9870     1.2470 H     1 <1>   0.0800 
 40 H       -8.1060    -2.3770    -1.0550 H     1 <1>   0.0800 
 41 H       -8.3890    -2.6360     0.6360 H     1 <1>   0.0800 
 42 H       -6.0480    -7.0610     1.8560 H     1 <1>   0.0600 
 43 H      -11.0600    -5.7990     0.3070 H     1 <1>   0.0800 
 44 H      -10.1920    -5.7730    -1.2020 H     1 <1>   0.0800 
 45 H       -9.8430    -4.5990     0.0470 H     1 <1>   0.0800 
 46 H      -11.2530   -10.4830     0.1820 H     1 <1>   0.1500 
 47 H       -8.9260   -11.0090     1.3190 H     1 <1>   0.1500 
@<TRIPOS>BOND
  1   1   2  1   
  2   1   3  1   
  3   2   4  2   
  4   2  26  1   
  5   3   5  2   
  6   3  27  1   
  7   4   5  1   
  8   4   6  1   
  9   5  28  1   
 10   6   7  1   
 11   6  29  1   
 12   6  30  1   
 13   7   8  1   
 14   7   9  1   
 15   7  31  1   
 16   8  10  1   
 17   8  32  1   
 18   8  33  1   
 19   9  11  1   
 20   9  34  1   
 21   9  35  1   
 22  10  12  1   
 23  10  36  1   
 24  10  37  1   
 25  11  13  1   
 26  11  38  1   
 27  11  39  1   
 28  12  13  1   
 29  12  14  am  
 30  13  40  1   
 31  13  41  1   
 32  14  15  2   
 33  14  16  1   
 34  16  17  2   
 35  16  18  1   
 36  17  19  1   
 37  17  20  1   
 38  18  21  2   
 39  18  42  1   
 40  19  22  1   
 41  19  23  1   
 42  20  43  1   
 43  20  44  1   
 44  20  45  1   
 45  21  23  1   
 46  22  24  2   
 47  23  25  2   
 48  24  25  1   
 49  24  46  1   
 50  25  47  1   
@<TRIPOS>SUBSTRUCTURE
  1 ****  14 GROUP 4 **** **** 0

# MOE 2024.06 (io_trps.svl 2023.06)
