@<TRIPOS>MOLECULE
NONAME
44 46 1 0 0 
SMALL
USER_CHARGES


@<TRIPOS>ATOM
  1 CL      -3.0180     4.8560     2.0440 Cl    1 <1>  -0.1770 
  2 C       -1.9100     4.1470     0.8890 C.ar  1 <1>   0.1770 
  3 C       -2.2080     2.9230     0.2950 C.ar  1 <1>   0.0830 
  4 C       -0.7540     4.8360     0.5790 C.ar  1 <1>  -0.1500 
  5 O       -3.3580     2.2930     0.6440 O.3   1 <1>  -0.3630 
  6 C       -1.3180     2.3830    -0.6310 C.ar  1 <1>  -0.1500 
  7 C        0.1120     4.2840    -0.3460 C.ar  1 <1>   0.1770 
  8 C       -4.0780     1.5390    -0.3220 C.3   1 <1>   0.1810 
  9 C       -0.1570     3.0690    -0.9520 C.ar  1 <1>  -0.1500 
 10 CL       1.5770     5.1370    -0.7580 Cl    1 <1>  -0.1770 
 11 C       -5.4680     1.1570     0.1830 C.2   1 <1>   0.5690 
 12 O       -5.7350    -0.0240     0.1850 O.2   1 <1>  -0.5700 
 13 N       -6.3860     2.1020     0.5800 N.am  1 <1>  -0.6600 
 14 C       -7.7230     1.7070     1.1170 C.3   1 <1>   0.1400 
 15 C       -6.1760     3.5760     0.5520 C.3   1 <1>   0.1400 
 16 C       -8.8490     2.2850     0.2380 C.3   1 <1>   0.0000 
 17 C       -7.2600     4.2370    -0.3070 C.3   1 <1>  -0.1600 
 18 C      -10.2270     1.8580     0.7810 C.3   1 <1>   0.2000 
 19 C       -8.6780     3.8280     0.1330 C.3   1 <1>  -0.1600 
 20 C       -8.8720     1.6370    -1.1590 C.3   1 <1>  -0.1600 
 21 O      -10.6860     2.6730     1.7990 O.3   1 <1>  -0.6800 
 22 C      -11.1900     1.8980    -0.4050 C.3   1 <1>  -0.1600 
 23 C      -10.3140     1.7730    -1.6590 C.3   1 <1>  -0.1600 
 24 H       -0.5340     5.7800     1.0430 H     1 <1>   0.1500 
 25 H       -1.5100     1.4340    -1.0970 H     1 <1>   0.1500 
 26 H       -4.1720     2.1260    -1.2160 H     1 <1>   0.0800 
 27 H       -3.5240     0.6430    -0.5300 H     1 <1>   0.0800 
 28 H        0.5420     2.6660    -1.6650 H     1 <1>   0.1500 
 29 H       -7.8110     0.6360     1.1670 H     1 <1>   0.0800 
 30 H       -7.8210     2.0870     2.1200 H     1 <1>   0.0800 
 31 H       -6.2260     3.9530     1.5600 H     1 <1>   0.0800 
 32 H       -5.2110     3.8300     0.1540 H     1 <1>   0.0800 
 33 H       -7.1590     5.3060    -0.2320 H     1 <1>   0.0800 
 34 H       -7.0960     3.9760    -1.3370 H     1 <1>   0.0800 
 35 H      -10.1750     0.8510     1.1620 H     1 <1>   0.0800 
 36 H       -9.3990     4.2450    -0.5470 H     1 <1>   0.0800 
 37 H       -8.8460     4.2690     1.1000 H     1 <1>   0.0800 
 38 H       -8.1670     2.0700    -1.8450 H     1 <1>   0.0800 
 39 H       -8.6370     0.5890    -1.0670 H     1 <1>   0.0800 
 40 H      -10.7860     3.5830     1.4640 H     1 <1>   0.4000 
 41 H      -11.8860     1.0800    -0.3420 H     1 <1>   0.0800 
 42 H      -11.7320     2.8270    -0.4350 H     1 <1>   0.0800 
 43 H      -10.5960     0.9210    -2.2550 H     1 <1>   0.0800 
 44 H      -10.4110     2.6620    -2.2590 H     1 <1>   0.0800 
@<TRIPOS>BOND
  1   1   2  1   
  2   2   3  ar  
  3   2   4  ar  
  4   3   5  1   
  5   3   6  ar  
  6   4   7  ar  
  7   4  24  1   
  8   5   8  1   
  9   6   9  ar  
 10   6  25  1   
 11   7   9  ar  
 12   7  10  1   
 13   8  11  1   
 14   8  26  1   
 15   8  27  1   
 16   9  28  1   
 17  11  12  2   
 18  11  13  am  
 19  13  14  1   
 20  13  15  1   
 21  14  16  1   
 22  14  29  1   
 23  14  30  1   
 24  15  17  1   
 25  15  31  1   
 26  15  32  1   
 27  16  18  1   
 28  16  19  1   
 29  16  20  1   
 30  17  19  1   
 31  17  33  1   
 32  17  34  1   
 33  18  21  1   
 34  18  22  1   
 35  18  35  1   
 36  19  36  1   
 37  19  37  1   
 38  20  23  1   
 39  20  38  1   
 40  20  39  1   
 41  21  40  1   
 42  22  23  1   
 43  22  41  1   
 44  22  42  1   
 45  23  43  1   
 46  23  44  1   
@<TRIPOS>SUBSTRUCTURE
  1 ****  15 GROUP 4 **** **** 0

# MOE 2024.06 (io_trps.svl 2023.06)
