@<TRIPOS>MOLECULE
NONAME
55 58 1 0 0 
SMALL
USER_CHARGES


@<TRIPOS>ATOM
  1 O       -0.0380     0.9370     1.8970 O.2   1 <1>  -0.5700 
  2 C       -0.0260     1.8790     1.1350 C.2   1 <1>   0.5690 
  3 N       -1.0840     2.1540     0.2980 N.am  1 <1>  -0.6600 
  4 C        1.2380     2.7560     1.1370 C.3   1 <1>   0.2700 
  5 C       -2.3210     1.3190     0.3200 C.3   1 <1>   0.2200 
  6 C       -1.0410     3.3380    -0.6220 C.3   1 <1>   0.1400 
  7 N        1.2180     3.9610     0.2300 N.pl3 1 <1>  -0.8380 
  8 C       -2.4100     0.4610    -0.9500 C.3   1 <1>  -0.1600 
  9 C       -3.5810     2.1780     0.5070 C.3   1 <1>  -0.1600 
 10 C        0.3910     3.7510    -0.9920 C.3   1 <1>   0.2090 
 11 C        2.3730     4.7000     0.1400 C.ar  1 <1>   0.4100 
 12 C       -3.6740    -0.4130    -0.9330 C.3   1 <1>  -0.1600 
 13 C       -4.8410     1.3000     0.5300 C.3   1 <1>  -0.1600 
 14 N        2.9680     4.7670    -1.0460 N.ar  1 <1>  -0.6200 
 15 C        2.8870     5.3300     1.2720 C.ar  1 <1>  -0.1500 
 16 C       -4.9370     0.4370    -0.7360 C.3   1 <1>  -0.1600 
 17 C        4.0950     5.4550    -1.0980 C.ar  1 <1>   0.1600 
 18 C        4.0560     6.0470     1.1970 C.ar  1 <1>  -0.1500 
 19 C        4.6940     6.1280    -0.0370 C.ar  1 <1>   0.0860 
 20 C        5.9240     6.8550    -0.2370 C.2   1 <1>   0.5440 
 21 O        6.7940     6.3660    -0.9330 O.2   1 <1>  -0.5700 
 22 N        6.1450     8.0950     0.3260 N.am  1 <1>  -0.6600 
 23 C        7.5080     8.7090     0.3710 C.3   1 <1>   0.1400 
 24 C        5.0580     9.0700     0.6450 C.3   1 <1>   0.1400 
 25 C        7.5380    10.0180    -0.4340 C.3   1 <1>   0.1200 
 26 C        5.2350    10.3660    -0.1650 C.3   1 <1>   0.1200 
 27 O        6.5250    10.8830    -0.0020 O.3   1 <1>  -0.5600 
 28 H        2.0670     2.1320     0.8570 H     1 <1>   0.0800 
 29 H        1.4020     3.0810     2.1470 H     1 <1>   0.0800 
 30 H       -2.2710     0.6450     1.1590 H     1 <1>   0.0800 
 31 H       -1.5260     4.1690    -0.1420 H     1 <1>   0.0800 
 32 H       -1.5750     3.1180    -1.5280 H     1 <1>   0.0800 
 33 H       -1.5420    -0.1720    -1.0080 H     1 <1>   0.0800 
 34 H       -2.4370     1.0880    -1.8210 H     1 <1>   0.0800 
 35 H       -3.6760     2.8840    -0.2970 H     1 <1>   0.0800 
 36 H       -3.5070     2.7180     1.4340 H     1 <1>   0.0800 
 37 H        0.3610     4.6610    -1.5660 H     1 <1>   0.0800 
 38 H        0.8420     2.9880    -1.6040 H     1 <1>   0.0800 
 39 H       -3.5990    -1.1290    -0.1320 H     1 <1>   0.0800 
 40 H       -3.7460    -0.9600    -1.8570 H     1 <1>   0.0800 
 41 H       -5.7150     1.9230     0.6100 H     1 <1>   0.0800 
 42 H       -4.8140     0.6600     1.3960 H     1 <1>   0.0800 
 43 H        2.3530     5.2450     2.1990 H     1 <1>   0.1500 
 44 H       -5.7970    -0.2080    -0.6680 H     1 <1>   0.0800 
 45 H       -5.0740     1.0750    -1.5930 H     1 <1>   0.0800 
 46 H        4.5910     5.4970    -2.0530 H     1 <1>   0.1500 
 47 H        4.4750     6.5320     2.0610 H     1 <1>   0.1500 
 48 H        8.2460     8.0320    -0.0220 H     1 <1>   0.0800 
 49 H        7.7680     8.9180     1.3930 H     1 <1>   0.0800 
 50 H        5.0880     9.3040     1.6950 H     1 <1>   0.0800 
 51 H        4.0930     8.6520     0.4210 H     1 <1>   0.0800 
 52 H        7.4020     9.8180    -1.4830 H     1 <1>   0.0800 
 53 H        8.4800    10.5180    -0.2950 H     1 <1>   0.0800 
 54 H        4.5380    11.1130     0.1710 H     1 <1>   0.0800 
 55 H        5.0680    10.1830    -1.2130 H     1 <1>   0.0800 
@<TRIPOS>BOND
  1   1   2  2   
  2   2   3  am  
  3   2   4  1   
  4   3   5  1   
  5   3   6  1   
  6   4   7  1   
  7   4  28  1   
  8   4  29  1   
  9   5   8  1   
 10   5   9  1   
 11   5  30  1   
 12   6  10  1   
 13   6  31  1   
 14   6  32  1   
 15   7  10  1   
 16   7  11  1   
 17   8  12  1   
 18   8  33  1   
 19   8  34  1   
 20   9  13  1   
 21   9  35  1   
 22   9  36  1   
 23  10  37  1   
 24  10  38  1   
 25  11  14  ar  
 26  11  15  ar  
 27  12  16  1   
 28  12  39  1   
 29  12  40  1   
 30  13  16  1   
 31  13  41  1   
 32  13  42  1   
 33  14  17  ar  
 34  15  18  ar  
 35  15  43  1   
 36  16  44  1   
 37  16  45  1   
 38  17  19  ar  
 39  17  46  1   
 40  18  19  ar  
 41  18  47  1   
 42  19  20  1   
 43  20  21  2   
 44  20  22  am  
 45  22  23  1   
 46  22  24  1   
 47  23  25  1   
 48  23  48  1   
 49  23  49  1   
 50  24  26  1   
 51  24  50  1   
 52  24  51  1   
 53  25  27  1   
 54  25  52  1   
 55  25  53  1   
 56  26  27  1   
 57  26  54  1   
 58  26  55  1   
@<TRIPOS>SUBSTRUCTURE
  1 ****  11 GROUP 4 **** **** 0

# MOE 2024.06 (io_trps.svl 2023.06)
