@<TRIPOS>MOLECULE
NONAME
55 58 1 0 0 
SMALL
USER_CHARGES


@<TRIPOS>ATOM
  1 O       -0.6950     0.1020    -0.4100 O.2   1 <1>  -0.5700 
  2 C       -1.7900     0.6080    -0.3720 C.2   1 <1>   0.5690 
  3 N       -2.9280    -0.1280    -0.5210 N.am  1 <1>  -0.6600 
  4 C       -1.8710     2.1050    -0.1580 C.3   1 <1>  -0.0990 
  5 C       -4.3240     0.3770    -0.5900 C.3   1 <1>   0.1400 
  6 C       -2.8930    -1.5980    -0.7310 C.3   1 <1>   0.1400 
  7 C       -0.4940     2.6340     0.2440 C.3   1 <1>   0.3430 
  8 C       -5.1550    -0.8220    -1.0480 C.3   1 <1>   0.2000 
  9 C       -4.3500    -2.0570    -0.6510 C.3   1 <1>  -0.0800 
 10 N       -0.5100     4.1060     0.4930 N.4   1 <1>  -0.9590 
 11 O       -6.3960    -0.8410    -0.4350 O.3   1 <1>  -0.6800 
 12 C       -4.6580    -3.2790    -1.5320 C.3   1 <1>  -0.0170 
 13 C       -0.7240     4.9400    -0.7420 C.3   1 <1>   0.3430 
 14 C        0.7310     4.5620     1.2060 C.3   1 <1>   0.3430 
 15 C       -3.8650    -4.5000    -1.0770 C.ar  1 <1>  -0.1440 
 16 C       -0.6110     6.4520    -0.4360 C.3   1 <1>   0.1200 
 17 C        0.6900     6.0820     1.4900 C.3   1 <1>   0.1200 
 18 C       -4.2420    -5.2710     0.0480 C.ar  1 <1>   0.0000 
 19 C       -2.7440    -4.8810    -1.7550 C.ar  1 <1>  -0.1500 
 20 O       -0.4550     6.6760     0.9380 O.3   1 <1>  -0.5600 
 21 C       -3.4190    -6.3700     0.3980 C.ar  1 <1>   0.3100 
 22 C       -5.3850    -5.0220     0.8430 C.ar  1 <1>  -0.1500 
 23 C       -2.0050    -5.9910    -1.3300 C.ar  1 <1>   0.1600 
 24 N       -2.3080    -6.7160    -0.3010 N.ar  1 <1>  -0.6200 
 25 C       -3.7590    -7.1450     1.5180 C.ar  1 <1>  -0.1500 
 26 C       -5.6900    -5.7990     1.9270 C.ar  1 <1>  -0.1500 
 27 C       -4.8680    -6.8730     2.2730 C.ar  1 <1>  -0.1500 
 28 H       -2.1980     2.5530    -1.0770 H     1 <1>   0.0800 
 29 H       -2.5810     2.3060     0.6220 H     1 <1>   0.0800 
 30 H       -4.6340     0.7010     0.3880 H     1 <1>   0.0800 
 31 H       -4.4050     1.1830    -1.2980 H     1 <1>   0.0800 
 32 H       -2.4770    -1.8000    -1.7030 H     1 <1>   0.0800 
 33 H       -2.2870    -2.0800     0.0180 H     1 <1>   0.0800 
 34 H        0.2190     2.3980    -0.5310 H     1 <1>   0.0800 
 35 H       -0.1820     2.1180     1.1380 H     1 <1>   0.0800 
 36 H       -5.3040    -0.7760    -2.1140 H     1 <1>   0.0800 
 37 H       -4.5480    -2.2940     0.3800 H     1 <1>   0.0800 
 38 H       -1.2820     4.3530     1.1310 H     1 <1>   0.4500 
 39 H       -6.3060    -0.9850     0.5270 H     1 <1>   0.4000 
 40 H       -4.4140    -3.0510    -2.5550 H     1 <1>   0.0800 
 41 H       -5.7110    -3.4980    -1.5090 H     1 <1>   0.0800 
 42 H        0.0040     4.6810    -1.4940 H     1 <1>   0.0800 
 43 H       -1.6990     4.7420    -1.1550 H     1 <1>   0.0800 
 44 H        0.8400     4.0330     2.1390 H     1 <1>   0.0800 
 45 H        1.6000     4.3420     0.6070 H     1 <1>   0.0800 
 46 H       -1.5030     6.9640    -0.7550 H     1 <1>   0.0800 
 47 H        0.2270     6.8850    -0.9540 H     1 <1>   0.0800 
 48 H        1.5610     6.5690     1.0860 H     1 <1>   0.0800 
 49 H        0.6700     6.2600     2.5520 H     1 <1>   0.0800 
 50 H       -2.3980    -4.3480    -2.6220 H     1 <1>   0.1500 
 51 H       -6.0360    -4.2050     0.5930 H     1 <1>   0.1500 
 52 H       -1.1270    -6.2560    -1.8930 H     1 <1>   0.1500 
 53 H       -3.1130    -7.9680     1.7620 H     1 <1>   0.1500 
 54 H       -6.5630    -5.5970     2.5240 H     1 <1>   0.1500 
 55 H       -5.1160    -7.4770     3.1280 H     1 <1>   0.1500 
@<TRIPOS>BOND
  1   1   2  2   
  2   2   3  am  
  3   2   4  1   
  4   3   5  1   
  5   3   6  1   
  6   4   7  1   
  7   4  28  1   
  8   4  29  1   
  9   5   8  1   
 10   5  30  1   
 11   5  31  1   
 12   6   9  1   
 13   6  32  1   
 14   6  33  1   
 15   7  10  1   
 16   7  34  1   
 17   7  35  1   
 18   8   9  1   
 19   8  11  1   
 20   8  36  1   
 21   9  12  1   
 22   9  37  1   
 23  10  13  1   
 24  10  14  1   
 25  10  38  1   
 26  11  39  1   
 27  12  15  1   
 28  12  40  1   
 29  12  41  1   
 30  13  16  1   
 31  13  42  1   
 32  13  43  1   
 33  14  17  1   
 34  14  44  1   
 35  14  45  1   
 36  15  18  ar  
 37  15  19  ar  
 38  16  20  1   
 39  16  46  1   
 40  16  47  1   
 41  17  20  1   
 42  17  48  1   
 43  17  49  1   
 44  18  21  ar  
 45  18  22  ar  
 46  19  23  ar  
 47  19  50  1   
 48  21  24  ar  
 49  21  25  ar  
 50  22  26  ar  
 51  22  51  1   
 52  23  24  ar  
 53  23  52  1   
 54  25  27  ar  
 55  25  53  1   
 56  26  27  ar  
 57  26  54  1   
 58  27  55  1   
@<TRIPOS>SUBSTRUCTURE
  1 ****   6 GROUP 4 **** **** 0

# MOE 2024.06 (io_trps.svl 2023.06)
