@<TRIPOS>MOLECULE
NONAME
47 49 1 0 0 
SMALL
USER_CHARGES


@<TRIPOS>ATOM
  1 O       -0.9350     0.7490    -1.4520 O.2   1 <1>  -0.5700 
  2 C       -0.5890     1.7600    -0.8870 C.2   1 <1>   0.5690 
  3 N       -1.4760     2.7490    -0.5510 N.am  1 <1>  -0.6600 
  4 C        0.9030     1.9270    -0.5760 C.3   1 <1>   0.1810 
  5 C       -1.0200     3.9790     0.1800 C.3   1 <1>   0.3640 
  6 C       -2.9470     2.5970    -0.7460 C.3   1 <1>   0.0600 
  7 O        1.1760     2.9200     0.3840 O.3   1 <1>  -0.5600 
  8 C       -1.7060     5.2230    -0.4110 C.ar  1 <1>  -0.1430 
  9 C        0.5180     4.1470     0.1400 C.3   1 <1>   0.2610 
 10 C       -2.5420     6.0520     0.3410 C.ar  1 <1>  -0.1430 
 11 C       -1.4830     5.5330    -1.7490 C.ar  1 <1>  -0.1500 
 12 C        0.9710     5.2340     1.1260 C.2   1 <1>   0.5690 
 13 C       -3.1080     7.1720    -0.2510 C.ar  1 <1>  -0.1500 
 14 C       -2.8730     5.7780     1.8030 C.3   1 <1>  -0.0960 
 15 C       -2.0510     6.6510    -2.3280 C.ar  1 <1>  -0.1500 
 16 O        0.4480     5.2840     2.2180 O.2   1 <1>  -0.5700 
 17 N        1.9220     6.1540     0.7590 N.am  1 <1>  -0.6600 
 18 C       -2.8630     7.4750    -1.5760 C.ar  1 <1>  -0.1500 
 19 C        1.9720     7.4770     1.4420 C.3   1 <1>   0.3200 
 20 C        2.8170     6.0230    -0.4230 C.3   1 <1>   0.0600 
 21 C        1.3260     8.5230     0.5500 C.2   1 <1>  -0.0400 
 22 O        2.0550     9.1450    -0.3580 O.3   1 <1>  -0.2800 
 23 C        0.0470     8.9540     0.5060 C.2   1 <1>  -0.1500 
 24 C        1.2620     9.9830    -0.9970 C.2   1 <1>  -0.0100 
 25 C        0.0050     9.9150    -0.5110 C.2   1 <1>  -0.1500 
 26 H        1.4270     2.1770    -1.4800 H     1 <1>   0.0800 
 27 H        1.2900     0.9980    -0.2000 H     1 <1>   0.0800 
 28 H       -1.3030     3.8540     1.2080 H     1 <1>   0.0800 
 29 H       -3.4610     2.7880     0.1790 H     1 <1>   0.0800 
 30 H       -3.1880     1.6000    -1.0740 H     1 <1>   0.0800 
 31 H       -3.2920     3.2940    -1.4900 H     1 <1>   0.0800 
 32 H        0.7930     4.4590    -0.8480 H     1 <1>   0.0800 
 33 H       -0.8650     4.8960    -2.3570 H     1 <1>   0.1500 
 34 H       -3.7490     7.8210     0.3200 H     1 <1>   0.1500 
 35 H       -3.6410     6.4430     2.1550 H     1 <1>   0.0800 
 36 H       -2.0040     5.9220     2.4170 H     1 <1>   0.0800 
 37 H       -3.2300     4.7720     1.9260 H     1 <1>   0.0800 
 38 H       -1.8630     6.8780    -3.3630 H     1 <1>   0.1500 
 39 H       -3.3070     8.3480    -2.0220 H     1 <1>   0.1500 
 40 H        1.4420     7.4380     2.3770 H     1 <1>   0.0800 
 41 H        2.9920     7.7470     1.6510 H     1 <1>   0.0800 
 42 H        3.7630     6.4950    -0.2210 H     1 <1>   0.0800 
 43 H        2.3660     6.5030    -1.2750 H     1 <1>   0.0800 
 44 H        2.9980     4.9860    -0.6470 H     1 <1>   0.0800 
 45 H       -0.7890     8.6350     1.1040 H     1 <1>   0.1500 
 46 H        1.6740    10.5900    -1.7840 H     1 <1>   0.1500 
 47 H       -0.8690    10.4620    -0.8160 H     1 <1>   0.1500 
@<TRIPOS>BOND
  1   1   2  2   
  2   2   3  am  
  3   2   4  1   
  4   3   5  1   
  5   3   6  1   
  6   4   7  1   
  7   4  26  1   
  8   4  27  1   
  9   5   8  1   
 10   5   9  1   
 11   5  28  1   
 12   6  29  1   
 13   6  30  1   
 14   6  31  1   
 15   7   9  1   
 16   8  10  ar  
 17   8  11  ar  
 18   9  12  1   
 19   9  32  1   
 20  10  13  ar  
 21  10  14  1   
 22  11  15  ar  
 23  11  33  1   
 24  12  16  2   
 25  12  17  am  
 26  13  18  ar  
 27  13  34  1   
 28  14  35  1   
 29  14  36  1   
 30  14  37  1   
 31  15  18  ar  
 32  15  38  1   
 33  17  19  1   
 34  17  20  1   
 35  18  39  1   
 36  19  21  1   
 37  19  40  1   
 38  19  41  1   
 39  20  42  1   
 40  20  43  1   
 41  20  44  1   
 42  21  22  1   
 43  21  23  2   
 44  22  24  1   
 45  23  25  1   
 46  23  45  1   
 47  24  25  2   
 48  24  46  1   
 49  25  47  1   
@<TRIPOS>SUBSTRUCTURE
  1 ****   8 GROUP 4 **** **** 0

# MOE 2024.06 (io_trps.svl 2023.06)
