@<TRIPOS>MOLECULE
NONAME
43 46 1 0 0 
SMALL
USER_CHARGES


@<TRIPOS>ATOM
  1 S       -0.4240     0.4700     1.4310 S.3   1 <1>  -0.0800 
  2 C       -0.1790     1.8370     0.3650 C.2   1 <1>  -0.1400 
  3 C        1.1470     0.7430     2.1720 C.2   1 <1>  -0.1100 
  4 C        1.0080     2.4230     0.5670 C.2   1 <1>  -0.1810 
  5 C       -1.2060     2.2740    -0.6440 C.3   1 <1>   0.0200 
  6 C        1.7690     1.7980     1.6110 C.2   1 <1>  -0.1500 
  7 C        1.4430     3.6300    -0.2670 C.3   1 <1>   0.4610 
  8 C       -0.8560     3.7140    -1.0520 C.3   1 <1>   0.1200 
  9 O        0.5200     3.8500    -1.3200 O.3   1 <1>  -0.5600 
 10 C        2.7930     3.3560    -0.9380 C.3   1 <1>  -0.1600 
 11 C        1.5240     4.8970     0.5960 C.3   1 <1>  -0.1600 
 12 C        3.2880     4.5710    -1.7230 C.3   1 <1>   0.1400 
 13 C        2.0330     6.0980    -0.2030 C.3   1 <1>   0.1400 
 14 N        3.3440     5.7530    -0.8170 N.am  1 <1>  -0.6600 
 15 C        4.5450     6.3420    -0.4690 C.2   1 <1>   0.6160 
 16 O        5.5700     5.7070    -0.6350 O.2   1 <1>  -0.5700 
 17 C        4.6410     7.6670     0.1110 C.2   1 <1>   0.0910 
 18 O        3.7540     8.5880    -0.3220 O.3   1 <1>  -0.1530 
 19 C        5.5740     8.0380     1.0320 C.2   1 <1>  -0.1360 
 20 C        3.7520     9.8470     0.1280 C.2   1 <1>  -0.0620 
 21 C        5.6230     9.3510     1.5590 C.2   1 <1>   0.5410 
 22 C        4.6530    10.2550     1.0500 C.2   1 <1>  -0.1360 
 23 C        2.6780    10.7220    -0.4870 C.3   1 <1>  -0.1020 
 24 O        6.4370     9.6850     2.4010 O.2   1 <1>  -0.5700 
 25 H        1.4420     0.0730     2.9600 H     1 <1>   0.1500 
 26 H       -2.1910     2.2450    -0.2160 H     1 <1>   0.0800 
 27 H       -1.1790     1.6260    -1.5010 H     1 <1>   0.0800 
 28 H        2.7410     2.1650     1.8920 H     1 <1>   0.1500 
 29 H       -1.1210     4.4000    -0.2670 H     1 <1>   0.0800 
 30 H       -1.3930     3.9880    -1.9430 H     1 <1>   0.0800 
 31 H        2.6970     2.5100    -1.5930 H     1 <1>   0.0800 
 32 H        3.5300     3.1120    -0.1960 H     1 <1>   0.0800 
 33 H        2.2010     4.7210     1.4130 H     1 <1>   0.0800 
 34 H        0.5650     5.1160     1.0240 H     1 <1>   0.0800 
 35 H        2.6150     4.7830    -2.5360 H     1 <1>   0.0800 
 36 H        4.2580     4.3640    -2.1420 H     1 <1>   0.0800 
 37 H        2.1230     6.9420     0.4570 H     1 <1>   0.0800 
 38 H        1.3340     6.3500    -0.9830 H     1 <1>   0.0800 
 39 H        6.3130     7.3480     1.3940 H     1 <1>   0.1500 
 40 H        4.6870    11.2550     1.4380 H     1 <1>   0.1500 
 41 H        1.7060    10.3140    -0.2750 H     1 <1>   0.0800 
 42 H        2.8100    10.7670    -1.5540 H     1 <1>   0.0800 
 43 H        2.7270    11.7210    -0.0910 H     1 <1>   0.0800 
@<TRIPOS>BOND
  1   1   2  1   
  2   1   3  1   
  3   2   4  2   
  4   2   5  1   
  5   3   6  2   
  6   3  25  1   
  7   4   6  1   
  8   4   7  1   
  9   5   8  1   
 10   5  26  1   
 11   5  27  1   
 12   6  28  1   
 13   7   9  1   
 14   7  10  1   
 15   7  11  1   
 16   8   9  1   
 17   8  29  1   
 18   8  30  1   
 19  10  12  1   
 20  10  31  1   
 21  10  32  1   
 22  11  13  1   
 23  11  33  1   
 24  11  34  1   
 25  12  14  1   
 26  12  35  1   
 27  12  36  1   
 28  13  14  1   
 29  13  37  1   
 30  13  38  1   
 31  14  15  am  
 32  15  16  2   
 33  15  17  1   
 34  17  18  1   
 35  17  19  2   
 36  18  20  1   
 37  19  21  1   
 38  19  39  1   
 39  20  22  2   
 40  20  23  1   
 41  21  22  1   
 42  21  24  2   
 43  22  40  1   
 44  23  41  1   
 45  23  42  1   
 46  23  43  1   
@<TRIPOS>SUBSTRUCTURE
  1 ****  13 GROUP 4 **** **** 0

# MOE 2024.06 (io_trps.svl 2023.06)
