@<TRIPOS>MOLECULE
NONAME
41 43 1 0 0 
SMALL
USER_CHARGES


@<TRIPOS>ATOM
  1 O        1.4510     0.2540    -1.3370 O.3   1 <1>  -0.6800 
  2 C        1.4560     0.0460     0.0300 C.3   1 <1>   0.2800 
  3 C        2.8990     0.2100     0.5990 C.3   1 <1>  -0.0800 
  4 C        0.9550    -1.3930     0.2530 C.3   1 <1>  -0.1600 
  5 C        0.4560     1.0520     0.6410 C.3   1 <1>  -0.1600 
  6 C        3.6800    -1.1010     0.7810 C.3   1 <1>  -0.0800 
  7 C        3.8470     1.1000    -0.2150 C.3   1 <1>   0.2090 
  8 C        1.8700    -2.4690    -0.3720 C.3   1 <1>  -0.1600 
  9 C        0.7840     2.5390     0.4120 C.3   1 <1>  -0.2400 
 10 C        3.3620    -2.0890    -0.3530 C.3   1 <1>  -0.1600 
 11 C        5.1510    -0.6780     0.8040 C.3   1 <1>   0.2090 
 12 N        5.2260     0.6260     0.0930 N.pl3 1 <1>  -0.8380 
 13 C        6.3710     1.2270    -0.3330 C.ar  1 <1>   0.1000 
 14 C        6.3490     2.3200    -1.2130 C.ar  1 <1>  -0.1500 
 15 C        7.6360     0.7870     0.0820 C.ar  1 <1>  -0.1500 
 16 C        7.5080     2.9120    -1.6380 C.ar  1 <1>   0.2110 
 17 C        8.7800     1.3980    -0.3600 C.ar  1 <1>   0.2110 
 18 N        8.7100     2.4500    -1.2130 N.ar  1 <1>  -0.1790 
 19 H        0.5650     0.0530    -1.6880 H     1 <1>   0.4000 
 20 H        2.8230     0.6470     1.5780 H     1 <1>   0.0800 
 21 H        0.9100    -1.5660     1.3140 H     1 <1>   0.0800 
 22 H       -0.0470    -1.5090    -0.1220 H     1 <1>   0.0800 
 23 H       -0.5250     0.8540     0.2440 H     1 <1>   0.0800 
 24 H        0.3990     0.8800     1.7020 H     1 <1>   0.0800 
 25 H        3.4300    -1.5660     1.7190 H     1 <1>   0.0800 
 26 H        3.7280     2.1350     0.0530 H     1 <1>   0.0800 
 27 H        3.6890     0.9850    -1.2720 H     1 <1>   0.0800 
 28 H        1.7270    -3.3940     0.1610 H     1 <1>   0.0800 
 29 H        1.5770    -2.6380    -1.3940 H     1 <1>   0.0800 
 30 H        0.8900     2.7490    -0.6380 H     1 <1>   0.0800 
 31 H        1.6910     2.8140     0.9170 H     1 <1>   0.0800 
 32 H       -0.0120     3.1500     0.7990 H     1 <1>   0.0800 
 33 H        3.6160    -1.6290    -1.2940 H     1 <1>   0.0800 
 34 H        3.9590    -2.9790    -0.2560 H     1 <1>   0.0800 
 35 H        5.7760    -1.4140     0.3290 H     1 <1>   0.0800 
 36 H        5.4710    -0.5370     1.8230 H     1 <1>   0.0800 
 37 H        5.4040     2.6940    -1.5620 H     1 <1>   0.1500 
 38 H        7.7040    -0.0410     0.7620 H     1 <1>   0.1500 
 39 H        7.4820     3.7500    -2.3170 H     1 <1>   0.1500 
 40 H        9.7490     1.0540    -0.0370 H     1 <1>   0.1500 
 41 H        9.5720     2.9000    -1.5390 H     1 <1>   0.4570 
@<TRIPOS>BOND
  1   1   2  1   
  2   1  19  1   
  3   2   3  1   
  4   2   4  1   
  5   2   5  1   
  6   3   6  1   
  7   3   7  1   
  8   3  20  1   
  9   4   8  1   
 10   4  21  1   
 11   4  22  1   
 12   5   9  1   
 13   5  23  1   
 14   5  24  1   
 15   6  10  1   
 16   6  11  1   
 17   6  25  1   
 18   7  12  1   
 19   7  26  1   
 20   7  27  1   
 21   8  10  1   
 22   8  28  1   
 23   8  29  1   
 24   9  30  1   
 25   9  31  1   
 26   9  32  1   
 27  10  33  1   
 28  10  34  1   
 29  11  12  1   
 30  11  35  1   
 31  11  36  1   
 32  12  13  1   
 33  13  14  ar  
 34  13  15  ar  
 35  14  16  ar  
 36  14  37  1   
 37  15  17  ar  
 38  15  38  1   
 39  16  18  ar  
 40  16  39  1   
 41  17  18  ar  
 42  17  40  1   
 43  18  41  1   
@<TRIPOS>SUBSTRUCTURE
  1 ****   7 GROUP 4 **** **** 0

# MOE 2024.06 (io_trps.svl 2023.06)
