@<TRIPOS>MOLECULE
NONAME
52 54 1 0 0 
SMALL
USER_CHARGES


@<TRIPOS>ATOM
  1 O       -3.2330    -0.2380    -1.2340 O.2   1 <1>  -0.5700 
  2 C       -2.8520     0.4860    -0.3190 C.2   1 <1>   0.6160 
  3 N       -2.6710     1.8430    -0.5720 N.am  1 <1>  -0.4690 
  4 C       -2.6120    -0.0070     1.0040 C.2   1 <1>   0.0290 
  5 C       -2.2510     2.6920     0.4240 C.2   1 <1>  -0.0410 
  6 C       -2.9140     2.3700    -1.9410 C.3   1 <1>   0.0600 
  7 C       -2.8050    -1.4030     1.2720 C.2   1 <1>   0.6160 
  8 C       -2.1840     0.8650     1.9730 C.2   1 <1>  -0.1500 
  9 C       -2.0060     2.2300     1.6790 C.2   1 <1>  -0.1500 
 10 O       -1.8420    -2.0660     1.6150 O.2   1 <1>  -0.5700 
 11 N       -4.0410    -2.0170     1.2230 N.am  1 <1>  -0.6600 
 12 C       -4.1920    -3.5060     1.2830 C.3   1 <1>   0.1400 
 13 C       -5.3210    -1.3370     0.8580 C.3   1 <1>   0.1400 
 14 C       -4.8820    -4.0420     0.0140 C.3   1 <1>   0.3430 
 15 C       -5.9160    -1.9650    -0.4230 C.3   1 <1>   0.2000 
 16 O       -6.0800    -3.3460    -0.2180 O.3   1 <1>  -0.5600 
 17 C       -5.1770    -5.5330     0.1520 C.ar  1 <1>  -0.1430 
 18 C       -7.2680    -1.3440    -0.8880 C.3   1 <1>   0.0000 
 19 C       -6.3530    -5.9870     0.7350 C.ar  1 <1>  -0.1500 
 20 C       -4.2490    -6.4610    -0.2990 C.ar  1 <1>  -0.1500 
 21 C       -7.7210    -2.0240    -2.1930 C.3   1 <1>  -0.2400 
 22 C       -8.3810    -1.5200     0.1620 C.3   1 <1>  -0.2400 
 23 C       -7.1020     0.1590    -1.1810 C.3   1 <1>  -0.2400 
 24 C       -6.5960    -7.3430     0.8650 C.ar  1 <1>  -0.1500 
 25 C       -4.4900    -7.8180    -0.1700 C.ar  1 <1>  -0.1500 
 26 C       -5.6640    -8.2600     0.4130 C.ar  1 <1>  -0.1500 
 27 H       -2.1200     3.7340     0.1780 H     1 <1>   0.1500 
 28 H       -2.7180     3.4260    -1.9830 H     1 <1>   0.0800 
 29 H       -3.9380     2.1890    -2.2200 H     1 <1>   0.0800 
 30 H       -2.2690     1.8650    -2.6390 H     1 <1>   0.0800 
 31 H       -1.9750     0.5150     2.9710 H     1 <1>   0.1500 
 32 H       -1.6720     2.8900     2.4620 H     1 <1>   0.1500 
 33 H       -3.2350    -3.9860     1.3860 H     1 <1>   0.0800 
 34 H       -4.7820    -3.7690     2.1420 H     1 <1>   0.0800 
 35 H       -6.0160    -1.4520     1.6700 H     1 <1>   0.0800 
 36 H       -5.1630    -0.2860     0.7120 H     1 <1>   0.0800 
 37 H       -4.2410    -3.8850    -0.8360 H     1 <1>   0.0800 
 38 H       -5.2080    -1.8400    -1.2240 H     1 <1>   0.0800 
 39 H       -7.0850    -5.2800     1.0850 H     1 <1>   0.1500 
 40 H       -3.3310    -6.1310    -0.7540 H     1 <1>   0.1500 
 41 H       -8.6350    -1.5880    -2.5560 H     1 <1>   0.0800 
 42 H       -7.8920    -3.0740    -2.0320 H     1 <1>   0.0800 
 43 H       -6.9680    -1.9190    -2.9540 H     1 <1>   0.0800 
 44 H       -9.3150    -1.1400    -0.2130 H     1 <1>   0.0800 
 45 H       -8.1490    -0.9950     1.0700 H     1 <1>   0.0800 
 46 H       -8.5130    -2.5620     0.3950 H     1 <1>   0.0800 
 47 H       -8.0020     0.5590    -1.6130 H     1 <1>   0.0800 
 48 H       -6.2940     0.3190    -1.8740 H     1 <1>   0.0800 
 49 H       -6.8970     0.7130    -0.2830 H     1 <1>   0.0800 
 50 H       -7.5120    -7.6820     1.3170 H     1 <1>   0.1500 
 51 H       -3.7640    -8.5290    -0.5230 H     1 <1>   0.1500 
 52 H       -5.8530    -9.3150     0.5140 H     1 <1>   0.1500 
@<TRIPOS>BOND
  1   1   2  2   
  2   2   3  am  
  3   2   4  1   
  4   3   5  1   
  5   3   6  1   
  6   4   7  1   
  7   4   8  2   
  8   5   9  2   
  9   5  27  1   
 10   6  28  1   
 11   6  29  1   
 12   6  30  1   
 13   7  10  2   
 14   7  11  am  
 15   8   9  1   
 16   8  31  1   
 17   9  32  1   
 18  11  12  1   
 19  11  13  1   
 20  12  14  1   
 21  12  33  1   
 22  12  34  1   
 23  13  15  1   
 24  13  35  1   
 25  13  36  1   
 26  14  16  1   
 27  14  17  1   
 28  14  37  1   
 29  15  16  1   
 30  15  18  1   
 31  15  38  1   
 32  17  19  ar  
 33  17  20  ar  
 34  18  21  1   
 35  18  22  1   
 36  18  23  1   
 37  19  24  ar  
 38  19  39  1   
 39  20  25  ar  
 40  20  40  1   
 41  21  41  1   
 42  21  42  1   
 43  21  43  1   
 44  22  44  1   
 45  22  45  1   
 46  22  46  1   
 47  23  47  1   
 48  23  48  1   
 49  23  49  1   
 50  24  26  ar  
 51  24  50  1   
 52  25  26  ar  
 53  25  51  1   
 54  26  52  1   
@<TRIPOS>SUBSTRUCTURE
  1 ****  11 GROUP 4 **** **** 0

# MOE 2024.06 (io_trps.svl 2023.06)
