@<TRIPOS>MOLECULE
NONAME
47 47 1 0 0 
SMALL
USER_CHARGES


@<TRIPOS>ATOM
  1 SI       0.2420     0.1720    -1.0150 Si    1 <1>   0.5390 
  2 O        0.3240    -1.3970    -0.5300 O.3   1 <1>  -0.5770 
  3 C        0.3460     1.2890     0.4480 C.3   1 <1>  -0.0810 
  4 C        1.5760     0.4960    -2.1900 C.3   1 <1>  -0.3200 
  5 C       -1.3340     0.3760    -1.8690 C.3   1 <1>  -0.3200 
  6 C        1.5040    -2.1220    -0.4420 C.3   1 <1>   0.1200 
  7 C        0.2320     2.7750     0.0580 C.3   1 <1>  -0.2400 
  8 C       -0.7800     1.0080     1.4600 C.3   1 <1>  -0.2400 
  9 C        1.6710     1.1370     1.2190 C.3   1 <1>  -0.2400 
 10 C        1.2070    -3.4990     0.1670 C.3   1 <1>  -0.0800 
 11 C        2.5130    -4.2910     0.3470 C.3   1 <1>  -0.1600 
 12 C        0.2110    -4.3010    -0.6920 C.3   1 <1>  -0.1600 
 13 C        2.2520    -5.6830     0.9370 C.3   1 <1>  -0.1600 
 14 C       -0.0480    -5.6930    -0.1000 C.3   1 <1>  -0.1600 
 15 C        1.2580    -6.4870     0.0780 C.3   1 <1>  -0.0800 
 16 C        0.9500    -7.8640     0.6900 C.3   1 <1>   0.1200 
 17 O        2.1120    -8.6130     0.7790 O.3   1 <1>  -0.6800 
 18 H        2.5480     0.3740    -1.7520 H     1 <1>   0.0800 
 19 H        1.5360     1.4960    -2.5800 H     1 <1>   0.0800 
 20 H        1.5320    -0.1650    -3.0360 H     1 <1>   0.0800 
 21 H       -2.1670     0.1540    -1.2290 H     1 <1>   0.0800 
 22 H       -1.4140    -0.2810    -2.7140 H     1 <1>   0.0800 
 23 H       -1.4760     1.3750    -2.2360 H     1 <1>   0.0800 
 24 H        2.1950    -1.5800     0.1780 H     1 <1>   0.0800 
 25 H        1.9130    -2.2260    -1.4320 H     1 <1>   0.0800 
 26 H       -0.7040     2.9670    -0.4360 H     1 <1>   0.0800 
 27 H        1.0300     3.0540    -0.6080 H     1 <1>   0.0800 
 28 H        0.2860     3.4070     0.9270 H     1 <1>   0.0800 
 29 H       -1.7440     1.1740     1.0130 H     1 <1>   0.0800 
 30 H       -0.6960     1.6450     2.3230 H     1 <1>   0.0800 
 31 H       -0.7370    -0.0160     1.7910 H     1 <1>   0.0800 
 32 H        2.5110     1.3380     0.5770 H     1 <1>   0.0800 
 33 H        1.7680     0.1380     1.6050 H     1 <1>   0.0800 
 34 H        1.7150     1.8180     2.0500 H     1 <1>   0.0800 
 35 H        0.7750    -3.3400     1.1400 H     1 <1>   0.0800 
 36 H        3.1760    -3.7500     1.0000 H     1 <1>   0.0800 
 37 H        3.0030    -4.3990    -0.6060 H     1 <1>   0.0800 
 38 H        0.5970    -4.4020    -1.6910 H     1 <1>   0.0800 
 39 H       -0.7220    -3.7660    -0.7540 H     1 <1>   0.0800 
 40 H        1.8600    -5.5780     1.9340 H     1 <1>   0.0800 
 41 H        3.1860    -6.2140     1.0100 H     1 <1>   0.0800 
 42 H       -0.7170    -6.2320    -0.7500 H     1 <1>   0.0800 
 43 H       -0.5350    -5.5810     0.8540 H     1 <1>   0.0800 
 44 H        1.6840    -6.6390    -0.8990 H     1 <1>   0.0800 
 45 H        0.2500    -8.4070     0.0790 H     1 <1>   0.0800 
 46 H        0.5460    -7.7610     1.6820 H     1 <1>   0.0800 
 47 H        2.5400    -8.6800    -0.0950 H     1 <1>   0.4000 
@<TRIPOS>BOND
  1   1   2  1   
  2   1   3  1   
  3   1   4  1   
  4   1   5  1   
  5   2   6  1   
  6   3   7  1   
  7   3   8  1   
  8   3   9  1   
  9   4  18  1   
 10   4  19  1   
 11   4  20  1   
 12   5  21  1   
 13   5  22  1   
 14   5  23  1   
 15   6  10  1   
 16   6  24  1   
 17   6  25  1   
 18   7  26  1   
 19   7  27  1   
 20   7  28  1   
 21   8  29  1   
 22   8  30  1   
 23   8  31  1   
 24   9  32  1   
 25   9  33  1   
 26   9  34  1   
 27  10  11  1   
 28  10  12  1   
 29  10  35  1   
 30  11  13  1   
 31  11  36  1   
 32  11  37  1   
 33  12  14  1   
 34  12  38  1   
 35  12  39  1   
 36  13  15  1   
 37  13  40  1   
 38  13  41  1   
 39  14  15  1   
 40  14  42  1   
 41  14  43  1   
 42  15  16  1   
 43  15  44  1   
 44  16  17  1   
 45  16  45  1   
 46  16  46  1   
 47  17  47  1   
@<TRIPOS>SUBSTRUCTURE
  1 ****   6 GROUP 4 **** **** 0

# MOE 2024.06 (io_trps.svl 2023.06)
