@<TRIPOS>MOLECULE
NONAME
34 37 1 0 0 
SMALL
USER_CHARGES


@<TRIPOS>ATOM
  1 S       -0.9700    -1.3620    -2.4770 S.3   1 <1>  -0.0800 
  2 C       -0.5920    -2.7760    -1.4940 C.ar  1 <1>   0.2970 
  3 C       -2.3790    -0.9840    -1.4820 C.2   1 <1>  -0.1100 
  4 N        0.4330    -3.5670    -1.7250 N.ar  1 <1>  -0.5670 
  5 C       -1.5100    -2.9150    -0.4840 C.ar  1 <1>   0.0000 
  6 C       -2.5170    -1.8840    -0.4930 C.2   1 <1>  -0.1500 
  7 C        0.5180    -4.5570    -0.8600 C.ar  1 <1>   0.4770 
  8 C       -1.3070    -4.0130     0.3470 C.ar  1 <1>   0.4100 
  9 N       -0.2940    -4.8370     0.1520 N.ar  1 <1>  -0.6200 
 10 C        1.6790    -5.5060    -1.0440 C.3   1 <1>  -0.0960 
 11 N       -2.1650    -4.2840     1.3790 N.pl3 1 <1>  -0.8690 
 12 C       -2.1490    -5.5140     2.2130 C.3   1 <1>   0.3890 
 13 C       -3.2360    -6.4600     1.7420 C.2   1 <1>   0.0070 
 14 N       -4.2640    -6.8320     2.4340 N.2   1 <1>  -0.3380 
 15 N       -3.2500    -7.0210     0.5340 N.pl3 1 <1>   0.0480 
 16 N       -4.9780    -7.6630     1.6630 N.2   1 <1>  -0.3380 
 17 C       -4.3430    -7.7450     0.5480 C.2   1 <1>   0.0060 
 18 C       -2.5080    -7.0890    -0.7240 C.3   1 <1>   0.0960 
 19 C       -4.5640    -8.4800    -0.7450 C.3   1 <1>   0.0200 
 20 C       -3.2650    -8.1730    -1.5240 C.3   1 <1>  -0.1600 
 21 H       -2.9510    -0.1140    -1.7550 H     1 <1>   0.1500 
 22 H       -3.2940    -1.8740     0.2510 H     1 <1>   0.1500 
 23 H        2.4160    -5.0750    -1.6960 H     1 <1>   0.0800 
 24 H        1.3260    -6.4250    -1.4720 H     1 <1>   0.0800 
 25 H        2.1350    -5.7100    -0.0930 H     1 <1>   0.0800 
 26 H       -3.0620    -3.7970     1.4110 H     1 <1>   0.4000 
 27 H       -2.3320    -5.2460     3.2390 H     1 <1>   0.0800 
 28 H       -1.1930    -6.0040     2.1630 H     1 <1>   0.0800 
 29 H       -1.4850    -7.3610    -0.5350 H     1 <1>   0.0800 
 30 H       -2.5580    -6.1320    -1.2120 H     1 <1>   0.0800 
 31 H       -5.4270    -8.0800    -1.2450 H     1 <1>   0.0800 
 32 H       -4.6920    -9.5340    -0.5700 H     1 <1>   0.0800 
 33 H       -2.6570    -9.0600    -1.5800 H     1 <1>   0.0800 
 34 H       -3.4750    -7.8380    -2.5240 H     1 <1>   0.0800 
@<TRIPOS>BOND
  1   1   2  1   
  2   1   3  1   
  3   2   4  ar  
  4   2   5  ar  
  5   3   6  2   
  6   3  21  1   
  7   4   7  ar  
  8   5   6  1   
  9   5   8  ar  
 10   6  22  1   
 11   7   9  ar  
 12   7  10  1   
 13   8   9  ar  
 14   8  11  1   
 15  10  23  1   
 16  10  24  1   
 17  10  25  1   
 18  11  12  1   
 19  11  26  1   
 20  12  13  1   
 21  12  27  1   
 22  12  28  1   
 23  13  14  2   
 24  13  15  1   
 25  14  16  1   
 26  15  17  1   
 27  15  18  1   
 28  16  17  2   
 29  17  19  1   
 30  18  20  1   
 31  18  29  1   
 32  18  30  1   
 33  19  20  1   
 34  19  31  1   
 35  19  32  1   
 36  20  33  1   
 37  20  34  1   
@<TRIPOS>SUBSTRUCTURE
  1 ****   8 GROUP 4 **** **** 0

# MOE 2024.06 (io_trps.svl 2023.06)
