@<TRIPOS>MOLECULE
NONAME
59 63 1 0 0 
SMALL
USER_CHARGES


@<TRIPOS>ATOM
  1 O       -1.5040     1.0190    -2.8000 O.2   1 <1>  -0.5700 
  2 C       -2.3210     1.5480    -2.0700 C.2   1 <1>   0.5440 
  3 N       -3.5950     1.0200    -2.0050 N.am  1 <1>  -0.6600 
  4 C       -1.9250     2.7000    -1.2810 C.ar  1 <1>   0.0860 
  5 C       -4.4830     1.1480    -0.8180 C.3   1 <1>   0.1400 
  6 C       -4.1040     0.0720    -3.0340 C.3   1 <1>   0.1400 
  7 C       -0.7340     2.6950    -0.5600 C.ar  1 <1>  -0.1500 
  8 C       -2.7100     3.8520    -1.2220 C.ar  1 <1>  -0.1500 
  9 C       -4.6370    -0.2270    -0.1650 C.3   1 <1>  -0.1600 
 10 C       -4.2620    -1.3140    -2.4080 C.3   1 <1>  -0.1600 
 11 C       -0.3200     3.7740     0.2120 C.ar  1 <1>   0.0540 
 12 C       -2.3230     4.9400    -0.4630 C.ar  1 <1>  -0.1500 
 13 C       -5.1560    -1.2820    -1.1580 C.3   1 <1>   0.4240 
 14 C        0.9270     3.7250     0.9450 C.2   1 <1>  -0.0540 
 15 C       -1.1390     4.8990     0.2480 C.ar  1 <1>  -0.1500 
 16 O       -6.4190    -0.8600    -1.6180 O.3   1 <1>  -0.5600 
 17 C       -5.2180    -2.6800    -0.5060 C.ar  1 <1>  -0.1430 
 18 C        1.2500     4.3930     2.1320 C.2   1 <1>   0.1390 
 19 C        2.0590     3.0310     0.6630 C.2   1 <1>  -0.3020 
 20 C       -7.5290    -1.1660    -0.8310 C.3   1 <1>   0.1200 
 21 C       -6.4280    -3.3390    -0.3370 C.ar  1 <1>  -0.1430 
 22 C       -4.0560    -3.3070    -0.0680 C.ar  1 <1>  -0.1500 
 23 N        2.4550     4.1460     2.5440 N.2   1 <1>  -0.7070 
 24 N        2.9540     3.2990     1.6280 N.pl3 1 <1>   0.3000 
 25 C       -7.7110    -2.6800    -0.8010 C.3   1 <1>  -0.0170 
 26 C       -6.4680    -4.5900     0.2550 C.ar  1 <1>  -0.1500 
 27 C       -4.0790    -4.5690     0.5190 C.ar  1 <1>   0.0830 
 28 C       -5.3140    -5.2120     0.6970 C.ar  1 <1>   0.0830 
 29 O       -2.9220    -5.1830     0.9040 O.3   1 <1>  -0.3630 
 30 O       -5.5070    -6.4330     1.2740 O.3   1 <1>  -0.3620 
 31 C       -1.6780    -4.8250     0.3430 C.3   1 <1>   0.0400 
 32 C       -4.6490    -6.9100     2.2870 C.3   1 <1>   0.0400 
 33 H       -5.4430     1.5190    -1.1330 H     1 <1>   0.0800 
 34 H       -4.0720     1.8360    -0.1000 H     1 <1>   0.0800 
 35 H       -3.4290     0.0210    -3.8710 H     1 <1>   0.0800 
 36 H       -5.0550     0.4230    -3.3960 H     1 <1>   0.0800 
 37 H       -0.1160     1.8170    -0.6090 H     1 <1>   0.1500 
 38 H       -3.6270     3.8880    -1.7840 H     1 <1>   0.1500 
 39 H       -5.2940    -0.1620     0.6810 H     1 <1>   0.0800 
 40 H       -3.6760    -0.5270     0.2080 H     1 <1>   0.0800 
 41 H       -3.2820    -1.6750    -2.1600 H     1 <1>   0.0800 
 42 H       -4.6850    -1.9930    -3.1250 H     1 <1>   0.0800 
 43 H       -2.9410     5.8210    -0.4290 H     1 <1>   0.1500 
 44 H       -0.8430     5.7540     0.8290 H     1 <1>   0.1500 
 45 H        0.5730     5.0440     2.6570 H     1 <1>   0.1500 
 46 H        2.2650     2.3780    -0.1660 H     1 <1>   0.1500 
 47 H       -8.3880    -0.6930    -1.2730 H     1 <1>   0.0800 
 48 H       -7.3820    -0.7740     0.1600 H     1 <1>   0.0800 
 49 H       -3.1230    -2.7940    -0.1880 H     1 <1>   0.1500 
 50 H        3.9100     2.9270     1.6930 H     1 <1>   0.2700 
 51 H       -7.9640    -3.0310    -1.7850 H     1 <1>   0.0800 
 52 H       -8.5180    -2.9280    -0.1350 H     1 <1>   0.0800 
 53 H       -7.4050    -5.1000     0.3840 H     1 <1>   0.1500 
 54 H       -0.9550    -5.5650     0.6360 H     1 <1>   0.0800 
 55 H       -1.3860    -3.8620     0.7220 H     1 <1>   0.0800 
 56 H       -1.7690    -4.8080    -0.7290 H     1 <1>   0.0800 
 57 H       -5.1620    -7.6870     2.8220 H     1 <1>   0.0800 
 58 H       -4.4060    -6.1000     2.9520 H     1 <1>   0.0800 
 59 H       -3.7610    -7.3080     1.8300 H     1 <1>   0.0800 
@<TRIPOS>BOND
  1   1   2  2   
  2   2   3  am  
  3   2   4  1   
  4   3   5  1   
  5   3   6  1   
  6   4   7  ar  
  7   4   8  ar  
  8   5   9  1   
  9   5  33  1   
 10   5  34  1   
 11   6  10  1   
 12   6  35  1   
 13   6  36  1   
 14   7  11  ar  
 15   7  37  1   
 16   8  12  ar  
 17   8  38  1   
 18   9  13  1   
 19   9  39  1   
 20   9  40  1   
 21  10  13  1   
 22  10  41  1   
 23  10  42  1   
 24  11  14  1   
 25  11  15  ar  
 26  12  15  ar  
 27  12  43  1   
 28  13  16  1   
 29  13  17  1   
 30  14  18  1   
 31  14  19  2   
 32  15  44  1   
 33  16  20  1   
 34  17  21  ar  
 35  17  22  ar  
 36  18  23  2   
 37  18  45  1   
 38  19  24  1   
 39  19  46  1   
 40  20  25  1   
 41  20  47  1   
 42  20  48  1   
 43  21  25  1   
 44  21  26  ar  
 45  22  27  ar  
 46  22  49  1   
 47  23  24  1   
 48  24  50  1   
 49  25  51  1   
 50  25  52  1   
 51  26  28  ar  
 52  26  53  1   
 53  27  28  ar  
 54  27  29  1   
 55  28  30  1   
 56  29  31  1   
 57  30  32  1   
 58  31  54  1   
 59  31  55  1   
 60  31  56  1   
 61  32  57  1   
 62  32  58  1   
 63  32  59  1   
@<TRIPOS>SUBSTRUCTURE
  1 ****   9 GROUP 4 **** **** 0

# MOE 2024.06 (io_trps.svl 2023.06)
