@<TRIPOS>MOLECULE
NONAME
42 41 1 0 0 
SMALL
USER_CHARGES


@<TRIPOS>ATOM
  1 P       -0.4720     0.0890    -0.7210 P.3   1 <1>  -0.5010 
  2 C       -1.0240     1.5390     0.2610 C.3   1 <1>   0.1670 
  3 C       -0.4660    -1.3250     0.4400 C.3   1 <1>   0.0070 
  4 C        1.3080     0.3440    -1.0430 C.3   1 <1>  -0.0730 
  5 C       -0.7960     2.7930    -0.5870 C.3   1 <1>  -0.2400 
  6 C       -2.5240     1.3670     0.5130 C.3   1 <1>  -0.2400 
  7 C       -0.2690     1.6480     1.5900 C.3   1 <1>  -0.2400 
  8 C       -0.2510    -2.6200    -0.3440 C.3   1 <1>   0.0070 
  9 P       -0.2440    -4.0330     0.8170 P.3   1 <1>  -0.5010 
 10 C        0.3080    -5.4830    -0.1650 C.3   1 <1>   0.1670 
 11 C       -2.0240    -4.2890     1.1400 C.3   1 <1>  -0.0730 
 12 C        0.0800    -6.7370     0.6830 C.3   1 <1>  -0.2400 
 13 C       -0.4470    -5.5930    -1.4940 C.3   1 <1>  -0.2400 
 14 C        1.8080    -5.3110    -0.4170 C.3   1 <1>  -0.2400 
 15 H       -1.4120    -1.3520     0.9450 H     1 <1>   0.0800 
 16 H        0.3210    -1.1860     1.1590 H     1 <1>   0.0800 
 17 H        1.4340     1.2260    -1.6440 H     1 <1>   0.0800 
 18 H        1.6800    -0.5070    -1.5840 H     1 <1>   0.0800 
 19 H        1.8390     0.4430    -0.1150 H     1 <1>   0.0800 
 20 H       -1.2570     2.6780    -1.5520 H     1 <1>   0.0800 
 21 H        0.2530     2.9760    -0.7270 H     1 <1>   0.0800 
 22 H       -1.2230     3.6530    -0.1040 H     1 <1>   0.0800 
 23 H       -3.0440     1.2410    -0.4200 H     1 <1>   0.0800 
 24 H       -2.9220     2.2310     1.0120 H     1 <1>   0.0800 
 25 H       -2.7150     0.5070     1.1270 H     1 <1>   0.0800 
 26 H        0.7870     1.7460     1.4270 H     1 <1>   0.0800 
 27 H       -0.4480     0.7890     2.2080 H     1 <1>   0.0800 
 28 H       -0.6030     2.5170     2.1290 H     1 <1>   0.0800 
 29 H        0.6950    -2.5920    -0.8500 H     1 <1>   0.0800 
 30 H       -1.0380    -2.7590    -1.0630 H     1 <1>   0.0800 
 31 H       -2.3970    -3.4380     1.6800 H     1 <1>   0.0800 
 32 H       -2.1500    -5.1710     1.7410 H     1 <1>   0.0800 
 33 H       -2.5550    -4.3880     0.2110 H     1 <1>   0.0800 
 34 H       -0.9680    -6.9210     0.8230 H     1 <1>   0.0800 
 35 H        0.5410    -6.6220     1.6470 H     1 <1>   0.0800 
 36 H        0.5070    -7.5980     0.2000 H     1 <1>   0.0800 
 37 H       -1.5030    -5.6910    -1.3300 H     1 <1>   0.0800 
 38 H       -0.1130    -6.4620    -2.0330 H     1 <1>   0.0800 
 39 H       -0.2690    -4.7330    -2.1120 H     1 <1>   0.0800 
 40 H        2.3280    -5.1850     0.5160 H     1 <1>   0.0800 
 41 H        1.9990    -4.4520    -1.0310 H     1 <1>   0.0800 
 42 H        2.2060    -6.1760    -0.9160 H     1 <1>   0.0800 
@<TRIPOS>BOND
  1   1   2  1   
  2   1   3  1   
  3   1   4  1   
  4   2   5  1   
  5   2   6  1   
  6   2   7  1   
  7   3   8  1   
  8   3  15  1   
  9   3  16  1   
 10   4  17  1   
 11   4  18  1   
 12   4  19  1   
 13   5  20  1   
 14   5  21  1   
 15   5  22  1   
 16   6  23  1   
 17   6  24  1   
 18   6  25  1   
 19   7  26  1   
 20   7  27  1   
 21   7  28  1   
 22   8   9  1   
 23   8  29  1   
 24   8  30  1   
 25   9  10  1   
 26   9  11  1   
 27  10  12  1   
 28  10  13  1   
 29  10  14  1   
 30  11  31  1   
 31  11  32  1   
 32  11  33  1   
 33  12  34  1   
 34  12  35  1   
 35  12  36  1   
 36  13  37  1   
 37  13  38  1   
 38  13  39  1   
 39  14  40  1   
 40  14  41  1   
 41  14  42  1   
@<TRIPOS>SUBSTRUCTURE
  1 ****   3 GROUP 4 **** **** 0

# MOE 2024.06 (io_trps.svl 2023.06)
