@<TRIPOS>MOLECULE
NONAME
45 46 1 0 0 
SMALL
USER_CHARGES


@<TRIPOS>ATOM
  1 S       -0.7990    -0.1370     0.5510 S.o2  1 <1>   1.4470 
  2 O        0.2470    -1.0940     0.2680 O.2   1 <1>  -0.6500 
  3 O       -1.5130    -0.1920     1.8070 O.2   1 <1>  -0.6500 
  4 N       -1.9200    -0.4050    -0.6710 N.am  1 <1>  -0.9140 
  5 C       -0.2260     1.5520     0.2270 C.ar  1 <1>  -0.0090 
  6 C       -3.0050    -1.3200    -0.3480 C.3   1 <1>   0.1960 
  7 C       -1.1010     2.6290     0.3100 C.ar  1 <1>  -0.1500 
  8 C        1.0950     1.8170    -0.1180 C.ar  1 <1>  -0.1500 
  9 C       -2.5050    -2.7640    -0.2630 C.3   1 <1>  -0.1600 
 10 C       -0.6760     3.9220     0.0570 C.ar  1 <1>  -0.1500 
 11 C        1.5260     3.1070    -0.3720 C.ar  1 <1>  -0.1500 
 12 C       -3.6730    -3.7150    -0.0200 C.3   1 <1>   0.2090 
 13 C        0.6410     4.1680    -0.2870 C.ar  1 <1>  -0.1430 
 14 N       -3.1680    -5.1030    -0.0180 N.pl3 1 <1>  -0.8690 
 15 C        1.1110     5.5850    -0.5630 C.3   1 <1>  -0.0970 
 16 C       -4.0160    -6.2010    -0.0170 C.ar  1 <1>   0.4100 
 17 N       -5.3070    -5.9390    -0.1770 N.ar  1 <1>  -0.6200 
 18 C       -3.5270    -7.5170     0.1580 C.ar  1 <1>   0.1670 
 19 C       -6.0640    -7.0200    -0.1500 C.ar  1 <1>   0.1670 
 20 N       -4.2870    -8.5950     0.1920 N.ar  1 <1>  -0.6200 
 21 C       -2.0370    -7.7660     0.3220 C.3   1 <1>  -0.0970 
 22 C       -5.5680    -8.3050     0.0310 C.ar  1 <1>   0.1600 
 23 C       -7.5500    -6.7850    -0.3300 C.3   1 <1>  -0.0970 
 24 H       -1.3690    -0.8220    -1.4190 H     1 <1>   0.4200 
 25 H       -3.7460    -1.2530    -1.1280 H     1 <1>   0.0800 
 26 H       -3.4790    -1.0270     0.5760 H     1 <1>   0.0800 
 27 H       -2.1290     2.4500     0.5760 H     1 <1>   0.1500 
 28 H        1.7970     1.0030    -0.1880 H     1 <1>   0.1500 
 29 H       -1.8080    -2.8650     0.5490 H     1 <1>   0.0800 
 30 H       -2.0250    -3.0330    -1.1870 H     1 <1>   0.0800 
 31 H       -1.3770     4.7360     0.1310 H     1 <1>   0.1500 
 32 H        2.5550     3.2810    -0.6350 H     1 <1>   0.1500 
 33 H       -4.4070    -3.6040    -0.8020 H     1 <1>   0.0800 
 34 H       -4.1440    -3.5050     0.9260 H     1 <1>   0.0800 
 35 H       -2.2920    -5.2250     0.4930 H     1 <1>   0.4000 
 36 H        0.3090     6.1750    -0.9690 H     1 <1>   0.0800 
 37 H        1.9210     5.5820    -1.2700 H     1 <1>   0.0800 
 38 H        1.4490     6.0400     0.3510 H     1 <1>   0.0800 
 39 H       -1.4830    -7.2060    -0.4080 H     1 <1>   0.0800 
 40 H       -1.8160    -8.8100     0.1850 H     1 <1>   0.0800 
 41 H       -1.7290    -7.4760     1.3090 H     1 <1>   0.0800 
 42 H       -6.2540    -9.1330     0.0430 H     1 <1>   0.1500 
 43 H       -7.9060    -6.1360     0.4490 H     1 <1>   0.0800 
 44 H       -8.0980    -7.7080    -0.2930 H     1 <1>   0.0800 
 45 H       -7.7250    -6.3130    -1.2800 H     1 <1>   0.0800 
@<TRIPOS>BOND
  1   1   2  2   
  2   1   3  2   
  3   1   4  am  
  4   1   5  1   
  5   4   6  1   
  6   4  24  1   
  7   5   7  ar  
  8   5   8  ar  
  9   6   9  1   
 10   6  25  1   
 11   6  26  1   
 12   7  10  ar  
 13   7  27  1   
 14   8  11  ar  
 15   8  28  1   
 16   9  12  1   
 17   9  29  1   
 18   9  30  1   
 19  10  13  ar  
 20  10  31  1   
 21  11  13  ar  
 22  11  32  1   
 23  12  14  1   
 24  12  33  1   
 25  12  34  1   
 26  13  15  1   
 27  14  16  1   
 28  14  35  1   
 29  15  36  1   
 30  15  37  1   
 31  15  38  1   
 32  16  17  ar  
 33  16  18  ar  
 34  17  19  ar  
 35  18  20  ar  
 36  18  21  1   
 37  19  22  ar  
 38  19  23  1   
 39  20  22  ar  
 40  21  39  1   
 41  21  40  1   
 42  21  41  1   
 43  22  42  1   
 44  23  43  1   
 45  23  44  1   
 46  23  45  1   
@<TRIPOS>SUBSTRUCTURE
  1 ****   9 GROUP 4 **** **** 0

# MOE 2024.06 (io_trps.svl 2023.06)
