@<TRIPOS>MOLECULE
NONAME
57 60 1 0 0 
SMALL
USER_CHARGES


@<TRIPOS>ATOM
  1 O       -1.0850    -0.2930     0.1410 O.3   1 <1>  -0.3630 
  2 C       -0.7780     1.0100    -0.0960 C.ar  1 <1>   0.0820 
  3 C       -2.2720    -0.8700    -0.3420 C.3   1 <1>   0.1200 
  4 C        0.4180     1.4950     0.4260 C.ar  1 <1>  -0.1440 
  5 C       -1.6020     1.8620    -0.8290 C.ar  1 <1>  -0.1500 
  6 C       -2.2770    -2.3350     0.0980 C.3   1 <1>   0.3430 
  7 C        0.7740     2.8170     0.2090 C.ar  1 <1>  -0.1500 
  8 C        1.3420     0.5930     1.2320 C.3   1 <1>  -0.0960 
  9 C       -1.2340     3.1790    -1.0370 C.ar  1 <1>  -0.1500 
 10 N       -3.4360    -3.1080    -0.4630 N.4   1 <1>  -0.9590 
 11 C       -0.0450     3.6630    -0.5190 C.ar  1 <1>  -0.1430 
 12 C       -4.7360    -2.6920     0.1690 C.3   1 <1>   0.3430 
 13 C       -3.2610    -4.5640    -0.1520 C.3   1 <1>   0.3430 
 14 C        0.3620     5.1080    -0.7480 C.3   1 <1>  -0.0970 
 15 C       -5.0510    -3.7480     1.2320 C.3   1 <1>   0.2000 
 16 C       -4.5240    -5.0250     0.5810 C.3   1 <1>  -0.0800 
 17 O       -4.3050    -3.4530     2.3680 O.3   1 <1>  -0.6800 
 18 C       -4.2740    -6.2250     1.5180 C.3   1 <1>  -0.0170 
 19 C       -3.5530    -7.3390     0.7660 C.ar  1 <1>  -0.1430 
 20 C       -4.2000    -8.1500    -0.1980 C.ar  1 <1>   0.0000 
 21 C       -2.2270    -7.5670     0.9950 C.ar  1 <1>  -0.1500 
 22 C       -3.4070    -9.0890    -0.9030 C.ar  1 <1>   0.3100 
 23 C       -5.5800    -8.0910    -0.5020 C.ar  1 <1>  -0.1500 
 24 C       -1.5410    -8.5410     0.2610 C.ar  1 <1>   0.1600 
 25 N       -2.0840    -9.2650    -0.6640 N.ar  1 <1>  -0.6200 
 26 C       -4.0090    -9.8780    -1.8960 C.ar  1 <1>  -0.1500 
 27 C       -6.1370    -8.8800    -1.4720 C.ar  1 <1>  -0.1500 
 28 C       -5.3420    -9.7810    -2.1830 C.ar  1 <1>  -0.1500 
 29 H       -3.0990    -0.3300     0.0840 H     1 <1>   0.0800 
 30 H       -2.2650    -0.7910    -1.4150 H     1 <1>   0.0800 
 31 H       -2.5300     1.5310    -1.2480 H     1 <1>   0.1500 
 32 H       -2.3050    -2.3780     1.1760 H     1 <1>   0.0800 
 33 H       -1.3560    -2.7850    -0.2350 H     1 <1>   0.0800 
 34 H        1.6980     3.1940     0.6090 H     1 <1>   0.1500 
 35 H        2.2120     1.1280     1.5670 H     1 <1>   0.0800 
 36 H        1.6630    -0.2350     0.6260 H     1 <1>   0.0800 
 37 H        0.8210     0.2140     2.0930 H     1 <1>   0.0800 
 38 H       -1.8760     3.8280    -1.6050 H     1 <1>   0.1500 
 39 H       -3.4740    -2.9780    -1.4840 H     1 <1>   0.4500 
 40 H       -4.6850    -1.7100     0.6100 H     1 <1>   0.0800 
 41 H       -5.5150    -2.7040    -0.5750 H     1 <1>   0.0800 
 42 H       -3.1040    -5.1470    -1.0460 H     1 <1>   0.0800 
 43 H       -2.4130    -4.6980     0.5000 H     1 <1>   0.0800 
 44 H       -0.5040     5.7240    -0.9140 H     1 <1>   0.0800 
 45 H        1.0050     5.1730    -1.6070 H     1 <1>   0.0800 
 46 H        0.8880     5.4890     0.1090 H     1 <1>   0.0800 
 47 H       -6.0960    -3.7800     1.4910 H     1 <1>   0.0800 
 48 H       -5.2280    -5.3240    -0.1740 H     1 <1>   0.0800 
 49 H       -4.6560    -3.9180     3.1580 H     1 <1>   0.4000 
 50 H       -5.2020    -6.5920     1.9220 H     1 <1>   0.0800 
 51 H       -3.6650    -5.9260     2.3540 H     1 <1>   0.0800 
 52 H       -1.6700    -7.0140     1.7310 H     1 <1>   0.1500 
 53 H       -6.2180    -7.4230     0.0440 H     1 <1>   0.1500 
 54 H       -0.4960    -8.6950     0.4730 H     1 <1>   0.1500 
 55 H       -3.3800   -10.5720    -2.4240 H     1 <1>   0.1500 
 56 H       -7.1890    -8.8260    -1.6970 H     1 <1>   0.1500 
 57 H       -5.7900   -10.3940    -2.9460 H     1 <1>   0.1500 
@<TRIPOS>BOND
  1   1   2  1   
  2   1   3  1   
  3   2   4  ar  
  4   2   5  ar  
  5   3   6  1   
  6   3  29  1   
  7   3  30  1   
  8   4   7  ar  
  9   4   8  1   
 10   5   9  ar  
 11   5  31  1   
 12   6  10  1   
 13   6  32  1   
 14   6  33  1   
 15   7  11  ar  
 16   7  34  1   
 17   8  35  1   
 18   8  36  1   
 19   8  37  1   
 20   9  11  ar  
 21   9  38  1   
 22  10  12  1   
 23  10  13  1   
 24  10  39  1   
 25  11  14  1   
 26  12  15  1   
 27  12  40  1   
 28  12  41  1   
 29  13  16  1   
 30  13  42  1   
 31  13  43  1   
 32  14  44  1   
 33  14  45  1   
 34  14  46  1   
 35  15  16  1   
 36  15  17  1   
 37  15  47  1   
 38  16  18  1   
 39  16  48  1   
 40  17  49  1   
 41  18  19  1   
 42  18  50  1   
 43  18  51  1   
 44  19  20  ar  
 45  19  21  ar  
 46  20  22  ar  
 47  20  23  ar  
 48  21  24  ar  
 49  21  52  1   
 50  22  25  ar  
 51  22  26  ar  
 52  23  27  ar  
 53  23  53  1   
 54  24  25  ar  
 55  24  54  1   
 56  26  28  ar  
 57  26  55  1   
 58  27  28  ar  
 59  27  56  1   
 60  28  57  1   
@<TRIPOS>SUBSTRUCTURE
  1 ****  10 GROUP 4 **** **** 0

# MOE 2024.06 (io_trps.svl 2023.06)
