@<TRIPOS>MOLECULE
NONAME
24 25 1 0 0 
SMALL
USER_CHARGES


@<TRIPOS>ATOM
  1 N       -0.6820     0.1070     0.3270 N.1   1 <1>   0.6880 
  2 N       -1.8580     0.5430     0.3000 N.2   1 <1>  -0.5640 
  3 N        0.4800    -0.2980     0.3390 N.1   1 <1>  -0.3700 
  4 C       -2.1120     1.8270    -0.3330 C.3   1 <1>   0.1660 
  5 C       -2.6850     2.8030     0.7160 C.3   1 <1>  -0.1600 
  6 C       -3.0720     1.6240    -1.5230 C.3   1 <1>  -0.1600 
  7 C       -4.2130     2.7260     0.8840 C.3   1 <1>   0.4230 
  8 C       -4.5640     1.6560    -1.1460 C.3   1 <1>   0.4230 
  9 N       -4.8000     2.9270    -0.4480 N.4   1 <1>  -0.9060 
 10 C       -4.7240     1.3340     1.2570 C.3   1 <1>  -0.1600 
 11 C       -4.9560     0.6250    -0.0870 C.3   1 <1>  -0.1600 
 12 H       -1.1760     2.2210    -0.7020 H     1 <1>   0.0800 
 13 H       -2.4350     3.8070     0.4230 H     1 <1>   0.0800 
 14 H       -2.2080     2.6380     1.6670 H     1 <1>   0.0800 
 15 H       -2.8440     0.6960    -2.0200 H     1 <1>   0.0800 
 16 H       -2.8960     2.4030    -2.2430 H     1 <1>   0.0800 
 17 H       -4.5530     3.4700     1.5880 H     1 <1>   0.0800 
 18 H       -5.1780     1.5650    -2.0290 H     1 <1>   0.0800 
 19 H       -4.3770     3.7200    -0.9380 H     1 <1>   0.4500 
 20 H       -5.8090     3.0820    -0.3550 H     1 <1>   0.4500 
 21 H       -5.6510     1.4200     1.7980 H     1 <1>   0.0800 
 22 H       -4.0240     0.8070     1.8830 H     1 <1>   0.0800 
 23 H       -4.3800    -0.2790    -0.1790 H     1 <1>   0.0800 
 24 H       -5.9950     0.3680    -0.1980 H     1 <1>   0.0800 
@<TRIPOS>BOND
  1   1   2  2   
  2   1   3  3   
  3   2   4  1   
  4   4   5  1   
  5   4   6  1   
  6   4  12  1   
  7   5   7  1   
  8   5  13  1   
  9   5  14  1   
 10   6   8  1   
 11   6  15  1   
 12   6  16  1   
 13   7   9  1   
 14   7  10  1   
 15   7  17  1   
 16   8   9  1   
 17   8  11  1   
 18   8  18  1   
 19   9  19  1   
 20   9  20  1   
 21  10  11  1   
 22  10  21  1   
 23  10  22  1   
 24  11  23  1   
 25  11  24  1   
@<TRIPOS>SUBSTRUCTURE
  1 ****   4 GROUP 4 **** **** 0

# MOE 2024.06 (io_trps.svl 2023.06)
