@<TRIPOS>MOLECULE
NONAME
37 38 1 0 0 
SMALL
USER_CHARGES


@<TRIPOS>ATOM
  1 O       -0.7840     0.2200     1.6710 O.2   1 <1>  -0.5700 
  2 C       -1.3740     0.7490     0.7610 C.2   1 <1>   0.5690 
  3 N       -2.2100     0.0450    -0.0400 N.am  1 <1>  -0.7300 
  4 C       -1.1700     2.2420     0.5130 C.3   1 <1>  -0.0190 
  5 C       -2.4920    -1.3840     0.1220 C.3   1 <1>   0.3200 
  6 C       -2.4880     3.0330     0.6240 C.3   1 <1>  -0.1600 
  7 C       -0.4590     2.5180    -0.8340 C.3   1 <1>  -0.1600 
  8 C       -3.8270    -1.6990    -0.5220 C.2   1 <1>  -0.3320 
  9 C       -2.2550     4.5570     0.5470 C.3   1 <1>   0.2000 
 10 C       -0.6840     3.9460    -1.3720 C.3   1 <1>  -0.1600 
 11 N       -4.2200    -2.9660    -0.7730 N.pl3 1 <1>   0.3000 
 12 C       -4.8340    -0.8980    -0.9410 C.2   1 <1>  -0.1500 
 13 O       -3.3730     5.1330    -0.0830 O.3   1 <1>  -0.5600 
 14 C       -0.9730     4.9360    -0.2410 C.3   1 <1>   0.2000 
 15 N       -5.4360    -3.0080    -1.3460 N.2   1 <1>  -0.7070 
 16 C       -5.7980    -1.7660    -1.4410 C.2   1 <1>   0.1390 
 17 C       -4.4640     5.3690     0.7520 C.3   1 <1>   0.0400 
 18 O       -1.1350     6.1870    -0.7990 O.3   1 <1>  -0.6800 
 19 H       -2.6830     0.4880    -0.8260 H     1 <1>   0.3700 
 20 H       -0.5240     2.5930     1.3000 H     1 <1>   0.0800 
 21 H       -1.7060    -1.9470    -0.3520 H     1 <1>   0.0800 
 22 H       -2.5130    -1.6360     1.1700 H     1 <1>   0.0800 
 23 H       -2.9680     2.7970     1.5570 H     1 <1>   0.0800 
 24 H       -3.1390     2.7320    -0.1780 H     1 <1>   0.0800 
 25 H        0.5960     2.3510    -0.6960 H     1 <1>   0.0800 
 26 H       -0.7920     1.8210    -1.5840 H     1 <1>   0.0800 
 27 H       -2.1620     4.9690     1.5380 H     1 <1>   0.0800 
 28 H       -1.5270     3.9390    -2.0410 H     1 <1>   0.0800 
 29 H        0.1830     4.2640    -1.9250 H     1 <1>   0.0800 
 30 H       -3.6900    -3.8230    -0.5700 H     1 <1>   0.2700 
 31 H       -4.9190     0.1730    -0.9090 H     1 <1>   0.1500 
 32 H       -0.1250     4.9780     0.4210 H     1 <1>   0.0800 
 33 H       -6.7410    -1.4560    -1.8610 H     1 <1>   0.1500 
 34 H       -5.2500     5.8040     0.1600 H     1 <1>   0.0800 
 35 H       -4.1750     6.0570     1.5280 H     1 <1>   0.0800 
 36 H       -4.8040     4.4400     1.1750 H     1 <1>   0.0800 
 37 H       -2.0990     6.2770    -0.9770 H     1 <1>   0.4000 
@<TRIPOS>BOND
  1   1   2  2   
  2   2   3  am  
  3   2   4  1   
  4   3   5  1   
  5   3  19  1   
  6   4   6  1   
  7   4   7  1   
  8   4  20  1   
  9   5   8  1   
 10   5  21  1   
 11   5  22  1   
 12   6   9  1   
 13   6  23  1   
 14   6  24  1   
 15   7  10  1   
 16   7  25  1   
 17   7  26  1   
 18   8  11  1   
 19   8  12  2   
 20   9  13  1   
 21   9  14  1   
 22   9  27  1   
 23  10  14  1   
 24  10  28  1   
 25  10  29  1   
 26  11  15  1   
 27  11  30  1   
 28  12  16  1   
 29  12  31  1   
 30  13  17  1   
 31  14  18  1   
 32  14  32  1   
 33  15  16  2   
 34  16  33  1   
 35  17  34  1   
 36  17  35  1   
 37  17  36  1   
 38  18  37  1   
@<TRIPOS>SUBSTRUCTURE
  1 ****   3 GROUP 4 **** **** 0

# MOE 2024.06 (io_trps.svl 2023.06)
