@<TRIPOS>MOLECULE
NONAME
51 54 1 0 0 
SMALL
USER_CHARGES


@<TRIPOS>ATOM
  1 O       -1.9350     0.5740    -1.9400 O.2   1 <1>  -0.5700 
  2 C       -2.0120    -0.3660    -1.1810 C.2   1 <1>   0.5690 
  3 N       -2.0660    -0.2040     0.1780 N.am  1 <1>  -0.6600 
  4 C       -1.9910    -1.7620    -1.7820 C.3   1 <1>  -0.0190 
  5 C       -2.1720    -1.3820     1.0930 C.3   1 <1>   0.2200 
  6 C       -2.1680     1.1380     0.8110 C.3   1 <1>   0.0600 
  7 C       -0.7360    -2.5260    -1.3350 C.3   1 <1>   0.1200 
  8 C       -3.2980    -2.5530    -1.5680 C.3   1 <1>   0.1100 
  9 C       -0.9030    -2.2570     1.0130 C.3   1 <1>   0.1200 
 10 C       -3.4750    -2.2030     0.8860 C.3   1 <1>   0.1100 
 11 O       -0.8980    -3.1220    -0.0850 O.3   1 <1>  -0.5600 
 12 N       -4.1230    -2.0690    -0.4430 N.3   1 <1>  -0.8100 
 13 C       -5.5010    -2.5870    -0.4720 C.3   1 <1>   0.2530 
 14 C       -5.5710    -4.0840    -0.2170 C.ar  1 <1>  -0.1440 
 15 C       -5.4810    -4.9980    -1.2400 C.ar  1 <1>   0.1600 
 16 C       -5.7430    -4.5930     1.0480 C.ar  1 <1>   0.1600 
 17 N       -5.5480    -6.2910    -1.0370 N.ar  1 <1>  -0.6200 
 18 N       -5.8120    -5.8790     1.2870 N.ar  1 <1>  -0.6200 
 19 C       -5.7240    -6.6870     0.2270 C.ar  1 <1>   0.6200 
 20 C       -5.7870    -8.1080     0.4700 C.ar  1 <1>   0.0000 
 21 C       -7.0070    -8.7920     0.5260 C.ar  1 <1>   0.0820 
 22 C       -4.6130    -8.8370     0.6560 C.ar  1 <1>  -0.1500 
 23 O       -8.1410    -8.0700     0.3390 O.3   1 <1>  -0.3630 
 24 C       -7.0290   -10.1640     0.7660 C.ar  1 <1>  -0.1500 
 25 C       -4.6390   -10.1980     0.8930 C.ar  1 <1>  -0.1500 
 26 C       -9.4250    -8.6490     0.3840 C.3   1 <1>   0.0400 
 27 C       -5.8500   -10.8630     0.9480 C.ar  1 <1>  -0.1500 
 28 H       -1.8820    -1.6300    -2.8420 H     1 <1>   0.0800 
 29 H       -2.1990    -1.0080     2.1010 H     1 <1>   0.0800 
 30 H       -1.3760     1.2650     1.5280 H     1 <1>   0.0800 
 31 H       -3.1190     1.2330     1.3050 H     1 <1>   0.0800 
 32 H       -2.0890     1.9150     0.0710 H     1 <1>   0.0800 
 33 H        0.1260    -1.8800    -1.3110 H     1 <1>   0.0800 
 34 H       -0.5410    -3.3230    -2.0310 H     1 <1>   0.0800 
 35 H       -3.0720    -3.5980    -1.4340 H     1 <1>   0.0800 
 36 H       -3.8780    -2.4590    -2.4700 H     1 <1>   0.0800 
 37 H       -0.8570    -2.8800     1.8880 H     1 <1>   0.0800 
 38 H       -0.0180    -1.6460     0.9880 H     1 <1>   0.0800 
 39 H       -4.1740    -1.8690     1.6320 H     1 <1>   0.0800 
 40 H       -3.2720    -3.2420     1.0860 H     1 <1>   0.0800 
 41 H       -6.0830    -2.0680     0.2700 H     1 <1>   0.0800 
 42 H       -5.9410    -2.3620    -1.4290 H     1 <1>   0.0800 
 43 H       -5.3500    -4.6600    -2.2530 H     1 <1>   0.1500 
 44 H       -5.8260    -3.9260     1.8880 H     1 <1>   0.1500 
 45 H       -3.6700    -8.3190     0.6120 H     1 <1>   0.1500 
 46 H       -7.9530   -10.7070     0.8130 H     1 <1>   0.1500 
 47 H       -3.7190   -10.7380     1.0340 H     1 <1>   0.1500 
 48 H      -10.1470    -7.8720     0.2120 H     1 <1>   0.0800 
 49 H       -9.5780    -9.0810     1.3580 H     1 <1>   0.0800 
 50 H       -9.4990    -9.3950    -0.3870 H     1 <1>   0.0800 
 51 H       -5.8720   -11.9230     1.1330 H     1 <1>   0.1500 
@<TRIPOS>BOND
  1   1   2  2   
  2   2   3  am  
  3   2   4  1   
  4   3   5  1   
  5   3   6  1   
  6   4   7  1   
  7   4   8  1   
  8   4  28  1   
  9   5   9  1   
 10   5  10  1   
 11   5  29  1   
 12   6  30  1   
 13   6  31  1   
 14   6  32  1   
 15   7  11  1   
 16   7  33  1   
 17   7  34  1   
 18   8  12  1   
 19   8  35  1   
 20   8  36  1   
 21   9  11  1   
 22   9  37  1   
 23   9  38  1   
 24  10  12  1   
 25  10  39  1   
 26  10  40  1   
 27  12  13  1   
 28  13  14  1   
 29  13  41  1   
 30  13  42  1   
 31  14  15  ar  
 32  14  16  ar  
 33  15  17  ar  
 34  15  43  1   
 35  16  18  ar  
 36  16  44  1   
 37  17  19  ar  
 38  18  19  ar  
 39  19  20  1   
 40  20  21  ar  
 41  20  22  ar  
 42  21  23  1   
 43  21  24  ar  
 44  22  25  ar  
 45  22  45  1   
 46  23  26  1   
 47  24  27  ar  
 48  24  46  1   
 49  25  27  ar  
 50  25  47  1   
 51  26  48  1   
 52  26  49  1   
 53  26  50  1   
 54  27  51  1   
@<TRIPOS>SUBSTRUCTURE
  1 ****  14 GROUP 4 **** **** 0

# MOE 2024.06 (io_trps.svl 2023.06)
