@<TRIPOS>MOLECULE
NONAME
53 55 1 0 0 
SMALL
USER_CHARGES


@<TRIPOS>ATOM
  1 O       -0.3890    -0.7970    -1.7450 O.2   1 <1>  -0.5700 
  2 C       -1.3100    -1.0740    -1.0140 C.2   1 <1>   0.5690 
  3 N       -1.6050    -0.3370     0.0950 N.am  1 <1>  -0.6600 
  4 C       -2.1430    -2.2870    -1.3640 C.3   1 <1>  -0.0190 
  5 C       -2.8060    -0.6220     0.9310 C.3   1 <1>   0.2200 
  6 C       -0.7870     0.8420     0.4990 C.3   1 <1>   0.0600 
  7 C       -2.0480    -3.3470    -0.2510 C.3   1 <1>   0.1200 
  8 C       -3.5480    -1.8770    -1.8490 C.3   1 <1>   0.1400 
  9 C       -2.6980    -2.0020     1.6330 C.3   1 <1>   0.1200 
 10 C       -4.1030    -0.3720     0.1270 C.3   1 <1>   0.1400 
 11 O       -2.9170    -3.1230     0.8160 O.3   1 <1>  -0.5600 
 12 N       -4.5160    -1.5040    -0.7670 N.am  1 <1>  -0.6600 
 13 C       -5.6530    -2.2180    -0.4640 C.2   1 <1>   0.5690 
 14 O       -6.4620    -1.8050     0.3350 O.2   1 <1>  -0.5700 
 15 C       -5.9250    -3.5610    -1.1350 C.3   1 <1>  -0.0990 
 16 C       -7.0970    -4.3580    -0.5300 C.3   1 <1>  -0.1600 
 17 C       -7.2790    -5.7120    -1.2260 C.3   1 <1>  -0.0170 
 18 C       -8.4440    -6.4780    -0.6190 C.ar  1 <1>  -0.1440 
 19 C       -8.2470    -7.2890     0.4870 C.ar  1 <1>  -0.1500 
 20 C       -9.7140    -6.3730    -1.1630 C.ar  1 <1>  -0.1500 
 21 C       -9.3060    -7.9900     1.0390 C.ar  1 <1>  -0.1500 
 22 C      -10.7730    -7.0740    -0.6110 C.ar  1 <1>  -0.1500 
 23 C      -10.5760    -7.8870     0.4940 C.ar  1 <1>  -0.1440 
 24 C      -11.7380    -8.6550     1.1010 C.3   1 <1>  -0.0170 
 25 C      -11.8690   -10.0340     0.4510 C.3   1 <1>  -0.2400 
 26 H       -1.6560    -2.7220    -2.2170 H     1 <1>   0.0800 
 27 H       -2.8090     0.1070     1.7220 H     1 <1>   0.0800 
 28 H       -0.4330     0.7130     1.5060 H     1 <1>   0.0800 
 29 H       -1.3840     1.7360     0.4420 H     1 <1>   0.0800 
 30 H        0.0650     0.9590    -0.1490 H     1 <1>   0.0800 
 31 H       -1.0440    -3.4080     0.1350 H     1 <1>   0.0800 
 32 H       -2.3100    -4.3080    -0.6570 H     1 <1>   0.0800 
 33 H       -3.9460    -2.6820    -2.4380 H     1 <1>   0.0800 
 34 H       -3.4480    -1.0350    -2.5140 H     1 <1>   0.0800 
 35 H       -3.4470    -2.0480     2.4030 H     1 <1>   0.0800 
 36 H       -1.7350    -2.1050     2.0990 H     1 <1>   0.0800 
 37 H       -3.9890     0.5190    -0.4630 H     1 <1>   0.0800 
 38 H       -4.8850    -0.1720     0.8380 H     1 <1>   0.0800 
 39 H       -6.1250    -3.3810    -2.1750 H     1 <1>   0.0800 
 40 H       -5.0340    -4.1560    -1.0520 H     1 <1>   0.0800 
 41 H       -6.9130    -4.5180     0.5190 H     1 <1>   0.0800 
 42 H       -8.0040    -3.7860    -0.6190 H     1 <1>   0.0800 
 43 H       -6.3810    -6.2960    -1.1280 H     1 <1>   0.0800 
 44 H       -7.4590    -5.5610    -2.2760 H     1 <1>   0.0800 
 45 H       -7.2690    -7.3780     0.9240 H     1 <1>   0.1500 
 46 H       -9.8850    -5.7440    -2.0180 H     1 <1>   0.1500 
 47 H       -9.1350    -8.6160     1.8960 H     1 <1>   0.1500 
 48 H      -11.7520    -6.9840    -1.0460 H     1 <1>   0.1500 
 49 H      -11.5840    -8.7670     2.1600 H     1 <1>   0.0800 
 50 H      -12.6500    -8.1010     0.9610 H     1 <1>   0.0800 
 51 H      -10.9660   -10.6000     0.6000 H     1 <1>   0.0800 
 52 H      -12.0390    -9.9300    -0.6060 H     1 <1>   0.0800 
 53 H      -12.6920   -10.5730     0.8850 H     1 <1>   0.0800 
@<TRIPOS>BOND
  1   1   2  2   
  2   2   3  am  
  3   2   4  1   
  4   3   5  1   
  5   3   6  1   
  6   4   7  1   
  7   4   8  1   
  8   4  26  1   
  9   5   9  1   
 10   5  10  1   
 11   5  27  1   
 12   6  28  1   
 13   6  29  1   
 14   6  30  1   
 15   7  11  1   
 16   7  31  1   
 17   7  32  1   
 18   8  12  1   
 19   8  33  1   
 20   8  34  1   
 21   9  11  1   
 22   9  35  1   
 23   9  36  1   
 24  10  12  1   
 25  10  37  1   
 26  10  38  1   
 27  12  13  am  
 28  13  14  2   
 29  13  15  1   
 30  15  16  1   
 31  15  39  1   
 32  15  40  1   
 33  16  17  1   
 34  16  41  1   
 35  16  42  1   
 36  17  18  1   
 37  17  43  1   
 38  17  44  1   
 39  18  19  ar  
 40  18  20  ar  
 41  19  21  ar  
 42  19  45  1   
 43  20  22  ar  
 44  20  46  1   
 45  21  23  ar  
 46  21  47  1   
 47  22  23  ar  
 48  22  48  1   
 49  23  24  1   
 50  24  25  1   
 51  24  49  1   
 52  24  50  1   
 53  25  51  1   
 54  25  52  1   
 55  25  53  1   
@<TRIPOS>SUBSTRUCTURE
  1 ****  15 GROUP 4 **** **** 0

# MOE 2024.06 (io_trps.svl 2023.06)
