@<TRIPOS>MOLECULE
NONAME
38 40 1 0 0 
SMALL
USER_CHARGES


@<TRIPOS>ATOM
  1 F       -1.8010     0.3450     0.4930 F     1 <1>  -0.3400 
  2 C       -1.9880    -0.8070     1.1350 C.3   1 <1>   1.1640 
  3 F       -0.8780    -1.0100     1.8380 F     1 <1>  -0.3400 
  4 F       -2.9530    -0.5700     2.0190 F     1 <1>  -0.3400 
  5 C       -2.3210    -1.9840     0.1780 C.ar  1 <1>   0.1660 
  6 N       -2.5580    -3.1910     0.6750 N.ar  1 <1>  -0.6200 
  7 C       -2.3740    -1.7830    -1.1900 C.ar  1 <1>  -0.1500 
  8 C       -2.8380    -4.1510    -0.1890 C.ar  1 <1>   0.7200 
  9 C       -2.6760    -2.8550    -1.9950 C.ar  1 <1>   0.1600 
 10 N       -2.9120    -4.0460    -1.5080 N.ar  1 <1>  -0.6200 
 11 N       -3.0820    -5.3520     0.3710 N.pl3 1 <1>  -0.8690 
 12 C       -3.3090    -6.6350    -0.3340 C.3   1 <1>   0.2890 
 13 C       -4.7670    -7.0560    -0.2480 C.3   1 <1>  -0.0800 
 14 C       -2.6430    -7.7630     0.4460 C.3   1 <1>   0.1200 
 15 C       -4.8420    -7.7320     1.1230 C.3   1 <1>   0.1200 
 16 C       -5.8040    -5.9370    -0.4580 C.3   1 <1>  -0.0160 
 17 O       -3.5400    -8.1220     1.4560 O.3   1 <1>  -0.5600 
 18 C       -7.2210    -6.4870    -0.3910 C.ar  1 <1>  -0.1430 
 19 C       -7.9990    -6.3630     0.7420 C.ar  1 <1>  -0.1500 
 20 C       -7.8000    -7.1400    -1.4600 C.ar  1 <1>  -0.1500 
 21 C       -9.2800    -6.8890     0.7530 C.ar  1 <1>   0.1600 
 22 C       -9.0910    -7.6290    -1.3450 C.ar  1 <1>   0.1600 
 23 N       -9.8450    -7.5210    -0.2630 N.ar  1 <1>  -0.6200 
 24 H       -2.1880    -0.8220    -1.6350 H     1 <1>   0.1500 
 25 H       -2.7230    -2.7280    -3.0640 H     1 <1>   0.1500 
 26 H       -2.9970    -5.3990     1.3860 H     1 <1>   0.4000 
 27 H       -2.9500    -6.5860    -1.3490 H     1 <1>   0.0800 
 28 H       -4.9350    -7.8160    -0.9910 H     1 <1>   0.0800 
 29 H       -1.7040    -7.4680     0.8810 H     1 <1>   0.0800 
 30 H       -2.5000    -8.6230    -0.1840 H     1 <1>   0.0800 
 31 H       -5.4800    -8.5980     1.1130 H     1 <1>   0.0800 
 32 H       -5.1740    -7.0430     1.8800 H     1 <1>   0.0800 
 33 H       -5.6440    -5.4770    -1.4180 H     1 <1>   0.0800 
 34 H       -5.6860    -5.1700     0.2880 H     1 <1>   0.0800 
 35 H       -7.6220    -5.8640     1.6160 H     1 <1>   0.1500 
 36 H       -7.2610    -7.2720    -2.3800 H     1 <1>   0.1500 
 37 H       -9.8720    -6.7820     1.6460 H     1 <1>   0.1500 
 38 H       -9.5270    -8.1360    -2.1890 H     1 <1>   0.1500 
@<TRIPOS>BOND
  1   1   2  1   
  2   2   3  1   
  3   2   4  1   
  4   2   5  1   
  5   5   6  ar  
  6   5   7  ar  
  7   6   8  ar  
  8   7   9  ar  
  9   7  24  1   
 10   8  10  ar  
 11   8  11  1   
 12   9  10  ar  
 13   9  25  1   
 14  11  12  1   
 15  11  26  1   
 16  12  13  1   
 17  12  14  1   
 18  12  27  1   
 19  13  15  1   
 20  13  16  1   
 21  13  28  1   
 22  14  17  1   
 23  14  29  1   
 24  14  30  1   
 25  15  17  1   
 26  15  31  1   
 27  15  32  1   
 28  16  18  1   
 29  16  33  1   
 30  16  34  1   
 31  18  19  ar  
 32  18  20  ar  
 33  19  21  ar  
 34  19  35  1   
 35  20  22  ar  
 36  20  36  1   
 37  21  23  ar  
 38  21  37  1   
 39  22  23  ar  
 40  22  38  1   
@<TRIPOS>SUBSTRUCTURE
  1 ****  11 GROUP 4 **** **** 0

# MOE 2024.06 (io_trps.svl 2023.06)
