@<TRIPOS>MOLECULE
NONAME
46 48 1 0 0 
SMALL
USER_CHARGES


@<TRIPOS>ATOM
  1 O       -1.7270     0.9180    -3.0770 O.2   1 <1>  -0.5700 
  2 C       -1.8790     1.1010    -1.8840 C.2   1 <1>   0.5440 
  3 N       -2.3480     0.0610    -1.1410 N.am  1 <1>  -0.7300 
  4 C       -1.5660     2.3830    -1.2720 C.ar  1 <1>   0.0860 
  5 C       -2.4680    -1.3400    -1.5990 C.3   1 <1>   0.2200 
  6 C       -1.2560     2.5450     0.0920 C.ar  1 <1>   0.0820 
  7 C       -1.5740     3.5350    -2.0610 C.ar  1 <1>  -0.1500 
  8 C       -3.5230    -2.0870    -0.7950 C.3   1 <1>  -0.0800 
  9 C       -1.2150    -2.1010    -1.1870 C.3   1 <1>   0.1200 
 10 O       -1.1930     1.4790     0.9220 O.3   1 <1>  -0.3630 
 11 C       -1.0130     3.8060     0.6350 C.ar  1 <1>  -0.1440 
 12 C       -1.3150     4.7830    -1.5330 C.ar  1 <1>  -0.1500 
 13 C       -2.7550    -2.5230     0.4590 C.3   1 <1>   0.1200 
 14 C       -4.8210    -1.3100    -0.5060 C.3   1 <1>  -0.0170 
 15 O       -1.3930    -2.3980     0.1670 O.3   1 <1>  -0.5600 
 16 C        0.0230     0.7610     0.9520 C.3   1 <1>   0.0400 
 17 C       -1.0400     4.9200    -0.1850 C.ar  1 <1>  -0.1500 
 18 C       -0.7180     3.9830     2.1180 C.3   1 <1>  -0.0970 
 19 C       -5.8220    -2.1860     0.2300 C.ar  1 <1>  -0.1430 
 20 C       -6.0080    -2.1010     1.5950 C.ar  1 <1>  -0.1500 
 21 C       -6.5980    -3.1150    -0.4330 C.ar  1 <1>  -0.1500 
 22 C       -6.9290    -2.9290     2.2140 C.ar  1 <1>   0.1600 
 23 C       -7.4920    -3.8960     0.2810 C.ar  1 <1>   0.1600 
 24 N       -7.6740    -3.8270     1.5900 N.ar  1 <1>  -0.6200 
 25 H       -2.2600     0.1650    -0.1240 H     1 <1>   0.3700 
 26 H       -2.6410    -1.3810    -2.6620 H     1 <1>   0.0800 
 27 H       -1.7930     3.4440    -3.1120 H     1 <1>   0.1500 
 28 H       -3.7790    -2.9780    -1.3400 H     1 <1>   0.0800 
 29 H       -0.3170    -1.5260    -1.3230 H     1 <1>   0.0800 
 30 H       -1.1400    -3.0310    -1.7220 H     1 <1>   0.0800 
 31 H       -1.3300     5.6520    -2.1690 H     1 <1>   0.1500 
 32 H       -2.9660    -3.5450     0.7210 H     1 <1>   0.0800 
 33 H       -2.9660    -1.8820     1.2970 H     1 <1>   0.0800 
 34 H       -5.2520    -0.9780    -1.4340 H     1 <1>   0.0800 
 35 H       -4.6140    -0.4340     0.0840 H     1 <1>   0.0800 
 36 H       -0.1140    -0.1130     1.5650 H     1 <1>   0.0800 
 37 H        0.7890     1.3900     1.3690 H     1 <1>   0.0800 
 38 H        0.2880     0.4670    -0.0480 H     1 <1>   0.0800 
 39 H       -0.8470     5.8990     0.2170 H     1 <1>   0.1500 
 40 H       -0.7710     5.0180     2.4020 H     1 <1>   0.0800 
 41 H        0.2670     3.6160     2.3430 H     1 <1>   0.0800 
 42 H       -1.4340     3.4360     2.7050 H     1 <1>   0.0800 
 43 H       -5.4460    -1.3990     2.1840 H     1 <1>   0.1500 
 44 H       -6.5170    -3.2400    -1.4970 H     1 <1>   0.1500 
 45 H       -7.0610    -2.8490     3.2800 H     1 <1>   0.1500 
 46 H       -8.0890    -4.6160    -0.2520 H     1 <1>   0.1500 
@<TRIPOS>BOND
  1   1   2  2   
  2   2   3  am  
  3   2   4  1   
  4   3   5  1   
  5   3  25  1   
  6   4   6  ar  
  7   4   7  ar  
  8   5   8  1   
  9   5   9  1   
 10   5  26  1   
 11   6  10  1   
 12   6  11  ar  
 13   7  12  ar  
 14   7  27  1   
 15   8  13  1   
 16   8  14  1   
 17   8  28  1   
 18   9  15  1   
 19   9  29  1   
 20   9  30  1   
 21  10  16  1   
 22  11  17  ar  
 23  11  18  1   
 24  12  17  ar  
 25  12  31  1   
 26  13  15  1   
 27  13  32  1   
 28  13  33  1   
 29  14  19  1   
 30  14  34  1   
 31  14  35  1   
 32  16  36  1   
 33  16  37  1   
 34  16  38  1   
 35  17  39  1   
 36  18  40  1   
 37  18  41  1   
 38  18  42  1   
 39  19  20  ar  
 40  19  21  ar  
 41  20  22  ar  
 42  20  43  1   
 43  21  23  ar  
 44  21  44  1   
 45  22  24  ar  
 46  22  45  1   
 47  23  24  ar  
 48  23  46  1   
@<TRIPOS>SUBSTRUCTURE
  1 ****   3 GROUP 4 **** **** 0

# MOE 2024.06 (io_trps.svl 2023.06)
