@<TRIPOS>MOLECULE
NONAME
53 54 1 0 0 
SMALL
USER_CHARGES


@<TRIPOS>ATOM
  1 S        0.8130    -0.0560     0.0420 S.o2  1 <1>   1.3330 
  2 O        1.0910    -0.3270     1.4350 O.2   1 <1>  -0.6500 
  3 O        0.6890    -1.1570    -0.8870 O.2   1 <1>  -0.6500 
  4 N       -0.6050     0.8730    -0.0350 N.am  1 <1>  -0.8490 
  5 C        2.0640     1.0550    -0.5950 C.3   1 <1>  -0.0550 
  6 C       -1.8040     0.0440    -0.1870 C.3   1 <1>   0.1160 
  7 C       -0.7680     1.7860     1.1010 C.3   1 <1>   0.1160 
  8 C        3.4440     0.3850    -0.7540 C.3   1 <1>  -0.0800 
  9 C        4.5180     1.2650    -1.3750 C.3   1 <1>   0.2200 
 10 C        4.0930    -0.0740     0.5600 C.3   1 <1>   0.1200 
 11 N        4.4650     2.6340    -0.8130 N.am  1 <1>  -0.7300 
 12 C        5.7710     0.5780    -0.8540 C.3   1 <1>   0.1200 
 13 O        5.4570     0.2230     0.4570 O.3   1 <1>  -0.5600 
 14 C        3.9420     3.7140    -1.4370 C.2   1 <1>   0.5690 
 15 O        3.4210     3.6330    -2.5200 O.2   1 <1>  -0.5700 
 16 C        4.0070     5.0520    -0.7380 C.3   1 <1>  -0.0990 
 17 C        5.3340     5.7610    -1.0250 C.3   1 <1>  -0.0170 
 18 C        5.4290     7.0470    -0.2130 C.ar  1 <1>  -0.1440 
 19 C        6.0230     7.1020     1.0450 C.ar  1 <1>  -0.1440 
 20 C        4.8900     8.2020    -0.7600 C.ar  1 <1>  -0.1500 
 21 C        6.0660     8.3100     1.7260 C.ar  1 <1>  -0.1500 
 22 C        6.6360     5.8750     1.7080 C.3   1 <1>  -0.0970 
 23 C        4.9380     9.4010    -0.0720 C.ar  1 <1>  -0.1500 
 24 C        5.5290     9.4610     1.1760 C.ar  1 <1>  -0.1440 
 25 C        5.5860    10.7730     1.9390 C.3   1 <1>  -0.0970 
 26 H        1.7490     1.4170    -1.5550 H     1 <1>   0.0800 
 27 H        2.1440     1.9000     0.0600 H     1 <1>   0.0800 
 28 H       -2.6810     0.6640    -0.2520 H     1 <1>   0.0800 
 29 H       -1.9030    -0.6280     0.6490 H     1 <1>   0.0800 
 30 H       -1.7370    -0.5380    -1.0920 H     1 <1>   0.0800 
 31 H       -1.6360     2.4070     0.9540 H     1 <1>   0.0800 
 32 H        0.0930     2.4240     1.1920 H     1 <1>   0.0800 
 33 H       -0.8860     1.2300     2.0180 H     1 <1>   0.0800 
 34 H        3.3250    -0.4850    -1.3780 H     1 <1>   0.0800 
 35 H        4.4730     1.2890    -2.4520 H     1 <1>   0.0800 
 36 H        3.9760    -1.1330     0.7150 H     1 <1>   0.0800 
 37 H        3.7060     0.4600     1.4110 H     1 <1>   0.0800 
 38 H        4.8780     2.7090     0.1200 H     1 <1>   0.3700 
 39 H        6.6360     1.2180    -0.8640 H     1 <1>   0.0800 
 40 H        5.9730    -0.3250    -1.4050 H     1 <1>   0.0800 
 41 H        3.1920     5.6640    -1.0790 H     1 <1>   0.0800 
 42 H        3.8890     4.9070     0.3200 H     1 <1>   0.0800 
 43 H        5.3930     5.9890    -2.0750 H     1 <1>   0.0800 
 44 H        6.1600     5.1110    -0.8000 H     1 <1>   0.0800 
 45 H        4.4260     8.1750    -1.7300 H     1 <1>   0.1500 
 46 H        6.5240     8.3600     2.6970 H     1 <1>   0.1500 
 47 H        6.9280     6.0900     2.7200 H     1 <1>   0.0800 
 48 H        7.5090     5.5650     1.1640 H     1 <1>   0.0800 
 49 H        5.9270     5.0680     1.7310 H     1 <1>   0.0800 
 50 H        4.5120    10.2830    -0.5150 H     1 <1>   0.1500 
 51 H        5.5420    11.6060     1.2610 H     1 <1>   0.0800 
 52 H        6.5010    10.8400     2.4990 H     1 <1>   0.0800 
 53 H        4.7560    10.8330     2.6190 H     1 <1>   0.0800 
@<TRIPOS>BOND
  1   1   2  2   
  2   1   3  2   
  3   1   4  am  
  4   1   5  1   
  5   4   6  1   
  6   4   7  1   
  7   5   8  1   
  8   5  26  1   
  9   5  27  1   
 10   6  28  1   
 11   6  29  1   
 12   6  30  1   
 13   7  31  1   
 14   7  32  1   
 15   7  33  1   
 16   8   9  1   
 17   8  10  1   
 18   8  34  1   
 19   9  11  1   
 20   9  12  1   
 21   9  35  1   
 22  10  13  1   
 23  10  36  1   
 24  10  37  1   
 25  11  14  am  
 26  11  38  1   
 27  12  13  1   
 28  12  39  1   
 29  12  40  1   
 30  14  15  2   
 31  14  16  1   
 32  16  17  1   
 33  16  41  1   
 34  16  42  1   
 35  17  18  1   
 36  17  43  1   
 37  17  44  1   
 38  18  19  ar  
 39  18  20  ar  
 40  19  21  ar  
 41  19  22  1   
 42  20  23  ar  
 43  20  45  1   
 44  21  24  ar  
 45  21  46  1   
 46  22  47  1   
 47  22  48  1   
 48  22  49  1   
 49  23  24  ar  
 50  23  50  1   
 51  24  25  1   
 52  25  51  1   
 53  25  52  1   
 54  25  53  1   
@<TRIPOS>SUBSTRUCTURE
  1 ****  14 GROUP 4 **** **** 0

# MOE 2024.06 (io_trps.svl 2023.06)
