@<TRIPOS>MOLECULE
NONAME
43 45 1 0 0 
SMALL
USER_CHARGES


@<TRIPOS>ATOM
  1 O        1.1080     0.2720    -2.3770 O.2   1 <1>  -0.5700 
  2 C        1.4760     0.2490    -1.2170 C.2   1 <1>   0.5440 
  3 N        0.5730     0.6150    -0.2430 N.am  1 <1>  -0.6600 
  4 C        2.8170    -0.1860    -0.9180 C.ar  1 <1>   0.0860 
  5 C       -0.8890     0.5700    -0.4680 C.3   1 <1>   0.1400 
  6 C        0.8830     1.0080     1.1490 C.3   1 <1>   0.1400 
  7 C        3.0500    -1.2830    -0.0680 C.ar  1 <1>   0.4100 
  8 C        3.9150     0.4210    -1.5080 C.ar  1 <1>  -0.1500 
  9 C       -1.5100     0.9120     0.8840 C.3   1 <1>  -0.1600 
 10 C       -0.3970     0.6890     1.9070 C.3   1 <1>  -0.1600 
 11 N        4.2550    -1.7850     0.1860 N.ar  1 <1>  -0.6200 
 12 N        2.0130    -1.9100     0.5730 N.pl3 1 <1>  -0.8690 
 13 C        5.1640    -0.0870    -1.2320 C.ar  1 <1>  -0.1500 
 14 C        5.2740    -1.1800    -0.3900 C.ar  1 <1>   0.1600 
 15 C        1.8080    -3.3480     0.4620 C.3   1 <1>   0.4700 
 16 C        0.3480    -3.5330     0.0830 C.2   1 <1>  -0.1810 
 17 C        2.1430    -3.9780     1.8090 C.3   1 <1>  -0.2400 
 18 C       -0.2280    -3.0620    -1.0930 C.2   1 <1>   0.1390 
 19 C       -0.6740    -4.1260     0.7410 C.2   1 <1>  -0.3020 
 20 N       -1.4970    -3.3310    -1.1610 N.2   1 <1>  -0.7070 
 21 N       -1.7710    -3.9930    -0.0280 N.pl3 1 <1>   0.3140 
 22 C       -3.1220    -4.4830     0.2650 C.3   1 <1>   0.0160 
 23 H       -1.1730    -0.4220    -0.7790 H     1 <1>   0.0800 
 24 H       -1.1760     1.2770    -1.2280 H     1 <1>   0.0800 
 25 H        1.0760     2.0680     1.1750 H     1 <1>   0.0800 
 26 H        1.7300     0.4810     1.5530 H     1 <1>   0.0800 
 27 H        3.7790     1.2570    -2.1720 H     1 <1>   0.1500 
 28 H       -2.3760     0.3070     1.0840 H     1 <1>   0.0800 
 29 H       -1.8020     1.9480     0.8790 H     1 <1>   0.0800 
 30 H       -0.5110     1.3070     2.7800 H     1 <1>   0.0800 
 31 H       -0.3770    -0.3450     2.2070 H     1 <1>   0.0800 
 32 H        1.1080    -1.4310     0.4930 H     1 <1>   0.4000 
 33 H        6.0440     0.3520    -1.6660 H     1 <1>   0.1500 
 34 H        6.2550    -1.5750    -0.1830 H     1 <1>   0.1500 
 35 H        2.4430    -3.7580    -0.3060 H     1 <1>   0.0800 
 36 H        1.5300    -3.5540     2.5820 H     1 <1>   0.0800 
 37 H        3.1780    -3.8010     2.0390 H     1 <1>   0.0800 
 38 H        1.9760    -5.0370     1.7660 H     1 <1>   0.0800 
 39 H        0.3040    -2.5260    -1.8640 H     1 <1>   0.1500 
 40 H       -0.6830    -4.6220     1.6940 H     1 <1>   0.1500 
 41 H       -3.2100    -4.6910     1.3140 H     1 <1>   0.0800 
 42 H       -3.2980    -5.3760    -0.3040 H     1 <1>   0.0800 
 43 H       -3.8330    -3.7300    -0.0180 H     1 <1>   0.0800 
@<TRIPOS>BOND
  1   1   2  2   
  2   2   3  am  
  3   2   4  1   
  4   3   5  1   
  5   3   6  1   
  6   4   7  ar  
  7   4   8  ar  
  8   5   9  1   
  9   5  23  1   
 10   5  24  1   
 11   6  10  1   
 12   6  25  1   
 13   6  26  1   
 14   7  11  ar  
 15   7  12  1   
 16   8  13  ar  
 17   8  27  1   
 18   9  10  1   
 19   9  28  1   
 20   9  29  1   
 21  10  30  1   
 22  10  31  1   
 23  11  14  ar  
 24  12  15  1   
 25  12  32  1   
 26  13  14  ar  
 27  13  33  1   
 28  14  34  1   
 29  15  16  1   
 30  15  17  1   
 31  15  35  1   
 32  16  18  1   
 33  16  19  2   
 34  17  36  1   
 35  17  37  1   
 36  17  38  1   
 37  18  20  2   
 38  18  39  1   
 39  19  21  1   
 40  19  40  1   
 41  20  21  1   
 42  21  22  1   
 43  22  41  1   
 44  22  42  1   
 45  22  43  1   
@<TRIPOS>SUBSTRUCTURE
  1 ****  12 GROUP 4 **** **** 0

# MOE 2024.06 (io_trps.svl 2023.06)
