@<TRIPOS>MOLECULE
NONAME
49 51 1 0 0 
SMALL
USER_CHARGES


@<TRIPOS>ATOM
  1 S       -0.5840    -1.4820    -0.2740 S.o2  1 <1>   1.3330 
  2 O       -0.6130    -1.5030    -1.7200 O.2   1 <1>  -0.6500 
  3 O       -1.1920    -2.5810     0.4450 O.2   1 <1>  -0.6500 
  4 N       -1.3310    -0.0450     0.2440 N.am  1 <1>  -0.8490 
  5 C        1.1070    -1.3390     0.3300 C.3   1 <1>   0.0890 
  6 C       -1.3230     0.9960    -0.7900 C.3   1 <1>   0.1960 
  7 C       -2.6790    -0.2580     0.7790 C.3   1 <1>   0.1960 
  8 C        1.8490    -0.0890    -0.1340 C.ar  1 <1>  -0.1440 
  9 C       -1.7950     2.3210    -0.1900 C.3   1 <1>  -0.1600 
 10 C       -3.2280     1.0460     1.3680 C.3   1 <1>  -0.1600 
 11 C        2.5790    -0.0750    -1.3130 C.ar  1 <1>   0.1900 
 12 C        1.7970     1.0800     0.6120 C.ar  1 <1>  -0.1500 
 13 C       -3.2340     2.1990     0.3480 C.3   1 <1>   0.2800 
 14 F        2.6550    -1.1620    -2.0330 F     1 <1>  -0.1900 
 15 C        3.2410     1.0510    -1.7640 C.ar  1 <1>  -0.1500 
 16 C        2.4570     2.2200     0.1770 C.ar  1 <1>  -0.1500 
 17 O       -3.4800     3.3590     1.1090 O.3   1 <1>  -0.5600 
 18 C       -4.3330     1.9870    -0.7640 C.3   1 <1>   0.2000 
 19 C        3.1770     2.2090    -1.0080 C.ar  1 <1>  -0.1500 
 20 C       -4.0650     4.4470     0.4710 C.3   1 <1>   0.1200 
 21 O       -3.9160     2.5120    -2.0010 O.3   1 <1>  -0.6800 
 22 C       -5.6930     2.6320    -0.3740 C.3   1 <1>   0.2800 
 23 C       -5.5010     4.1060     0.0390 C.3   1 <1>  -0.1600 
 24 O       -6.2140     1.9530     0.7110 O.3   1 <1>  -0.6800 
 25 C       -6.7640     2.4930    -1.4630 C.3   1 <1>  -0.2400 
 26 H        1.0840    -1.3400     1.4020 H     1 <1>   0.0800 
 27 H        1.6560    -2.2090     0.0280 H     1 <1>   0.0800 
 28 H       -0.3270     1.1240    -1.1780 H     1 <1>   0.0800 
 29 H       -1.9580     0.7070    -1.6130 H     1 <1>   0.0800 
 30 H       -3.3250    -0.6360     0.0040 H     1 <1>   0.0800 
 31 H       -2.6450    -0.9910     1.5680 H     1 <1>   0.0800 
 32 H       -1.7210     3.0910    -0.9340 H     1 <1>   0.0800 
 33 H       -1.1300     2.5810     0.6140 H     1 <1>   0.0800 
 34 H       -2.6100     1.3160     2.2050 H     1 <1>   0.0800 
 35 H       -4.2160     0.8660     1.7440 H     1 <1>   0.0800 
 36 H        1.2350     1.1140     1.5300 H     1 <1>   0.1500 
 37 H        3.7940     1.0180    -2.6860 H     1 <1>   0.1500 
 38 H        2.4070     3.1220     0.7640 H     1 <1>   0.1500 
 39 H       -4.4850     0.9380    -0.9370 H     1 <1>   0.0800 
 40 H        3.6860     3.0990    -1.3390 H     1 <1>   0.1500 
 41 H       -4.0690     5.2700     1.1640 H     1 <1>   0.0800 
 42 H       -3.4510     4.7140    -0.3720 H     1 <1>   0.0800 
 43 H       -3.7710     3.4720    -1.9200 H     1 <1>   0.4000 
 44 H       -5.7350     4.7470    -0.7920 H     1 <1>   0.0800 
 45 H       -6.1810     4.3660     0.8300 H     1 <1>   0.0800 
 46 H       -7.0370     2.3840     1.0040 H     1 <1>   0.4000 
 47 H       -6.4620     3.0080    -2.3570 H     1 <1>   0.0800 
 48 H       -7.7000     2.9110    -1.1380 H     1 <1>   0.0800 
 49 H       -6.9040     1.4560    -1.7120 H     1 <1>   0.0800 
@<TRIPOS>BOND
  1   1   2  2   
  2   1   3  2   
  3   1   4  am  
  4   1   5  1   
  5   4   6  1   
  6   4   7  1   
  7   5   8  1   
  8   5  26  1   
  9   5  27  1   
 10   6   9  1   
 11   6  28  1   
 12   6  29  1   
 13   7  10  1   
 14   7  30  1   
 15   7  31  1   
 16   8  11  ar  
 17   8  12  ar  
 18   9  13  1   
 19   9  32  1   
 20   9  33  1   
 21  10  13  1   
 22  10  34  1   
 23  10  35  1   
 24  11  14  1   
 25  11  15  ar  
 26  12  16  ar  
 27  12  36  1   
 28  13  17  1   
 29  13  18  1   
 30  15  19  ar  
 31  15  37  1   
 32  16  19  ar  
 33  16  38  1   
 34  17  20  1   
 35  18  21  1   
 36  18  22  1   
 37  18  39  1   
 38  19  40  1   
 39  20  23  1   
 40  20  41  1   
 41  20  42  1   
 42  21  43  1   
 43  22  23  1   
 44  22  24  1   
 45  22  25  1   
 46  23  44  1   
 47  23  45  1   
 48  24  46  1   
 49  25  47  1   
 50  25  48  1   
 51  25  49  1   
@<TRIPOS>SUBSTRUCTURE
  1 ****   6 GROUP 4 **** **** 0

# MOE 2024.06 (io_trps.svl 2023.06)
