@<TRIPOS>MOLECULE
NONAME
43 45 1 0 0 
SMALL
USER_CHARGES


@<TRIPOS>ATOM
  1 F       -2.7190     1.4140     2.2290 F     1 <1>  -0.1900 
  2 C       -3.2760     1.4800     1.0500 C.ar  1 <1>   0.1900 
  3 C       -3.7110     2.7060     0.5910 C.ar  1 <1>  -0.1500 
  4 C       -3.4090     0.3160     0.3100 C.ar  1 <1>  -0.1500 
  5 C       -4.2930     2.7300    -0.6610 C.ar  1 <1>   0.1900 
  6 C       -4.0040     0.3670    -0.9450 C.ar  1 <1>  -0.1440 
  7 F       -4.7210     3.8680    -1.1330 F     1 <1>  -0.1900 
  8 C       -4.4440     1.5910    -1.4360 C.ar  1 <1>  -0.1500 
  9 C       -4.1730    -0.9080    -1.7690 C.3   1 <1>   0.0450 
 10 C       -4.7920    -2.0620    -0.9840 C.2   1 <1>   0.5690 
 11 O       -4.0860    -3.0290    -0.8120 O.2   1 <1>  -0.5700 
 12 N       -6.0820    -2.0200    -0.5000 N.am  1 <1>  -0.6600 
 13 C       -6.9950    -0.8500    -0.6900 C.3   1 <1>   0.2200 
 14 C       -6.6020    -3.1830     0.2890 C.3   1 <1>   0.0600 
 15 C       -8.4180    -1.2160    -1.1090 C.3   1 <1>  -0.1600 
 16 C       -7.1770    -0.0320     0.5840 C.3   1 <1>  -0.1600 
 17 C       -9.2380     0.0390    -0.7810 C.3   1 <1>  -0.0800 
 18 C       -8.4650     0.7680     0.3480 C.3   1 <1>  -0.0800 
 19 C      -10.7200    -0.2720    -0.4870 C.3   1 <1>   0.1400 
 20 C       -9.2810     0.9900     1.6360 C.3   1 <1>  -0.0990 
 21 N      -11.3190     0.8330     0.2890 N.am  1 <1>  -0.7300 
 22 C      -10.6820     1.4530     1.3040 C.2   1 <1>   0.5690 
 23 O      -11.2060     2.3340     1.9330 O.2   1 <1>  -0.5700 
 24 H       -3.6020     3.5980     1.1780 H     1 <1>   0.1500 
 25 H       -3.0520    -0.6140     0.7200 H     1 <1>   0.1500 
 26 H       -4.9010     1.6760    -2.4050 H     1 <1>   0.1500 
 27 H       -3.2020    -1.2160    -2.1150 H     1 <1>   0.0800 
 28 H       -4.7720    -0.7260    -2.6400 H     1 <1>   0.0800 
 29 H       -6.6090    -0.1950    -1.4490 H     1 <1>   0.0800 
 30 H       -7.2370    -2.8510     1.0900 H     1 <1>   0.0800 
 31 H       -5.7900    -3.7440     0.7200 H     1 <1>   0.0800 
 32 H       -7.1600    -3.8360    -0.3590 H     1 <1>   0.0800 
 33 H       -8.4690    -1.4630    -2.1540 H     1 <1>   0.0800 
 34 H       -8.7870    -2.0390    -0.5260 H     1 <1>   0.0800 
 35 H       -7.2970    -0.6840     1.4300 H     1 <1>   0.0800 
 36 H       -6.3410     0.6190     0.7590 H     1 <1>   0.0800 
 37 H       -9.2140     0.6800    -1.6470 H     1 <1>   0.0800 
 38 H       -8.1930     1.7400    -0.0320 H     1 <1>   0.0800 
 39 H      -10.8060    -1.1750     0.0940 H     1 <1>   0.0800 
 40 H      -11.2600    -0.4070    -1.4090 H     1 <1>   0.0800 
 41 H       -8.7990     1.7200     2.2600 H     1 <1>   0.0800 
 42 H       -9.3660     0.0740     2.1920 H     1 <1>   0.0800 
 43 H      -12.2790     1.1210     0.0870 H     1 <1>   0.3700 
@<TRIPOS>BOND
  1   1   2  1   
  2   2   3  ar  
  3   2   4  ar  
  4   3   5  ar  
  5   3  24  1   
  6   4   6  ar  
  7   4  25  1   
  8   5   7  1   
  9   5   8  ar  
 10   6   8  ar  
 11   6   9  1   
 12   8  26  1   
 13   9  10  1   
 14   9  27  1   
 15   9  28  1   
 16  10  11  2   
 17  10  12  am  
 18  12  13  1   
 19  12  14  1   
 20  13  15  1   
 21  13  16  1   
 22  13  29  1   
 23  14  30  1   
 24  14  31  1   
 25  14  32  1   
 26  15  17  1   
 27  15  33  1   
 28  15  34  1   
 29  16  18  1   
 30  16  35  1   
 31  16  36  1   
 32  17  18  1   
 33  17  19  1   
 34  17  37  1   
 35  18  20  1   
 36  18  38  1   
 37  19  21  1   
 38  19  39  1   
 39  19  40  1   
 40  20  22  1   
 41  20  41  1   
 42  20  42  1   
 43  21  22  am  
 44  21  43  1   
 45  22  23  2   
@<TRIPOS>SUBSTRUCTURE
  1 ****  16 GROUP 4 **** **** 0

# MOE 2024.06 (io_trps.svl 2023.06)
