@<TRIPOS>MOLECULE
NONAME
51 54 1 0 0 
SMALL
USER_CHARGES


@<TRIPOS>ATOM
  1 S        0.0310    -1.2450    -1.3110 S.3   1 <1>  -0.4600 
  2 C       -1.0770     0.0470    -0.6630 C.3   1 <1>   0.2510 
  3 C       -1.0850    -2.6720    -1.1700 C.3   1 <1>   0.2510 
  4 C       -2.3490    -0.7120    -0.3650 C.2   1 <1>   0.1080 
  5 C       -2.3560    -2.0680    -0.6210 C.2   1 <1>  -0.1810 
  6 N       -3.4740    -0.2790     0.1050 N.2   1 <1>  -0.7070 
  7 C       -3.5910    -2.4970    -0.2710 C.2   1 <1>  -0.0880 
  8 N       -4.2560    -1.3860     0.1740 N.pl3 1 <1>   0.3140 
  9 N       -4.0720    -3.8250    -0.3780 N.am  1 <1>  -0.4940 
 10 C       -5.6540    -1.2560     0.6070 C.3   1 <1>   0.0160 
 11 C       -4.9310    -4.5330     0.4190 C.2   1 <1>   0.5690 
 12 O       -5.4770    -4.0580     1.3840 O.2   1 <1>  -0.5700 
 13 C       -5.2070    -5.9830     0.0460 C.3   1 <1>  -0.0190 
 14 C       -6.0110    -6.7640     1.1010 C.3   1 <1>   0.1400 
 15 C       -3.9360    -6.8250    -0.1930 C.3   1 <1>  -0.0990 
 16 N       -5.4790    -8.1340     0.9910 N.am  1 <1>  -0.6600 
 17 C       -4.3460    -8.1950     0.2660 C.2   1 <1>   0.5690 
 18 C       -6.2190    -9.3020     1.5230 C.3   1 <1>   0.2840 
 19 O       -3.7270    -9.1910    -0.0090 O.2   1 <1>  -0.5700 
 20 C       -7.5890    -9.3780     0.8670 C.ar  1 <1>  -0.1430 
 21 C       -7.6990    -9.7660    -0.4590 C.ar  1 <1>  -0.1500 
 22 C       -8.7360    -9.0560     1.5760 C.ar  1 <1>  -0.1500 
 23 C       -8.9390    -9.8320    -1.0690 C.ar  1 <1>  -0.1500 
 24 C       -9.9760    -9.1210     0.9640 C.ar  1 <1>  -0.1500 
 25 C      -10.0850    -9.5070    -0.3620 C.ar  1 <1>  -0.1430 
 26 C      -11.4480    -9.5790    -1.0320 C.3   1 <1>  -0.0170 
 27 C      -12.0640   -10.9680    -0.8500 C.3   1 <1>  -0.2400 
 28 H       -1.2200     0.7920    -1.4230 H     1 <1>   0.0800 
 29 H       -0.6380     0.4610     0.2260 H     1 <1>   0.0800 
 30 H       -0.6400    -3.3770    -0.4910 H     1 <1>   0.0800 
 31 H       -1.2170    -3.0900    -2.1520 H     1 <1>   0.0800 
 32 H       -3.6410    -4.3640    -1.1290 H     1 <1>   0.3700 
 33 H       -5.9760    -0.2430     0.4590 H     1 <1>   0.0800 
 34 H       -5.7210    -1.5060     1.6490 H     1 <1>   0.0800 
 35 H       -6.2700    -1.9190     0.0310 H     1 <1>   0.0800 
 36 H       -5.7920    -5.9840    -0.8560 H     1 <1>   0.0800 
 37 H       -7.0660    -6.7300     0.8870 H     1 <1>   0.0800 
 38 H       -5.8290    -6.3970     2.0980 H     1 <1>   0.0800 
 39 H       -3.1190    -6.4940     0.4230 H     1 <1>   0.0800 
 40 H       -3.6460    -6.8430    -1.2270 H     1 <1>   0.0800 
 41 H       -6.3160    -9.2050     2.5890 H     1 <1>   0.0800 
 42 H       -5.6700   -10.2050     1.3160 H     1 <1>   0.0800 
 43 H       -6.8130   -10.0180    -1.0180 H     1 <1>   0.1500 
 44 H       -8.6710    -8.7530     2.6060 H     1 <1>   0.1500 
 45 H       -9.0070   -10.1380    -2.0980 H     1 <1>   0.1500 
 46 H      -10.8580    -8.8700     1.5260 H     1 <1>   0.1500 
 47 H      -11.3480    -9.3630    -2.0810 H     1 <1>   0.0800 
 48 H      -12.1000    -8.8360    -0.6070 H     1 <1>   0.0800 
 49 H      -11.4250   -11.7160    -1.2860 H     1 <1>   0.0800 
 50 H      -13.0260   -11.0130    -1.3270 H     1 <1>   0.0800 
 51 H      -12.1830   -11.1860     0.1960 H     1 <1>   0.0800 
@<TRIPOS>BOND
  1   1   2  1   
  2   1   3  1   
  3   2   4  1   
  4   2  28  1   
  5   2  29  1   
  6   3   5  1   
  7   3  30  1   
  8   3  31  1   
  9   4   5  1   
 10   4   6  2   
 11   5   7  2   
 12   6   8  1   
 13   7   8  1   
 14   7   9  1   
 15   8  10  1   
 16   9  11  am  
 17   9  32  1   
 18  10  33  1   
 19  10  34  1   
 20  10  35  1   
 21  11  12  2   
 22  11  13  1   
 23  13  14  1   
 24  13  15  1   
 25  13  36  1   
 26  14  16  1   
 27  14  37  1   
 28  14  38  1   
 29  15  17  1   
 30  15  39  1   
 31  15  40  1   
 32  16  17  am  
 33  16  18  1   
 34  17  19  2   
 35  18  20  1   
 36  18  41  1   
 37  18  42  1   
 38  20  21  ar  
 39  20  22  ar  
 40  21  23  ar  
 41  21  43  1   
 42  22  24  ar  
 43  22  44  1   
 44  23  25  ar  
 45  23  45  1   
 46  24  25  ar  
 47  24  46  1   
 48  25  26  1   
 49  26  27  1   
 50  26  47  1   
 51  26  48  1   
 52  27  49  1   
 53  27  50  1   
 54  27  51  1   
@<TRIPOS>SUBSTRUCTURE
  1 ****  13 GROUP 4 **** **** 0

# MOE 2024.06 (io_trps.svl 2023.06)
