@<TRIPOS>MOLECULE
NONAME
39 40 1 0 0 
SMALL
USER_CHARGES


@<TRIPOS>ATOM
  1 O        2.7720    -1.1060    -2.3680 O.2   1 <1>  -0.5760 
  2 C        2.6130    -1.5690    -1.2680 C.2   1 <1>   0.8490 
  3 N        2.0640    -0.8020    -0.2830 N.pl3 1 <1>  -0.7340 
  4 C        2.9860    -3.0390    -0.9750 C.3   1 <1>   0.2280 
  5 C        1.5400     0.4110    -0.3420 C.cat 1 <1>   1.0680 
  6 N        2.7050    -3.2870     0.4650 N.pl3 1 <1>   0.0370 
  7 C        4.4440    -3.3920    -1.3310 C.3   1 <1>  -0.2490 
  8 N        1.5850     1.2340    -1.3700 N.pl3 1 <1>  -0.7050 
  9 N        0.8690     0.9700     0.6610 N.pl3 1 <1>  -0.7680 
 10 C        1.4580    -3.3890     1.0050 C.2   1 <1>  -0.0040 
 11 C        3.4740    -2.8280     1.4770 C.2   1 <1>  -0.3100 
 12 C        0.9170     2.3870    -1.0290 C.2   1 <1>   0.1910 
 13 C        0.4720     2.2250     0.2310 C.2   1 <1>   0.1910 
 14 C        0.5490     0.3830     1.9950 C.3   1 <1>   0.2660 
 15 N        1.3990    -2.9460     2.2210 N.2   1 <1>  -0.5710 
 16 C        0.2430    -3.9480     0.2490 C.3   1 <1>   0.0900 
 17 C        2.6670    -2.6420     2.5380 C.2   1 <1>   0.0670 
 18 C       -0.5790    -2.8450    -0.4310 C.3   1 <1>  -0.2490 
 19 C       -0.6640    -4.7520     1.1890 C.3   1 <1>  -0.2490 
 20 H        1.9320    -1.2840     0.6120 H     1 <1>   0.4430 
 21 H        2.3410    -3.6670    -1.5590 H     1 <1>   0.0700 
 22 H        5.1370    -2.7310    -0.8410 H     1 <1>   0.0700 
 23 H        4.5910    -3.2970    -2.3930 H     1 <1>   0.0700 
 24 H        4.6610    -4.4080    -1.0520 H     1 <1>   0.0700 
 25 H        2.0460     0.9810    -2.2510 H     1 <1>   0.4430 
 26 H        4.5340    -2.6560     1.4020 H     1 <1>   0.1410 
 27 H        0.8070     3.2280    -1.6980 H     1 <1>   0.1410 
 28 H       -0.0950     2.9080     0.8450 H     1 <1>   0.1410 
 29 H        1.4560     0.1380     2.5210 H     1 <1>   0.0700 
 30 H       -0.0400    -0.5110     1.8790 H     1 <1>   0.0700 
 31 H       -0.0110     1.0870     2.5860 H     1 <1>   0.0700 
 32 H        0.5870    -4.6350    -0.5050 H     1 <1>   0.0700 
 33 H        2.9350    -2.3010     3.5260 H     1 <1>   0.1410 
 34 H       -0.8830    -2.1090     0.2910 H     1 <1>   0.0700 
 35 H       -1.4650    -3.2690    -0.8700 H     1 <1>   0.0700 
 36 H       -0.0240    -2.3710    -1.2160 H     1 <1>   0.0700 
 37 H       -1.0880    -4.1140     1.9450 H     1 <1>   0.0700 
 38 H       -0.0950    -5.5230     1.6770 H     1 <1>   0.0700 
 39 H       -1.4650    -5.2150     0.6410 H     1 <1>   0.0700 
@<TRIPOS>BOND
  1   1   2  2   
  2   2   3  1   
  3   2   4  1   
  4   3   5  ar  
  5   3  20  1   
  6   4   6  1   
  7   4   7  1   
  8   4  21  1   
  9   5   8  ar  
 10   5   9  ar  
 11   6  10  1   
 12   6  11  1   
 13   7  22  1   
 14   7  23  1   
 15   7  24  1   
 16   8  12  1   
 17   8  25  1   
 18   9  13  1   
 19   9  14  1   
 20  10  15  2   
 21  10  16  1   
 22  11  17  2   
 23  11  26  1   
 24  12  13  2   
 25  12  27  1   
 26  13  28  1   
 27  14  29  1   
 28  14  30  1   
 29  14  31  1   
 30  15  17  1   
 31  16  18  1   
 32  16  19  1   
 33  16  32  1   
 34  17  33  1   
 35  18  34  1   
 36  18  35  1   
 37  18  36  1   
 38  19  37  1   
 39  19  38  1   
 40  19  39  1   
@<TRIPOS>SUBSTRUCTURE
  1 ****   3 GROUP 4 **** **** 0

# MOE 2024.06 (io_trps.svl 2023.06)
