@<TRIPOS>MOLECULE
NONAME
51 53 1 0 0 
SMALL
USER_CHARGES


@<TRIPOS>ATOM
  1 S        0.1620    -0.3020     0.3210 S.3   1 <1>  -0.0800 
  2 C       -1.1530    -1.1250    -0.4380 C.2   1 <1>   0.4420 
  3 C       -0.4430     1.1890    -0.3440 C.2   1 <1>   0.3250 
  4 N       -1.9090    -0.3210    -1.0900 N.2   1 <1>  -0.3380 
  5 N       -1.2180    -2.4880    -0.2520 N.am  1 <1>  -0.4940 
  6 N       -1.5080     0.9790    -1.0350 N.2   1 <1>  -0.3380 
  7 C        0.2420     2.4370    -0.0870 C.ar  1 <1>   0.0530 
  8 C       -2.1290    -3.3850    -0.7370 C.2   1 <1>   0.5690 
  9 C        1.3990     2.5330     0.6940 C.ar  1 <1>  -0.1500 
 10 C       -0.2500     3.6260    -0.6290 C.ar  1 <1>  -0.1500 
 11 O       -3.0470    -3.0740    -1.4510 O.2   1 <1>  -0.5700 
 12 C       -1.9420    -4.8530    -0.3520 C.3   1 <1>  -0.0190 
 13 C        2.0240     3.7460     0.9160 C.ar  1 <1>  -0.1500 
 14 C        0.3730     4.8400    -0.4100 C.ar  1 <1>  -0.1500 
 15 C       -1.1360    -5.6040    -1.4260 C.3   1 <1>  -0.1600 
 16 C       -3.2840    -5.5720    -0.1100 C.3   1 <1>  -0.1600 
 17 C        1.5170     4.9090     0.3640 C.ar  1 <1>  -0.1430 
 18 C       -0.9430    -7.0780    -1.0600 C.3   1 <1>   0.1400 
 19 C       -3.0840    -7.0470     0.2450 C.3   1 <1>   0.1400 
 20 C        2.2020     6.2420     0.6080 C.3   1 <1>  -0.0970 
 21 N       -2.2650    -7.7140    -0.8060 N.am  1 <1>  -0.6600 
 22 C       -2.6270    -8.8770    -1.4510 C.2   1 <1>   0.5690 
 23 O       -1.9090    -9.3820    -2.2850 O.2   1 <1>  -0.5700 
 24 C       -3.9670    -9.5760    -1.1870 C.3   1 <1>   0.1810 
 25 O       -4.1360    -9.9410     0.1620 O.3   1 <1>  -0.5600 
 26 C       -5.2890   -10.6710     0.4080 C.3   1 <1>   0.1200 
 27 C       -5.3500   -10.9350     1.9070 C.3   1 <1>  -0.2400 
 28 H       -0.4780    -2.8740     0.3240 H     1 <1>   0.3700 
 29 H        1.8280     1.6570     1.1420 H     1 <1>   0.1500 
 30 H       -1.1390     3.5980    -1.2360 H     1 <1>   0.1500 
 31 H       -1.3880    -4.8890     0.5700 H     1 <1>   0.0800 
 32 H        2.9120     3.7840     1.5230 H     1 <1>   0.1500 
 33 H       -0.0400     5.7340    -0.8460 H     1 <1>   0.1500 
 34 H       -0.1720    -5.1450    -1.5540 H     1 <1>   0.0800 
 35 H       -1.6510    -5.5480    -2.3710 H     1 <1>   0.0800 
 36 H       -3.8950    -5.5130    -0.9960 H     1 <1>   0.0800 
 37 H       -3.8200    -5.0840     0.6840 H     1 <1>   0.0800 
 38 H       -0.3400    -7.1660    -0.1730 H     1 <1>   0.0800 
 39 H       -0.4260    -7.5790    -1.8610 H     1 <1>   0.0800 
 40 H       -4.0480    -7.5120     0.3460 H     1 <1>   0.0800 
 41 H       -2.5760    -7.1360     1.1900 H     1 <1>   0.0800 
 42 H        3.2600     6.1020     0.7420 H     1 <1>   0.0800 
 43 H        1.7980     6.7020     1.4920 H     1 <1>   0.0800 
 44 H        2.0510     6.9020    -0.2270 H     1 <1>   0.0800 
 45 H       -4.0120   -10.4680    -1.7870 H     1 <1>   0.0800 
 46 H       -4.7690    -8.9190    -1.4690 H     1 <1>   0.0800 
 47 H       -5.2390   -11.5970    -0.1400 H     1 <1>   0.0800 
 48 H       -6.1430   -10.0970     0.0890 H     1 <1>   0.0800 
 49 H       -4.4860   -11.4970     2.2160 H     1 <1>   0.0800 
 50 H       -6.2310   -11.5030     2.1420 H     1 <1>   0.0800 
 51 H       -5.3850   -10.0060     2.4450 H     1 <1>   0.0800 
@<TRIPOS>BOND
  1   1   2  1   
  2   1   3  1   
  3   2   4  2   
  4   2   5  1   
  5   3   6  2   
  6   3   7  1   
  7   4   6  1   
  8   5   8  am  
  9   5  28  1   
 10   7   9  ar  
 11   7  10  ar  
 12   8  11  2   
 13   8  12  1   
 14   9  13  ar  
 15   9  29  1   
 16  10  14  ar  
 17  10  30  1   
 18  12  15  1   
 19  12  16  1   
 20  12  31  1   
 21  13  17  ar  
 22  13  32  1   
 23  14  17  ar  
 24  14  33  1   
 25  15  18  1   
 26  15  34  1   
 27  15  35  1   
 28  16  19  1   
 29  16  36  1   
 30  16  37  1   
 31  17  20  1   
 32  18  21  1   
 33  18  38  1   
 34  18  39  1   
 35  19  21  1   
 36  19  40  1   
 37  19  41  1   
 38  20  42  1   
 39  20  43  1   
 40  20  44  1   
 41  21  22  am  
 42  22  23  2   
 43  22  24  1   
 44  24  25  1   
 45  24  45  1   
 46  24  46  1   
 47  25  26  1   
 48  26  27  1   
 49  26  47  1   
 50  26  48  1   
 51  27  49  1   
 52  27  50  1   
 53  27  51  1   
@<TRIPOS>SUBSTRUCTURE
  1 ****   5 GROUP 4 **** **** 0

# MOE 2024.06 (io_trps.svl 2023.06)
