@<TRIPOS>MOLECULE
NONAME
36 37 1 0 0 
SMALL
USER_CHARGES


@<TRIPOS>ATOM
  1 O        3.9720    -1.5260     2.2560 O.co2 1 <1>  -0.9000 
  2 C        3.3540    -0.7390     1.5370 C.2   1 <1>   0.9060 
  3 O        2.1170    -0.6570     1.5410 O.co2 1 <1>  -0.9000 
  4 C        4.1330     0.1530     0.5890 C.3   1 <1>  -0.1860 
  5 C        3.6270    -0.0270    -0.8470 C.3   1 <1>   0.2000 
  6 C        4.1550     1.6370     1.0390 C.3   1 <1>  -0.1600 
  7 O        2.2850     0.3170    -0.8930 O.3   1 <1>  -0.6800 
  8 C        4.4340     0.8470    -1.8290 C.3   1 <1>   0.1400 
  9 C        4.0010     2.6490    -0.1060 C.3   1 <1>   0.1400 
 10 N        4.7740     2.2190    -1.3090 N.am  1 <1>  -0.6600 
 11 C        5.7670     2.9470    -1.9100 C.2   1 <1>   0.5690 
 12 O        6.4550     2.4810    -2.7930 O.2   1 <1>  -0.5700 
 13 C        6.0820     4.3800    -1.5090 C.3   1 <1>   0.0440 
 14 C        7.0800     4.4620    -0.3550 C.ar  1 <1>  -0.1440 
 15 C        8.3490     3.8920    -0.4400 C.ar  1 <1>   0.0820 
 16 C        6.7310     5.1410     0.8030 C.ar  1 <1>  -0.1500 
 17 O        8.7420     3.2000    -1.5250 O.3   1 <1>  -0.5320 
 18 C        9.2490     4.0170     0.6040 C.ar  1 <1>  -0.1500 
 19 C        7.6280     5.2570     1.8520 C.ar  1 <1>  -0.1500 
 20 C        8.8900     4.6980     1.7520 C.ar  1 <1>  -0.1500 
 21 H        5.1470    -0.2010     0.6050 H     1 <1>   0.0800 
 22 H        3.6940    -1.0620    -1.1330 H     1 <1>   0.0800 
 23 H        5.0750     1.8290     1.5620 H     1 <1>   0.0800 
 24 H        3.3550     1.8080     1.7380 H     1 <1>   0.0800 
 25 H        1.8950    -0.0170    -0.0300 H     1 <1>   0.4000 
 26 H        3.8910     0.9360    -2.7530 H     1 <1>   0.0800 
 27 H        5.3560     0.3340    -2.0390 H     1 <1>   0.0800 
 28 H        4.3120     3.6140     0.2450 H     1 <1>   0.0800 
 29 H        2.9610     2.7190    -0.3790 H     1 <1>   0.0800 
 30 H        6.5110     4.8800    -2.3580 H     1 <1>   0.0800 
 31 H        5.1730     4.8990    -1.2770 H     1 <1>   0.0800 
 32 H        5.7590     5.5910     0.9000 H     1 <1>   0.1500 
 33 H        7.9920     2.9160    -2.1070 H     1 <1>   0.4500 
 34 H       10.2240     3.5730     0.5110 H     1 <1>   0.1500 
 35 H        7.3460     5.7850     2.7460 H     1 <1>   0.1500 
 36 H        9.5900     4.7900     2.5640 H     1 <1>   0.1500 
@<TRIPOS>BOND
  1   1   2  ar  
  2   2   3  ar  
  3   2   4  1   
  4   4   5  1   
  5   4   6  1   
  6   4  21  1   
  7   5   7  1   
  8   5   8  1   
  9   5  22  1   
 10   6   9  1   
 11   6  23  1   
 12   6  24  1   
 13   7  25  1   
 14   8  10  1   
 15   8  26  1   
 16   8  27  1   
 17   9  10  1   
 18   9  28  1   
 19   9  29  1   
 20  10  11  am  
 21  11  12  2   
 22  11  13  1   
 23  13  14  1   
 24  13  30  1   
 25  13  31  1   
 26  14  15  ar  
 27  14  16  ar  
 28  15  17  1   
 29  15  18  ar  
 30  16  19  ar  
 31  16  32  1   
 32  17  33  1   
 33  18  20  ar  
 34  18  34  1   
 35  19  20  ar  
 36  19  35  1   
 37  20  36  1   
@<TRIPOS>SUBSTRUCTURE
  1 ****  10 GROUP 4 **** **** 0

# MOE 2024.06 (io_trps.svl 2023.06)
