@<TRIPOS>MOLECULE
NONAME
50 53 1 0 0 
SMALL
USER_CHARGES


@<TRIPOS>ATOM
  1 CL       1.0390    -1.1970     2.4690 Cl    1 <1>  -0.1770 
  2 C        1.5250    -1.6900     0.8560 C.ar  1 <1>   0.1770 
  3 C        0.8540    -2.7220     0.1780 C.ar  1 <1>   0.4100 
  4 C        2.5860    -1.0370     0.2750 C.ar  1 <1>  -0.1500 
  5 N        1.2070    -3.1120    -1.0470 N.ar  1 <1>  -0.6200 
  6 N       -0.2270    -3.3890     0.7420 N.pl3 1 <1>  -0.8380 
  7 C        2.9440    -1.4520    -0.9920 C.ar  1 <1>  -0.1500 
  8 C        2.2320    -2.4760    -1.5940 C.ar  1 <1>   0.1600 
  9 C       -1.5120    -2.6410     0.8970 C.3   1 <1>   0.2090 
 10 C       -0.4220    -4.8490     0.4670 C.3   1 <1>   0.2090 
 11 C       -2.4920    -2.9090    -0.2660 C.3   1 <1>   0.2090 
 12 C       -1.3990    -5.0930    -0.7000 C.3   1 <1>   0.2090 
 13 N       -2.7090    -4.3800    -0.4900 N.pl3 1 <1>  -0.8380 
 14 C       -3.8970    -5.0270    -0.3750 C.ar  1 <1>   0.4100 
 15 N       -3.8770    -6.2840     0.0260 N.ar  1 <1>  -0.6200 
 16 C       -5.1090    -4.3800    -0.6780 C.ar  1 <1>  -0.1500 
 17 C       -5.0260    -6.9300     0.1620 C.ar  1 <1>   0.7710 
 18 C       -6.2760    -5.0500    -0.5300 C.ar  1 <1>   0.2180 
 19 N       -6.2020    -6.3310    -0.0980 N.ar  1 <1>  -0.1790 
 20 N       -5.0180    -8.2260     0.5800 N.pl3 1 <1>  -0.8380 
 21 C       -7.6390    -4.4470    -0.8240 C.3   1 <1>  -0.0970 
 22 C       -3.7510    -8.9000     1.0510 C.3   1 <1>   0.2090 
 23 C       -6.1760    -9.1880     0.6190 C.3   1 <1>   0.2090 
 24 C       -3.5300   -10.2390     0.3270 C.3   1 <1>   0.1200 
 25 C       -5.8220   -10.5130    -0.0850 C.3   1 <1>   0.1200 
 26 O       -4.6570   -11.0580     0.4560 O.3   1 <1>  -0.5600 
 27 H        3.1060    -0.2480     0.7880 H     1 <1>   0.1500 
 28 H        3.7660    -0.9880    -1.5080 H     1 <1>   0.1500 
 29 H        2.5210    -2.7900    -2.5830 H     1 <1>   0.1500 
 30 H       -1.3150    -1.5850     0.9510 H     1 <1>   0.0800 
 31 H       -1.9740    -2.9360     1.8230 H     1 <1>   0.0800 
 32 H       -0.8090    -5.3240     1.3510 H     1 <1>   0.0800 
 33 H        0.5260    -5.3040     0.2380 H     1 <1>   0.0800 
 34 H       -2.0860    -2.4740    -1.1640 H     1 <1>   0.0800 
 35 H       -3.4180    -2.4140    -0.0440 H     1 <1>   0.0800 
 36 H       -1.5490    -6.1510    -0.8190 H     1 <1>   0.0800 
 37 H       -0.9450    -4.7310    -1.6060 H     1 <1>   0.0800 
 38 H       -5.0820    -3.3690    -1.0360 H     1 <1>   0.1500 
 39 H       -7.0270    -6.8900     0.0660 H     1 <1>   0.4570 
 40 H       -7.5360    -3.4300    -1.1590 H     1 <1>   0.0800 
 41 H       -8.2510    -4.4470     0.0610 H     1 <1>   0.0800 
 42 H       -8.1390    -5.0050    -1.5970 H     1 <1>   0.0800 
 43 H       -3.8220    -9.0890     2.1080 H     1 <1>   0.0800 
 44 H       -2.8810    -8.2850     0.8970 H     1 <1>   0.0800 
 45 H       -7.0490    -8.7800     0.1450 H     1 <1>   0.0800 
 46 H       -6.4230    -9.4050     1.6460 H     1 <1>   0.0800 
 47 H       -2.6950   -10.7610     0.7600 H     1 <1>   0.0800 
 48 H       -3.3320   -10.0800    -0.7190 H     1 <1>   0.0800 
 49 H       -5.6740   -10.3620    -1.1400 H     1 <1>   0.0800 
 50 H       -6.6100   -11.2320     0.0530 H     1 <1>   0.0800 
@<TRIPOS>BOND
  1   1   2  1   
  2   2   3  ar  
  3   2   4  ar  
  4   3   5  ar  
  5   3   6  1   
  6   4   7  ar  
  7   4  27  1   
  8   5   8  ar  
  9   6   9  1   
 10   6  10  1   
 11   7   8  ar  
 12   7  28  1   
 13   8  29  1   
 14   9  11  1   
 15   9  30  1   
 16   9  31  1   
 17  10  12  1   
 18  10  32  1   
 19  10  33  1   
 20  11  13  1   
 21  11  34  1   
 22  11  35  1   
 23  12  13  1   
 24  12  36  1   
 25  12  37  1   
 26  13  14  1   
 27  14  15  ar  
 28  14  16  ar  
 29  15  17  ar  
 30  16  18  ar  
 31  16  38  1   
 32  17  19  ar  
 33  17  20  1   
 34  18  19  ar  
 35  18  21  1   
 36  19  39  1   
 37  20  22  1   
 38  20  23  1   
 39  21  40  1   
 40  21  41  1   
 41  21  42  1   
 42  22  24  1   
 43  22  43  1   
 44  22  44  1   
 45  23  25  1   
 46  23  45  1   
 47  23  46  1   
 48  24  26  1   
 49  24  47  1   
 50  24  48  1   
 51  25  26  1   
 52  25  49  1   
 53  25  50  1   
@<TRIPOS>SUBSTRUCTURE
  1 ****  13 GROUP 4 **** **** 0

# MOE 2024.06 (io_trps.svl 2023.06)
