@<TRIPOS>MOLECULE
NONAME
42 43 1 0 0 
SMALL
USER_CHARGES


@<TRIPOS>ATOM
  1 F       -1.3540    -0.5630    -0.5100 F     1 <1>  -0.1900 
  2 C       -2.2950    -0.1490     0.2960 C.ar  1 <1>   0.1900 
  3 C       -3.3190    -1.0180     0.6590 C.ar  1 <1>  -0.1440 
  4 C       -2.2270     1.1540     0.7500 C.ar  1 <1>  -0.1500 
  5 C       -4.3140    -0.5490     1.5090 C.ar  1 <1>  -0.1500 
  6 C       -3.3850    -2.4530     0.1530 C.3   1 <1>  -0.0160 
  7 C       -3.2320     1.5790     1.5950 C.ar  1 <1>   0.1900 
  8 C       -4.2740     0.7540     1.9830 C.ar  1 <1>  -0.1500 
  9 C       -4.1800    -2.5270    -1.1560 C.3   1 <1>  -0.0990 
 10 F       -3.1990     2.8040     2.0440 F     1 <1>  -0.1900 
 11 C       -4.4780    -3.9720    -1.5280 C.2   1 <1>   0.5690 
 12 O       -3.5220    -4.6800    -1.7390 O.2   1 <1>  -0.5700 
 13 N       -5.7580    -4.4640    -1.5930 N.am  1 <1>  -0.6600 
 14 C       -5.9890    -5.9360    -1.7370 C.3   1 <1>   0.3210 
 15 C       -7.0090    -3.6330    -1.5350 C.3   1 <1>   0.1400 
 16 C       -6.6200    -6.4980    -0.4690 C.2   1 <1>   0.0460 
 17 C       -7.5810    -3.4440    -0.1140 C.3   1 <1>   0.1200 
 18 N       -7.9400    -6.7770    -0.4190 N.2   1 <1>  -0.5650 
 19 C       -6.0260    -6.7650     0.7190 C.2   1 <1>  -0.3320 
 20 O       -6.5840    -3.5250     0.8470 O.3   1 <1>  -0.6800 
 21 C       -8.1200    -7.2080     0.7860 C.2   1 <1>   0.0360 
 22 N       -6.9950    -7.2250     1.5310 N.pl3 1 <1>   0.0330 
 23 C       -4.5790    -6.6160     1.1610 C.3   1 <1>  -0.0600 
 24 H       -1.4270     1.8070     0.4570 H     1 <1>   0.1500 
 25 H       -5.1240    -1.1990     1.8030 H     1 <1>   0.1500 
 26 H       -3.8640    -3.0670     0.8960 H     1 <1>   0.0800 
 27 H       -2.3960    -2.8490     0.0010 H     1 <1>   0.0800 
 28 H       -5.0370     1.1270     2.6420 H     1 <1>   0.1500 
 29 H       -3.6060    -2.0800    -1.9470 H     1 <1>   0.0800 
 30 H       -5.0770    -1.9560    -1.0380 H     1 <1>   0.0800 
 31 H       -5.0650    -6.4550    -1.9200 H     1 <1>   0.0800 
 32 H       -6.6370    -6.1210    -2.5740 H     1 <1>   0.0800 
 33 H       -7.7680    -4.0910    -2.1460 H     1 <1>   0.0800 
 34 H       -6.8250    -2.6680    -1.9710 H     1 <1>   0.0800 
 35 H       -8.3030    -4.2120     0.0980 H     1 <1>   0.0800 
 36 H       -8.0650    -2.4880    -0.0230 H     1 <1>   0.0800 
 37 H       -6.1510    -4.4020     0.7350 H     1 <1>   0.4000 
 38 H       -9.0690    -7.5290     1.1790 H     1 <1>   0.1500 
 39 H       -6.9060    -7.5270     2.5050 H     1 <1>   0.2700 
 40 H       -3.9650    -6.2790     0.3450 H     1 <1>   0.0800 
 41 H       -4.1960    -7.5610     1.5010 H     1 <1>   0.0800 
 42 H       -4.5050    -5.9000     1.9610 H     1 <1>   0.0800 
@<TRIPOS>BOND
  1   1   2  1   
  2   2   3  ar  
  3   2   4  ar  
  4   3   5  ar  
  5   3   6  1   
  6   4   7  ar  
  7   4  24  1   
  8   5   8  ar  
  9   5  25  1   
 10   6   9  1   
 11   6  26  1   
 12   6  27  1   
 13   7   8  ar  
 14   7  10  1   
 15   8  28  1   
 16   9  11  1   
 17   9  29  1   
 18   9  30  1   
 19  11  12  2   
 20  11  13  am  
 21  13  14  1   
 22  13  15  1   
 23  14  16  1   
 24  14  31  1   
 25  14  32  1   
 26  15  17  1   
 27  15  33  1   
 28  15  34  1   
 29  16  18  1   
 30  16  19  2   
 31  17  20  1   
 32  17  35  1   
 33  17  36  1   
 34  18  21  2   
 35  19  22  1   
 36  19  23  1   
 37  20  37  1   
 38  21  22  1   
 39  21  38  1   
 40  22  39  1   
 41  23  40  1   
 42  23  41  1   
 43  23  42  1   
@<TRIPOS>SUBSTRUCTURE
  1 ****   9 GROUP 4 **** **** 0

# MOE 2024.06 (io_trps.svl 2023.06)
