@<TRIPOS>MOLECULE
NONAME
53 56 1 0 0 
SMALL
USER_CHARGES


@<TRIPOS>ATOM
  1 O        0.1980     0.5370    -0.9890 O.2   1 <1>  -0.5700 
  2 C       -0.3600     1.5930    -0.7570 C.2   1 <1>   0.6160 
  3 N       -1.7280     1.5950    -0.5730 N.am  1 <1>  -0.6600 
  4 C        0.4310     2.7930    -0.6680 C.2   1 <1>  -0.1360 
  5 C       -2.6140     2.7980    -0.6720 C.3   1 <1>   0.1400 
  6 C       -2.4870     0.3270    -0.3650 C.3   1 <1>   0.1400 
  7 C        1.7310     2.9400    -1.0140 C.2   1 <1>  -0.1780 
  8 C       -3.4460     2.9700     0.6130 C.3   1 <1>   0.1430 
  9 C       -3.3510     0.4370     0.8990 C.3   1 <1>  -0.1600 
 10 C        2.5480     4.1240    -0.9320 C.ar  1 <1>   0.0280 
 11 C       -4.3290     4.1920     0.4480 C.ar  1 <1>   0.1670 
 12 C       -4.2580     1.6820     0.8710 C.3   1 <1>  -0.1600 
 13 C       -2.5660     3.3560     1.8340 C.3   1 <1>  -0.1600 
 14 C        3.9370     4.0140    -0.9750 C.ar  1 <1>  -0.1500 
 15 C        2.0080     5.4050    -0.8150 C.ar  1 <1>  -0.1500 
 16 N       -5.3750     4.2690    -0.3350 N.ar  1 <1>  -0.6200 
 17 C       -3.8910     5.2350     1.2060 C.ar  1 <1>  -0.1430 
 18 C       -2.6540     4.8840     1.9930 C.3   1 <1>  -0.0170 
 19 C        4.7520     5.1270    -0.8950 C.ar  1 <1>  -0.1500 
 20 C        2.8190     6.5230    -0.7340 C.ar  1 <1>  -0.1500 
 21 C       -6.0040     5.4470    -0.3340 C.ar  1 <1>   0.7200 
 22 C       -4.5990     6.4090     1.1430 C.ar  1 <1>   0.1600 
 23 C        4.1940     6.3860    -0.7730 C.ar  1 <1>  -0.1500 
 24 N       -5.6570     6.5250     0.3760 N.ar  1 <1>  -0.6200 
 25 N       -7.1160     5.5610    -1.1460 N.pl3 1 <1>  -0.8380 
 26 C       -7.7400     6.8780    -1.4510 C.3   1 <1>   0.1290 
 27 C       -7.8050     4.3720    -1.7180 C.3   1 <1>   0.1290 
 28 H       -0.0900     3.6320    -0.2630 H     1 <1>   0.1500 
 29 H       -2.0560     3.6920    -0.8730 H     1 <1>   0.0800 
 30 H       -3.2870     2.6570    -1.5000 H     1 <1>   0.0800 
 31 H       -3.1110     0.1500    -1.2240 H     1 <1>   0.0800 
 32 H       -1.8150    -0.5090    -0.2650 H     1 <1>   0.0800 
 33 H        2.2510     2.0770    -1.3960 H     1 <1>   0.1500 
 34 H       -3.9580    -0.4460     0.9860 H     1 <1>   0.0800 
 35 H       -2.7040     0.4700     1.7570 H     1 <1>   0.0800 
 36 H       -4.8050     1.7660     1.7940 H     1 <1>   0.0800 
 37 H       -4.9800     1.5640     0.0820 H     1 <1>   0.0800 
 38 H       -2.9750     2.9090     2.7230 H     1 <1>   0.0800 
 39 H       -1.5480     3.0230     1.7360 H     1 <1>   0.0800 
 40 H        4.3840     3.0400    -1.0680 H     1 <1>   0.1500 
 41 H        0.9430     5.5380    -0.7940 H     1 <1>   0.1500 
 42 H       -1.7960     5.3640     1.5550 H     1 <1>   0.0800 
 43 H       -2.7450     5.1690     3.0270 H     1 <1>   0.0800 
 44 H        5.8220     5.0150    -0.9280 H     1 <1>   0.1500 
 45 H        2.3810     7.5020    -0.6440 H     1 <1>   0.1500 
 46 H       -4.2950     7.2610     1.7260 H     1 <1>   0.1500 
 47 H        4.8270     7.2550    -0.7100 H     1 <1>   0.1500 
 48 H       -8.1900     6.8580    -2.4270 H     1 <1>   0.0800 
 49 H       -6.9990     7.6600    -1.4370 H     1 <1>   0.0800 
 50 H       -8.4920     7.0980    -0.7140 H     1 <1>   0.0800 
 51 H       -8.8630     4.5560    -1.7900 H     1 <1>   0.0800 
 52 H       -7.6550     3.5090    -1.0910 H     1 <1>   0.0800 
 53 H       -7.4120     4.1650    -2.6970 H     1 <1>   0.0800 
@<TRIPOS>BOND
  1   1   2  2   
  2   2   3  am  
  3   2   4  1   
  4   3   5  1   
  5   3   6  1   
  6   4   7  2   
  7   4  28  1   
  8   5   8  1   
  9   5  29  1   
 10   5  30  1   
 11   6   9  1   
 12   6  31  1   
 13   6  32  1   
 14   7  10  1   
 15   7  33  1   
 16   8  11  1   
 17   8  12  1   
 18   8  13  1   
 19   9  12  1   
 20   9  34  1   
 21   9  35  1   
 22  10  14  ar  
 23  10  15  ar  
 24  11  16  ar  
 25  11  17  ar  
 26  12  36  1   
 27  12  37  1   
 28  13  18  1   
 29  13  38  1   
 30  13  39  1   
 31  14  19  ar  
 32  14  40  1   
 33  15  20  ar  
 34  15  41  1   
 35  16  21  ar  
 36  17  18  1   
 37  17  22  ar  
 38  18  42  1   
 39  18  43  1   
 40  19  23  ar  
 41  19  44  1   
 42  20  23  ar  
 43  20  45  1   
 44  21  24  ar  
 45  21  25  1   
 46  22  24  ar  
 47  22  46  1   
 48  23  47  1   
 49  25  26  1   
 50  25  27  1   
 51  26  48  1   
 52  26  49  1   
 53  26  50  1   
 54  27  51  1   
 55  27  52  1   
 56  27  53  1   
@<TRIPOS>SUBSTRUCTURE
  1 ****   5 GROUP 4 **** **** 0

# MOE 2024.06 (io_trps.svl 2023.06)
