@<TRIPOS>MOLECULE
NONAME
50 51 1 0 0 
SMALL
USER_CHARGES


@<TRIPOS>ATOM
  1 O       -2.4330     1.2340    -2.4990 O.2   1 <1>  -0.5700 
  2 C       -2.3780     0.7580    -1.3900 C.2   1 <1>   0.5690 
  3 N       -2.6300    -0.5530    -1.1650 N.am  1 <1>  -0.7300 
  4 C       -2.0100     1.6390    -0.1960 C.3   1 <1>  -0.0190 
  5 C       -3.0720    -1.5230    -2.1800 C.3   1 <1>   0.2840 
  6 C       -2.5540     3.0770    -0.3260 C.3   1 <1>  -0.1600 
  7 C       -0.4810     1.6520     0.0340 C.3   1 <1>  -0.1600 
  8 C       -4.2920    -2.2510    -1.6390 C.ar  1 <1>  -0.1440 
  9 C       -2.3110     3.9090     0.9520 C.3   1 <1>   0.2000 
 10 C        0.0130     2.8520     0.8690 C.3   1 <1>  -0.1600 
 11 C       -4.1580    -3.2460    -0.6750 C.ar  1 <1>   0.0820 
 12 C       -5.5520    -1.9150    -2.1100 C.ar  1 <1>  -0.1500 
 13 O       -2.0970     5.2490     0.5810 O.3   1 <1>  -0.5600 
 14 C       -1.0920     3.4070     1.7710 C.3   1 <1>   0.2000 
 15 O       -2.9040    -3.5290    -0.2310 O.3   1 <1>  -0.3630 
 16 C       -5.2930    -3.9000    -0.2000 C.ar  1 <1>  -0.1500 
 17 C       -6.6750    -2.5670    -1.6350 C.ar  1 <1>  -0.1500 
 18 C       -3.2440     5.9610     0.2330 C.3   1 <1>   0.0400 
 19 O       -0.5670     4.4590     2.4940 O.3   1 <1>  -0.6800 
 20 C       -2.6560    -4.5970     0.6540 C.3   1 <1>   0.1200 
 21 C       -6.5450    -3.5600    -0.6810 C.ar  1 <1>  -0.1500 
 22 C       -1.1490    -4.6690     0.9000 C.3   1 <1>  -0.1600 
 23 C       -0.7950    -5.8070     1.8650 C.3   1 <1>  -0.2400 
 24 H       -2.5920    -0.9510    -0.2260 H     1 <1>   0.3700 
 25 H       -2.4760     1.2020     0.6700 H     1 <1>   0.0800 
 26 H       -3.3100    -1.0180    -3.1010 H     1 <1>   0.0800 
 27 H       -2.2790    -2.2240    -2.3740 H     1 <1>   0.0800 
 28 H       -3.6080     3.0420    -0.5350 H     1 <1>   0.0800 
 29 H       -2.0610     3.5480    -1.1600 H     1 <1>   0.0800 
 30 H       -0.2000     0.7340     0.5220 H     1 <1>   0.0800 
 31 H        0.0240     1.6740    -0.9180 H     1 <1>   0.0800 
 32 H       -3.1760     3.8630     1.5920 H     1 <1>   0.0800 
 33 H        0.3270     3.6340     0.1980 H     1 <1>   0.0800 
 34 H        0.8590     2.5560     1.4630 H     1 <1>   0.0800 
 35 H       -5.6630    -1.1400    -2.8500 H     1 <1>   0.1500 
 36 H       -1.3980     2.6470     2.4700 H     1 <1>   0.0800 
 37 H       -5.2260    -4.6720     0.5410 H     1 <1>   0.1500 
 38 H       -7.6500    -2.3010    -2.0070 H     1 <1>   0.1500 
 39 H       -2.9520     6.9710     0.0030 H     1 <1>   0.0800 
 40 H       -3.9280     5.9630     1.0640 H     1 <1>   0.0800 
 41 H       -3.6990     5.5140    -0.6330 H     1 <1>   0.0800 
 42 H       -0.7390     5.2640     1.9540 H     1 <1>   0.4000 
 43 H       -3.1820    -4.4070     1.5740 H     1 <1>   0.0800 
 44 H       -3.0120    -5.5050     0.2000 H     1 <1>   0.0800 
 45 H       -7.4200    -4.0670    -0.3120 H     1 <1>   0.1500 
 46 H       -0.6450    -4.8320    -0.0370 H     1 <1>   0.0800 
 47 H       -0.8110    -3.7350     1.3150 H     1 <1>   0.0800 
 48 H       -1.1080    -6.7540     1.4620 H     1 <1>   0.0800 
 49 H       -1.2750    -5.6580     2.8170 H     1 <1>   0.0800 
 50 H        0.2690    -5.8380     2.0210 H     1 <1>   0.0800 
@<TRIPOS>BOND
  1   1   2  2   
  2   2   3  am  
  3   2   4  1   
  4   3   5  1   
  5   3  24  1   
  6   4   6  1   
  7   4   7  1   
  8   4  25  1   
  9   5   8  1   
 10   5  26  1   
 11   5  27  1   
 12   6   9  1   
 13   6  28  1   
 14   6  29  1   
 15   7  10  1   
 16   7  30  1   
 17   7  31  1   
 18   8  11  ar  
 19   8  12  ar  
 20   9  13  1   
 21   9  14  1   
 22   9  32  1   
 23  10  14  1   
 24  10  33  1   
 25  10  34  1   
 26  11  15  1   
 27  11  16  ar  
 28  12  17  ar  
 29  12  35  1   
 30  13  18  1   
 31  14  19  1   
 32  14  36  1   
 33  15  20  1   
 34  16  21  ar  
 35  16  37  1   
 36  17  21  ar  
 37  17  38  1   
 38  18  39  1   
 39  18  40  1   
 40  18  41  1   
 41  19  42  1   
 42  20  22  1   
 43  20  43  1   
 44  20  44  1   
 45  21  45  1   
 46  22  23  1   
 47  22  46  1   
 48  22  47  1   
 49  23  48  1   
 50  23  49  1   
 51  23  50  1   
@<TRIPOS>SUBSTRUCTURE
  1 ****   3 GROUP 4 **** **** 0

# MOE 2024.06 (io_trps.svl 2023.06)
