@<TRIPOS>MOLECULE
NONAME
42 44 1 0 0 
SMALL
USER_CHARGES


@<TRIPOS>ATOM
  1 CL      -4.3100    -0.0180     1.9610 Cl    1 <1>  -0.1770 
  2 C       -3.4070     1.0000     0.8700 C.ar  1 <1>   0.1770 
  3 C       -3.0700     2.2810     1.2650 C.ar  1 <1>  -0.1500 
  4 C       -3.0480     0.5030    -0.3690 C.ar  1 <1>  -0.1500 
  5 C       -2.3490     3.1330     0.4210 C.ar  1 <1>   0.0860 
  6 C       -2.3310     1.3150    -1.2290 C.ar  1 <1>  -0.1500 
  7 C       -1.9980     2.5960    -0.8250 C.ar  1 <1>   0.1900 
  8 C       -2.0130     4.4770     0.8610 C.2   1 <1>   0.5440 
  9 F       -1.3140     3.3120    -1.6760 F     1 <1>  -0.1900 
 10 O       -2.0150     4.7320     2.0500 O.2   1 <1>  -0.5700 
 11 N       -1.7030     5.4670    -0.0340 N.am  1 <1>  -0.4930 
 12 C       -1.3480     6.8190     0.2010 C.2   1 <1>   0.0630 
 13 C       -1.9450     7.7670     1.0390 C.2   1 <1>   0.1080 
 14 C       -0.3290     7.4790    -0.3950 C.2   1 <1>  -0.3320 
 15 N       -1.3510     8.9180     0.9750 N.2   1 <1>  -0.7070 
 16 C       -3.1490     7.5470     1.9270 C.3   1 <1>  -0.0590 
 17 N       -0.3470     8.7440     0.0970 N.pl3 1 <1>   0.3140 
 18 C        0.6810     6.9590    -1.4090 C.3   1 <1>  -0.0600 
 19 C        0.5870     9.8530    -0.2230 C.3   1 <1>   0.1760 
 20 C        1.2050    10.4370     1.0440 C.3   1 <1>  -0.0550 
 21 C       -0.1200    11.0090    -0.9610 C.3   1 <1>  -0.1600 
 22 S        1.9480    11.9490     0.5040 S.o2  1 <1>   1.0900 
 23 C        0.7000    12.2910    -0.7280 C.3   1 <1>  -0.0550 
 24 O        3.1710    11.6100    -0.1860 O.2   1 <1>  -0.6500 
 25 O        1.9140    12.9410     1.5530 O.2   1 <1>  -0.6500 
 26 H       -3.3700     2.6210     2.2420 H     1 <1>   0.1500 
 27 H       -3.3260    -0.4990    -0.6480 H     1 <1>   0.1500 
 28 H       -2.0320     0.9600    -2.2010 H     1 <1>   0.1500 
 29 H       -1.5660     5.1650    -0.9980 H     1 <1>   0.3700 
 30 H       -3.8090     6.8240     1.4880 H     1 <1>   0.0800 
 31 H       -3.6800     8.4710     2.0590 H     1 <1>   0.0800 
 32 H       -2.8230     7.1900     2.8870 H     1 <1>   0.0800 
 33 H        0.4990     5.9230    -1.6310 H     1 <1>   0.0800 
 34 H        1.6790     7.0450    -1.0170 H     1 <1>   0.0800 
 35 H        0.6120     7.5190    -2.3250 H     1 <1>   0.0800 
 36 H        1.3790     9.4760    -0.8430 H     1 <1>   0.0800 
 37 H        1.9290     9.7720     1.4740 H     1 <1>   0.0800 
 38 H        0.4350    10.6500     1.7630 H     1 <1>   0.0800 
 39 H       -1.1060    11.1530    -0.5490 H     1 <1>   0.0800 
 40 H       -0.2110    10.7940    -2.0120 H     1 <1>   0.0800 
 41 H        0.0490    13.0750    -0.3860 H     1 <1>   0.0800 
 42 H        1.1660    12.6120    -1.6400 H     1 <1>   0.0800 
@<TRIPOS>BOND
  1   1   2  1   
  2   2   3  ar  
  3   2   4  ar  
  4   3   5  ar  
  5   3  26  1   
  6   4   6  ar  
  7   4  27  1   
  8   5   7  ar  
  9   5   8  1   
 10   6   7  ar  
 11   6  28  1   
 12   7   9  1   
 13   8  10  2   
 14   8  11  am  
 15  11  12  1   
 16  11  29  1   
 17  12  13  1   
 18  12  14  2   
 19  13  15  2   
 20  13  16  1   
 21  14  17  1   
 22  14  18  1   
 23  15  17  1   
 24  16  30  1   
 25  16  31  1   
 26  16  32  1   
 27  17  19  1   
 28  18  33  1   
 29  18  34  1   
 30  18  35  1   
 31  19  20  1   
 32  19  21  1   
 33  19  36  1   
 34  20  22  1   
 35  20  37  1   
 36  20  38  1   
 37  21  23  1   
 38  21  39  1   
 39  21  40  1   
 40  22  23  1   
 41  22  24  2   
 42  22  25  2   
 43  23  41  1   
 44  23  42  1   
@<TRIPOS>SUBSTRUCTURE
  1 ****  12 GROUP 4 **** **** 0

# MOE 2024.06 (io_trps.svl 2023.06)
