@<TRIPOS>MOLECULE
NONAME
52 54 1 0 0 
SMALL
USER_CHARGES


@<TRIPOS>ATOM
  1 S        0.1800     0.9860    -1.0190 S.o2  1 <1>   1.3330 
  2 O        0.5360     2.0340    -1.9510 O.2   1 <1>  -0.6500 
  3 O        0.3170    -0.4020    -1.4100 O.2   1 <1>  -0.6500 
  4 N       -1.4450     1.2140    -0.5930 N.am  1 <1>  -0.8490 
  5 C        1.0140     1.2810     0.5470 C.3   1 <1>   0.0890 
  6 C       -2.1210     0.0170    -0.1120 C.3   1 <1>   0.1960 
  7 C       -2.2180     1.9300    -1.6180 C.3   1 <1>   0.1960 
  8 C        2.5280     1.1090     0.5000 C.ar  1 <1>  -0.1440 
  9 C       -3.4070     0.4030     0.6290 C.3   1 <1>  -0.1600 
 10 C       -3.7400     1.7630    -1.4680 C.3   1 <1>  -0.1600 
 11 C        3.0800    -0.1570     0.3780 C.ar  1 <1>  -0.1500 
 12 C        3.3630     2.2120     0.5780 C.ar  1 <1>  -0.1500 
 13 C       -4.1920     1.5760    -0.0080 C.3   1 <1>   0.2800 
 14 C        4.4540    -0.3270     0.3400 C.ar  1 <1>  -0.1440 
 15 C        4.7370     2.0470     0.5430 C.ar  1 <1>  -0.1500 
 16 O       -3.7890     2.7500     0.6710 O.3   1 <1>  -0.5600 
 17 C       -5.7290     1.3320     0.1340 C.3   1 <1>   0.2000 
 18 C        5.2810     0.7810     0.4260 C.ar  1 <1>  -0.1500 
 19 C        5.0430    -1.7190     0.2020 C.3   1 <1>  -0.0970 
 20 C       -4.7360     3.5380     1.3300 C.3   1 <1>   0.1200 
 21 O       -6.1700     0.2640    -0.6590 O.3   1 <1>  -0.6800 
 22 C       -6.6090     2.6020    -0.0780 C.3   1 <1>   0.2800 
 23 C       -5.8630     3.8740     0.3550 C.3   1 <1>  -0.1600 
 24 O       -7.7040     2.4650     0.7540 O.3   1 <1>  -0.6800 
 25 C       -7.2020     2.7780    -1.4850 C.3   1 <1>  -0.2400 
 26 H        0.7830     2.2750     0.8750 H     1 <1>   0.0800 
 27 H        0.6220     0.6060     1.2820 H     1 <1>   0.0800 
 28 H       -2.3490    -0.6240    -0.9490 H     1 <1>   0.0800 
 29 H       -1.4800    -0.5310     0.5580 H     1 <1>   0.0800 
 30 H       -1.9700     2.9760    -1.5480 H     1 <1>   0.0800 
 31 H       -1.9310     1.5890    -2.6000 H     1 <1>   0.0800 
 32 H       -3.1730     0.6460     1.6500 H     1 <1>   0.0800 
 33 H       -4.0200    -0.4790     0.6520 H     1 <1>   0.0800 
 34 H       -4.0410     0.9050    -2.0410 H     1 <1>   0.0800 
 35 H       -4.2200     2.6160    -1.9040 H     1 <1>   0.0800 
 36 H        2.4390    -1.0190     0.3060 H     1 <1>   0.1500 
 37 H        2.9540     3.2030     0.6630 H     1 <1>   0.1500 
 38 H        5.3820     2.9050     0.6040 H     1 <1>   0.1500 
 39 H       -5.8780     1.0130     1.1520 H     1 <1>   0.0800 
 40 H        6.3500     0.6630     0.3990 H     1 <1>   0.1500 
 41 H        6.0330    -1.6720    -0.2150 H     1 <1>   0.0800 
 42 H        4.4310    -2.3190    -0.4480 H     1 <1>   0.0800 
 43 H        5.0930    -2.1910     1.1660 H     1 <1>   0.0800 
 44 H       -5.0990     3.0030     2.1920 H     1 <1>   0.0800 
 45 H       -4.2390     4.4340     1.6600 H     1 <1>   0.0800 
 46 H       -7.1270     0.1400    -0.4980 H     1 <1>   0.4000 
 47 H       -5.4140     4.3500    -0.4980 H     1 <1>   0.0800 
 48 H       -6.5380     4.5830     0.8000 H     1 <1>   0.0800 
 49 H       -8.3250     3.2020     0.6030 H     1 <1>   0.4000 
 50 H       -6.4220     2.8160    -2.2210 H     1 <1>   0.0800 
 51 H       -7.7620     3.6930    -1.5490 H     1 <1>   0.0800 
 52 H       -7.8480     1.9560    -1.7350 H     1 <1>   0.0800 
@<TRIPOS>BOND
  1   1   2  2   
  2   1   3  2   
  3   1   4  am  
  4   1   5  1   
  5   4   6  1   
  6   4   7  1   
  7   5   8  1   
  8   5  26  1   
  9   5  27  1   
 10   6   9  1   
 11   6  28  1   
 12   6  29  1   
 13   7  10  1   
 14   7  30  1   
 15   7  31  1   
 16   8  11  ar  
 17   8  12  ar  
 18   9  13  1   
 19   9  32  1   
 20   9  33  1   
 21  10  13  1   
 22  10  34  1   
 23  10  35  1   
 24  11  14  ar  
 25  11  36  1   
 26  12  15  ar  
 27  12  37  1   
 28  13  16  1   
 29  13  17  1   
 30  14  18  ar  
 31  14  19  1   
 32  15  18  ar  
 33  15  38  1   
 34  16  20  1   
 35  17  21  1   
 36  17  22  1   
 37  17  39  1   
 38  18  40  1   
 39  19  41  1   
 40  19  42  1   
 41  19  43  1   
 42  20  23  1   
 43  20  44  1   
 44  20  45  1   
 45  21  46  1   
 46  22  23  1   
 47  22  24  1   
 48  22  25  1   
 49  23  47  1   
 50  23  48  1   
 51  24  49  1   
 52  25  50  1   
 53  25  51  1   
 54  25  52  1   
@<TRIPOS>SUBSTRUCTURE
  1 ****   4 GROUP 4 **** **** 0

# MOE 2024.06 (io_trps.svl 2023.06)
