@<TRIPOS>MOLECULE
NONAME
44 46 1 0 0 
SMALL
USER_CHARGES


@<TRIPOS>ATOM
  1 CL      -0.9440    -0.5980    -1.8140 Cl    1 <1>  -0.1770 
  2 C       -1.8000    -1.1610    -0.3950 C.ar  1 <1>   0.1770 
  3 C       -1.9680    -2.5220    -0.1050 C.ar  1 <1>   0.0820 
  4 C       -2.3420    -0.1870     0.4210 C.ar  1 <1>  -0.1500 
  5 O       -1.4520    -3.5370    -0.8540 O.3   1 <1>  -0.3630 
  6 C       -2.7260    -2.8910     1.0070 C.ar  1 <1>  -0.1440 
  7 C       -3.0710    -0.5760     1.5260 C.ar  1 <1>   0.1770 
  8 C       -0.1140    -3.4780    -1.3160 C.3   1 <1>   0.0400 
  9 C       -3.2720    -1.9110     1.8250 C.ar  1 <1>  -0.1500 
 10 C       -2.9560    -4.3580     1.3280 C.3   1 <1>   0.4870 
 11 CL      -3.7650     0.6390     2.5660 Cl    1 <1>  -0.1770 
 12 N       -3.6540    -4.9880     0.1790 N.4   1 <1>  -0.9590 
 13 C       -5.0170    -4.4400    -0.0890 C.3   1 <1>   0.3430 
 14 C       -3.7500    -6.4750     0.2670 C.3   1 <1>   0.3430 
 15 C       -5.8180    -5.6200    -0.6380 C.3   1 <1>   0.2000 
 16 C       -5.2200    -6.8460     0.0420 C.3   1 <1>  -0.0800 
 17 O       -7.1690    -5.5130    -0.3500 O.3   1 <1>  -0.6800 
 18 C       -5.4130    -8.1360    -0.7790 C.3   1 <1>  -0.0170 
 19 C       -4.8600    -9.3630    -0.0650 C.ar  1 <1>   0.1670 
 20 N       -3.5560    -9.3730     0.1710 N.ar  1 <1>  -0.6200 
 21 C       -5.7160   -10.4020     0.2990 C.ar  1 <1>   0.1600 
 22 C       -3.1700   -10.4870     0.7750 C.ar  1 <1>   0.1600 
 23 N       -5.3310   -11.5050     0.9160 N.ar  1 <1>  -0.6200 
 24 C       -4.0290   -11.5180     1.1370 C.ar  1 <1>   0.1600 
 25 H       -2.2050     0.8560     0.1970 H     1 <1>   0.1500 
 26 H        0.2700    -4.4810    -1.3720 H     1 <1>   0.0800 
 27 H        0.4810    -2.8980    -0.6320 H     1 <1>   0.0800 
 28 H       -0.1010    -3.0380    -2.2970 H     1 <1>   0.0800 
 29 H       -3.8520    -2.1570     2.6980 H     1 <1>   0.1500 
 30 H       -3.5450    -4.4590     2.2250 H     1 <1>   0.0800 
 31 H       -2.0030    -4.8370     1.4840 H     1 <1>   0.0800 
 32 H       -3.0530    -4.7500    -0.6320 H     1 <1>   0.4500 
 33 H       -5.4650    -4.1030     0.8310 H     1 <1>   0.0800 
 34 H       -4.9810    -3.6270    -0.7970 H     1 <1>   0.0800 
 35 H       -3.1400    -6.9250    -0.5010 H     1 <1>   0.0800 
 36 H       -3.4160    -6.8430     1.2230 H     1 <1>   0.0800 
 37 H       -5.7060    -5.6640    -1.7090 H     1 <1>   0.0800 
 38 H       -5.6680    -6.9770     1.0120 H     1 <1>   0.0800 
 39 H       -7.3750    -5.6690     0.5930 H     1 <1>   0.4000 
 40 H       -4.9200    -8.0460    -1.7320 H     1 <1>   0.0800 
 41 H       -6.4620    -8.2750    -0.9750 H     1 <1>   0.0800 
 42 H       -6.7650   -10.3230     0.0720 H     1 <1>   0.1500 
 43 H       -2.1220   -10.5950     0.9970 H     1 <1>   0.1500 
 44 H       -3.6220   -12.3850     1.6270 H     1 <1>   0.1500 
@<TRIPOS>BOND
  1   1   2  1   
  2   2   3  ar  
  3   2   4  ar  
  4   3   5  1   
  5   3   6  ar  
  6   4   7  ar  
  7   4  25  1   
  8   5   8  1   
  9   6   9  ar  
 10   6  10  1   
 11   7   9  ar  
 12   7  11  1   
 13   8  26  1   
 14   8  27  1   
 15   8  28  1   
 16   9  29  1   
 17  10  12  1   
 18  10  30  1   
 19  10  31  1   
 20  12  13  1   
 21  12  14  1   
 22  12  32  1   
 23  13  15  1   
 24  13  33  1   
 25  13  34  1   
 26  14  16  1   
 27  14  35  1   
 28  14  36  1   
 29  15  16  1   
 30  15  17  1   
 31  15  37  1   
 32  16  18  1   
 33  16  38  1   
 34  17  39  1   
 35  18  19  1   
 36  18  40  1   
 37  18  41  1   
 38  19  20  ar  
 39  19  21  ar  
 40  20  22  ar  
 41  21  23  ar  
 42  21  42  1   
 43  22  24  ar  
 44  22  43  1   
 45  23  24  ar  
 46  24  44  1   
@<TRIPOS>SUBSTRUCTURE
  1 ****  12 GROUP 4 **** **** 0

# MOE 2024.06 (io_trps.svl 2023.06)
