@<TRIPOS>MOLECULE
NONAME
52 54 1 0 0 
SMALL
USER_CHARGES


@<TRIPOS>ATOM
  1 O       -3.5810    -0.8040    -1.9370 O.2   1 <1>  -0.5700 
  2 C       -3.1110     0.0720    -1.2470 C.2   1 <1>   0.5690 
  3 N       -2.7640    -0.1500     0.0600 N.am  1 <1>  -0.6600 
  4 C       -2.9310     1.4420    -1.8740 C.3   1 <1>  -0.0990 
  5 C       -2.2460     0.9050     0.9680 C.3   1 <1>   0.1400 
  6 C       -2.9400    -1.5000     0.6600 C.3   1 <1>   0.1400 
  7 C       -3.8600     2.5050    -1.2670 C.3   1 <1>  -0.1600 
  8 C       -3.2980     1.9940     1.2050 C.3   1 <1>  -0.1600 
  9 C       -4.3440    -1.6250     1.2460 C.3   1 <1>  -0.0990 
 10 C       -3.3720     3.0450     0.0850 C.3   1 <1>  -0.1600 
 11 C       -4.6970    -3.0850     1.4170 C.2   1 <1>   0.5690 
 12 O       -4.5440    -3.5810     2.5070 O.2   1 <1>  -0.5700 
 13 N       -5.1550    -3.8150     0.3560 N.am  1 <1>  -0.6600 
 14 C       -5.3170    -3.3470    -1.0500 C.3   1 <1>   0.1400 
 15 C       -5.4520    -5.2640     0.4510 C.3   1 <1>   0.1400 
 16 C       -6.1330    -4.4490    -1.7210 C.3   1 <1>   0.2000 
 17 C       -5.6820    -5.7220    -0.9950 C.3   1 <1>  -0.0800 
 18 O       -7.4750    -4.2180    -1.4540 O.3   1 <1>  -0.6800 
 19 C       -6.6440    -6.9170    -1.1270 C.3   1 <1>   0.0200 
 20 C       -6.0940    -8.1990    -0.5230 C.2   1 <1>  -0.0400 
 21 O       -6.8720    -9.2460    -0.4630 O.3   1 <1>  -0.0190 
 22 C       -4.9070    -8.5440     0.0030 C.2   1 <1>  -0.1500 
 23 N       -6.2740   -10.2690     0.0750 N.2   1 <1>  -0.4100 
 24 C       -5.0880    -9.8750     0.3670 C.2   1 <1>   0.1080 
 25 C       -4.0380   -10.7470     1.0190 C.3   1 <1>  -0.0590 
 26 H       -1.9030     1.7430    -1.7940 H     1 <1>   0.0800 
 27 H       -3.1550     1.3530    -2.9220 H     1 <1>   0.0800 
 28 H       -1.9880     0.4630     1.9160 H     1 <1>   0.0800 
 29 H       -1.3480     1.3330     0.5550 H     1 <1>   0.0800 
 30 H       -2.7960    -2.2430    -0.1050 H     1 <1>   0.0800 
 31 H       -2.2000    -1.6780     1.4210 H     1 <1>   0.0800 
 32 H       -3.9230     3.3320    -1.9530 H     1 <1>   0.0800 
 33 H       -4.8520     2.0980    -1.1630 H     1 <1>   0.0800 
 34 H       -4.2630     1.5440     1.3640 H     1 <1>   0.0800 
 35 H       -3.0350     2.5090     2.1120 H     1 <1>   0.0800 
 36 H       -5.0650    -1.1580     0.6040 H     1 <1>   0.0800 
 37 H       -4.3810    -1.1390     2.2030 H     1 <1>   0.0800 
 38 H       -4.0480     3.8220     0.3980 H     1 <1>   0.0800 
 39 H       -2.4050     3.5010    -0.0420 H     1 <1>   0.0800 
 40 H       -5.8100    -2.3930    -1.1170 H     1 <1>   0.0800 
 41 H       -4.3480    -3.2810    -1.5140 H     1 <1>   0.0800 
 42 H       -4.6320    -5.7870     0.9140 H     1 <1>   0.0800 
 43 H       -6.3390    -5.4000     1.0470 H     1 <1>   0.0800 
 44 H       -5.9960    -4.4880    -2.7880 H     1 <1>   0.0800 
 45 H       -4.7290    -6.0040    -1.4050 H     1 <1>   0.0800 
 46 H       -7.5690    -3.9870    -0.5080 H     1 <1>   0.4000 
 47 H       -6.8500    -7.0950    -2.1680 H     1 <1>   0.0800 
 48 H       -7.5800    -6.6910    -0.6470 H     1 <1>   0.0800 
 49 H       -4.0080    -7.9720     0.1330 H     1 <1>   0.1500 
 50 H       -3.1780   -10.8230     0.3800 H     1 <1>   0.0800 
 51 H       -4.4340   -11.7320     1.1880 H     1 <1>   0.0800 
 52 H       -3.7460   -10.3230     1.9620 H     1 <1>   0.0800 
@<TRIPOS>BOND
  1   1   2  2   
  2   2   3  am  
  3   2   4  1   
  4   3   5  1   
  5   3   6  1   
  6   4   7  1   
  7   4  26  1   
  8   4  27  1   
  9   5   8  1   
 10   5  28  1   
 11   5  29  1   
 12   6   9  1   
 13   6  30  1   
 14   6  31  1   
 15   7  10  1   
 16   7  32  1   
 17   7  33  1   
 18   8  10  1   
 19   8  34  1   
 20   8  35  1   
 21   9  11  1   
 22   9  36  1   
 23   9  37  1   
 24  10  38  1   
 25  10  39  1   
 26  11  12  2   
 27  11  13  am  
 28  13  14  1   
 29  13  15  1   
 30  14  16  1   
 31  14  40  1   
 32  14  41  1   
 33  15  17  1   
 34  15  42  1   
 35  15  43  1   
 36  16  17  1   
 37  16  18  1   
 38  16  44  1   
 39  17  19  1   
 40  17  45  1   
 41  18  46  1   
 42  19  20  1   
 43  19  47  1   
 44  19  48  1   
 45  20  21  1   
 46  20  22  2   
 47  21  23  1   
 48  22  24  1   
 49  22  49  1   
 50  23  24  2   
 51  24  25  1   
 52  25  50  1   
 53  25  51  1   
 54  25  52  1   
@<TRIPOS>SUBSTRUCTURE
  1 ****  13 GROUP 4 **** **** 0

# MOE 2024.06 (io_trps.svl 2023.06)
