@<TRIPOS>MOLECULE
NONAME
52 55 1 0 0 
SMALL
USER_CHARGES


@<TRIPOS>ATOM
  1 O        2.4770    -0.6380    -2.9830 O.2   1 <1>  -0.5700 
  2 C        2.6740    -0.9870    -1.8360 C.2   1 <1>   0.5440 
  3 N        3.1610    -0.0560    -0.9360 N.am  1 <1>  -0.6600 
  4 C        2.3650    -2.3470    -1.4490 C.ar  1 <1>   0.0860 
  5 C        3.4670    -0.4140     0.5030 C.3   1 <1>   0.2200 
  6 C        3.4160     1.3380    -1.4240 C.3   1 <1>   0.1400 
  7 C        1.1410    -2.6750    -0.9090 C.ar  1 <1>  -0.1500 
  8 C        3.3130    -3.3760    -1.5960 C.ar  1 <1>  -0.1500 
  9 C        2.7950     0.5430     1.5000 C.3   1 <1>   0.1200 
 10 C        4.9860    -0.5140     0.7690 C.3   1 <1>   0.3430 
 11 C        4.2770     2.2270    -0.5100 C.3   1 <1>  -0.0800 
 12 C        0.8280    -3.9740    -0.4920 C.ar  1 <1>   0.3100 
 13 C        3.0340    -4.6590    -1.2040 C.ar  1 <1>  -0.1500 
 14 O        3.5870     1.6690     1.7380 O.3   1 <1>  -0.5600 
 15 N        5.8060     0.2130    -0.2560 N.4   1 <1>  -0.9590 
 16 C        3.5350     2.6560     0.7640 C.3   1 <1>   0.1200 
 17 C        5.6950     1.6950    -0.2250 C.3   1 <1>   0.3430 
 18 N       -0.3890    -4.2100     0.0580 N.ar  1 <1>  -0.6200 
 19 C        1.7930    -4.9970    -0.6440 C.ar  1 <1>   0.3100 
 20 C        7.2400    -0.2950    -0.2410 C.3   1 <1>   0.2370 
 21 C       -0.5910    -5.4410     0.4110 C.ar  1 <1>   0.1670 
 22 N        1.5510    -6.2750    -0.2620 N.ar  1 <1>  -0.6200 
 23 C        7.3780    -1.7870    -0.5730 C.2   1 <1>   0.9060 
 24 C        0.3760    -6.4710     0.2500 C.ar  1 <1>   0.1670 
 25 C       -1.9490    -5.7450     1.0220 C.3   1 <1>  -0.0970 
 26 O        8.3910    -2.3870    -0.2190 O.co2 1 <1>  -0.9000 
 27 O        6.4180    -2.3310    -1.1360 O.co2 1 <1>  -0.9000 
 28 C        0.0690    -7.8950     0.6860 C.3   1 <1>  -0.0970 
 29 H        3.0550    -1.3820     0.7190 H     1 <1>   0.0800 
 30 H        3.9010     1.2770    -2.3850 H     1 <1>   0.0800 
 31 H        2.4640     1.8140    -1.5880 H     1 <1>   0.0800 
 32 H        0.3830    -1.9220    -0.7950 H     1 <1>   0.1500 
 33 H        4.2740    -3.1380    -2.0260 H     1 <1>   0.1500 
 34 H        2.6880     0.0430     2.4460 H     1 <1>   0.0800 
 35 H        1.8150     0.8410     1.1650 H     1 <1>   0.0800 
 36 H        5.2460    -1.5600     0.7460 H     1 <1>   0.0800 
 37 H        5.2100    -0.1470     1.7560 H     1 <1>   0.0800 
 38 H        4.4170     3.1420    -1.0570 H     1 <1>   0.0800 
 39 H        3.7660    -5.4390    -1.3160 H     1 <1>   0.1500 
 40 H        5.4140    -0.1520    -1.1450 H     1 <1>   0.4500 
 41 H        2.5050     2.9030     0.5640 H     1 <1>   0.0800 
 42 H        4.0100     3.5270     1.1840 H     1 <1>   0.0800 
 43 H        6.0260     2.0620     0.7330 H     1 <1>   0.0800 
 44 H        6.3580     2.0950    -0.9750 H     1 <1>   0.0800 
 45 H        7.8240     0.2390    -0.9670 H     1 <1>   0.0800 
 46 H        7.6800    -0.1380     0.7270 H     1 <1>   0.0800 
 47 H       -1.8290    -6.1220     2.0210 H     1 <1>   0.0800 
 48 H       -2.4690    -6.4700     0.4240 H     1 <1>   0.0800 
 49 H       -2.5480    -4.8530     1.0680 H     1 <1>   0.0800 
 50 H       -0.7770    -8.2740     0.1430 H     1 <1>   0.0800 
 51 H       -0.1360    -7.9240     1.7400 H     1 <1>   0.0800 
 52 H        0.9110    -8.5350     0.4880 H     1 <1>   0.0800 
@<TRIPOS>BOND
  1   1   2  2   
  2   2   3  am  
  3   2   4  1   
  4   3   5  1   
  5   3   6  1   
  6   4   7  ar  
  7   4   8  ar  
  8   5   9  1   
  9   5  10  1   
 10   5  29  1   
 11   6  11  1   
 12   6  30  1   
 13   6  31  1   
 14   7  12  ar  
 15   7  32  1   
 16   8  13  ar  
 17   8  33  1   
 18   9  14  1   
 19   9  34  1   
 20   9  35  1   
 21  10  15  1   
 22  10  36  1   
 23  10  37  1   
 24  11  16  1   
 25  11  17  1   
 26  11  38  1   
 27  12  18  ar  
 28  12  19  ar  
 29  13  19  ar  
 30  13  39  1   
 31  14  16  1   
 32  15  17  1   
 33  15  20  1   
 34  15  40  1   
 35  16  41  1   
 36  16  42  1   
 37  17  43  1   
 38  17  44  1   
 39  18  21  ar  
 40  19  22  ar  
 41  20  23  1   
 42  20  45  1   
 43  20  46  1   
 44  21  24  ar  
 45  21  25  1   
 46  22  24  ar  
 47  23  26  ar  
 48  23  27  ar  
 49  24  28  1   
 50  25  47  1   
 51  25  48  1   
 52  25  49  1   
 53  28  50  1   
 54  28  51  1   
 55  28  52  1   
@<TRIPOS>SUBSTRUCTURE
  1 ****   4 GROUP 4 **** **** 0

# MOE 2024.06 (io_trps.svl 2023.06)
