@<TRIPOS>MOLECULE
NONAME
55 57 1 0 0 
SMALL
USER_CHARGES


@<TRIPOS>ATOM
  1 O        0.0500    -0.1380     0.5430 O.2   1 <1>  -0.5700 
  2 C        1.1540     0.2560     0.2090 C.2   1 <1>   0.5440 
  3 N        1.3490     1.6070     0.2180 N.am  1 <1>  -0.5470 
  4 C        2.1800    -0.6950    -0.1360 C.ar  1 <1>   0.0860 
  5 C        2.4250     2.4110    -0.2010 C.ar  1 <1>   0.1170 
  6 C        1.8980    -1.7550    -1.0190 C.ar  1 <1>   0.4100 
  7 C        3.4490    -0.6410     0.4240 C.ar  1 <1>  -0.1500 
  8 C        2.7240     3.5790     0.5080 C.ar  1 <1>   0.0820 
  9 C        3.1880     2.0850    -1.3160 C.ar  1 <1>  -0.1500 
 10 N        2.7450    -2.7450    -1.2900 N.ar  1 <1>  -0.6200 
 11 N        0.6670    -1.8590    -1.6300 N.pl3 1 <1>  -0.8690 
 12 C        4.3410    -1.6400     0.1090 C.ar  1 <1>  -0.1500 
 13 O        1.9250     3.8770     1.5760 O.3   1 <1>  -0.3620 
 14 C        3.7910     4.3810     0.1170 C.ar  1 <1>  -0.1500 
 15 C        4.2480     2.8860    -1.7010 C.ar  1 <1>  -0.1500 
 16 C        3.9410    -2.6590    -0.7370 C.ar  1 <1>   0.1600 
 17 C        0.1860    -2.9990    -2.4700 C.3   1 <1>   0.2090 
 18 C        2.1130     5.0510     2.3370 C.3   1 <1>   0.0400 
 19 C        4.5590     4.0310    -0.9900 C.ar  1 <1>   0.0820 
 20 C       -0.3740    -4.1630    -1.6180 C.3   1 <1>   0.3430 
 21 O        5.6200     4.7540    -1.4380 O.3   1 <1>  -0.3620 
 22 N        0.4190    -4.3530    -0.3640 N.4   1 <1>  -0.9590 
 23 C        6.0000     5.9630    -0.8180 C.3   1 <1>   0.0400 
 24 C        0.7790    -5.7650    -0.0220 C.3   1 <1>   0.3430 
 25 C       -0.1270    -3.6090     0.8190 C.3   1 <1>   0.3430 
 26 C        1.3920    -5.8760     1.3930 C.3   1 <1>   0.1200 
 27 C        0.8680    -3.6530     2.0020 C.3   1 <1>   0.1200 
 28 O        1.8640    -4.6330     1.8340 O.3   1 <1>  -0.5600 
 29 H        0.6320     2.1190     0.7380 H     1 <1>   0.3700 
 30 H        3.7230     0.1580     1.0930 H     1 <1>   0.1500 
 31 H        2.9570     1.2110    -1.8970 H     1 <1>   0.1500 
 32 H       -0.0340    -1.1460    -1.3700 H     1 <1>   0.4000 
 33 H        5.3360    -1.6360     0.5180 H     1 <1>   0.1500 
 34 H        4.0260     5.2700     0.6640 H     1 <1>   0.1500 
 35 H        4.8400     2.6280    -2.5620 H     1 <1>   0.1500 
 36 H        4.6490    -3.4390    -0.9660 H     1 <1>   0.1500 
 37 H        1.0020    -3.3650    -3.0700 H     1 <1>   0.0800 
 38 H       -0.5730    -2.6500    -3.1490 H     1 <1>   0.0800 
 39 H        1.3600     5.0750     3.1050 H     1 <1>   0.0800 
 40 H        2.0040     5.9060     1.6940 H     1 <1>   0.0800 
 41 H        3.0900     5.0240     2.7860 H     1 <1>   0.0800 
 42 H       -0.3500    -5.0620    -2.2110 H     1 <1>   0.0800 
 43 H       -1.4020    -3.9600    -1.3690 H     1 <1>   0.0800 
 44 H        1.3250    -3.8660    -0.5540 H     1 <1>   0.4500 
 45 H        6.8460     6.3590    -1.3510 H     1 <1>   0.0800 
 46 H        6.2740     5.7610     0.2020 H     1 <1>   0.0800 
 47 H        5.1800     6.6560    -0.8700 H     1 <1>   0.0800 
 48 H        1.4940    -6.1330    -0.7400 H     1 <1>   0.0800 
 49 H       -0.0920    -6.3970    -0.0750 H     1 <1>   0.0800 
 50 H       -1.0600    -4.0480     1.1270 H     1 <1>   0.0800 
 51 H       -0.3190    -2.5790     0.5620 H     1 <1>   0.0800 
 52 H        2.2190    -6.5640     1.3870 H     1 <1>   0.0800 
 53 H        0.6610    -6.2340     2.0980 H     1 <1>   0.0800 
 54 H        0.3470    -3.8460     2.9240 H     1 <1>   0.0800 
 55 H        1.3660    -2.7030     2.0930 H     1 <1>   0.0800 
@<TRIPOS>BOND
  1   1   2  2   
  2   2   3  am  
  3   2   4  1   
  4   3   5  1   
  5   3  29  1   
  6   4   6  ar  
  7   4   7  ar  
  8   5   8  ar  
  9   5   9  ar  
 10   6  10  ar  
 11   6  11  1   
 12   7  12  ar  
 13   7  30  1   
 14   8  13  1   
 15   8  14  ar  
 16   9  15  ar  
 17   9  31  1   
 18  10  16  ar  
 19  11  17  1   
 20  11  32  1   
 21  12  16  ar  
 22  12  33  1   
 23  13  18  1   
 24  14  19  ar  
 25  14  34  1   
 26  15  19  ar  
 27  15  35  1   
 28  16  36  1   
 29  17  20  1   
 30  17  37  1   
 31  17  38  1   
 32  18  39  1   
 33  18  40  1   
 34  18  41  1   
 35  19  21  1   
 36  20  22  1   
 37  20  42  1   
 38  20  43  1   
 39  21  23  1   
 40  22  24  1   
 41  22  25  1   
 42  22  44  1   
 43  23  45  1   
 44  23  46  1   
 45  23  47  1   
 46  24  26  1   
 47  24  48  1   
 48  24  49  1   
 49  25  27  1   
 50  25  50  1   
 51  25  51  1   
 52  26  28  1   
 53  26  52  1   
 54  26  53  1   
 55  27  28  1   
 56  27  54  1   
 57  27  55  1   
@<TRIPOS>SUBSTRUCTURE
  1 ****   4 GROUP 4 **** **** 0

# MOE 2024.06 (io_trps.svl 2023.06)
