@<TRIPOS>MOLECULE
NONAME
53 55 1 0 0 
SMALL
USER_CHARGES


@<TRIPOS>ATOM
  1 S        0.8200     0.4170     0.9820 S.o2  1 <1>   1.3330 
  2 O        2.1360     0.9310     1.2880 O.2   1 <1>  -0.6500 
  3 O       -0.1700     0.3260     2.0310 O.2   1 <1>  -0.6500 
  4 N        1.0070    -1.1180     0.2830 N.am  1 <1>  -0.8490 
  5 C        0.1120     1.3850    -0.3490 C.3   1 <1>  -0.0550 
  6 C        2.2350    -1.2540    -0.5080 C.3   1 <1>   0.1160 
  7 C        0.9320    -2.1930     1.2770 C.3   1 <1>   0.1160 
  8 C       -0.2300     2.8230     0.0730 C.3   1 <1>  -0.0800 
  9 C       -0.8800     3.6150    -1.0530 C.3   1 <1>   0.2000 
 10 C        0.9870     3.6670     0.4620 C.3   1 <1>   0.2090 
 11 O       -2.2360     3.3270    -1.1140 O.3   1 <1>  -0.6800 
 12 C       -0.6070     5.0760    -0.7080 C.3   1 <1>   0.2090 
 13 N        0.6710     5.0630     0.0590 N.pl3 1 <1>  -0.8380 
 14 C        1.7190     5.8010    -0.4430 C.ar  1 <1>   0.4100 
 15 N        2.0930     5.5250    -1.6770 N.ar  1 <1>  -0.6200 
 16 C        2.3530     6.7720     0.3140 C.ar  1 <1>  -0.1440 
 17 C        3.0980     6.2370    -2.1380 C.ar  1 <1>   0.4700 
 18 C        3.3970     7.4400    -0.2880 C.ar  1 <1>   0.3930 
 19 C        1.8910     7.0580     1.7450 C.3   1 <1>  -0.0970 
 20 N        3.7820     7.1810    -1.5280 N.ar  1 <1>  -0.6200 
 21 O        4.0430     8.4080     0.4050 O.3   1 <1>  -0.1650 
 22 C        5.2340     8.9620     0.0480 C.ar  1 <1>   0.0820 
 23 C        5.3910    10.3510     0.0370 C.ar  1 <1>   0.1670 
 24 C        6.3170     8.1610    -0.2670 C.ar  1 <1>  -0.1500 
 25 N        6.5270    10.9660    -0.2600 N.ar  1 <1>  -0.6200 
 26 C        4.2400    11.2820     0.3760 C.3   1 <1>  -0.0970 
 27 C        7.4980     8.7960    -0.5830 C.ar  1 <1>  -0.1500 
 28 C        7.5470    10.1800    -0.5640 C.ar  1 <1>   0.1600 
 29 H        0.7930     1.4100    -1.1760 H     1 <1>   0.0800 
 30 H       -0.7880     0.9040    -0.6810 H     1 <1>   0.0800 
 31 H        2.2560    -2.2140    -0.9950 H     1 <1>   0.0800 
 32 H        3.1030    -1.1630     0.1250 H     1 <1>   0.0800 
 33 H        2.2770    -0.4890    -1.2640 H     1 <1>   0.0800 
 34 H        1.0370    -3.1520     0.7990 H     1 <1>   0.0800 
 35 H       -0.0230    -2.1690     1.7750 H     1 <1>   0.0800 
 36 H        1.7090    -2.0750     2.0140 H     1 <1>   0.0800 
 37 H       -0.8890     2.8030     0.9240 H     1 <1>   0.0800 
 38 H       -0.4350     3.3840    -2.0060 H     1 <1>   0.0800 
 39 H        1.8670     3.3310    -0.0630 H     1 <1>   0.0800 
 40 H        1.1730     3.6150     1.5220 H     1 <1>   0.0800 
 41 H       -2.6620     3.5010    -0.2520 H     1 <1>   0.4000 
 42 H       -1.3840     5.4710    -0.0790 H     1 <1>   0.0800 
 43 H       -0.5240     5.6710    -1.6020 H     1 <1>   0.0800 
 44 H        3.4030     6.0170    -3.1480 H     1 <1>   0.1500 
 45 H        0.8300     7.2300     1.7560 H     1 <1>   0.0800 
 46 H        2.3740     7.9200     2.1670 H     1 <1>   0.0800 
 47 H        2.1040     6.2080     2.3680 H     1 <1>   0.0800 
 48 H        6.2380     7.0890    -0.2650 H     1 <1>   0.1500 
 49 H        3.2950    10.7710     0.3830 H     1 <1>   0.0800 
 50 H        4.1910    12.0690    -0.3530 H     1 <1>   0.0800 
 51 H        4.4090    11.7190     1.3430 H     1 <1>   0.0800 
 52 H        8.3720     8.2280    -0.8420 H     1 <1>   0.1500 
 53 H        8.4750    10.6660    -0.8130 H     1 <1>   0.1500 
@<TRIPOS>BOND
  1   1   2  2   
  2   1   3  2   
  3   1   4  am  
  4   1   5  1   
  5   4   6  1   
  6   4   7  1   
  7   5   8  1   
  8   5  29  1   
  9   5  30  1   
 10   6  31  1   
 11   6  32  1   
 12   6  33  1   
 13   7  34  1   
 14   7  35  1   
 15   7  36  1   
 16   8   9  1   
 17   8  10  1   
 18   8  37  1   
 19   9  11  1   
 20   9  12  1   
 21   9  38  1   
 22  10  13  1   
 23  10  39  1   
 24  10  40  1   
 25  11  41  1   
 26  12  13  1   
 27  12  42  1   
 28  12  43  1   
 29  13  14  1   
 30  14  15  ar  
 31  14  16  ar  
 32  15  17  ar  
 33  16  18  ar  
 34  16  19  1   
 35  17  20  ar  
 36  17  44  1   
 37  18  20  ar  
 38  18  21  1   
 39  19  45  1   
 40  19  46  1   
 41  19  47  1   
 42  21  22  1   
 43  22  23  ar  
 44  22  24  ar  
 45  23  25  ar  
 46  23  26  1   
 47  24  27  ar  
 48  24  48  1   
 49  25  28  ar  
 50  26  49  1   
 51  26  50  1   
 52  26  51  1   
 53  27  28  ar  
 54  27  52  1   
 55  28  53  1   
@<TRIPOS>SUBSTRUCTURE
  1 ****  14 GROUP 4 **** **** 0

# MOE 2024.06 (io_trps.svl 2023.06)
