@<TRIPOS>MOLECULE
NONAME
44 45 1 0 0 
SMALL
USER_CHARGES


@<TRIPOS>ATOM
  1 O        0.7470     0.9530     1.5140 O.co2 1 <1>  -0.9000 
  2 C        1.3990     0.6280     0.5190 C.2   1 <1>   0.9060 
  3 O        0.9130    -0.0170    -0.4210 O.co2 1 <1>  -0.9000 
  4 C        2.8600     1.0190     0.4450 C.3   1 <1>  -0.1860 
  5 C        3.7340    -0.2120     0.1610 C.3   1 <1>   0.2000 
  6 C        3.1180     2.1700    -0.5650 C.3   1 <1>  -0.1600 
  7 O        3.3670    -0.7280    -1.0730 O.3   1 <1>  -0.6800 
  8 C        5.2360     0.1510     0.1550 C.3   1 <1>   0.1400 
  9 C        4.4960     2.0990    -1.2390 C.3   1 <1>   0.1400 
 10 N        5.5070     1.5660    -0.2830 N.am  1 <1>  -0.6600 
 11 C        6.5290     2.2850     0.2740 C.2   1 <1>   0.5690 
 12 O        7.3560     1.7630     0.9870 O.2   1 <1>  -0.5700 
 13 C        6.6440     3.7780     0.0020 C.3   1 <1>  -0.0990 
 14 C        7.6200     4.5100     0.9340 C.3   1 <1>  -0.0170 
 15 C        7.6340     6.0020     0.6170 C.ar  1 <1>  -0.1440 
 16 C        8.5480     6.5780    -0.2620 C.ar  1 <1>  -0.1440 
 17 C        6.6860     6.8050     1.2330 C.ar  1 <1>  -0.1500 
 18 C        8.4920     7.9430    -0.5040 C.ar  1 <1>  -0.1500 
 19 C        9.6170     5.7570    -0.9690 C.3   1 <1>  -0.0970 
 20 C        6.6390     8.1650     0.9840 C.ar  1 <1>  -0.1500 
 21 C        7.5430     8.7420     0.1110 C.ar  1 <1>  -0.1440 
 22 C        7.5020    10.2340    -0.1660 C.3   1 <1>  -0.0970 
 23 H        3.1330     1.3740     1.4210 H     1 <1>   0.0800 
 24 H        3.5420    -0.9800     0.8900 H     1 <1>   0.0800 
 25 H        3.0070     3.1110    -0.0570 H     1 <1>   0.0800 
 26 H        2.3710     2.1380    -1.3390 H     1 <1>   0.0800 
 27 H        2.3670    -0.6490    -1.1040 H     1 <1>   0.4000 
 28 H        5.7720    -0.5340    -0.4770 H     1 <1>   0.0800 
 29 H        5.6050     0.0320     1.1580 H     1 <1>   0.0800 
 30 H        4.7730     3.0630    -1.6240 H     1 <1>   0.0800 
 31 H        4.4410     1.4240    -2.0770 H     1 <1>   0.0800 
 32 H        6.9550     3.9150    -1.0160 H     1 <1>   0.0800 
 33 H        5.6730     4.2220     0.1220 H     1 <1>   0.0800 
 34 H        8.6050     4.0880     0.8410 H     1 <1>   0.0800 
 35 H        7.3130     4.3620     1.9550 H     1 <1>   0.0800 
 36 H        5.9740     6.3730     1.9130 H     1 <1>   0.1500 
 37 H        9.1970     8.3950    -1.1780 H     1 <1>   0.1500 
 38 H       10.1450     6.3510    -1.6920 H     1 <1>   0.0800 
 39 H        9.1710     4.9250    -1.4830 H     1 <1>   0.0800 
 40 H       10.3270     5.3870    -0.2520 H     1 <1>   0.0800 
 41 H        5.8970     8.7690     1.4740 H     1 <1>   0.1500 
 42 H        6.5130    10.6210    -0.0010 H     1 <1>   0.0800 
 43 H        7.7790    10.4330    -1.1850 H     1 <1>   0.0800 
 44 H        8.1880    10.7430     0.4870 H     1 <1>   0.0800 
@<TRIPOS>BOND
  1   1   2  ar  
  2   2   3  ar  
  3   2   4  1   
  4   4   5  1   
  5   4   6  1   
  6   4  23  1   
  7   5   7  1   
  8   5   8  1   
  9   5  24  1   
 10   6   9  1   
 11   6  25  1   
 12   6  26  1   
 13   7  27  1   
 14   8  10  1   
 15   8  28  1   
 16   8  29  1   
 17   9  10  1   
 18   9  30  1   
 19   9  31  1   
 20  10  11  am  
 21  11  12  2   
 22  11  13  1   
 23  13  14  1   
 24  13  32  1   
 25  13  33  1   
 26  14  15  1   
 27  14  34  1   
 28  14  35  1   
 29  15  16  ar  
 30  15  17  ar  
 31  16  18  ar  
 32  16  19  1   
 33  17  20  ar  
 34  17  36  1   
 35  18  21  ar  
 36  18  37  1   
 37  19  38  1   
 38  19  39  1   
 39  19  40  1   
 40  20  21  ar  
 41  20  41  1   
 42  21  22  1   
 43  22  42  1   
 44  22  43  1   
 45  22  44  1   
@<TRIPOS>SUBSTRUCTURE
  1 ****  13 GROUP 4 **** **** 0

# MOE 2024.06 (io_trps.svl 2023.06)
