@<TRIPOS>MOLECULE
NONAME
54 56 1 0 0 
SMALL
USER_CHARGES


@<TRIPOS>ATOM
  1 S        0.0390     0.4210     0.8800 S.o2  1 <1>   1.4470 
  2 O       -0.9550     0.9700    -0.0140 O.2   1 <1>  -0.6500 
  3 O        0.2090     0.9600     2.2100 O.2   1 <1>  -0.6500 
  4 N        1.5430     0.6240     0.1600 N.am  1 <1>  -0.9140 
  5 C       -0.1430    -1.3850     0.9490 C.ar  1 <1>  -0.0090 
  6 C        1.7150     1.8510    -0.6050 C.3   1 <1>   0.1960 
  7 C       -0.2110    -2.0640     2.1600 C.ar  1 <1>  -0.1500 
  8 C       -0.2070    -2.1420    -0.2150 C.ar  1 <1>  -0.1500 
  9 C        1.8300     3.0660     0.3220 C.3   1 <1>  -0.1600 
 10 C       -0.3340    -3.4420     2.2030 C.ar  1 <1>  -0.1500 
 11 C       -0.3290    -3.5190    -0.1730 C.ar  1 <1>  -0.1500 
 12 C        2.1520     4.3370    -0.4700 C.3   1 <1>  -0.2400 
 13 C       -0.3990    -4.2030     1.0390 C.ar  1 <1>   0.0860 
 14 C       -0.5090    -5.6500     1.0990 C.2   1 <1>   0.5440 
 15 O        0.2950    -6.2660     1.7740 O.2   1 <1>  -0.5700 
 16 N       -1.4900    -6.3530     0.4260 N.am  1 <1>  -0.6600 
 17 C       -2.7750    -5.7170     0.0020 C.3   1 <1>   0.2200 
 18 C       -1.3590    -7.8390     0.3030 C.3   1 <1>   0.0600 
 19 C       -4.0170    -6.3980     0.5810 C.3   1 <1>  -0.1600 
 20 C       -2.9820    -5.7440    -1.5110 C.3   1 <1>  -0.1600 
 21 C       -5.1540    -6.0320    -0.3780 C.3   1 <1>  -0.0800 
 22 C       -4.4990    -5.6290    -1.7110 C.3   1 <1>  -0.0800 
 23 C       -5.9860    -4.8240     0.0760 C.3   1 <1>  -0.1600 
 24 C       -4.9790    -4.2010    -2.0120 C.3   1 <1>  -0.1600 
 25 C       -6.2620    -4.0600    -1.2080 C.3   1 <1>   0.2000 
 26 O       -6.5160    -2.7350    -0.9330 O.3   1 <1>  -0.6800 
 27 H        2.1870     0.6640     0.9480 H     1 <1>   0.4200 
 28 H        2.6220     1.7650    -1.1800 H     1 <1>   0.0800 
 29 H        0.9000     1.9790    -1.2990 H     1 <1>   0.0800 
 30 H       -0.1610    -1.5090     3.0820 H     1 <1>   0.1500 
 31 H       -0.1530    -1.6400    -1.1680 H     1 <1>   0.1500 
 32 H        0.9010     3.2190     0.8450 H     1 <1>   0.0800 
 33 H        2.6090     2.9000     1.0460 H     1 <1>   0.0800 
 34 H       -0.3730    -3.9490     3.1530 H     1 <1>   0.1500 
 35 H       -0.3600    -4.0820    -1.0890 H     1 <1>   0.1500 
 36 H        1.3760     4.5390    -1.1890 H     1 <1>   0.0800 
 37 H        3.0890     4.2340    -0.9890 H     1 <1>   0.0800 
 38 H        2.2230     5.1780     0.1980 H     1 <1>   0.0800 
 39 H       -2.8010    -4.6890     0.3210 H     1 <1>   0.0800 
 40 H       -1.9000    -8.2080    -0.5480 H     1 <1>   0.0800 
 41 H       -1.7370    -8.3070     1.1950 H     1 <1>   0.0800 
 42 H       -0.3220    -8.1080     0.1910 H     1 <1>   0.0800 
 43 H       -3.9110    -7.4660     0.5710 H     1 <1>   0.0800 
 44 H       -4.2080    -6.0760     1.5900 H     1 <1>   0.0800 
 45 H       -2.4460    -4.9510    -2.0010 H     1 <1>   0.0800 
 46 H       -2.6550    -6.6840    -1.9160 H     1 <1>   0.0800 
 47 H       -5.8050    -6.8770    -0.5300 H     1 <1>   0.0800 
 48 H       -4.8260    -6.2910    -2.4960 H     1 <1>   0.0800 
 49 H       -5.4130    -4.2100     0.7490 H     1 <1>   0.0800 
 50 H       -6.9000    -5.1320     0.5530 H     1 <1>   0.0800 
 51 H       -5.1600    -4.0600    -3.0630 H     1 <1>   0.0800 
 52 H       -4.2550    -3.4840    -1.6680 H     1 <1>   0.0800 
 53 H       -7.1030    -4.4770    -1.7370 H     1 <1>   0.0800 
 54 H       -5.7590    -2.3400    -0.4630 H     1 <1>   0.4000 
@<TRIPOS>BOND
  1   1   2  2   
  2   1   3  2   
  3   1   4  am  
  4   1   5  1   
  5   4   6  1   
  6   4  27  1   
  7   5   7  ar  
  8   5   8  ar  
  9   6   9  1   
 10   6  28  1   
 11   6  29  1   
 12   7  10  ar  
 13   7  30  1   
 14   8  11  ar  
 15   8  31  1   
 16   9  12  1   
 17   9  32  1   
 18   9  33  1   
 19  10  13  ar  
 20  10  34  1   
 21  11  13  ar  
 22  11  35  1   
 23  12  36  1   
 24  12  37  1   
 25  12  38  1   
 26  13  14  1   
 27  14  15  2   
 28  14  16  am  
 29  16  17  1   
 30  16  18  1   
 31  17  19  1   
 32  17  20  1   
 33  17  39  1   
 34  18  40  1   
 35  18  41  1   
 36  18  42  1   
 37  19  21  1   
 38  19  43  1   
 39  19  44  1   
 40  20  22  1   
 41  20  45  1   
 42  20  46  1   
 43  21  22  1   
 44  21  23  1   
 45  21  47  1   
 46  22  24  1   
 47  22  48  1   
 48  23  25  1   
 49  23  49  1   
 50  23  50  1   
 51  24  25  1   
 52  24  51  1   
 53  24  52  1   
 54  25  26  1   
 55  25  53  1   
 56  26  54  1   
@<TRIPOS>SUBSTRUCTURE
  1 ****  11 GROUP 4 **** **** 0

# MOE 2024.06 (io_trps.svl 2023.06)
