@<TRIPOS>MOLECULE
NONAME
39 41 1 0 0 
SMALL
USER_CHARGES


@<TRIPOS>ATOM
  1 S        0.1870     0.5860     0.7390 S.3   1 <1>  -0.0800 
  2 C       -1.3710     1.1800     0.1460 C.2   1 <1>  -0.0450 
  3 C       -0.3810    -1.0620     0.8150 C.2   1 <1>  -0.1100 
  4 C       -2.2230     0.1230     0.0360 C.2   1 <1>  -0.1810 
  5 C       -1.4990     2.5910    -0.1350 C.2   1 <1>   0.7150 
  6 C       -1.6650    -1.1380     0.4210 C.2   1 <1>  -0.1810 
  7 C       -3.6520     0.2200    -0.4930 C.3   1 <1>   0.0210 
  8 O       -2.5180     3.0460    -0.6220 O.2   1 <1>  -0.5700 
  9 N       -0.4400     3.4230     0.1360 N.am  1 <1>  -0.4940 
 10 C       -2.4780    -2.4230     0.3990 C.3   1 <1>   0.0210 
 11 C       -4.4880    -1.0300    -0.1930 C.3   1 <1>  -0.1600 
 12 C       -0.3050     4.8250    -0.0100 C.2   1 <1>  -0.0880 
 13 C       -3.7020    -2.3070    -0.5160 C.3   1 <1>  -0.1600 
 14 N        0.8080     5.4370    -0.4960 N.pl3 1 <1>   0.3140 
 15 C       -1.1790     5.8170     0.2900 C.2   1 <1>  -0.1810 
 16 N        0.6720     6.7810    -0.5150 N.2   1 <1>  -0.7070 
 17 C        2.0280     4.7870    -1.0190 C.3   1 <1>   0.0960 
 18 C       -0.5180     6.9930    -0.0470 C.2   1 <1>   0.1390 
 19 C       -2.5770     5.7300     0.8730 C.3   1 <1>  -0.0590 
 20 C        2.9950     4.4190     0.1150 C.3   1 <1>  -0.2400 
 21 H        0.3080    -1.8130     1.1580 H     1 <1>   0.1500 
 22 H       -3.6030     0.3590    -1.5590 H     1 <1>   0.0800 
 23 H       -4.1410     1.0820    -0.0740 H     1 <1>   0.0800 
 24 H        0.3820     2.9240     0.4740 H     1 <1>   0.3700 
 25 H       -2.8110    -2.6280     1.4010 H     1 <1>   0.0800 
 26 H       -1.8590    -3.2430     0.0810 H     1 <1>   0.0800 
 27 H       -5.3940    -1.0000    -0.7730 H     1 <1>   0.0800 
 28 H       -4.7610    -1.0320     0.8490 H     1 <1>   0.0800 
 29 H       -4.3320    -3.1690    -0.3820 H     1 <1>   0.0800 
 30 H       -3.3810    -2.2820    -1.5430 H     1 <1>   0.0800 
 31 H        2.5050     5.4730    -1.6970 H     1 <1>   0.0800 
 32 H        1.7410     3.9110    -1.5700 H     1 <1>   0.0800 
 33 H       -0.9390     7.9780     0.0650 H     1 <1>   0.1500 
 34 H       -2.6850     4.8280     1.4470 H     1 <1>   0.0800 
 35 H       -3.3000     5.7210     0.0780 H     1 <1>   0.0800 
 36 H       -2.7670     6.5710     1.5150 H     1 <1>   0.0800 
 37 H        3.2830     5.3070     0.6510 H     1 <1>   0.0800 
 38 H        3.8800     3.9660    -0.2940 H     1 <1>   0.0800 
 39 H        2.5370     3.7260     0.7970 H     1 <1>   0.0800 
@<TRIPOS>BOND
  1   1   2  1   
  2   1   3  1   
  3   2   4  2   
  4   2   5  1   
  5   3   6  2   
  6   3  21  1   
  7   4   6  1   
  8   4   7  1   
  9   5   8  2   
 10   5   9  am  
 11   6  10  1   
 12   7  11  1   
 13   7  22  1   
 14   7  23  1   
 15   9  12  1   
 16   9  24  1   
 17  10  13  1   
 18  10  25  1   
 19  10  26  1   
 20  11  13  1   
 21  11  27  1   
 22  11  28  1   
 23  12  14  1   
 24  12  15  2   
 25  13  29  1   
 26  13  30  1   
 27  14  16  1   
 28  14  17  1   
 29  15  18  1   
 30  15  19  1   
 31  16  18  2   
 32  17  20  1   
 33  17  31  1   
 34  17  32  1   
 35  18  33  1   
 36  19  34  1   
 37  19  35  1   
 38  19  36  1   
 39  20  37  1   
 40  20  38  1   
 41  20  39  1   
@<TRIPOS>SUBSTRUCTURE
  1 ****   5 GROUP 4 **** **** 0

# MOE 2024.06 (io_trps.svl 2023.06)
