@<TRIPOS>MOLECULE
NONAME
47 51 1 0 0 
SMALL
USER_CHARGES


@<TRIPOS>ATOM
  1 S        0.4820     0.2300    -2.0600 S.3   1 <1>  -0.0800 
  2 C        1.5030    -0.2620    -0.7090 C.ar  1 <1>   0.0400 
  3 C        0.0150    -1.4310    -2.3710 C.2   1 <1>  -0.1100 
  4 C        1.4620    -1.6410    -0.5500 C.ar  1 <1>   0.0000 
  5 C        2.2570     0.5800     0.0860 C.ar  1 <1>  -0.1500 
  6 C        0.5730    -2.2960    -1.4910 C.2   1 <1>  -0.0860 
  7 C        2.2650    -2.1890     0.4510 C.ar  1 <1>  -0.1500 
  8 C        3.0260     0.0130     1.0850 C.ar  1 <1>  -0.1500 
  9 C        0.3060    -3.7160    -1.4700 C.2   1 <1>   0.7160 
 10 C        3.0310    -1.3670     1.2600 C.ar  1 <1>  -0.1500 
 11 O        0.1790    -4.3320    -2.5090 O.2   1 <1>  -0.5700 
 12 N        0.0610    -4.3960    -0.2950 N.am  1 <1>  -0.6600 
 13 C       -0.7190    -3.7730     0.8170 C.3   1 <1>   0.1400 
 14 C        0.0320    -5.8880    -0.2780 C.3   1 <1>   0.1400 
 15 C       -2.1860    -4.2700     0.8090 C.3   1 <1>   0.4230 
 16 C       -1.4240    -6.3820    -0.3340 C.3   1 <1>   0.3430 
 17 N       -2.2760    -5.7880     0.7700 N.4   1 <1>  -0.9590 
 18 C       -2.9680    -3.6390    -0.3680 C.3   1 <1>   0.1200 
 19 C       -3.7180    -6.2040     0.6750 C.3   1 <1>   0.5180 
 20 O       -4.2910    -4.0900    -0.3650 O.3   1 <1>  -0.5600 
 21 C       -3.8070    -7.7430     0.6230 C.3   1 <1>  -0.1950 
 22 C       -4.4390    -5.4780    -0.4880 C.3   1 <1>   0.1200 
 23 C       -3.7520    -8.5630    -0.6340 C.3   1 <1>  -0.2000 
 24 C       -5.0290    -8.4710     0.1510 C.3   1 <1>  -0.2000 
 25 H       -0.6540    -1.6020    -3.1970 H     1 <1>   0.1500 
 26 H        2.2430     1.6430    -0.0790 H     1 <1>   0.1500 
 27 H        2.3020    -3.2530     0.5940 H     1 <1>   0.1500 
 28 H        3.6270     0.6380     1.7230 H     1 <1>   0.1500 
 29 H        3.6470    -1.7950     2.0330 H     1 <1>   0.1500 
 30 H       -0.2580    -4.0260     1.7560 H     1 <1>   0.0800 
 31 H       -0.7080    -2.7000     0.7380 H     1 <1>   0.0800 
 32 H        0.5770    -6.2830    -1.1190 H     1 <1>   0.0800 
 33 H        0.5120    -6.2490     0.6150 H     1 <1>   0.0800 
 34 H       -2.6520    -3.9160     1.7140 H     1 <1>   0.0800 
 35 H       -1.4270    -7.4570    -0.2650 H     1 <1>   0.0800 
 36 H       -1.8320    -6.1140    -1.2960 H     1 <1>   0.0800 
 37 H       -1.9210    -6.1500     1.6600 H     1 <1>   0.4500 
 38 H       -2.5230    -3.8800    -1.3180 H     1 <1>   0.0800 
 39 H       -2.9920    -2.5670    -0.2670 H     1 <1>   0.0800 
 40 H       -4.2190    -5.8930     1.5780 H     1 <1>   0.0800 
 41 H       -3.3610    -8.1720     1.5040 H     1 <1>   0.1000 
 42 H       -5.4940    -5.6880    -0.4590 H     1 <1>   0.0800 
 43 H       -4.0570    -5.7820    -1.4460 H     1 <1>   0.0800 
 44 H       -3.7460    -8.1100    -1.6100 H     1 <1>   0.1000 
 45 H       -3.2310    -9.5080    -0.6270 H     1 <1>   0.1000 
 46 H       -5.3560    -9.3450     0.6920 H     1 <1>   0.1000 
 47 H       -5.8580    -7.9540    -0.3030 H     1 <1>   0.1000 
@<TRIPOS>BOND
  1   1   2  1   
  2   1   3  1   
  3   2   4  ar  
  4   2   5  ar  
  5   3   6  2   
  6   3  25  1   
  7   4   6  1   
  8   4   7  ar  
  9   5   8  ar  
 10   5  26  1   
 11   6   9  1   
 12   7  10  ar  
 13   7  27  1   
 14   8  10  ar  
 15   8  28  1   
 16   9  11  2   
 17   9  12  am  
 18  10  29  1   
 19  12  13  1   
 20  12  14  1   
 21  13  15  1   
 22  13  30  1   
 23  13  31  1   
 24  14  16  1   
 25  14  32  1   
 26  14  33  1   
 27  15  17  1   
 28  15  18  1   
 29  15  34  1   
 30  16  17  1   
 31  16  35  1   
 32  16  36  1   
 33  17  19  1   
 34  17  37  1   
 35  18  20  1   
 36  18  38  1   
 37  18  39  1   
 38  19  21  1   
 39  19  22  1   
 40  19  40  1   
 41  20  22  1   
 42  21  23  1   
 43  21  24  1   
 44  21  41  1   
 45  22  42  1   
 46  22  43  1   
 47  23  24  1   
 48  23  44  1   
 49  23  45  1   
 50  24  46  1   
 51  24  47  1   
@<TRIPOS>SUBSTRUCTURE
  1 ****  12 GROUP 4 **** **** 0

# MOE 2024.06 (io_trps.svl 2023.06)
