@<TRIPOS>MOLECULE
NONAME
46 49 1 0 0 
SMALL
USER_CHARGES


@<TRIPOS>ATOM
  1 S        0.1120     0.2990     1.0170 S.3   1 <1>  -0.0800 
  2 C        1.6720     0.9140     0.4510 C.2   1 <1>  -0.0450 
  3 C       -0.2620     1.8380     1.7890 C.2   1 <1>  -0.1100 
  4 C        2.6610     0.2450    -0.3140 C.2   1 <1>   0.8660 
  5 C        1.8280     2.1940     0.8550 C.2   1 <1>   0.0830 
  6 C        0.7390     2.7230     1.6110 C.2   1 <1>  -0.1500 
  7 O        2.5340    -0.9120    -0.6900 O.2   1 <1>  -0.5700 
  8 N        3.8120     0.9200    -0.6520 N.2   1 <1>  -0.6610 
  9 N        2.9980     2.8030     0.4830 N.pl3 1 <1>  -0.5330 
 10 C        3.9370     2.1390    -0.2530 C.2   1 <1>   0.4390 
 11 C        5.1950     2.9400    -0.5930 C.3   1 <1>   0.1710 
 12 N        4.9440     4.4080    -0.6610 N.3   1 <1>  -0.8100 
 13 C        6.2170     5.1590    -0.5720 C.3   1 <1>   0.2900 
 14 C        4.2290     4.7510    -1.9050 C.3   1 <1>   0.0300 
 15 C        5.9990     6.6250    -0.2340 C.2   1 <1>  -0.0400 
 16 O        7.0280     7.4430    -0.3400 O.3   1 <1>  -0.2800 
 17 C        4.9080     7.3010     0.1880 C.2   1 <1>  -0.1500 
 18 C        6.6310     8.6530     0.0140 C.2   1 <1>  -0.0400 
 19 C        5.3210     8.6290     0.3490 C.2   1 <1>  -0.1500 
 20 C        7.6450     9.7920    -0.0250 C.3   1 <1>   0.3800 
 21 O        8.5240     9.6570     1.0570 O.3   1 <1>  -0.5600 
 22 C        6.9900    11.1810     0.0470 C.3   1 <1>  -0.1600 
 23 C        9.6000    10.5430     1.0520 C.3   1 <1>   0.1200 
 24 C        8.0520    12.2890     0.0770 C.3   1 <1>  -0.1600 
 25 C        9.0800    11.9810     1.1720 C.3   1 <1>  -0.1600 
 26 H       -1.2050     1.9140     2.3010 H     1 <1>   0.1500 
 27 H        0.7590     3.7320     1.9820 H     1 <1>   0.1500 
 28 H        3.2060     3.7920     0.6730 H     1 <1>   0.4000 
 29 H        5.6060     2.5870    -1.5230 H     1 <1>   0.0800 
 30 H        5.9110     2.7350     0.1830 H     1 <1>   0.0800 
 31 H        6.7550     5.0830    -1.5010 H     1 <1>   0.0800 
 32 H        6.8350     4.7420     0.2050 H     1 <1>   0.0800 
 33 H        3.2870     4.2320    -1.9520 H     1 <1>   0.0800 
 34 H        4.8160     4.4800    -2.7670 H     1 <1>   0.0800 
 35 H        4.0300     5.8090    -1.9450 H     1 <1>   0.0800 
 36 H        3.9210     6.9230     0.3770 H     1 <1>   0.1500 
 37 H        4.6920     9.4350     0.6800 H     1 <1>   0.1500 
 38 H        8.2180     9.7040    -0.9320 H     1 <1>   0.0800 
 39 H        6.3890    11.2350     0.9370 H     1 <1>   0.0800 
 40 H        6.3440    11.3160    -0.8020 H     1 <1>   0.0800 
 41 H       10.1590    10.4010     0.1430 H     1 <1>   0.0800 
 42 H       10.2280    10.2980     1.8910 H     1 <1>   0.0800 
 43 H        7.5890    13.2440     0.2600 H     1 <1>   0.0800 
 44 H        8.5490    12.3330    -0.8770 H     1 <1>   0.0800 
 45 H        9.9040    12.6690     1.1060 H     1 <1>   0.0800 
 46 H        8.6290    12.1020     2.1420 H     1 <1>   0.0800 
@<TRIPOS>BOND
  1   1   2  1   
  2   1   3  1   
  3   2   4  1   
  4   2   5  2   
  5   3   6  2   
  6   3  26  1   
  7   4   7  2   
  8   4   8  1   
  9   5   6  1   
 10   5   9  1   
 11   6  27  1   
 12   8  10  2   
 13   9  10  1   
 14   9  28  1   
 15  10  11  1   
 16  11  12  1   
 17  11  29  1   
 18  11  30  1   
 19  12  13  1   
 20  12  14  1   
 21  13  15  1   
 22  13  31  1   
 23  13  32  1   
 24  14  33  1   
 25  14  34  1   
 26  14  35  1   
 27  15  16  1   
 28  15  17  2   
 29  16  18  1   
 30  17  19  1   
 31  17  36  1   
 32  18  19  2   
 33  18  20  1   
 34  19  37  1   
 35  20  21  1   
 36  20  22  1   
 37  20  38  1   
 38  21  23  1   
 39  22  24  1   
 40  22  39  1   
 41  22  40  1   
 42  23  25  1   
 43  23  41  1   
 44  23  42  1   
 45  24  25  1   
 46  24  43  1   
 47  24  44  1   
 48  25  45  1   
 49  25  46  1   
@<TRIPOS>SUBSTRUCTURE
  1 ****  12 GROUP 4 **** **** 0

# MOE 2024.06 (io_trps.svl 2023.06)
