@<TRIPOS>MOLECULE
NONAME
54 56 1 0 0 
SMALL
USER_CHARGES


@<TRIPOS>ATOM
  1 O        1.1780    -0.9290    -1.5500 O.2   1 <1>  -0.5700 
  2 C        1.7030    -0.9780    -0.4640 C.2   1 <1>   0.5690 
  3 N        2.1750     0.1120     0.2020 N.am  1 <1>  -0.4930 
  4 C        1.8450    -2.3550     0.1860 C.3   1 <1>  -0.0190 
  5 C        2.1830     1.4730    -0.1990 C.2   1 <1>   0.0630 
  6 C        2.6640    -3.3010    -0.7160 C.3   1 <1>  -0.1600 
  7 C        0.4570    -2.9620     0.4740 C.3   1 <1>  -0.1600 
  8 C        1.1910     2.2330    -0.8270 C.2   1 <1>   0.1080 
  9 C        3.2050     2.3350    -0.0030 C.2   1 <1>  -0.3320 
 10 C        2.6970    -4.7330    -0.1840 C.3   1 <1>   0.3430 
 11 C        0.5390    -4.4020     0.9760 C.3   1 <1>   0.3430 
 12 N        1.5600     3.4620    -1.0100 N.2   1 <1>  -0.7070 
 13 C       -0.1800     1.7590    -1.2580 C.3   1 <1>  -0.0590 
 14 N        2.8040     3.5310    -0.5070 N.pl3 1 <1>   0.3140 
 15 C        4.5680     2.0960     0.6330 C.3   1 <1>  -0.0600 
 16 N        1.3060    -5.2260    -0.0030 N.4   1 <1>  -0.9590 
 17 C        3.5630     4.7980    -0.5490 C.3   1 <1>   0.0960 
 18 C        1.2770    -6.6770     0.3510 C.3   1 <1>   0.5230 
 19 C        3.3490     5.6110     0.7360 C.3   1 <1>  -0.1600 
 20 C       -0.0900    -7.2600     0.0380 C.2   1 <1>  -0.0400 
 21 C        4.1440     6.9210     0.7090 C.3   1 <1>  -0.2400 
 22 O       -1.1270    -6.9080     0.7750 O.3   1 <1>  -0.2800 
 23 C       -0.4680    -8.1370    -0.9180 C.2   1 <1>  -0.1500 
 24 C       -2.1830    -7.5460     0.3110 C.2   1 <1>  -0.0100 
 25 C       -1.8450    -8.3230    -0.7380 C.2   1 <1>  -0.1500 
 26 H        2.6610    -0.0410     1.0810 H     1 <1>   0.3700 
 27 H        2.3650    -2.2430     1.1210 H     1 <1>   0.0800 
 28 H        3.6710    -2.9310    -0.7980 H     1 <1>   0.0800 
 29 H        2.2500    -3.3110    -1.7100 H     1 <1>   0.0800 
 30 H       -0.1450    -2.9420    -0.4190 H     1 <1>   0.0800 
 31 H       -0.0510    -2.3620     1.2090 H     1 <1>   0.0800 
 32 H        3.2220    -4.7570     0.7580 H     1 <1>   0.0800 
 33 H        3.2260    -5.3590    -0.8850 H     1 <1>   0.0800 
 34 H       -0.4610    -4.7870     1.0920 H     1 <1>   0.0800 
 35 H        1.0240    -4.4270     1.9390 H     1 <1>   0.0800 
 36 H       -0.5470     1.0130    -0.5800 H     1 <1>   0.0800 
 37 H       -0.1190     1.3430    -2.2460 H     1 <1>   0.0800 
 38 H       -0.8640     2.5870    -1.2700 H     1 <1>   0.0800 
 39 H        4.6730     1.0720     0.9380 H     1 <1>   0.0800 
 40 H        4.6910     2.7250     1.4960 H     1 <1>   0.0800 
 41 H        5.3480     2.3170    -0.0740 H     1 <1>   0.0800 
 42 H        0.8120    -5.1440    -0.9020 H     1 <1>   0.4500 
 43 H        3.2220     5.3600    -1.3990 H     1 <1>   0.0800 
 44 H        4.6040     4.5730    -0.6850 H     1 <1>   0.0800 
 45 H        1.5020    -6.8180     1.3950 H     1 <1>   0.0800 
 46 H        2.0120    -7.2070    -0.2310 H     1 <1>   0.0800 
 47 H        3.6540     5.0290     1.5880 H     1 <1>   0.0800 
 48 H        2.2990     5.8350     0.8360 H     1 <1>   0.0800 
 49 H        5.1980     6.7240     0.6260 H     1 <1>   0.0800 
 50 H        3.9710     7.4740     1.6160 H     1 <1>   0.0800 
 51 H        3.8360     7.5300    -0.1240 H     1 <1>   0.0800 
 52 H        0.1170    -8.6240    -1.6800 H     1 <1>   0.1500 
 53 H       -3.1390    -7.3950     0.7850 H     1 <1>   0.1500 
 54 H       -2.4750    -8.9650    -1.3310 H     1 <1>   0.1500 
@<TRIPOS>BOND
  1   1   2  2   
  2   2   3  am  
  3   2   4  1   
  4   3   5  1   
  5   3  26  1   
  6   4   6  1   
  7   4   7  1   
  8   4  27  1   
  9   5   8  1   
 10   5   9  2   
 11   6  10  1   
 12   6  28  1   
 13   6  29  1   
 14   7  11  1   
 15   7  30  1   
 16   7  31  1   
 17   8  12  2   
 18   8  13  1   
 19   9  14  1   
 20   9  15  1   
 21  10  16  1   
 22  10  32  1   
 23  10  33  1   
 24  11  16  1   
 25  11  34  1   
 26  11  35  1   
 27  12  14  1   
 28  13  36  1   
 29  13  37  1   
 30  13  38  1   
 31  14  17  1   
 32  15  39  1   
 33  15  40  1   
 34  15  41  1   
 35  16  18  1   
 36  16  42  1   
 37  17  19  1   
 38  17  43  1   
 39  17  44  1   
 40  18  20  1   
 41  18  45  1   
 42  18  46  1   
 43  19  21  1   
 44  19  47  1   
 45  19  48  1   
 46  20  22  1   
 47  20  23  2   
 48  21  49  1   
 49  21  50  1   
 50  21  51  1   
 51  22  24  1   
 52  23  25  1   
 53  23  52  1   
 54  24  25  2   
 55  24  53  1   
 56  25  54  1   
@<TRIPOS>SUBSTRUCTURE
  1 ****   2 GROUP 4 **** **** 0

# MOE 2024.06 (io_trps.svl 2023.06)
