@<TRIPOS>MOLECULE
NONAME
39 39 1 0 0 
SMALL
USER_CHARGES


@<TRIPOS>ATOM
  1 O       -0.2150    -0.4970    -1.5030 O.2   1 <1>  -0.5700 
  2 C       -0.1970    -1.6570    -1.1430 C.2   1 <1>   0.5440 
  3 N       -1.3610    -2.3230    -1.2880 N.am  1 <1>  -0.8000 
  4 C        1.0010    -2.2710    -0.6020 C.ar  1 <1>   0.0860 
  5 C        1.0160    -3.5090     0.0800 C.ar  1 <1>   0.4100 
  6 C        2.2220    -1.6240    -0.7490 C.ar  1 <1>  -0.1500 
  7 N        2.1200    -4.0660     0.5730 N.ar  1 <1>  -0.6200 
  8 N       -0.1280    -4.2540     0.3300 N.pl3 1 <1>  -0.8380 
  9 C        3.3650    -2.2000    -0.2420 C.ar  1 <1>  -0.1430 
 10 C        3.2560    -3.4240     0.4060 C.ar  1 <1>   0.1670 
 11 C       -0.1160    -5.6710    -0.1390 C.3   1 <1>   0.2090 
 12 C       -0.7180    -4.0630     1.6840 C.3   1 <1>   0.1290 
 13 C        4.6970    -1.4780    -0.4080 C.3   1 <1>  -0.0970 
 14 C        4.4780    -4.1160     0.9820 C.3   1 <1>  -0.0970 
 15 C       -1.4400    -6.0110    -0.8120 C.3   1 <1>  -0.0990 
 16 C       -1.4450    -7.4680    -1.2020 C.2   1 <1>   0.5690 
 17 O       -0.8690    -7.8010    -2.2080 O.2   1 <1>  -0.5700 
 18 N       -2.0900    -8.3580    -0.4030 N.am  1 <1>  -0.7300 
 19 C       -2.1740    -9.8200    -0.6530 C.3   1 <1>   0.0600 
 20 H       -2.1990    -1.8420    -1.6090 H     1 <1>   0.3700 
 21 H       -1.4420    -3.2560    -0.8660 H     1 <1>   0.3700 
 22 H        2.2620    -0.6760    -1.2590 H     1 <1>   0.1500 
 23 H        0.0640    -6.3280     0.6960 H     1 <1>   0.0800 
 24 H        0.6850    -5.8160    -0.8470 H     1 <1>   0.0800 
 25 H       -0.6410    -3.0290     1.9740 H     1 <1>   0.0800 
 26 H       -0.1820    -4.6600     2.4020 H     1 <1>   0.0800 
 27 H       -1.7550    -4.3460     1.6840 H     1 <1>   0.0800 
 28 H        4.5560    -0.5030    -0.8380 H     1 <1>   0.0800 
 29 H        5.3440    -2.0430    -1.0550 H     1 <1>   0.0800 
 30 H        5.1750    -1.3560     0.5480 H     1 <1>   0.0800 
 31 H        4.2340    -5.1210     1.2780 H     1 <1>   0.0800 
 32 H        4.8230    -3.5800     1.8470 H     1 <1>   0.0800 
 33 H        5.2620    -4.1630     0.2500 H     1 <1>   0.0800 
 34 H       -1.5520    -5.4190    -1.7010 H     1 <1>   0.0800 
 35 H       -2.2610    -5.8130    -0.1510 H     1 <1>   0.0800 
 36 H       -2.5700    -8.0260     0.4350 H     1 <1>   0.3700 
 37 H       -1.6450   -10.0780    -1.5550 H     1 <1>   0.0800 
 38 H       -3.2040   -10.1130    -0.7620 H     1 <1>   0.0800 
 39 H       -1.7360   -10.3560     0.1700 H     1 <1>   0.0800 
@<TRIPOS>BOND
  1   1   2  2   
  2   2   3  am  
  3   2   4  1   
  4   3  20  1   
  5   3  21  1   
  6   4   5  ar  
  7   4   6  ar  
  8   5   7  ar  
  9   5   8  1   
 10   6   9  ar  
 11   6  22  1   
 12   7  10  ar  
 13   8  11  1   
 14   8  12  1   
 15   9  10  ar  
 16   9  13  1   
 17  10  14  1   
 18  11  15  1   
 19  11  23  1   
 20  11  24  1   
 21  12  25  1   
 22  12  26  1   
 23  12  27  1   
 24  13  28  1   
 25  13  29  1   
 26  13  30  1   
 27  14  31  1   
 28  14  32  1   
 29  14  33  1   
 30  15  16  1   
 31  15  34  1   
 32  15  35  1   
 33  16  17  2   
 34  16  18  am  
 35  18  19  1   
 36  18  36  1   
 37  19  37  1   
 38  19  38  1   
 39  19  39  1   
@<TRIPOS>SUBSTRUCTURE
  1 ****   5 GROUP 4 **** **** 0

# MOE 2024.06 (io_trps.svl 2023.06)
