@<TRIPOS>MOLECULE
NONAME
47 49 1 0 0 
SMALL
USER_CHARGES


@<TRIPOS>ATOM
  1 O       -1.0690     0.6410     2.4640 O.2   1 <1>  -0.5700 
  2 C       -1.6140     1.2140     1.5390 C.2   1 <1>   0.5440 
  3 N       -2.4390     0.4860     0.7150 N.am  1 <1>  -0.6600 
  4 C       -1.4160     2.6340     1.3550 C.ar  1 <1>   0.0860 
  5 C       -3.1500     1.0120    -0.4770 C.3   1 <1>   0.1400 
  6 C       -2.5780    -0.9870     0.7970 C.3   1 <1>   0.1400 
  7 C       -0.7150     3.1500     0.2620 C.ar  1 <1>   0.0830 
  8 C       -1.9260     3.5340     2.2900 C.ar  1 <1>  -0.1500 
  9 C       -4.0930    -0.1200    -0.8780 C.3   1 <1>   0.2000 
 10 C       -3.3220    -1.3850    -0.4840 C.3   1 <1>  -0.0800 
 11 O       -0.1960     2.2930    -0.6480 O.3   1 <1>  -0.3630 
 12 C       -0.5530     4.5280     0.0940 C.ar  1 <1>   0.0830 
 13 C       -1.7660     4.8970     2.1370 C.ar  1 <1>  -0.1500 
 14 O       -5.2400    -0.0180    -0.1040 O.3   1 <1>  -0.6800 
 15 C       -4.1860    -2.6520    -0.3360 C.3   1 <1>   0.0200 
 16 C        1.1690     1.9810    -0.4960 C.3   1 <1>   0.0400 
 17 O        0.1270     4.9660    -1.0050 O.3   1 <1>  -0.3630 
 18 C       -1.0840     5.3970     1.0410 C.ar  1 <1>  -0.1500 
 19 C       -3.3640    -3.9080    -0.0940 C.2   1 <1>  -0.0400 
 20 C        0.2780     6.3400    -1.2850 C.3   1 <1>   0.0400 
 21 O       -3.9900    -5.0260     0.1640 O.3   1 <1>  -0.0190 
 22 C       -2.0460    -4.1670    -0.0830 C.2   1 <1>  -0.1500 
 23 N       -3.1650    -6.0150     0.3500 N.2   1 <1>  -0.4100 
 24 C       -1.9860    -5.5270     0.2080 C.2   1 <1>   0.1080 
 25 C       -0.7110    -6.3300     0.3410 C.3   1 <1>  -0.0590 
 26 H       -3.6800     1.9240    -0.2620 H     1 <1>   0.0800 
 27 H       -2.4360     1.1860    -1.2640 H     1 <1>   0.0800 
 28 H       -1.6090    -1.4530     0.8620 H     1 <1>   0.0800 
 29 H       -3.1500    -1.2350     1.6740 H     1 <1>   0.0800 
 30 H       -2.4510     3.1470     3.1460 H     1 <1>   0.1500 
 31 H       -4.3740    -0.0910    -1.9170 H     1 <1>   0.0800 
 32 H       -2.5860    -1.5620    -1.2480 H     1 <1>   0.0800 
 33 H       -2.1700     5.5720     2.8720 H     1 <1>   0.1500 
 34 H       -4.9730     0.1360     0.8250 H     1 <1>   0.4000 
 35 H       -4.7660    -2.7940    -1.2310 H     1 <1>   0.0800 
 36 H       -4.8750    -2.5340     0.4820 H     1 <1>   0.0800 
 37 H        1.4460     1.2930    -1.2730 H     1 <1>   0.0800 
 38 H        1.3170     1.5290     0.4690 H     1 <1>   0.0800 
 39 H        1.7460     2.8850    -0.5810 H     1 <1>   0.0800 
 40 H       -0.9780     6.4620     0.9500 H     1 <1>   0.1500 
 41 H        0.8200     6.4330    -2.2090 H     1 <1>   0.0800 
 42 H        0.8340     6.8010    -0.4880 H     1 <1>   0.0800 
 43 H       -0.6960     6.7850    -1.3870 H     1 <1>   0.0800 
 44 H       -1.2060    -3.5210    -0.2520 H     1 <1>   0.1500 
 45 H       -0.1160    -5.9370     1.1440 H     1 <1>   0.0800 
 46 H       -0.1510    -6.2810    -0.5740 H     1 <1>   0.0800 
 47 H       -0.9450    -7.3580     0.5520 H     1 <1>   0.0800 
@<TRIPOS>BOND
  1   1   2  2   
  2   2   3  am  
  3   2   4  1   
  4   3   5  1   
  5   3   6  1   
  6   4   7  ar  
  7   4   8  ar  
  8   5   9  1   
  9   5  26  1   
 10   5  27  1   
 11   6  10  1   
 12   6  28  1   
 13   6  29  1   
 14   7  11  1   
 15   7  12  ar  
 16   8  13  ar  
 17   8  30  1   
 18   9  10  1   
 19   9  14  1   
 20   9  31  1   
 21  10  15  1   
 22  10  32  1   
 23  11  16  1   
 24  12  17  1   
 25  12  18  ar  
 26  13  18  ar  
 27  13  33  1   
 28  14  34  1   
 29  15  19  1   
 30  15  35  1   
 31  15  36  1   
 32  16  37  1   
 33  16  38  1   
 34  16  39  1   
 35  17  20  1   
 36  18  40  1   
 37  19  21  1   
 38  19  22  2   
 39  20  41  1   
 40  20  42  1   
 41  20  43  1   
 42  21  23  1   
 43  22  24  1   
 44  22  44  1   
 45  23  24  2   
 46  24  25  1   
 47  25  45  1   
 48  25  46  1   
 49  25  47  1   
@<TRIPOS>SUBSTRUCTURE
  1 ****   3 GROUP 4 **** **** 0

# MOE 2024.06 (io_trps.svl 2023.06)
