@<TRIPOS>MOLECULE
NONAME
49 51 1 0 0 
SMALL
USER_CHARGES


@<TRIPOS>ATOM
  1 S       -0.0850    -0.1620     1.6150 S.o2  1 <1>   1.5010 
  2 O       -0.3190    -1.2380     2.5550 O.2   1 <1>  -0.6500 
  3 O        0.3090     1.1360     2.1210 O.2   1 <1>  -0.6500 
  4 N       -1.5270     0.0640     0.7510 N.am  1 <1>  -0.8490 
  5 C        1.0630    -0.7450     0.3350 C.2   1 <1>  -0.0630 
  6 C       -2.6650     0.2330     1.6550 C.3   1 <1>   0.1960 
  7 C       -1.4500     1.2030    -0.1630 C.3   1 <1>   0.1960 
  8 C        2.0040    -0.0430    -0.3400 C.2   1 <1>  -0.1400 
  9 C        1.0030    -2.1150    -0.0990 C.2   1 <1>  -0.1500 
 10 C       -3.9670     0.2490     0.8540 C.3   1 <1>  -0.1600 
 11 C       -2.7030     1.2530    -1.0380 C.3   1 <1>  -0.1600 
 12 S        2.8380    -1.0530    -1.5090 S.3   1 <1>  -0.0800 
 13 C        2.4730     1.4010    -0.2940 C.3   1 <1>  -0.0600 
 14 C        1.8750    -2.4430    -1.0670 C.2   1 <1>  -0.1400 
 15 C       -3.9960     1.3680    -0.2040 C.3   1 <1>   0.2800 
 16 C        2.1480    -3.7400    -1.7980 C.3   1 <1>  -0.0600 
 17 O       -3.9230     2.5790     0.5170 O.3   1 <1>  -0.5600 
 18 C       -5.3070     1.2760    -1.0690 C.3   1 <1>   0.2000 
 19 C       -4.4920     3.7140    -0.0510 C.3   1 <1>   0.1200 
 20 O       -5.0770     1.7000    -2.3900 O.3   1 <1>  -0.6800 
 21 C       -6.4710     2.1090    -0.4600 C.3   1 <1>   0.2800 
 22 C       -6.0160     3.5540    -0.1680 C.3   1 <1>  -0.1600 
 23 O       -6.8510     1.5370     0.7390 O.3   1 <1>  -0.6800 
 24 C       -7.7430     2.0860    -1.3160 C.3   1 <1>  -0.2400 
 25 H       -2.7040    -0.5880     2.3530 H     1 <1>   0.0800 
 26 H       -2.5610     1.1470     2.2180 H     1 <1>   0.0800 
 27 H       -1.3530     2.1220     0.3950 H     1 <1>   0.0800 
 28 H       -0.5890     1.1030    -0.8000 H     1 <1>   0.0800 
 29 H        0.2930    -2.7890     0.3520 H     1 <1>   0.1500 
 30 H       -4.7850     0.3640     1.5380 H     1 <1>   0.0800 
 31 H       -4.0800    -0.7060     0.3740 H     1 <1>   0.0800 
 32 H       -2.7390     0.3570    -1.6320 H     1 <1>   0.0800 
 33 H       -2.6180     2.0830    -1.7140 H     1 <1>   0.0800 
 34 H        1.9030     1.9810     0.4070 H     1 <1>   0.0800 
 35 H        2.3730     1.8470    -1.2670 H     1 <1>   0.0800 
 36 H        3.5070     1.4360    -0.0030 H     1 <1>   0.0800 
 37 H        1.4960    -4.5140    -1.4370 H     1 <1>   0.0800 
 38 H        3.1680    -4.0420    -1.6390 H     1 <1>   0.0800 
 39 H        1.9830    -3.6090    -2.8520 H     1 <1>   0.0800 
 40 H       -5.6140     0.2480    -1.1460 H     1 <1>   0.0800 
 41 H       -4.2520     4.5520     0.5820 H     1 <1>   0.0800 
 42 H       -4.0370     3.8740    -1.0120 H     1 <1>   0.0800 
 43 H       -4.7800     2.6270    -2.3920 H     1 <1>   0.4000 
 44 H       -6.3350     4.2000    -0.9660 H     1 <1>   0.0800 
 45 H       -6.4820     3.9210     0.7290 H     1 <1>   0.0800 
 46 H       -7.5640     2.0640     1.1420 H     1 <1>   0.4000 
 47 H       -7.5590     2.5300    -2.2780 H     1 <1>   0.0800 
 48 H       -8.5360     2.6360    -0.8420 H     1 <1>   0.0800 
 49 H       -8.0610     1.0710    -1.4790 H     1 <1>   0.0800 
@<TRIPOS>BOND
  1   1   2  2   
  2   1   3  2   
  3   1   4  am  
  4   1   5  1   
  5   4   6  1   
  6   4   7  1   
  7   5   8  2   
  8   5   9  1   
  9   6  10  1   
 10   6  25  1   
 11   6  26  1   
 12   7  11  1   
 13   7  27  1   
 14   7  28  1   
 15   8  12  1   
 16   8  13  1   
 17   9  14  2   
 18   9  29  1   
 19  10  15  1   
 20  10  30  1   
 21  10  31  1   
 22  11  15  1   
 23  11  32  1   
 24  11  33  1   
 25  12  14  1   
 26  13  34  1   
 27  13  35  1   
 28  13  36  1   
 29  14  16  1   
 30  15  17  1   
 31  15  18  1   
 32  16  37  1   
 33  16  38  1   
 34  16  39  1   
 35  17  19  1   
 36  18  20  1   
 37  18  21  1   
 38  18  40  1   
 39  19  22  1   
 40  19  41  1   
 41  19  42  1   
 42  20  43  1   
 43  21  22  1   
 44  21  23  1   
 45  21  24  1   
 46  22  44  1   
 47  22  45  1   
 48  23  46  1   
 49  24  47  1   
 50  24  48  1   
 51  24  49  1   
@<TRIPOS>SUBSTRUCTURE
  1 ****   7 GROUP 4 **** **** 0

# MOE 2024.06 (io_trps.svl 2023.06)
