@<TRIPOS>MOLECULE
NONAME
42 43 1 0 0 
SMALL
USER_CHARGES


@<TRIPOS>ATOM
  1 O        3.7370    -0.8800    -1.6800 O.2   1 <1>  -0.5700 
  2 C        2.7350    -1.2440    -1.1110 C.2   1 <1>   0.5690 
  3 N        1.9220    -0.4080    -0.3970 N.am  1 <1>  -0.4940 
  4 C        2.3470    -2.7130    -1.2010 C.3   1 <1>   0.1810 
  5 C        1.9300     0.9970    -0.2210 C.2   1 <1>  -0.0880 
  6 O        1.1540    -2.9650    -0.4690 O.3   1 <1>  -0.3630 
  7 N        3.0120     1.8170    -0.0680 N.pl3 1 <1>   0.3140 
  8 C        0.8350     1.7910    -0.1580 C.2   1 <1>  -0.1810 
  9 C        0.6000    -4.2050    -0.3980 C.ar  1 <1>   0.0830 
 10 N        2.6220     3.1100     0.0750 N.2   1 <1>  -0.7070 
 11 C        4.4430     1.4220     0.0030 C.3   1 <1>   0.0960 
 12 C        1.3290     3.0770     0.0200 C.2   1 <1>   0.1390 
 13 C       -0.6330     1.4190    -0.2660 C.3   1 <1>  -0.0590 
 14 C       -0.5470    -4.3640     0.3830 C.ar  1 <1>  -0.1430 
 15 C        1.1370    -5.2950    -1.0780 C.ar  1 <1>  -0.1500 
 16 C        5.2730     2.3080     0.9450 C.3   1 <1>  -0.2400 
 17 C       -1.1570    -5.6140     0.4580 C.ar  1 <1>  -0.1430 
 18 C       -1.1120    -3.1560     1.1330 C.3   1 <1>  -0.0970 
 19 C        0.5320    -6.5330    -0.9880 C.ar  1 <1>  -0.1500 
 20 C       -0.6090    -6.6880    -0.2260 C.ar  1 <1>  -0.1500 
 21 C       -2.4240    -5.8570     1.2690 C.3   1 <1>  -0.0970 
 22 H        1.0900    -0.8830    -0.0390 H     1 <1>   0.3700 
 23 H        3.1340    -3.3180    -0.7910 H     1 <1>   0.0800 
 24 H        2.1770    -2.9710    -2.2300 H     1 <1>   0.0800 
 25 H        4.8470     1.4630    -0.9920 H     1 <1>   0.0800 
 26 H        4.4950     0.4070     0.3490 H     1 <1>   0.0800 
 27 H        0.7160     3.9590     0.1050 H     1 <1>   0.1500 
 28 H       -0.7460     0.3820    -0.5230 H     1 <1>   0.0800 
 29 H       -1.1020     2.0140    -1.0290 H     1 <1>   0.0800 
 30 H       -1.1250     1.6020     0.6720 H     1 <1>   0.0800 
 31 H        2.0190    -5.2090    -1.6820 H     1 <1>   0.1500 
 32 H        5.2900     3.3210     0.5840 H     1 <1>   0.0800 
 33 H        6.2840     1.9450     0.9910 H     1 <1>   0.0800 
 34 H        4.8530     2.2910     1.9350 H     1 <1>   0.0800 
 35 H       -0.3180    -2.5400     1.5120 H     1 <1>   0.0800 
 36 H       -1.7090    -3.4480     1.9760 H     1 <1>   0.0800 
 37 H       -1.7180    -2.5700     0.4660 H     1 <1>   0.0800 
 38 H        0.9460    -7.3770    -1.5120 H     1 <1>   0.1500 
 39 H       -1.0700    -7.6590    -0.1710 H     1 <1>   0.1500 
 40 H       -3.1780    -5.1380     1.0020 H     1 <1>   0.0800 
 41 H       -2.2090    -5.7720     2.3190 H     1 <1>   0.0800 
 42 H       -2.8210    -6.8380     1.0840 H     1 <1>   0.0800 
@<TRIPOS>BOND
  1   1   2  2   
  2   2   3  am  
  3   2   4  1   
  4   3   5  1   
  5   3  22  1   
  6   4   6  1   
  7   4  23  1   
  8   4  24  1   
  9   5   7  1   
 10   5   8  2   
 11   6   9  1   
 12   7  10  1   
 13   7  11  1   
 14   8  12  1   
 15   8  13  1   
 16   9  14  ar  
 17   9  15  ar  
 18  10  12  2   
 19  11  16  1   
 20  11  25  1   
 21  11  26  1   
 22  12  27  1   
 23  13  28  1   
 24  13  29  1   
 25  13  30  1   
 26  14  17  ar  
 27  14  18  1   
 28  15  19  ar  
 29  15  31  1   
 30  16  32  1   
 31  16  33  1   
 32  16  34  1   
 33  17  20  ar  
 34  17  21  1   
 35  18  35  1   
 36  18  36  1   
 37  18  37  1   
 38  19  20  ar  
 39  19  38  1   
 40  20  39  1   
 41  21  40  1   
 42  21  41  1   
 43  21  42  1   
@<TRIPOS>SUBSTRUCTURE
  1 ****   3 GROUP 4 **** **** 0

# MOE 2024.06 (io_trps.svl 2023.06)
