@<TRIPOS>MOLECULE
NONAME
44 46 1 0 0 
SMALL
USER_CHARGES


@<TRIPOS>ATOM
  1 S        0.5100    -0.0240    -0.5720 S.o2  1 <1>   1.3330 
  2 O        1.9330     0.1040    -0.3460 O.2   1 <1>  -0.6500 
  3 O       -0.0020     0.0060    -1.9230 O.2   1 <1>  -0.6500 
  4 N       -0.0120    -1.4580     0.1700 N.am  1 <1>  -0.8490 
  5 C       -0.3390     1.2530     0.3540 C.3   1 <1>  -0.0550 
  6 C        0.0380    -2.6020    -0.7450 C.3   1 <1>   0.1160 
  7 C        0.7160    -1.7750     1.4030 C.3   1 <1>   0.1160 
  8 C       -0.0970     2.6670    -0.2130 C.3   1 <1>  -0.0800 
  9 C       -0.8390     3.7820     0.5220 C.3   1 <1>   0.2000 
 10 C        1.3690     3.1130    -0.1830 C.3   1 <1>   0.2090 
 11 O       -0.6850     3.6020     1.8890 O.3   1 <1>  -0.6800 
 12 C       -0.0770     5.0440     0.1180 C.3   1 <1>   0.2090 
 13 N        1.3400     4.6010    -0.0370 N.pl3 1 <1>  -0.8380 
 14 C        2.4550     5.3720    -0.0870 C.ar  1 <1>   0.4100 
 15 N        3.6240     4.7060    -0.1150 N.ar  1 <1>  -0.6200 
 16 C        2.4950     6.7770    -0.1140 C.ar  1 <1>   0.0400 
 17 C        4.7440     5.3660    -0.1600 C.ar  1 <1>   0.5280 
 18 S        1.1730     7.9640    -0.1230 S.3   1 <1>  -0.0800 
 19 C        3.6850     7.4530    -0.1600 C.ar  1 <1>   0.3070 
 20 N        4.8190     6.7140    -0.1800 N.ar  1 <1>  -0.1250 
 21 C        6.0350     4.5720    -0.1920 C.3   1 <1>  -0.0970 
 22 C        2.2930     9.3150    -0.1740 C.2   1 <1>  -0.1100 
 23 C        3.5660     8.8790    -0.1890 C.2   1 <1>  -0.1500 
 24 H       -1.3920     1.0510     0.3340 H     1 <1>   0.0800 
 25 H       -0.0210     1.2140     1.3770 H     1 <1>   0.0800 
 26 H       -0.3180    -3.4900    -0.2530 H     1 <1>   0.0800 
 27 H        1.0460    -2.7640    -1.0880 H     1 <1>   0.0800 
 28 H       -0.5920    -2.4170    -1.6000 H     1 <1>   0.0800 
 29 H        0.2890    -2.6460     1.8710 H     1 <1>   0.0800 
 30 H        0.6520    -0.9540     2.0960 H     1 <1>   0.0800 
 31 H        1.7550    -1.9670     1.1890 H     1 <1>   0.0800 
 32 H       -0.4160     2.6800    -1.2420 H     1 <1>   0.0800 
 33 H       -1.8900     3.8260     0.2940 H     1 <1>   0.0800 
 34 H        1.8820     2.8240    -1.0860 H     1 <1>   0.0800 
 35 H        1.8820     2.6860     0.6640 H     1 <1>   0.0800 
 36 H        0.2510     3.7740     2.1200 H     1 <1>   0.4000 
 37 H       -0.1870     5.8080     0.8670 H     1 <1>   0.0800 
 38 H       -0.4410     5.4030    -0.8290 H     1 <1>   0.0800 
 39 H        5.7280     7.1740    -0.2160 H     1 <1>   0.4570 
 40 H        5.8170     3.5170    -0.1780 H     1 <1>   0.0800 
 41 H        6.6390     4.7990     0.6670 H     1 <1>   0.0800 
 42 H        6.5870     4.7850    -1.0890 H     1 <1>   0.0800 
 43 H        1.8680    10.3070    -0.1880 H     1 <1>   0.1500 
 44 H        4.4280     9.5250    -0.2200 H     1 <1>   0.1500 
@<TRIPOS>BOND
  1   1   2  2   
  2   1   3  2   
  3   1   4  am  
  4   1   5  1   
  5   4   6  1   
  6   4   7  1   
  7   5   8  1   
  8   5  24  1   
  9   5  25  1   
 10   6  26  1   
 11   6  27  1   
 12   6  28  1   
 13   7  29  1   
 14   7  30  1   
 15   7  31  1   
 16   8   9  1   
 17   8  10  1   
 18   8  32  1   
 19   9  11  1   
 20   9  12  1   
 21   9  33  1   
 22  10  13  1   
 23  10  34  1   
 24  10  35  1   
 25  11  36  1   
 26  12  13  1   
 27  12  37  1   
 28  12  38  1   
 29  13  14  1   
 30  14  15  ar  
 31  14  16  ar  
 32  15  17  ar  
 33  16  18  1   
 34  16  19  ar  
 35  17  20  ar  
 36  17  21  1   
 37  18  22  1   
 38  19  20  ar  
 39  19  23  1   
 40  20  39  1   
 41  21  40  1   
 42  21  41  1   
 43  21  42  1   
 44  22  23  2   
 45  22  43  1   
 46  23  44  1   
@<TRIPOS>SUBSTRUCTURE
  1 ****  10 GROUP 4 **** **** 0

# MOE 2024.06 (io_trps.svl 2023.06)
