@<TRIPOS>MOLECULE
NONAME
50 51 1 0 0 
SMALL
USER_CHARGES


@<TRIPOS>ATOM
  1 CL       0.1300     1.5320     0.4160 Cl    1 <1>  -0.1770 
  2 C       -1.6080     1.5680     0.2770 C.ar  1 <1>   0.1770 
  3 C       -2.2500     0.6190    -0.4950 C.ar  1 <1>  -0.1500 
  4 C       -2.3230     2.5450     0.9400 C.ar  1 <1>  -0.1500 
  5 C       -3.6290     0.6540    -0.6030 C.ar  1 <1>  -0.1500 
  6 C       -3.7020     2.5680     0.8260 C.ar  1 <1>  -0.1500 
  7 C       -4.3870     1.6250     0.0560 C.ar  1 <1>   0.0530 
  8 C       -5.8250     1.6770    -0.0540 C.2   1 <1>   0.0870 
  9 O       -6.4300     2.8390    -0.0340 O.3   1 <1>  -0.0190 
 10 C       -6.7940     0.7330    -0.2000 C.2   1 <1>  -0.0860 
 11 N       -7.7260     2.7440    -0.1570 N.2   1 <1>  -0.4100 
 12 C       -7.9730     1.4860    -0.2470 C.2   1 <1>   0.3720 
 13 C       -6.7200    -0.6930    -0.2830 C.2   1 <1>   0.7160 
 14 N       -9.2560     0.9490    -0.3650 N.pl3 1 <1>  -0.8520 
 15 O       -5.8400    -1.3020     0.2910 O.2   1 <1>  -0.5700 
 16 N       -7.6450    -1.3600    -1.0370 N.am  1 <1>  -0.7300 
 17 C      -10.4040     1.8560    -0.0890 C.3   1 <1>   0.2090 
 18 C       -8.2500    -2.7140    -0.8050 C.3   1 <1>   0.2810 
 19 C      -11.6920     1.0390     0.0130 C.3   1 <1>   0.1200 
 20 C       -9.5060    -2.6510     0.1090 C.2   1 <1>   0.5690 
 21 C       -7.2150    -3.7380    -0.3140 C.3   1 <1>  -0.2400 
 22 O      -12.7570     1.9030     0.2660 O.3   1 <1>  -0.5600 
 23 O       -9.6800    -1.6450     0.7670 O.2   1 <1>  -0.5700 
 24 N      -10.4220    -3.6840     0.1570 N.am  1 <1>  -0.6600 
 25 C      -13.9830     1.2600     0.3950 C.3   1 <1>   0.0400 
 26 C      -10.3980    -4.9110    -0.6890 C.3   1 <1>   0.0600 
 27 C      -11.5570    -3.6630     1.1260 C.3   1 <1>   0.0600 
 28 H       -1.6750    -0.1350    -1.0020 H     1 <1>   0.1500 
 29 H       -1.8050     3.2740     1.5360 H     1 <1>   0.1500 
 30 H       -4.1220    -0.0860    -1.2080 H     1 <1>   0.1500 
 31 H       -4.2610     3.3290     1.3450 H     1 <1>   0.1500 
 32 H       -9.3550     0.0980     0.2230 H     1 <1>   0.4000 
 33 H       -8.3410    -0.7150    -1.4300 H     1 <1>   0.3700 
 34 H      -10.4900     2.5720    -0.8890 H     1 <1>   0.0800 
 35 H      -10.2380     2.3790     0.8370 H     1 <1>   0.0800 
 36 H       -8.5860    -3.0460    -1.7690 H     1 <1>   0.0800 
 37 H      -11.6200     0.3360     0.8250 H     1 <1>   0.0800 
 38 H      -11.8780     0.5260    -0.9140 H     1 <1>   0.0800 
 39 H       -6.9450    -3.5350     0.7070 H     1 <1>   0.0800 
 40 H       -6.3350    -3.7030    -0.9310 H     1 <1>   0.0800 
 41 H       -7.6180    -4.7310    -0.3540 H     1 <1>   0.0800 
 42 H      -14.7340     2.0070     0.5850 H     1 <1>   0.0800 
 43 H      -13.9390     0.5720     1.2220 H     1 <1>   0.0800 
 44 H      -14.2110     0.7420    -0.5200 H     1 <1>   0.0800 
 45 H       -9.7350    -4.8060    -1.5280 H     1 <1>   0.0800 
 46 H      -11.3860    -5.1090    -1.0680 H     1 <1>   0.0800 
 47 H      -10.0800    -5.7510    -0.0960 H     1 <1>   0.0800 
 48 H      -11.4670    -2.8400     1.8150 H     1 <1>   0.0800 
 49 H      -11.5680    -4.5770     1.6950 H     1 <1>   0.0800 
 50 H      -12.4870    -3.5670     0.5950 H     1 <1>   0.0800 
@<TRIPOS>BOND
  1   1   2  1   
  2   2   3  ar  
  3   2   4  ar  
  4   3   5  ar  
  5   3  28  1   
  6   4   6  ar  
  7   4  29  1   
  8   5   7  ar  
  9   5  30  1   
 10   6   7  ar  
 11   6  31  1   
 12   7   8  1   
 13   8   9  1   
 14   8  10  2   
 15   9  11  1   
 16  10  12  1   
 17  10  13  1   
 18  11  12  2   
 19  12  14  1   
 20  13  15  2   
 21  13  16  am  
 22  14  17  1   
 23  14  32  1   
 24  16  18  1   
 25  16  33  1   
 26  17  19  1   
 27  17  34  1   
 28  17  35  1   
 29  18  20  1   
 30  18  21  1   
 31  18  36  1   
 32  19  22  1   
 33  19  37  1   
 34  19  38  1   
 35  20  23  2   
 36  20  24  am  
 37  21  39  1   
 38  21  40  1   
 39  21  41  1   
 40  22  25  1   
 41  24  26  1   
 42  24  27  1   
 43  25  42  1   
 44  25  43  1   
 45  25  44  1   
 46  26  45  1   
 47  26  46  1   
 48  26  47  1   
 49  27  48  1   
 50  27  49  1   
 51  27  50  1   
@<TRIPOS>SUBSTRUCTURE
  1 ****  10 GROUP 4 **** **** 0

# MOE 2024.06 (io_trps.svl 2023.06)
