@<TRIPOS>MOLECULE
NONAME
41 42 1 0 0 
SMALL
USER_CHARGES


@<TRIPOS>ATOM
  1 S        0.3540     0.4930     2.2140 S.3   1 <1>  -0.0800 
  2 C        1.2590     1.0910     0.8320 C.2   1 <1>  -0.1400 
  3 C        0.7670    -1.1630     1.8300 C.2   1 <1>  -0.1100 
  4 C        1.8210     0.0670     0.1530 C.2   1 <1>  -0.1810 
  5 C        1.2290     2.5990     0.6670 C.3   1 <1>   0.6030 
  6 C        1.5350    -1.2140     0.7280 C.2   1 <1>  -0.1500 
  7 C        2.6880     0.1100    -1.0950 C.3   1 <1>  -0.0590 
  8 N        0.6410     2.9060    -0.6920 N.4   1 <1>  -0.9590 
  9 C        2.6560     3.1550     0.9530 C.3   1 <1>   0.2090 
 10 C        0.5820     4.3630    -1.0300 C.3   1 <1>   0.2630 
 11 C       -0.7300     2.3090    -0.8170 C.3   1 <1>   0.2630 
 12 N        2.7800     4.6550     0.9480 N.pl3 1 <1>  -0.8690 
 13 C        3.8110     5.4300     0.6000 C.ar  1 <1>   0.4100 
 14 N        3.5710     6.7310     0.7430 N.ar  1 <1>  -0.6200 
 15 C        5.0520     4.9700     0.1450 C.ar  1 <1>  -0.1500 
 16 C        4.5290     7.5710     0.4720 C.ar  1 <1>   0.5270 
 17 C        6.0300     5.8780    -0.1350 C.ar  1 <1>   0.2110 
 18 N        5.7500     7.1880     0.0380 N.ar  1 <1>  -0.1790 
 19 C        4.2600     9.0520     0.6500 C.3   1 <1>  -0.0970 
 20 H        0.3880    -1.9360     2.4780 H     1 <1>   0.1500 
 21 H        0.5710     2.9960     1.4220 H     1 <1>   0.0800 
 22 H        1.9200    -2.1210     0.2920 H     1 <1>   0.1500 
 23 H        2.8610     1.1140    -1.4310 H     1 <1>   0.0800 
 24 H        2.2140    -0.4420    -1.8880 H     1 <1>   0.0800 
 25 H        3.6400    -0.3480    -0.8900 H     1 <1>   0.0800 
 26 H        1.2390     2.4280    -1.3750 H     1 <1>   0.4500 
 27 H        3.3410     2.7280     0.2450 H     1 <1>   0.0800 
 28 H        2.9500     2.8030     1.9280 H     1 <1>   0.0800 
 29 H        0.0240     4.9020    -0.2810 H     1 <1>   0.0800 
 30 H        0.1010     4.5050    -1.9840 H     1 <1>   0.0800 
 31 H        1.5740     4.7800    -1.0890 H     1 <1>   0.0800 
 32 H       -1.3950     2.7360    -0.0840 H     1 <1>   0.0800 
 33 H       -0.6940     1.2410    -0.6660 H     1 <1>   0.0800 
 34 H       -1.1330     2.4980    -1.7990 H     1 <1>   0.0800 
 35 H        2.0360     5.1610     1.4470 H     1 <1>   0.4000 
 36 H        5.2280     3.9170     0.0320 H     1 <1>   0.1500 
 37 H        7.0090     5.5840    -0.4830 H     1 <1>   0.1500 
 38 H        6.4530     7.9060    -0.1520 H     1 <1>   0.4570 
 39 H        3.2540     9.2060     1.0010 H     1 <1>   0.0800 
 40 H        4.3720     9.5710    -0.2850 H     1 <1>   0.0800 
 41 H        4.9340     9.4710     1.3760 H     1 <1>   0.0800 
@<TRIPOS>BOND
  1   1   2  1   
  2   1   3  1   
  3   2   4  2   
  4   2   5  1   
  5   3   6  2   
  6   3  20  1   
  7   4   6  1   
  8   4   7  1   
  9   5   8  1   
 10   5   9  1   
 11   5  21  1   
 12   6  22  1   
 13   7  23  1   
 14   7  24  1   
 15   7  25  1   
 16   8  10  1   
 17   8  11  1   
 18   8  26  1   
 19   9  12  1   
 20   9  27  1   
 21   9  28  1   
 22  10  29  1   
 23  10  30  1   
 24  10  31  1   
 25  11  32  1   
 26  11  33  1   
 27  11  34  1   
 28  12  13  1   
 29  12  35  1   
 30  13  14  ar  
 31  13  15  ar  
 32  14  16  ar  
 33  15  17  ar  
 34  15  36  1   
 35  16  18  ar  
 36  16  19  1   
 37  17  18  ar  
 38  17  37  1   
 39  18  38  1   
 40  19  39  1   
 41  19  40  1   
 42  19  41  1   
@<TRIPOS>SUBSTRUCTURE
  1 ****   9 GROUP 4 **** **** 0

# MOE 2024.06 (io_trps.svl 2023.06)
