@<TRIPOS>MOLECULE
NONAME
58 60 1 0 0 
SMALL
USER_CHARGES


@<TRIPOS>ATOM
  1 O        0.0370     0.4280    -0.6420 O.2   1 <1>  -0.5700 
  2 C       -0.9900     1.0800    -0.6290 C.2   1 <1>   0.5440 
  3 N       -2.1500     0.4910    -0.1710 N.am  1 <1>  -0.6600 
  4 C       -0.9590     2.4520    -1.0960 C.ar  1 <1>   0.0860 
  5 C       -2.1840    -0.9800     0.0910 C.3   1 <1>   0.1400 
  6 C       -3.3370     1.2880     0.2670 C.3   1 <1>   0.1400 
  7 C       -0.0270     3.3640    -0.6420 C.ar  1 <1>  -0.1500 
  8 C       -1.8510     2.9480    -2.0380 C.ar  1 <1>  -0.1500 
  9 C       -3.6260    -1.4980     0.0890 C.3   1 <1>  -0.1600 
 10 C       -4.0200     0.6240     1.4670 C.3   1 <1>  -0.1600 
 11 C       -0.0180     4.6740    -1.1000 C.ar  1 <1>   0.4100 
 12 C       -1.7740     4.2660    -2.4370 C.ar  1 <1>   0.1600 
 13 C       -4.4980    -0.8040     1.1510 C.3   1 <1>  -0.1600 
 14 N       -0.8890     5.1370    -1.9890 N.ar  1 <1>  -0.6200 
 15 N        0.9470     5.5460    -0.6320 N.pl3 1 <1>  -0.8380 
 16 C        0.6560     7.0160    -0.6050 C.3   1 <1>   0.2090 
 17 C        2.3500     5.2690    -1.0280 C.3   1 <1>   0.2090 
 18 C        1.3210     7.7660     0.5690 C.3   1 <1>   0.1100 
 19 C        3.2420     5.1310     0.2050 C.3   1 <1>  -0.1600 
 20 N        2.7790     7.5110     0.7520 N.3   1 <1>  -0.8100 
 21 C        2.9900     6.1620     1.3090 C.3   1 <1>   0.1100 
 22 C        3.3760     8.5470     1.6490 C.3   1 <1>   0.1710 
 23 C        3.3060    10.0030     1.1530 C.2   1 <1>   0.5690 
 24 O        2.7580    10.8030     1.8790 O.2   1 <1>  -0.5700 
 25 N        3.8440    10.3820    -0.0590 N.am  1 <1>  -0.6600 
 26 C        4.4740     9.4260    -1.0110 C.3   1 <1>   0.0600 
 27 C        3.7310    11.7770    -0.5660 C.3   1 <1>   0.0600 
 28 H       -1.7230    -1.1750     1.0440 H     1 <1>   0.0800 
 29 H       -1.6140    -1.4920    -0.6670 H     1 <1>   0.0800 
 30 H       -4.0340     1.3580    -0.5500 H     1 <1>   0.0800 
 31 H       -3.0300     2.2830     0.5420 H     1 <1>   0.0800 
 32 H        0.7070     3.0620     0.0800 H     1 <1>   0.1500 
 33 H       -2.5960     2.2970    -2.4570 H     1 <1>   0.1500 
 34 H       -3.6270    -2.5600     0.2570 H     1 <1>   0.0800 
 35 H       -4.0410    -1.3260    -0.8890 H     1 <1>   0.0800 
 36 H       -4.8550     1.2220     1.7850 H     1 <1>   0.0800 
 37 H       -3.3150     0.5970     2.2800 H     1 <1>   0.0800 
 38 H       -2.4780     4.6270    -3.1680 H     1 <1>   0.1500 
 39 H       -4.4850    -1.3790     2.0610 H     1 <1>   0.0800 
 40 H       -5.5140    -0.7780     0.7980 H     1 <1>   0.0800 
 41 H       -0.4070     7.1680    -0.5330 H     1 <1>   0.0800 
 42 H        0.9770     7.4580    -1.5310 H     1 <1>   0.0800 
 43 H        2.7160     6.0780    -1.6380 H     1 <1>   0.0800 
 44 H        2.4020     4.3700    -1.6170 H     1 <1>   0.0800 
 45 H        0.7930     7.5240     1.4750 H     1 <1>   0.0800 
 46 H        1.1620     8.8140     0.3870 H     1 <1>   0.0800 
 47 H        4.2660     5.2050    -0.1110 H     1 <1>   0.0800 
 48 H        3.1090     4.1490     0.6190 H     1 <1>   0.0800 
 49 H        3.8400     6.1560     1.9690 H     1 <1>   0.0800 
 50 H        2.1310     5.8610     1.8870 H     1 <1>   0.0800 
 51 H        4.4140     8.3180     1.8020 H     1 <1>   0.0800 
 52 H        2.8910     8.5010     2.6090 H     1 <1>   0.0800 
 53 H        4.9240     8.6030    -0.4860 H     1 <1>   0.0800 
 54 H        5.2380     9.9220    -1.5840 H     1 <1>   0.0800 
 55 H        3.7230     9.0400    -1.6790 H     1 <1>   0.0800 
 56 H        3.2250    12.4060     0.1460 H     1 <1>   0.0800 
 57 H        3.1740    11.7840    -1.4860 H     1 <1>   0.0800 
 58 H        4.7130    12.1800    -0.7410 H     1 <1>   0.0800 
@<TRIPOS>BOND
  1   1   2  2   
  2   2   3  am  
  3   2   4  1   
  4   3   5  1   
  5   3   6  1   
  6   4   7  ar  
  7   4   8  ar  
  8   5   9  1   
  9   5  28  1   
 10   5  29  1   
 11   6  10  1   
 12   6  30  1   
 13   6  31  1   
 14   7  11  ar  
 15   7  32  1   
 16   8  12  ar  
 17   8  33  1   
 18   9  13  1   
 19   9  34  1   
 20   9  35  1   
 21  10  13  1   
 22  10  36  1   
 23  10  37  1   
 24  11  14  ar  
 25  11  15  1   
 26  12  14  ar  
 27  12  38  1   
 28  13  39  1   
 29  13  40  1   
 30  15  16  1   
 31  15  17  1   
 32  16  18  1   
 33  16  41  1   
 34  16  42  1   
 35  17  19  1   
 36  17  43  1   
 37  17  44  1   
 38  18  20  1   
 39  18  45  1   
 40  18  46  1   
 41  19  21  1   
 42  19  47  1   
 43  19  48  1   
 44  20  21  1   
 45  20  22  1   
 46  21  49  1   
 47  21  50  1   
 48  22  23  1   
 49  22  51  1   
 50  22  52  1   
 51  23  24  2   
 52  23  25  am  
 53  25  26  1   
 54  25  27  1   
 55  26  53  1   
 56  26  54  1   
 57  26  55  1   
 58  27  56  1   
 59  27  57  1   
 60  27  58  1   
@<TRIPOS>SUBSTRUCTURE
  1 ****  11 GROUP 4 **** **** 0

# MOE 2024.06 (io_trps.svl 2023.06)
