@<TRIPOS>MOLECULE
NONAME
42 44 1 0 0 
SMALL
USER_CHARGES


@<TRIPOS>ATOM
  1 O       -1.1990     0.6590     1.9380 O.2   1 <1>  -0.5700 
  2 C       -1.7170     1.0030     0.9000 C.2   1 <1>   0.6300 
  3 N       -2.3870     0.1220     0.0940 N.am  1 <1>  -0.6600 
  4 C       -1.5570     2.4560     0.4940 C.3   1 <1>   0.0000 
  5 C       -2.3330    -1.3470     0.4010 C.3   1 <1>   0.3640 
  6 C       -3.0970     0.5300    -1.1620 C.3   1 <1>   0.1400 
  7 C       -0.3920     2.5560    -0.4680 C.2   1 <1>   0.6300 
  8 C       -1.7320     3.5440     1.5230 C.3   1 <1>  -0.2000 
  9 C       -2.7350     3.3950     0.4260 C.3   1 <1>  -0.2000 
 10 C       -1.0560    -1.9870    -0.1650 C.ar  1 <1>  -0.1440 
 11 C       -3.5950    -2.1340    -0.0760 C.3   1 <1>   0.2000 
 12 C       -3.6760    -0.6670    -1.9260 C.3   1 <1>   0.1200 
 13 O       -0.5850     2.7980    -1.6330 O.2   1 <1>  -0.5700 
 14 N        0.8570     2.3550    -0.0130 N.am  1 <1>  -0.8000 
 15 C       -0.6020    -3.1590     0.4290 C.ar  1 <1>  -0.1500 
 16 C       -0.3300    -1.4610    -1.2290 C.ar  1 <1>  -0.1500 
 17 O       -4.3820    -1.4710    -1.0390 O.3   1 <1>  -0.5600 
 18 C       -4.5260    -2.4640     1.0960 C.3   1 <1>   0.1200 
 19 C        0.5350    -3.7970    -0.0340 C.ar  1 <1>  -0.1500 
 20 C        0.8070    -2.0970    -1.6940 C.ar  1 <1>  -0.1500 
 21 O       -3.9240    -3.3910     1.9430 O.3   1 <1>  -0.6800 
 22 C        1.2400    -3.2680    -1.0990 C.ar  1 <1>  -0.1500 
 23 H       -2.2710    -1.4590     1.4700 H     1 <1>   0.0800 
 24 H       -3.9060     1.1900    -0.9080 H     1 <1>   0.0800 
 25 H       -2.4240     1.0630    -1.8100 H     1 <1>   0.0800 
 26 H       -2.0060     3.2590     2.5250 H     1 <1>   0.1000 
 27 H       -1.0660     4.3890     1.5020 H     1 <1>   0.1000 
 28 H       -2.7580     4.1250    -0.3650 H     1 <1>   0.1000 
 29 H       -3.7140     3.0290     0.6810 H     1 <1>   0.1000 
 30 H       -3.2840    -3.0590    -0.5270 H     1 <1>   0.0800 
 31 H       -2.9020    -1.2520    -2.3940 H     1 <1>   0.0800 
 32 H       -4.3590    -0.3280    -2.6850 H     1 <1>   0.0800 
 33 H        1.6470     2.3770    -0.6560 H     1 <1>   0.3700 
 34 H        1.0430     2.0280     0.9390 H     1 <1>   0.3700 
 35 H       -1.1350    -3.5810     1.2640 H     1 <1>   0.1500 
 36 H       -0.6320    -0.5480    -1.7080 H     1 <1>   0.1500 
 37 H       -5.4500    -2.8860     0.7410 H     1 <1>   0.0800 
 38 H       -4.7310    -1.5750     1.6680 H     1 <1>   0.0800 
 39 H        0.8720    -4.7040     0.4360 H     1 <1>   0.1500 
 40 H        1.3570    -1.6790    -2.5190 H     1 <1>   0.1500 
 41 H       -3.9660    -4.2890     1.5570 H     1 <1>   0.4000 
 42 H        2.1250    -3.7620    -1.4610 H     1 <1>   0.1500 
@<TRIPOS>BOND
  1   1   2  2   
  2   2   3  am  
  3   2   4  1   
  4   3   5  1   
  5   3   6  1   
  6   4   7  1   
  7   4   8  1   
  8   4   9  1   
  9   5  10  1   
 10   5  11  1   
 11   5  23  1   
 12   6  12  1   
 13   6  24  1   
 14   6  25  1   
 15   7  13  2   
 16   7  14  am  
 17   8   9  1   
 18   8  26  1   
 19   8  27  1   
 20   9  28  1   
 21   9  29  1   
 22  10  15  ar  
 23  10  16  ar  
 24  11  17  1   
 25  11  18  1   
 26  11  30  1   
 27  12  17  1   
 28  12  31  1   
 29  12  32  1   
 30  14  33  1   
 31  14  34  1   
 32  15  19  ar  
 33  15  35  1   
 34  16  20  ar  
 35  16  36  1   
 36  18  21  1   
 37  18  37  1   
 38  18  38  1   
 39  19  22  ar  
 40  19  39  1   
 41  20  22  ar  
 42  20  40  1   
 43  21  41  1   
 44  22  42  1   
@<TRIPOS>SUBSTRUCTURE
  1 ****   3 GROUP 4 **** **** 0

# MOE 2024.06 (io_trps.svl 2023.06)
