@<TRIPOS>MOLECULE
NONAME
52 54 1 0 0 
SMALL
USER_CHARGES


@<TRIPOS>ATOM
  1 O        1.8590    -0.1420     1.9650 O.2   1 <1>  -0.5700 
  2 C        2.6180    -0.8810     1.3650 C.2   1 <1>   0.5440 
  3 N        3.9140    -0.4550     1.1420 N.am  1 <1>  -0.6600 
  4 C        2.1350    -2.1350     0.8440 C.ar  1 <1>   0.0860 
  5 C        4.4100     0.8460     1.6980 C.3   1 <1>   0.1400 
  6 C        4.8510    -1.1290     0.1940 C.3   1 <1>   0.1400 
  7 C        1.2870    -2.1790    -0.2650 C.ar  1 <1>   0.0830 
  8 C        2.5170    -3.3470     1.4140 C.ar  1 <1>  -0.1500 
  9 C        4.5950     1.9750     0.6450 C.3   1 <1>   0.4230 
 10 C        4.9940    -0.3290    -1.1180 C.3   1 <1>  -0.0800 
 11 O        0.8850    -1.0300    -0.8510 O.3   1 <1>  -0.3630 
 12 C        0.8620    -3.3850    -0.7980 C.ar  1 <1>  -0.1500 
 13 C        2.0920    -4.5570     0.9030 C.ar  1 <1>   0.0830 
 14 N        3.7360     1.8800    -0.6060 N.4   1 <1>  -0.9590 
 15 C        6.0840     2.1740     0.2830 C.3   1 <1>   0.1200 
 16 C        6.3490     0.3820    -1.2590 C.3   1 <1>   0.1200 
 17 C        3.7910     0.5910    -1.3860 C.3   1 <1>   0.3430 
 18 C       -0.4320    -0.6210    -0.5470 C.3   1 <1>   0.0400 
 19 C        1.2610    -4.5900    -0.2290 C.ar  1 <1>   0.0830 
 20 O        2.5470    -5.6610     1.5560 O.3   1 <1>  -0.3630 
 21 C        2.3060     2.1640    -0.2670 C.3   1 <1>   0.2630 
 22 O        6.7260     0.9870    -0.0660 O.3   1 <1>  -0.5600 
 23 O        0.8860    -5.7880    -0.7520 O.3   1 <1>  -0.3630 
 24 C        1.6460    -6.7050     1.8590 C.3   1 <1>   0.0400 
 25 C        0.1170    -5.8970    -1.9300 C.3   1 <1>   0.0400 
 26 H        3.7300     1.2010     2.4520 H     1 <1>   0.0800 
 27 H        5.3430     0.6690     2.2050 H     1 <1>   0.0800 
 28 H        5.8100    -1.2560     0.6700 H     1 <1>   0.0800 
 29 H        4.4920    -2.1160    -0.0390 H     1 <1>   0.0800 
 30 H        3.1600    -3.3440     2.2760 H     1 <1>   0.1500 
 31 H        4.3150     2.8870     1.1460 H     1 <1>   0.0800 
 32 H        4.9750    -1.0590    -1.9070 H     1 <1>   0.0800 
 33 H        0.2250    -3.3580    -1.6600 H     1 <1>   0.1500 
 34 H        4.0600     2.6220    -1.2370 H     1 <1>   0.4500 
 35 H        6.6020     2.5500     1.1480 H     1 <1>   0.0800 
 36 H        6.2070     2.8890    -0.5110 H     1 <1>   0.0800 
 37 H        6.3500     1.1130    -2.0510 H     1 <1>   0.0800 
 38 H        7.1100    -0.3490    -1.4800 H     1 <1>   0.0800 
 39 H        2.9030     0.0190    -1.1760 H     1 <1>   0.0800 
 40 H        3.7660     0.8250    -2.4380 H     1 <1>   0.0800 
 41 H       -0.6350     0.2960    -1.0700 H     1 <1>   0.0800 
 42 H       -0.5110    -0.4660     0.5160 H     1 <1>   0.0800 
 43 H       -1.1220    -1.3830    -0.8630 H     1 <1>   0.0800 
 44 H        1.9100     1.3890     0.3660 H     1 <1>   0.0800 
 45 H        1.7090     2.2040    -1.1630 H     1 <1>   0.0800 
 46 H        2.2180     3.1050     0.2490 H     1 <1>   0.0800 
 47 H        2.0350    -7.2490     2.7000 H     1 <1>   0.0800 
 48 H        1.5720    -7.3600     1.0090 H     1 <1>   0.0800 
 49 H        0.6850    -6.2870     2.1010 H     1 <1>   0.0800 
 50 H       -0.0220    -6.9420    -2.1430 H     1 <1>   0.0800 
 51 H        0.6490    -5.4290    -2.7400 H     1 <1>   0.0800 
 52 H       -0.8370    -5.4280    -1.7710 H     1 <1>   0.0800 
@<TRIPOS>BOND
  1   1   2  2   
  2   2   3  am  
  3   2   4  1   
  4   3   5  1   
  5   3   6  1   
  6   4   7  ar  
  7   4   8  ar  
  8   5   9  1   
  9   5  26  1   
 10   5  27  1   
 11   6  10  1   
 12   6  28  1   
 13   6  29  1   
 14   7  11  1   
 15   7  12  ar  
 16   8  13  ar  
 17   8  30  1   
 18   9  14  1   
 19   9  15  1   
 20   9  31  1   
 21  10  16  1   
 22  10  17  1   
 23  10  32  1   
 24  11  18  1   
 25  12  19  ar  
 26  12  33  1   
 27  13  19  ar  
 28  13  20  1   
 29  14  17  1   
 30  14  21  1   
 31  14  34  1   
 32  15  22  1   
 33  15  35  1   
 34  15  36  1   
 35  16  22  1   
 36  16  37  1   
 37  16  38  1   
 38  17  39  1   
 39  17  40  1   
 40  18  41  1   
 41  18  42  1   
 42  18  43  1   
 43  19  23  1   
 44  20  24  1   
 45  21  44  1   
 46  21  45  1   
 47  21  46  1   
 48  23  25  1   
 49  24  47  1   
 50  24  48  1   
 51  24  49  1   
 52  25  50  1   
 53  25  51  1   
 54  25  52  1   
@<TRIPOS>SUBSTRUCTURE
  1 ****   4 GROUP 4 **** **** 0

# MOE 2024.06 (io_trps.svl 2023.06)
