@<TRIPOS>MOLECULE
NONAME
59 63 1 0 0 
SMALL
USER_CHARGES


@<TRIPOS>ATOM
  1 O       -0.7930    -0.6410     1.4320 O.2   1 <1>  -0.5700 
  2 C       -1.4980    -0.9450     0.4900 C.2   1 <1>   0.5440 
  3 N       -1.0220    -1.8610    -0.4070 N.am  1 <1>  -0.7300 
  4 C       -2.8100    -0.3470     0.3160 C.ar  1 <1>   0.0860 
  5 C        0.3080    -2.5130    -0.3340 C.3   1 <1>   0.1400 
  6 C       -3.8330    -0.9930    -0.3850 C.ar  1 <1>  -0.1500 
  7 C       -3.1020     0.9090     0.8520 C.ar  1 <1>  -0.1500 
  8 C        0.2670    -3.6950     0.6450 C.3   1 <1>  -0.0800 
  9 C       -5.0730    -0.4070    -0.5520 C.ar  1 <1>  -0.1500 
 10 C       -4.3410     1.5020     0.6910 C.ar  1 <1>  -0.1500 
 11 C       -0.6520    -4.8220     0.1490 C.3   1 <1>   0.2000 
 12 C        1.5940    -4.4690     0.7930 C.3   1 <1>  -0.0800 
 13 C       -5.3400     0.8430    -0.0190 C.ar  1 <1>   0.0830 
 14 O        0.2250    -5.5430    -0.6300 O.3   1 <1>  -0.5600 
 15 C       -0.9520    -5.8340     1.2660 C.3   1 <1>  -0.1600 
 16 C        1.1940    -5.8530     0.3070 C.3   1 <1>   0.2800 
 17 C        2.7960    -4.1520    -0.1040 C.3   1 <1>   0.1100 
 18 O       -6.5760     1.3480    -0.2280 O.3   1 <1>  -0.3630 
 19 C        0.3720    -6.6040     1.3530 C.3   1 <1>  -0.1600 
 20 C        2.4480    -6.4720    -0.3190 C.3   1 <1>   0.1100 
 21 N        3.5060    -5.4320    -0.2980 N.3   1 <1>  -0.8100 
 22 C       -6.9590     2.6060     0.2800 C.3   1 <1>   0.0400 
 23 C        4.4870    -5.6860     0.7800 C.3   1 <1>   0.2900 
 24 C        5.6210    -4.6720     0.7760 C.2   1 <1>   0.0060 
 25 N        5.9380    -3.9390     1.7850 N.2   1 <1>  -0.5650 
 26 N        6.4230    -4.4330    -0.2730 N.pl3 1 <1>   0.3140 
 27 C        6.9730    -3.2450     1.2970 C.2   1 <1>   0.3660 
 28 N        7.3070    -3.5040     0.0770 N.2   1 <1>  -0.7070 
 29 C        6.4230    -5.0330    -1.6260 C.3   1 <1>   0.0960 
 30 C        7.1760    -6.3690    -1.6450 C.3   1 <1>  -0.2400 
 31 H       -1.5510    -2.0390    -1.2620 H     1 <1>   0.3700 
 32 H        0.5820    -2.8500    -1.3190 H     1 <1>   0.0800 
 33 H        1.0360    -1.7930     0.0000 H     1 <1>   0.0800 
 34 H       -3.6620    -1.9700    -0.7990 H     1 <1>   0.1500 
 35 H       -2.3350     1.4240     1.4060 H     1 <1>   0.1500 
 36 H       -0.0610    -3.3330     1.6040 H     1 <1>   0.0800 
 37 H       -5.8510    -0.9150    -1.0940 H     1 <1>   0.1500 
 38 H       -4.5110     2.4700     1.1220 H     1 <1>   0.1500 
 39 H       -1.5130    -4.5070    -0.4140 H     1 <1>   0.0800 
 40 H        1.9160    -4.4950     1.8190 H     1 <1>   0.0800 
 41 H       -1.2110    -5.3440     2.1880 H     1 <1>   0.0800 
 42 H       -1.7560    -6.4830     0.9680 H     1 <1>   0.0800 
 43 H        3.4250    -3.3880     0.3220 H     1 <1>   0.0800 
 44 H        2.4660    -3.8230    -1.0730 H     1 <1>   0.0800 
 45 H        0.2430    -7.6300     1.0560 H     1 <1>   0.0800 
 46 H        0.8200    -6.5590     2.3290 H     1 <1>   0.0800 
 47 H        2.2350    -6.7530    -1.3350 H     1 <1>   0.0800 
 48 H        2.7530    -7.3460     0.2290 H     1 <1>   0.0800 
 49 H       -7.9780     2.7870    -0.0090 H     1 <1>   0.0800 
 50 H       -6.3200     3.3620    -0.1410 H     1 <1>   0.0800 
 51 H       -6.8810     2.5880     1.3530 H     1 <1>   0.0800 
 52 H        3.9990    -5.6600     1.7400 H     1 <1>   0.0800 
 53 H        4.9110    -6.6660     0.6510 H     1 <1>   0.0800 
 54 H        7.4830    -2.5180     1.9070 H     1 <1>   0.1500 
 55 H        5.4090    -5.1680    -1.9510 H     1 <1>   0.0800 
 56 H        6.8980    -4.3390    -2.2950 H     1 <1>   0.0800 
 57 H        6.6950    -7.0840    -1.0030 H     1 <1>   0.0800 
 58 H        8.1920    -6.2240    -1.3220 H     1 <1>   0.0800 
 59 H        7.1880    -6.7630    -2.6450 H     1 <1>   0.0800 
@<TRIPOS>BOND
  1   1   2  2   
  2   2   3  am  
  3   2   4  1   
  4   3   5  1   
  5   3  31  1   
  6   4   6  ar  
  7   4   7  ar  
  8   5   8  1   
  9   5  32  1   
 10   5  33  1   
 11   6   9  ar  
 12   6  34  1   
 13   7  10  ar  
 14   7  35  1   
 15   8  11  1   
 16   8  12  1   
 17   8  36  1   
 18   9  13  ar  
 19   9  37  1   
 20  10  13  ar  
 21  10  38  1   
 22  11  14  1   
 23  11  15  1   
 24  11  39  1   
 25  12  16  1   
 26  12  17  1   
 27  12  40  1   
 28  13  18  1   
 29  14  16  1   
 30  15  19  1   
 31  15  41  1   
 32  15  42  1   
 33  16  19  1   
 34  16  20  1   
 35  17  21  1   
 36  17  43  1   
 37  17  44  1   
 38  18  22  1   
 39  19  45  1   
 40  19  46  1   
 41  20  21  1   
 42  20  47  1   
 43  20  48  1   
 44  21  23  1   
 45  22  49  1   
 46  22  50  1   
 47  22  51  1   
 48  23  24  1   
 49  23  52  1   
 50  23  53  1   
 51  24  25  2   
 52  24  26  1   
 53  25  27  1   
 54  26  28  1   
 55  26  29  1   
 56  27  28  2   
 57  27  54  1   
 58  29  30  1   
 59  29  55  1   
 60  29  56  1   
 61  30  57  1   
 62  30  58  1   
 63  30  59  1   
@<TRIPOS>SUBSTRUCTURE
  1 ****   5 GROUP 4 **** **** 0

# MOE 2024.06 (io_trps.svl 2023.06)
