@<TRIPOS>MOLECULE
NONAME
48 51 1 0 0 
SMALL
USER_CHARGES


@<TRIPOS>ATOM
  1 O       -1.2380     0.5850     2.2860 O.2   1 <1>  -0.5700 
  2 C       -2.0910     1.0560     1.5530 C.2   1 <1>   0.5440 
  3 N       -3.2350     0.3030     1.3420 N.am  1 <1>  -0.6600 
  4 C       -1.8580     2.3740     0.9550 C.ar  1 <1>   0.3960 
  5 C       -3.2480    -1.1820     1.5240 C.3   1 <1>   0.1400 
  6 C       -4.4710     0.7830     0.6550 C.3   1 <1>   0.1400 
  7 N       -2.2060     2.6360    -0.3080 N.ar  1 <1>  -0.6200 
  8 C       -1.2470     3.3620     1.7050 C.ar  1 <1>  -0.1500 
  9 C       -3.5410    -1.8850     0.1830 C.3   1 <1>   0.3440 
 10 C       -4.6750     0.0140    -0.6640 C.3   1 <1>   0.2950 
 11 C       -1.9440     3.8460    -0.7550 C.ar  1 <1>   0.4760 
 12 C       -1.0270     4.5890     1.1350 C.ar  1 <1>   0.1660 
 13 O       -4.7080    -1.3650    -0.4030 O.3   1 <1>  -0.5600 
 14 C       -3.7010    -3.3890     0.3880 C.ar  1 <1>  -0.1440 
 15 C       -5.9850     0.4390    -1.3510 C.3   1 <1>  -0.1950 
 16 N       -1.3790     4.8430    -0.1020 N.ar  1 <1>  -0.6200 
 17 C       -2.3380     4.1400    -2.1830 C.3   1 <1>  -0.0970 
 18 C       -0.3650     5.7120     1.9040 C.3   1 <1>  -0.0970 
 19 C       -2.5900    -4.2160     0.2900 C.ar  1 <1>  -0.1500 
 20 C       -4.9340    -3.9530     0.6860 C.ar  1 <1>  -0.1500 
 21 C       -7.3150    -0.1380    -0.9740 C.3   1 <1>  -0.2000 
 22 C       -6.7100    -0.4500    -2.3150 C.3   1 <1>  -0.2000 
 23 C       -2.7090    -5.5810     0.4870 C.ar  1 <1>  -0.1500 
 24 C       -5.0560    -5.3180     0.8820 C.ar  1 <1>  -0.1500 
 25 C       -3.9430    -6.1330     0.7830 C.ar  1 <1>  -0.1500 
 26 H       -2.3030    -1.5300     1.9020 H     1 <1>   0.0800 
 27 H       -4.0050    -1.4490     2.2390 H     1 <1>   0.0800 
 28 H       -5.3190     0.6070     1.2930 H     1 <1>   0.0800 
 29 H       -4.4310     1.8390     0.4640 H     1 <1>   0.0800 
 30 H       -0.9520     3.1560     2.7160 H     1 <1>   0.1500 
 31 H       -2.7270    -1.7070    -0.4990 H     1 <1>   0.0800 
 32 H       -3.8510     0.2110    -1.3290 H     1 <1>   0.0800 
 33 H       -5.9680     1.4850    -1.6000 H     1 <1>   0.1000 
 34 H       -1.4780     4.4830    -2.7270 H     1 <1>   0.0800 
 35 H       -3.0900     4.9060    -2.1950 H     1 <1>   0.0800 
 36 H       -2.7240     3.2590    -2.6610 H     1 <1>   0.0800 
 37 H       -0.1140     5.4030     2.9020 H     1 <1>   0.0800 
 38 H       -1.0300     6.5540     1.9570 H     1 <1>   0.0800 
 39 H        0.5340     6.0140     1.3980 H     1 <1>   0.0800 
 40 H       -1.6240    -3.8010     0.0610 H     1 <1>   0.1500 
 41 H       -5.8070    -3.3270     0.7610 H     1 <1>   0.1500 
 42 H       -7.3580    -0.9280    -0.2440 H     1 <1>   0.1000 
 43 H       -8.1720     0.5110    -0.9320 H     1 <1>   0.1000 
 44 H       -7.1490    -0.0140    -3.1950 H     1 <1>   0.1000 
 45 H       -6.3430    -1.4480    -2.4870 H     1 <1>   0.1000 
 46 H       -1.8430    -6.2130     0.4080 H     1 <1>   0.1500 
 47 H       -6.0170    -5.7430     1.1110 H     1 <1>   0.1500 
 48 H       -4.0360    -7.1940     0.9360 H     1 <1>   0.1500 
@<TRIPOS>BOND
  1   1   2  2   
  2   2   3  am  
  3   2   4  1   
  4   3   5  1   
  5   3   6  1   
  6   4   7  ar  
  7   4   8  ar  
  8   5   9  1   
  9   5  26  1   
 10   5  27  1   
 11   6  10  1   
 12   6  28  1   
 13   6  29  1   
 14   7  11  ar  
 15   8  12  ar  
 16   8  30  1   
 17   9  13  1   
 18   9  14  1   
 19   9  31  1   
 20  10  13  1   
 21  10  15  1   
 22  10  32  1   
 23  11  16  ar  
 24  11  17  1   
 25  12  16  ar  
 26  12  18  1   
 27  14  19  ar  
 28  14  20  ar  
 29  15  21  1   
 30  15  22  1   
 31  15  33  1   
 32  17  34  1   
 33  17  35  1   
 34  17  36  1   
 35  18  37  1   
 36  18  38  1   
 37  18  39  1   
 38  19  23  ar  
 39  19  40  1   
 40  20  24  ar  
 41  20  41  1   
 42  21  22  1   
 43  21  42  1   
 44  21  43  1   
 45  22  44  1   
 46  22  45  1   
 47  23  25  ar  
 48  23  46  1   
 49  24  25  ar  
 50  24  47  1   
 51  25  48  1   
@<TRIPOS>SUBSTRUCTURE
  1 ****   3 GROUP 4 **** **** 0

# MOE 2024.06 (io_trps.svl 2023.06)
