@<TRIPOS>MOLECULE
NONAME
48 50 1 0 0 
SMALL
USER_CHARGES


@<TRIPOS>ATOM
  1 O       -0.5220    -0.0040     0.2480 O.3   1 <1>  -0.2800 
  2 C       -1.4530    -0.8320     0.6760 C.2   1 <1>  -0.0400 
  3 C       -0.9330     1.2270     0.4780 C.2   1 <1>  -0.0400 
  4 C       -2.4920    -0.1400     1.1970 C.2   1 <1>  -0.1500 
  5 C       -1.1890    -2.3180     0.5070 C.3   1 <1>   0.5230 
  6 C       -2.1490     1.2110     1.0650 C.2   1 <1>  -0.1500 
  7 C       -0.0200     2.3710     0.0680 C.3   1 <1>   0.0200 
  8 N       -2.4640    -3.0830     0.5260 N.4   1 <1>  -0.9590 
  9 C       -0.6180     3.7480     0.3870 C.3   1 <1>  -0.1600 
 10 C       -3.4020    -2.7530    -0.5810 C.3   1 <1>   0.3430 
 11 C       -2.3020    -4.5640     0.4980 C.3   1 <1>   0.3430 
 12 C        0.3220     4.8820    -0.0380 C.3   1 <1>  -0.2400 
 13 C       -4.3970    -3.9120    -0.5530 C.3   1 <1>   0.2000 
 14 C       -3.4830    -5.1190    -0.3130 C.3   1 <1>  -0.0800 
 15 O       -5.2290    -3.7220     0.5470 O.3   1 <1>  -0.6800 
 16 C       -4.1340    -6.3470     0.3520 C.3   1 <1>   0.0210 
 17 C       -3.1610    -7.5100     0.4280 C.2   1 <1>   0.1080 
 18 N       -1.9700    -7.4120     0.9380 N.2   1 <1>  -0.7070 
 19 C       -3.4330    -8.7940    -0.0290 C.2   1 <1>  -0.1500 
 20 N       -1.4500    -8.6530     0.8260 N.pl3 1 <1>   0.3000 
 21 C       -2.3170    -9.5030     0.2390 C.2   1 <1>  -0.3320 
 22 C       -2.0230   -10.9680    -0.0300 C.3   1 <1>  -0.0600 
 23 H       -3.4100    -0.4880     1.6370 H     1 <1>   0.1500 
 24 H       -0.5390    -2.6510     1.2990 H     1 <1>   0.0800 
 25 H       -0.6860    -2.4760    -0.4320 H     1 <1>   0.0800 
 26 H       -2.7560     2.0420     1.3810 H     1 <1>   0.1500 
 27 H        0.9190     2.2600     0.5810 H     1 <1>   0.0800 
 28 H        0.1690     2.2970    -0.9890 H     1 <1>   0.0800 
 29 H       -2.9740    -2.8580     1.3920 H     1 <1>   0.4500 
 30 H       -1.5580     3.8570    -0.1270 H     1 <1>   0.0800 
 31 H       -0.8030     3.8210     1.4450 H     1 <1>   0.0800 
 32 H       -3.8960    -1.8070    -0.4290 H     1 <1>   0.0800 
 33 H       -2.8780    -2.7430    -1.5220 H     1 <1>   0.0800 
 34 H       -1.3750    -4.8520     0.0280 H     1 <1>   0.0800 
 35 H       -2.3150    -4.9620     1.5010 H     1 <1>   0.0800 
 36 H        0.5050     4.8440    -1.0980 H     1 <1>   0.0800 
 37 H        1.2620     4.8070     0.4800 H     1 <1>   0.0800 
 38 H       -0.1210     5.8340     0.1970 H     1 <1>   0.0800 
 39 H       -4.9940    -3.9770    -1.4480 H     1 <1>   0.0800 
 40 H       -3.0900    -5.4330    -1.2650 H     1 <1>   0.0800 
 41 H       -6.0120    -4.3110     0.5090 H     1 <1>   0.4000 
 42 H       -4.9970    -6.6510    -0.2120 H     1 <1>   0.0800 
 43 H       -4.4520    -6.1120     1.3530 H     1 <1>   0.0800 
 44 H       -4.3440    -9.1320    -0.4900 H     1 <1>   0.1500 
 45 H       -0.5090    -8.8940     1.1610 H     1 <1>   0.2700 
 46 H       -2.8690   -11.4350    -0.5030 H     1 <1>   0.0800 
 47 H       -1.8220   -11.4830     0.8930 H     1 <1>   0.0800 
 48 H       -1.1720   -11.0660    -0.6800 H     1 <1>   0.0800 
@<TRIPOS>BOND
  1   1   2  1   
  2   1   3  1   
  3   2   4  2   
  4   2   5  1   
  5   3   6  2   
  6   3   7  1   
  7   4   6  1   
  8   4  23  1   
  9   5   8  1   
 10   5  24  1   
 11   5  25  1   
 12   6  26  1   
 13   7   9  1   
 14   7  27  1   
 15   7  28  1   
 16   8  10  1   
 17   8  11  1   
 18   8  29  1   
 19   9  12  1   
 20   9  30  1   
 21   9  31  1   
 22  10  13  1   
 23  10  32  1   
 24  10  33  1   
 25  11  14  1   
 26  11  34  1   
 27  11  35  1   
 28  12  36  1   
 29  12  37  1   
 30  12  38  1   
 31  13  14  1   
 32  13  15  1   
 33  13  39  1   
 34  14  16  1   
 35  14  40  1   
 36  15  41  1   
 37  16  17  1   
 38  16  42  1   
 39  16  43  1   
 40  17  18  2   
 41  17  19  1   
 42  18  20  1   
 43  19  21  2   
 44  19  44  1   
 45  20  21  1   
 46  20  45  1   
 47  21  22  1   
 48  22  46  1   
 49  22  47  1   
 50  22  48  1   
@<TRIPOS>SUBSTRUCTURE
  1 ****   8 GROUP 4 **** **** 0

# MOE 2024.06 (io_trps.svl 2023.06)
