@<TRIPOS>MOLECULE
NONAME
21 22 1 0 0 
SMALL
USER_CHARGES


@<TRIPOS>ATOM
  1 BR      -0.1210     0.2300    -0.2300 Br    1 <1>  -0.1110 
  2 C        1.7370     0.6420     0.0120 C.ar  1 <1>   0.4210 
  3 N        2.5850    -0.3040    -0.3530 N.ar  1 <1>  -0.6200 
  4 C        2.0550     1.8770     0.5440 C.ar  1 <1>  -0.1500 
  5 C        3.8640    -0.0010    -0.1770 C.ar  1 <1>   0.2020 
  6 C        3.3870     2.1800     0.7210 C.ar  1 <1>  -0.1500 
  7 C        4.3000     1.2130     0.3470 C.ar  1 <1>  -0.1500 
  8 C        4.8930    -1.0530    -0.5880 C.3   1 <1>   0.2890 
  9 C        5.5930    -0.6660    -1.8500 C.1   1 <1>   0.3760 
 10 C        5.8890    -1.4280     0.5510 C.3   1 <1>   0.0530 
 11 C        4.4050    -2.5380    -0.6030 C.3   1 <1>   0.0530 
 12 N        6.1580    -0.3650    -2.7910 N.1   1 <1>  -0.5570 
 13 C        5.7220    -2.8750     0.0920 C.2   1 <1>   0.4640 
 14 O        6.3820    -3.8620     0.2050 O.2   1 <1>  -0.5700 
 15 H        1.2790     2.5710     0.8070 H     1 <1>   0.1500 
 16 H        3.7000     3.1280     1.1280 H     1 <1>   0.1500 
 17 H        5.3510     1.4160     0.4620 H     1 <1>   0.1500 
 18 H        5.4930    -1.2730     1.5400 H     1 <1>   0.0000 
 19 H        6.8850    -1.0430     0.4180 H     1 <1>   0.0000 
 20 H        4.3150    -2.9680    -1.5850 H     1 <1>   0.0000 
 21 H        3.5660    -2.7430     0.0380 H     1 <1>   0.0000 
@<TRIPOS>BOND
  1   1   2  1   
  2   2   3  ar  
  3   2   4  ar  
  4   3   5  ar  
  5   4   6  ar  
  6   4  15  1   
  7   5   7  ar  
  8   5   8  1   
  9   6   7  ar  
 10   6  16  1   
 11   7  17  1   
 12   8   9  1   
 13   8  10  1   
 14   8  11  1   
 15   9  12  3   
 16  10  13  1   
 17  10  18  1   
 18  10  19  1   
 19  11  13  1   
 20  11  20  1   
 21  11  21  1   
 22  13  14  2   
@<TRIPOS>SUBSTRUCTURE
  1 ****   5 GROUP 4 **** **** 0

# MOE 2024.06 (io_trps.svl 2023.06)
