@<TRIPOS>MOLECULE
NONAME
43 45 1 0 0 
SMALL
USER_CHARGES


@<TRIPOS>ATOM
  1 F        0.9930    -1.9110    -1.2230 F     1 <1>  -0.1900 
  2 C        0.5110    -2.8870    -0.5040 C.ar  1 <1>   0.1900 
  3 C        0.9670    -4.1800    -0.7040 C.ar  1 <1>  -0.1440 
  4 C       -0.4490    -2.5720     0.4390 C.ar  1 <1>  -0.1500 
  5 C        0.4170    -5.1810     0.0940 C.ar  1 <1>  -0.1500 
  6 C        2.0320    -4.4600    -1.7680 C.3   1 <1>   1.1640 
  7 C       -0.9850    -3.5820     1.2170 C.ar  1 <1>  -0.1500 
  8 C       -0.5560    -4.8920     1.0440 C.ar  1 <1>  -0.1440 
  9 F        1.6410    -4.1160    -2.9870 F     1 <1>  -0.3400 
 10 F        3.1740    -3.8300    -1.5320 F     1 <1>  -0.3400 
 11 F        2.3350    -5.7540    -1.8360 F     1 <1>  -0.3400 
 12 C       -1.1460    -6.0130     1.8800 C.3   1 <1>   0.4870 
 13 N       -2.0080    -6.8280     0.9920 N.4   1 <1>  -0.9590 
 14 C       -3.2530    -6.1430     0.5170 C.3   1 <1>   0.3430 
 15 C       -2.4090    -8.1530     1.5140 C.3   1 <1>   0.3430 
 16 C       -4.3520    -7.2200     0.5150 C.3   1 <1>   0.2000 
 17 C       -3.5950    -8.5470     0.6280 C.3   1 <1>  -0.0800 
 18 O       -5.1620    -7.0620     1.6320 O.3   1 <1>  -0.6800 
 19 C       -3.1930    -9.0590    -0.7840 C.3   1 <1>  -0.0160 
 20 C       -1.7360    -9.4820    -0.9440 C.ar  1 <1>   0.1670 
 21 N       -0.8460    -8.5030    -1.0750 N.ar  1 <1>  -0.6200 
 22 C       -1.4040   -10.8360    -0.9630 C.ar  1 <1>   0.1600 
 23 C        0.3790    -8.9760    -1.2710 C.ar  1 <1>   0.1600 
 24 N       -0.1770   -11.2970    -1.1150 N.ar  1 <1>  -0.6200 
 25 C        0.7030   -10.3270    -1.2850 C.ar  1 <1>   0.1600 
 26 H       -0.7650    -1.5490     0.5570 H     1 <1>   0.1500 
 27 H        0.7500    -6.1990    -0.0260 H     1 <1>   0.1500 
 28 H       -1.7310    -3.3320     1.9530 H     1 <1>   0.1500 
 29 H       -1.7200    -5.6110     2.6990 H     1 <1>   0.0800 
 30 H       -0.3480    -6.6170     2.2800 H     1 <1>   0.0800 
 31 H       -1.4480    -7.0480     0.1420 H     1 <1>   0.4500 
 32 H       -3.5360    -5.3300     1.1650 H     1 <1>   0.0800 
 33 H       -3.0980    -5.7660    -0.4800 H     1 <1>   0.0800 
 34 H       -1.6020    -8.8670     1.4560 H     1 <1>   0.0800 
 35 H       -2.7320    -8.0650     2.5390 H     1 <1>   0.0800 
 36 H       -4.9850    -7.1520    -0.3540 H     1 <1>   0.0800 
 37 H       -4.1910    -9.3020     1.1120 H     1 <1>   0.0800 
 38 H       -4.7330    -7.3010     2.4750 H     1 <1>   0.4000 
 39 H       -3.3780    -8.3040    -1.5290 H     1 <1>   0.0800 
 40 H       -3.8320    -9.8860    -1.0420 H     1 <1>   0.0800 
 41 H       -2.1810   -11.5720    -0.8510 H     1 <1>   0.1500 
 42 H        1.1740    -8.2670    -1.4310 H     1 <1>   0.1500 
 43 H        1.7280   -10.6160    -1.4450 H     1 <1>   0.1500 
@<TRIPOS>BOND
  1   1   2  1   
  2   2   3  ar  
  3   2   4  ar  
  4   3   5  ar  
  5   3   6  1   
  6   4   7  ar  
  7   4  26  1   
  8   5   8  ar  
  9   5  27  1   
 10   6   9  1   
 11   6  10  1   
 12   6  11  1   
 13   7   8  ar  
 14   7  28  1   
 15   8  12  1   
 16  12  13  1   
 17  12  29  1   
 18  12  30  1   
 19  13  14  1   
 20  13  15  1   
 21  13  31  1   
 22  14  16  1   
 23  14  32  1   
 24  14  33  1   
 25  15  17  1   
 26  15  34  1   
 27  15  35  1   
 28  16  17  1   
 29  16  18  1   
 30  16  36  1   
 31  17  19  1   
 32  17  37  1   
 33  18  38  1   
 34  19  20  1   
 35  19  39  1   
 36  19  40  1   
 37  20  21  ar  
 38  20  22  ar  
 39  21  23  ar  
 40  22  24  ar  
 41  22  41  1   
 42  23  25  ar  
 43  23  42  1   
 44  24  25  ar  
 45  25  43  1   
@<TRIPOS>SUBSTRUCTURE
  1 ****   5 GROUP 4 **** **** 0

# MOE 2024.06 (io_trps.svl 2023.06)
