@<TRIPOS>MOLECULE
NONAME
50 52 1 0 0 
SMALL
USER_CHARGES


@<TRIPOS>ATOM
  1 S        0.3350    -0.2650     1.3710 S.3   1 <1>  -0.0800 
  2 C        1.2230    -1.2530     0.2210 C.2   1 <1>  -0.1400 
  3 C        1.7370     0.7520     1.6500 C.2   1 <1>  -0.1100 
  4 C        2.4850    -0.8030     0.0910 C.2   1 <1>  -0.1500 
  5 C        0.4860    -2.4080    -0.4320 C.3   1 <1>   0.0200 
  6 C        2.7780     0.3380     0.9050 C.2   1 <1>  -0.1500 
  7 C        0.1150    -3.4720     0.6010 C.3   1 <1>   0.1400 
  8 N       -0.4820    -4.6490    -0.0720 N.am  1 <1>  -0.7300 
  9 C       -1.8100    -4.9290    -0.1650 C.2   1 <1>   0.5690 
 10 O       -2.6410    -4.1900     0.3080 O.2   1 <1>  -0.5700 
 11 C       -2.2540    -6.2120    -0.8780 C.3   1 <1>   0.2610 
 12 O       -1.1190    -6.9330    -1.3400 O.3   1 <1>  -0.5600 
 13 C       -3.1760    -7.0370     0.0670 C.3   1 <1>   0.3640 
 14 C       -1.4230    -8.1920    -1.8790 C.3   1 <1>   0.1810 
 15 N       -2.9320    -8.5190     0.0770 N.am  1 <1>  -0.6600 
 16 C       -4.6410    -6.7670    -0.2870 C.ar  1 <1>  -0.1430 
 17 C       -2.0980    -9.0930    -0.8490 C.2   1 <1>   0.5690 
 18 C       -3.5950    -9.2520     1.1920 C.3   1 <1>   0.2200 
 19 C       -5.2640    -7.4260    -1.3400 C.ar  1 <1>  -0.1500 
 20 C       -5.3670    -5.8390     0.4460 C.ar  1 <1>  -0.1500 
 21 O       -1.8660   -10.2780    -0.9060 O.2   1 <1>  -0.5700 
 22 C       -2.5430    -9.8020     2.1550 C.3   1 <1>  -0.2400 
 23 C       -4.5230   -10.3490     0.6690 C.3   1 <1>  -0.2400 
 24 C       -6.5870    -7.1660    -1.6500 C.ar  1 <1>  -0.1500 
 25 C       -6.6910    -5.5780     0.1370 C.ar  1 <1>  -0.1500 
 26 C       -7.3020    -6.2410    -0.9110 C.ar  1 <1>  -0.1500 
 27 H        1.6300     1.5610     2.3500 H     1 <1>   0.1500 
 28 H        3.2390    -1.2250    -0.5510 H     1 <1>   0.1500 
 29 H       -0.4070    -2.0370    -0.9020 H     1 <1>   0.0800 
 30 H        1.1180    -2.8430    -1.1840 H     1 <1>   0.0800 
 31 H        3.7540     0.7910     0.8900 H     1 <1>   0.1500 
 32 H       -0.5890    -3.0610     1.3060 H     1 <1>   0.0800 
 33 H        0.9930    -3.7790     1.1430 H     1 <1>   0.0800 
 34 H        0.1610    -5.3240    -0.5010 H     1 <1>   0.3700 
 35 H       -2.8140    -5.9180    -1.7470 H     1 <1>   0.0800 
 36 H       -3.0050    -6.6860     1.0710 H     1 <1>   0.0800 
 37 H       -2.0630    -8.0630    -2.7320 H     1 <1>   0.0800 
 38 H       -0.5010    -8.6450    -2.1960 H     1 <1>   0.0800 
 39 H       -4.2070    -8.5570     1.7430 H     1 <1>   0.0800 
 40 H       -4.7260    -8.1530    -1.9220 H     1 <1>   0.1500 
 41 H       -4.9060    -5.3050     1.2600 H     1 <1>   0.1500 
 42 H       -1.9450   -10.5560     1.6760 H     1 <1>   0.0800 
 43 H       -3.0260   -10.2470     3.0050 H     1 <1>   0.0800 
 44 H       -1.9060    -9.0090     2.5010 H     1 <1>   0.0800 
 45 H       -3.9690   -11.1280     0.1790 H     1 <1>   0.0800 
 46 H       -5.2390    -9.9350    -0.0150 H     1 <1>   0.0800 
 47 H       -5.0590   -10.7890     1.4900 H     1 <1>   0.0800 
 48 H       -7.0610    -7.6840    -2.4650 H     1 <1>   0.1500 
 49 H       -7.2430    -4.8540     0.7120 H     1 <1>   0.1500 
 50 H       -8.3310    -6.0370    -1.1500 H     1 <1>   0.1500 
@<TRIPOS>BOND
  1   1   2  1   
  2   1   3  1   
  3   2   4  2   
  4   2   5  1   
  5   3   6  2   
  6   3  27  1   
  7   4   6  1   
  8   4  28  1   
  9   5   7  1   
 10   5  29  1   
 11   5  30  1   
 12   6  31  1   
 13   7   8  1   
 14   7  32  1   
 15   7  33  1   
 16   8   9  am  
 17   8  34  1   
 18   9  10  2   
 19   9  11  1   
 20  11  12  1   
 21  11  13  1   
 22  11  35  1   
 23  12  14  1   
 24  13  15  1   
 25  13  16  1   
 26  13  36  1   
 27  14  17  1   
 28  14  37  1   
 29  14  38  1   
 30  15  17  am  
 31  15  18  1   
 32  16  19  ar  
 33  16  20  ar  
 34  17  21  2   
 35  18  22  1   
 36  18  23  1   
 37  18  39  1   
 38  19  24  ar  
 39  19  40  1   
 40  20  25  ar  
 41  20  41  1   
 42  22  42  1   
 43  22  43  1   
 44  22  44  1   
 45  23  45  1   
 46  23  46  1   
 47  23  47  1   
 48  24  26  ar  
 49  24  48  1   
 50  25  26  ar  
 51  25  49  1   
 52  26  50  1   
@<TRIPOS>SUBSTRUCTURE
  1 ****   9 GROUP 4 **** **** 0

# MOE 2024.06 (io_trps.svl 2023.06)
