@<TRIPOS>MOLECULE
NONAME
45 48 1 0 0 
SMALL
USER_CHARGES


@<TRIPOS>ATOM
  1 O        3.5460    -0.6010     3.6380 O.2   1 <1>  -0.5700 
  2 C        3.0930    -1.0420     2.5980 C.2   1 <1>   0.4690 
  3 C        2.6970    -0.1930     1.5080 C.ar  1 <1>   0.0860 
  4 C        2.9180    -2.4360     2.4160 C.2   1 <1>  -0.1360 
  5 C        2.1900    -0.7910     0.3500 C.ar  1 <1>   0.0830 
  6 C        2.7850     1.2010     1.5410 C.ar  1 <1>  -0.1500 
  7 C        2.4010    -2.9650     1.2760 C.2   1 <1>   0.0910 
  8 O        2.0750    -2.1330     0.2650 O.3   1 <1>  -0.1590 
  9 C        1.7880    -0.0210    -0.7330 C.ar  1 <1>  -0.1500 
 10 C        2.3820     1.9660     0.4640 C.ar  1 <1>  -0.1500 
 11 C        2.1870    -4.3830     1.0520 C.2   1 <1>   0.6160 
 12 C        1.8830     1.3550    -0.6770 C.ar  1 <1>  -0.1500 
 13 O        2.9720    -5.1660     1.5560 O.2   1 <1>  -0.5700 
 14 N        1.1300    -4.8950     0.3180 N.am  1 <1>  -0.6600 
 15 C       -0.1140    -4.1090     0.0600 C.3   1 <1>   0.2200 
 16 C        1.1550    -6.3270    -0.1140 C.3   1 <1>   0.0600 
 17 C       -1.4170    -4.8250     0.4120 C.3   1 <1>  -0.1600 
 18 C       -0.2800    -3.7310    -1.4080 C.3   1 <1>  -0.1600 
 19 C       -2.4880    -4.0500    -0.3670 C.3   1 <1>  -0.0800 
 20 C       -1.7620    -3.3580    -1.5360 C.3   1 <1>  -0.0800 
 21 C       -3.1520    -2.9330     0.4520 C.3   1 <1>  -0.1600 
 22 C       -2.0220    -1.8520    -1.3790 C.3   1 <1>  -0.1600 
 23 C       -3.2700    -1.7660    -0.5160 C.3   1 <1>   0.2000 
 24 O       -3.2910    -0.5740     0.1730 O.3   1 <1>  -0.6800 
 25 H        3.2160    -3.0630     3.2370 H     1 <1>   0.1500 
 26 H        3.1740     1.6770     2.4260 H     1 <1>   0.1500 
 27 H        1.4050    -0.5020    -1.6160 H     1 <1>   0.1500 
 28 H        2.4560     3.0400     0.5070 H     1 <1>   0.1500 
 29 H        1.5720     1.9570    -1.5140 H     1 <1>   0.1500 
 30 H       -0.0980    -3.2040     0.6410 H     1 <1>   0.0800 
 31 H        0.6580    -6.4490    -1.0590 H     1 <1>   0.0800 
 32 H        0.6670    -6.9350     0.6270 H     1 <1>   0.0800 
 33 H        2.1710    -6.6670    -0.2220 H     1 <1>   0.0800 
 34 H       -1.4100    -5.8360     0.0490 H     1 <1>   0.0800 
 35 H       -1.5980    -4.8300     1.4720 H     1 <1>   0.0800 
 36 H        0.3740    -2.9290    -1.6970 H     1 <1>   0.0800 
 37 H       -0.0850    -4.5840    -2.0320 H     1 <1>   0.0800 
 38 H       -3.2440    -4.7200    -0.7440 H     1 <1>   0.0800 
 39 H       -2.1610    -3.6990    -2.4770 H     1 <1>   0.0800 
 40 H       -2.5260    -2.6550     1.2810 H     1 <1>   0.0800 
 41 H       -4.1180    -3.2350     0.8160 H     1 <1>   0.0800 
 42 H       -2.1750    -1.3780    -2.3320 H     1 <1>   0.0800 
 43 H       -1.1980    -1.3810    -0.8710 H     1 <1>   0.0800 
 44 H       -4.1640    -1.8450    -1.1140 H     1 <1>   0.0800 
 45 H       -2.4940    -0.4940     0.7270 H     1 <1>   0.4000 
@<TRIPOS>BOND
  1   1   2  2   
  2   2   3  1   
  3   2   4  1   
  4   3   5  ar  
  5   3   6  ar  
  6   4   7  2   
  7   4  25  1   
  8   5   8  1   
  9   5   9  ar  
 10   6  10  ar  
 11   6  26  1   
 12   7   8  1   
 13   7  11  1   
 14   9  12  ar  
 15   9  27  1   
 16  10  12  ar  
 17  10  28  1   
 18  11  13  2   
 19  11  14  am  
 20  12  29  1   
 21  14  15  1   
 22  14  16  1   
 23  15  17  1   
 24  15  18  1   
 25  15  30  1   
 26  16  31  1   
 27  16  32  1   
 28  16  33  1   
 29  17  19  1   
 30  17  34  1   
 31  17  35  1   
 32  18  20  1   
 33  18  36  1   
 34  18  37  1   
 35  19  20  1   
 36  19  21  1   
 37  19  38  1   
 38  20  22  1   
 39  20  39  1   
 40  21  23  1   
 41  21  40  1   
 42  21  41  1   
 43  22  23  1   
 44  22  42  1   
 45  22  43  1   
 46  23  24  1   
 47  23  44  1   
 48  24  45  1   
@<TRIPOS>SUBSTRUCTURE
  1 ****   8 GROUP 4 **** **** 0

# MOE 2024.06 (io_trps.svl 2023.06)
