@<TRIPOS>MOLECULE
Untitled Document
27 29 1 0 0 
SMALL
USER_CHARGES


@<TRIPOS>ATOM
  1 O       -0.0120    -0.6230     1.4500 O.2   1 <1>  -0.5700 
  2 C       -0.0640    -1.5810     0.6990 C.2   1 <1>   0.5440 
  3 N        1.1300    -2.0640     0.2220 N.am  1 <1>  -0.6600 
  4 C       -1.3620    -2.1060     0.3190 C.ar  1 <1>   0.0860 
  5 C        1.3760    -3.4600    -0.1810 C.3   1 <1>   0.2200 
  6 C        2.4070    -1.3420     0.4310 C.3   1 <1>   0.1400 
  7 C       -1.6680    -3.4510     0.0230 C.ar  1 <1>   0.3920 
  8 C       -2.4160    -1.2000     0.2250 C.ar  1 <1>  -0.1500 
  9 C        0.5070    -4.4230     0.6270 C.3   1 <1>   0.1200 
 10 C        2.8690    -3.6720     0.0710 C.3   1 <1>  -0.1600 
 11 C        3.4830    -2.2860    -0.0890 C.3   1 <1>  -0.1600 
 12 O       -0.7890    -4.4670     0.0890 O.3   1 <1>  -0.3630 
 13 N       -2.8670    -3.8860    -0.3510 N.ar  1 <1>  -0.6200 
 14 C       -3.6590    -1.6480    -0.1540 C.ar  1 <1>  -0.1500 
 15 C       -3.8280    -2.9890    -0.4310 C.ar  1 <1>   0.1600 
 16 H        1.1750    -3.5670    -1.2350 H     1 <1>   0.0800 
 17 H        2.4050    -0.4040    -0.1000 H     1 <1>   0.0800 
 18 H        2.5410    -1.1580     1.4840 H     1 <1>   0.0800 
 19 H       -2.2580    -0.1570     0.4440 H     1 <1>   0.1500 
 20 H        0.4530    -4.1410     1.6640 H     1 <1>   0.0800 
 21 H        0.9030    -5.4200     0.5560 H     1 <1>   0.0800 
 22 H        3.0260    -4.0170     1.0780 H     1 <1>   0.0800 
 23 H        3.2910    -4.3860    -0.6140 H     1 <1>   0.0800 
 24 H        3.6600    -2.0770    -1.1300 H     1 <1>   0.0800 
 25 H        4.4060    -2.1770     0.4540 H     1 <1>   0.0800 
 26 H       -4.4890    -0.9690    -0.2350 H     1 <1>   0.1500 
 27 H       -4.8010    -3.3410    -0.7310 H     1 <1>   0.1500 
@<TRIPOS>BOND
  1   1   2  2   
  2   2   3  am  
  3   2   4  1   
  4   3   5  1   
  5   3   6  1   
  6   4   7  ar  
  7   4   8  ar  
  8   5   9  1   
  9   5  10  1   
 10   5  16  1   
 11   6  11  1   
 12   6  17  1   
 13   6  18  1   
 14   7  12  1   
 15   7  13  ar  
 16   8  14  ar  
 17   8  19  1   
 18   9  12  1   
 19   9  20  1   
 20   9  21  1   
 21  10  11  1   
 22  10  22  1   
 23  10  23  1   
 24  11  24  1   
 25  11  25  1   
 26  13  15  ar  
 27  14  15  ar  
 28  14  26  1   
 29  15  27  1   
@<TRIPOS>SUBSTRUCTURE
  1 ****   4 GROUP 4 **** **** 0

# MOE 2024.06 (io_trps.svl 2023.06)
