@<TRIPOS>MOLECULE
NONAME
48 50 1 0 0 
SMALL
USER_CHARGES


@<TRIPOS>ATOM
  1 O       -2.6560     1.0650    -2.0520 O.2   1 <1>  -0.5700 
  2 C       -2.2890     0.9230    -0.9130 C.2   1 <1>   0.5690 
  3 N       -2.0750    -0.3040    -0.3810 N.am  1 <1>  -0.7300 
  4 C       -2.0770     2.1440    -0.0410 C.3   1 <1>  -0.0990 
  5 C       -2.1720    -1.5800    -1.1240 C.3   1 <1>   0.2200 
  6 C       -0.6900     2.7880    -0.2300 C.3   1 <1>  -0.0800 
  7 C       -3.4010    -2.3730    -0.7040 C.3   1 <1>  -0.0800 
  8 C       -1.0640    -2.5080    -0.6450 C.3   1 <1>   0.1200 
  9 C        0.4510     1.8330     0.1740 C.3   1 <1>  -0.1600 
 10 C       -0.6050     4.0970     0.5760 C.3   1 <1>  -0.1600 
 11 C       -2.9230    -3.1150     0.5500 C.3   1 <1>   0.1200 
 12 C       -4.6920    -1.5560    -0.5060 C.3   1 <1>  -0.0160 
 13 O       -1.5260    -3.0250     0.5650 O.3   1 <1>  -0.5600 
 14 C        1.8250     2.5020     0.0340 C.3   1 <1>  -0.1600 
 15 C        0.7690     4.7630     0.4300 C.3   1 <1>  -0.1600 
 16 C       -5.8660    -2.4670    -0.1870 C.ar  1 <1>  -0.1440 
 17 C        1.8950     3.8050     0.8380 C.3   1 <1>  -0.1600 
 18 C       -6.3050    -2.6760     1.1050 C.ar  1 <1>  -0.1500 
 19 C       -6.5550    -3.1360    -1.1790 C.ar  1 <1>  -0.1500 
 20 C       -7.3760    -3.5230     1.3360 C.ar  1 <1>   0.1600 
 21 C       -7.6150    -3.9610    -0.8400 C.ar  1 <1>   0.1600 
 22 N       -8.0400    -4.1730     0.3950 N.ar  1 <1>  -0.6200 
 23 H       -1.7600    -0.4090     0.5860 H     1 <1>   0.3700 
 24 H       -2.8360     2.8590    -0.2990 H     1 <1>   0.0800 
 25 H       -2.2200     1.8750     0.9890 H     1 <1>   0.0800 
 26 H       -2.1300    -1.4070    -2.1870 H     1 <1>   0.0800 
 27 H       -0.5750     3.0290    -1.2740 H     1 <1>   0.0800 
 28 H       -3.5870    -3.1140    -1.4620 H     1 <1>   0.0800 
 29 H       -0.1290    -2.0000    -0.4930 H     1 <1>   0.0800 
 30 H       -0.9310    -3.3300    -1.3280 H     1 <1>   0.0800 
 31 H        0.3160     1.5190     1.1950 H     1 <1>   0.0800 
 32 H        0.4350     0.9560    -0.4490 H     1 <1>   0.0800 
 33 H       -1.3630     4.7810     0.2380 H     1 <1>   0.0800 
 34 H       -0.7850     3.8920     1.6180 H     1 <1>   0.0800 
 35 H       -3.2070    -4.1540     0.5310 H     1 <1>   0.0800 
 36 H       -3.2880    -2.6540     1.4500 H     1 <1>   0.0800 
 37 H       -4.9030    -1.0020    -1.4050 H     1 <1>   0.0800 
 38 H       -4.5680    -0.8430     0.2890 H     1 <1>   0.0800 
 39 H        2.5910     1.8270     0.3740 H     1 <1>   0.0800 
 40 H        2.0110     2.7160    -1.0050 H     1 <1>   0.0800 
 41 H        0.9120     5.0650    -0.5940 H     1 <1>   0.0800 
 42 H        0.8090     5.6470     1.0430 H     1 <1>   0.0800 
 43 H        2.8480     4.2780     0.6760 H     1 <1>   0.0800 
 44 H        1.8110     3.5820     1.8880 H     1 <1>   0.0800 
 45 H       -5.8260    -2.1880     1.9350 H     1 <1>   0.1500 
 46 H       -6.2780    -3.0220    -2.2110 H     1 <1>   0.1500 
 47 H       -7.7040    -3.6740     2.3510 H     1 <1>   0.1500 
 48 H       -8.1400    -4.4740    -1.6280 H     1 <1>   0.1500 
@<TRIPOS>BOND
  1   1   2  2   
  2   2   3  am  
  3   2   4  1   
  4   3   5  1   
  5   3  23  1   
  6   4   6  1   
  7   4  24  1   
  8   4  25  1   
  9   5   7  1   
 10   5   8  1   
 11   5  26  1   
 12   6   9  1   
 13   6  10  1   
 14   6  27  1   
 15   7  11  1   
 16   7  12  1   
 17   7  28  1   
 18   8  13  1   
 19   8  29  1   
 20   8  30  1   
 21   9  14  1   
 22   9  31  1   
 23   9  32  1   
 24  10  15  1   
 25  10  33  1   
 26  10  34  1   
 27  11  13  1   
 28  11  35  1   
 29  11  36  1   
 30  12  16  1   
 31  12  37  1   
 32  12  38  1   
 33  14  17  1   
 34  14  39  1   
 35  14  40  1   
 36  15  17  1   
 37  15  41  1   
 38  15  42  1   
 39  16  18  ar  
 40  16  19  ar  
 41  17  43  1   
 42  17  44  1   
 43  18  20  ar  
 44  18  45  1   
 45  19  21  ar  
 46  19  46  1   
 47  20  22  ar  
 48  20  47  1   
 49  21  22  ar  
 50  21  48  1   
@<TRIPOS>SUBSTRUCTURE
  1 ****   3 GROUP 4 **** **** 0

# MOE 2024.06 (io_trps.svl 2023.06)
