@<TRIPOS>MOLECULE
NONAME
46 48 1 0 0 
SMALL
USER_CHARGES


@<TRIPOS>ATOM
  1 S        0.1980    -0.0550    -0.5860 S.o2  1 <1>   1.3330 
  2 O       -0.7830    -1.1020    -0.4180 O.2   1 <1>  -0.6500 
  3 O        1.0780    -0.0680    -1.7330 O.2   1 <1>  -0.6500 
  4 N        1.1650    -0.0320     0.8100 N.am  1 <1>  -0.8490 
  5 C       -0.6270     1.5400    -0.5580 C.3   1 <1>  -0.0550 
  6 C        0.4260    -0.3560     2.0360 C.3   1 <1>   0.1160 
  7 C        2.3290    -0.9150     0.6890 C.3   1 <1>   0.1160 
  8 C        0.3170     2.7430    -0.7780 C.3   1 <1>  -0.0800 
  9 C       -0.4010     4.0820    -0.9630 C.3   1 <1>   0.2000 
 10 C        1.3060     3.0010     0.3680 C.3   1 <1>   0.1400 
 11 O       -1.3890     4.2040     0.0020 O.3   1 <1>  -0.6800 
 12 C        0.6850     5.1150    -0.6690 C.3   1 <1>   0.1400 
 13 N        1.5160     4.4720     0.3810 N.am  1 <1>  -0.6600 
 14 C        2.1450     5.1280     1.4120 C.2   1 <1>   0.6160 
 15 O        2.4400     4.5010     2.4090 O.2   1 <1>  -0.5700 
 16 C        2.4240     6.5390     1.3450 C.2   1 <1>   0.0290 
 17 C        3.1740     7.1640     0.3780 C.2   1 <1>  -0.1690 
 18 C        1.8540     7.3320     2.3880 C.2   1 <1>   0.3760 
 19 N        3.2850     8.5400     0.4480 N.pl3 1 <1>   0.6010 
 20 C        3.9150     6.4620    -0.7600 C.3   1 <1>  -0.1020 
 21 N        1.9490     8.6180     2.4680 N.2   1 <1>  -0.5760 
 22 N        3.9180     9.3850    -0.3990 N.2   1 <1>  -0.7070 
 23 C        2.6720     9.2300     1.4710 C.2   1 <1>  -0.0260 
 24 C        3.7060    10.5700     0.1010 C.2   1 <1>   0.1390 
 25 C        2.9420    10.5410     1.2560 C.2   1 <1>  -0.1500 
 26 H       -1.3610     1.5480    -1.3410 H     1 <1>   0.0800 
 27 H       -1.1540     1.6530     0.3680 H     1 <1>   0.0800 
 28 H        1.0670    -0.2410     2.8940 H     1 <1>   0.0800 
 29 H        0.0660    -1.3720     2.0020 H     1 <1>   0.0800 
 30 H       -0.4160     0.3040     2.1510 H     1 <1>   0.0800 
 31 H        2.9300    -0.8660     1.5810 H     1 <1>   0.0800 
 32 H        2.9400    -0.6100    -0.1440 H     1 <1>   0.0800 
 33 H        2.0120    -1.9330     0.5300 H     1 <1>   0.0800 
 34 H        0.8960     2.5630    -1.6680 H     1 <1>   0.0800 
 35 H       -0.8510     4.2010    -1.9350 H     1 <1>   0.0800 
 36 H        2.2380     2.4860     0.2070 H     1 <1>   0.0800 
 37 H        0.8930     2.6940     1.3140 H     1 <1>   0.0800 
 38 H       -0.9670     4.2510     0.8840 H     1 <1>   0.4000 
 39 H        0.2650     6.0530    -0.3460 H     1 <1>   0.0800 
 40 H        1.2860     5.2710    -1.5480 H     1 <1>   0.0800 
 41 H        1.3020     6.8130     3.1530 H     1 <1>   0.0600 
 42 H        4.9550     6.7400    -0.7420 H     1 <1>   0.0800 
 43 H        3.5040     6.7630    -1.7080 H     1 <1>   0.0800 
 44 H        3.8580     5.3920    -0.6810 H     1 <1>   0.0800 
 45 H        4.0900    11.4710    -0.3490 H     1 <1>   0.1500 
 46 H        2.6310    11.3780     1.8530 H     1 <1>   0.1500 
@<TRIPOS>BOND
  1   1   2  2   
  2   1   3  2   
  3   1   4  am  
  4   1   5  1   
  5   4   6  1   
  6   4   7  1   
  7   5   8  1   
  8   5  26  1   
  9   5  27  1   
 10   6  28  1   
 11   6  29  1   
 12   6  30  1   
 13   7  31  1   
 14   7  32  1   
 15   7  33  1   
 16   8   9  1   
 17   8  10  1   
 18   8  34  1   
 19   9  11  1   
 20   9  12  1   
 21   9  35  1   
 22  10  13  1   
 23  10  36  1   
 24  10  37  1   
 25  11  38  1   
 26  12  13  1   
 27  12  39  1   
 28  12  40  1   
 29  13  14  am  
 30  14  15  2   
 31  14  16  1   
 32  16  17  2   
 33  16  18  1   
 34  17  19  1   
 35  17  20  1   
 36  18  21  2   
 37  18  41  1   
 38  19  22  1   
 39  19  23  1   
 40  20  42  1   
 41  20  43  1   
 42  20  44  1   
 43  21  23  1   
 44  22  24  2   
 45  23  25  2   
 46  24  25  1   
 47  24  45  1   
 48  25  46  1   
@<TRIPOS>SUBSTRUCTURE
  1 ****  13 GROUP 4 **** **** 0

# MOE 2024.06 (io_trps.svl 2023.06)
