@<TRIPOS>MOLECULE
NONAME
50 52 1 0 0 
SMALL
USER_CHARGES


@<TRIPOS>ATOM
  1 O        0.5110     1.7270    -1.4940 O.3   1 <1>  -0.6800 
  2 C        0.0630     1.8860    -0.1860 C.3   1 <1>   0.3000 
  3 C        0.4580     3.2520     0.3580 C.2   1 <1>   0.0070 
  4 N        0.9440     3.4190     1.5410 N.2   1 <1>  -0.3380 
  5 N        0.3480     4.4160    -0.2970 N.pl3 1 <1>   0.0480 
  6 N        1.1730     4.7190     1.6920 N.2   1 <1>  -0.3380 
  7 C        0.8190     5.2990     0.5950 C.2   1 <1>   0.0070 
  8 C       -0.1430     4.6390    -1.6760 C.3   1 <1>   0.0160 
  9 C        0.9620     6.7970     0.3560 C.3   1 <1>   0.1000 
 10 C        1.9390     7.4010     1.3800 C.3   1 <1>   0.2090 
 11 C       -0.3890     7.5270     0.4400 C.3   1 <1>  -0.1600 
 12 N        2.1350     8.8660     1.1170 N.pl3 1 <1>  -0.8380 
 13 C       -0.1920     9.0420     0.2520 C.3   1 <1>  -0.1600 
 14 C        3.3060     9.4860     0.8040 C.ar  1 <1>   0.7710 
 15 C        0.8390     9.6200     1.2300 C.3   1 <1>   0.2090 
 16 N        3.2970    10.7580     0.4450 N.ar  1 <1>  -0.6200 
 17 N        4.4520     8.7870     0.8700 N.ar  1 <1>  -0.1790 
 18 C        4.4360    11.3390     0.1200 C.ar  1 <1>   0.4100 
 19 C        5.6490     9.3500     0.5840 C.ar  1 <1>   0.2110 
 20 N        4.3540    12.6300    -0.2920 N.pl3 1 <1>  -0.8380 
 21 C        5.6740    10.6510     0.2040 C.ar  1 <1>  -0.1430 
 22 C        4.8580    13.0880    -1.6160 C.3   1 <1>   0.1290 
 23 C        3.4280    13.5970     0.3660 C.3   1 <1>   0.1290 
 24 C        7.0050    11.3450    -0.0770 C.3   1 <1>  -0.0970 
 25 H        0.4480     0.7880    -1.7560 H     1 <1>   0.4000 
 26 H        0.5080     1.1150     0.4190 H     1 <1>   0.0800 
 27 H       -1.0070     1.7750    -0.1750 H     1 <1>   0.0800 
 28 H       -1.0860     4.1400    -1.8020 H     1 <1>   0.0800 
 29 H        0.5680     4.2300    -2.3720 H     1 <1>   0.0800 
 30 H       -0.2660     5.6870    -1.8710 H     1 <1>   0.0800 
 31 H        1.3830     6.9390    -0.6230 H     1 <1>   0.0800 
 32 H        2.8620     6.8530     1.3340 H     1 <1>   0.0800 
 33 H        1.5360     7.2730     2.3720 H     1 <1>   0.0800 
 34 H       -0.8320     7.3390     1.4040 H     1 <1>   0.0800 
 35 H       -1.0660     7.1570    -0.3080 H     1 <1>   0.0800 
 36 H       -1.1320     9.5450     0.3980 H     1 <1>   0.0800 
 37 H        0.1320     9.2490    -0.7530 H     1 <1>   0.0800 
 38 H        0.9620    10.6710     1.0300 H     1 <1>   0.0800 
 39 H        0.4670     9.5270     2.2370 H     1 <1>   0.0800 
 40 H        4.3650     7.8280     1.1820 H     1 <1>   0.4570 
 41 H        6.5410     8.7520     0.6770 H     1 <1>   0.1500 
 42 H        5.2230    12.2540    -2.1900 H     1 <1>   0.0800 
 43 H        5.6530    13.8000    -1.4780 H     1 <1>   0.0800 
 44 H        4.0620    13.5550    -2.1710 H     1 <1>   0.0800 
 45 H        3.1640    13.2510     1.3510 H     1 <1>   0.0800 
 46 H        2.5310    13.6980    -0.2180 H     1 <1>   0.0800 
 47 H        3.9040    14.5570     0.4570 H     1 <1>   0.0800 
 48 H        7.0220    12.3150     0.3910 H     1 <1>   0.0800 
 49 H        7.1480    11.4720    -1.1350 H     1 <1>   0.0800 
 50 H        7.8330    10.7770     0.3080 H     1 <1>   0.0800 
@<TRIPOS>BOND
  1   1   2  1   
  2   1  25  1   
  3   2   3  1   
  4   2  26  1   
  5   2  27  1   
  6   3   4  2   
  7   3   5  1   
  8   4   6  1   
  9   5   7  1   
 10   5   8  1   
 11   6   7  2   
 12   7   9  1   
 13   8  28  1   
 14   8  29  1   
 15   8  30  1   
 16   9  10  1   
 17   9  11  1   
 18   9  31  1   
 19  10  12  1   
 20  10  32  1   
 21  10  33  1   
 22  11  13  1   
 23  11  34  1   
 24  11  35  1   
 25  12  14  1   
 26  12  15  1   
 27  13  15  1   
 28  13  36  1   
 29  13  37  1   
 30  14  16  ar  
 31  14  17  ar  
 32  15  38  1   
 33  15  39  1   
 34  16  18  ar  
 35  17  19  ar  
 36  17  40  1   
 37  18  20  1   
 38  18  21  ar  
 39  19  21  ar  
 40  19  41  1   
 41  20  22  1   
 42  20  23  1   
 43  21  24  1   
 44  22  42  1   
 45  22  43  1   
 46  22  44  1   
 47  23  45  1   
 48  23  46  1   
 49  23  47  1   
 50  24  48  1   
 51  24  49  1   
 52  24  50  1   
@<TRIPOS>SUBSTRUCTURE
  1 ****  10 GROUP 4 **** **** 0

# MOE 2024.06 (io_trps.svl 2023.06)
