@<TRIPOS>MOLECULE
NONAME
45 47 1 0 0 
SMALL
USER_CHARGES


@<TRIPOS>ATOM
  1 F       -0.5750    -0.8040    -2.0260 F     1 <1>  -0.3400 
  2 C       -1.2600     0.0480    -1.2720 C.3   1 <1>   1.3000 
  3 F       -2.5300     0.0160    -1.6600 F     1 <1>  -0.3400 
  4 F       -0.7930     1.2650    -1.5070 F     1 <1>  -0.3400 
  5 O       -1.1320    -0.2660     0.1000 O.3   1 <1>  -0.3630 
  6 C       -1.5980    -1.4640     0.5080 C.ar  1 <1>   0.0830 
  7 C       -0.7670    -2.5730     0.4900 C.ar  1 <1>  -0.1500 
  8 C       -2.9000    -1.5760     0.9660 C.ar  1 <1>  -0.1500 
  9 C       -1.2470    -3.8000     0.9100 C.ar  1 <1>  -0.1500 
 10 C       -3.3790    -2.8040     1.3850 C.ar  1 <1>  -0.1500 
 11 C       -2.5590    -3.9240     1.3520 C.ar  1 <1>  -0.1430 
 12 C       -3.0980    -5.2700     1.8000 C.3   1 <1>   0.4870 
 13 N       -3.3250    -6.1230     0.5990 N.4   1 <1>  -0.9590 
 14 C       -4.4310    -5.5620    -0.2430 C.3   1 <1>   0.3430 
 15 C       -3.7480    -7.5000     1.0080 C.3   1 <1>   0.3430 
 16 C       -5.6820    -6.3600     0.1340 C.3   1 <1>   0.2000 
 17 C       -5.1290    -7.7590     0.3880 C.3   1 <1>  -0.0800 
 18 O       -6.1740    -5.8630     1.3370 O.3   1 <1>  -0.6800 
 19 C       -5.0300    -8.5820    -0.9130 C.3   1 <1>  -0.0170 
 20 C       -4.2580    -9.8710    -0.6820 C.ar  1 <1>  -0.1430 
 21 C       -3.0230   -10.0970    -1.2600 C.ar  1 <1>  -0.1500 
 22 C       -4.7500   -10.8820     0.1190 C.ar  1 <1>  -0.1500 
 23 C       -2.3510   -11.2790    -0.9980 C.ar  1 <1>   0.1600 
 24 C       -3.9960   -12.0270     0.3180 C.ar  1 <1>   0.1600 
 25 N       -2.8050   -12.2420    -0.2130 N.ar  1 <1>  -0.6200 
 26 H        0.2500    -2.4710     0.1520 H     1 <1>   0.1500 
 27 H       -3.5330    -0.7050     0.9950 H     1 <1>   0.1500 
 28 H       -0.5840    -4.6490     0.8940 H     1 <1>   0.1500 
 29 H       -4.3950    -2.8740     1.7400 H     1 <1>   0.1500 
 30 H       -4.0230    -5.1350     2.3380 H     1 <1>   0.0800 
 31 H       -2.3850    -5.7370     2.4600 H     1 <1>   0.0800 
 32 H       -2.4510    -6.1370     0.0600 H     1 <1>   0.4500 
 33 H       -4.5810    -4.5070    -0.0840 H     1 <1>   0.0800 
 34 H       -4.2090    -5.7290    -1.2830 H     1 <1>   0.0800 
 35 H       -3.0310    -8.2400     0.6890 H     1 <1>   0.0800 
 36 H       -3.8350    -7.5520     2.0820 H     1 <1>   0.0800 
 37 H       -6.4570    -6.3090    -0.6120 H     1 <1>   0.0800 
 38 H       -5.7490    -8.3010     1.0820 H     1 <1>   0.0800 
 39 H       -7.0780    -6.1990     1.5170 H     1 <1>   0.4000 
 40 H       -4.5460    -8.0150    -1.6890 H     1 <1>   0.0800 
 41 H       -6.0180    -8.8270    -1.2630 H     1 <1>   0.0800 
 42 H       -2.5710    -9.3760    -1.9160 H     1 <1>   0.1500 
 43 H       -5.7120   -10.8010     0.5920 H     1 <1>   0.1500 
 44 H       -1.3900   -11.4450    -1.4560 H     1 <1>   0.1500 
 45 H       -4.3930   -12.8080     0.9460 H     1 <1>   0.1500 
@<TRIPOS>BOND
  1   1   2  1   
  2   2   3  1   
  3   2   4  1   
  4   2   5  1   
  5   5   6  1   
  6   6   7  ar  
  7   6   8  ar  
  8   7   9  ar  
  9   7  26  1   
 10   8  10  ar  
 11   8  27  1   
 12   9  11  ar  
 13   9  28  1   
 14  10  11  ar  
 15  10  29  1   
 16  11  12  1   
 17  12  13  1   
 18  12  30  1   
 19  12  31  1   
 20  13  14  1   
 21  13  15  1   
 22  13  32  1   
 23  14  16  1   
 24  14  33  1   
 25  14  34  1   
 26  15  17  1   
 27  15  35  1   
 28  15  36  1   
 29  16  17  1   
 30  16  18  1   
 31  16  37  1   
 32  17  19  1   
 33  17  38  1   
 34  18  39  1   
 35  19  20  1   
 36  19  40  1   
 37  19  41  1   
 38  20  21  ar  
 39  20  22  ar  
 40  21  23  ar  
 41  21  42  1   
 42  22  24  ar  
 43  22  43  1   
 44  23  25  ar  
 45  23  44  1   
 46  24  25  ar  
 47  24  45  1   
@<TRIPOS>SUBSTRUCTURE
  1 ****  13 GROUP 4 **** **** 0

# MOE 2024.06 (io_trps.svl 2023.06)
