@<TRIPOS>MOLECULE
NONAME
54 58 1 0 0 
SMALL
USER_CHARGES


@<TRIPOS>ATOM
  1 O       -0.3280     0.2320     0.1590 O.2   1 <1>  -0.5700 
  2 C       -1.3770     0.8550     0.1270 C.2   1 <1>   0.7150 
  3 N       -2.5340     0.1290    -0.0780 N.am  1 <1>  -0.6600 
  4 C       -1.3700     2.2990     0.2840 C.2   1 <1>   0.1020 
  5 C       -3.9060     0.6870    -0.1880 C.3   1 <1>   0.1400 
  6 C       -2.5580    -1.3480    -0.2020 C.3   1 <1>   0.1400 
  7 N       -2.3240     3.0160     0.8210 N.2   1 <1>  -0.3380 
  8 N       -0.3580     3.1120    -0.0920 N.pl3 1 <1>   0.0480 
  9 C       -4.7970    -0.5140    -0.5090 C.3   1 <1>   0.2000 
 10 C       -4.0260    -1.7370    -0.0170 C.3   1 <1>  -0.0800 
 11 N       -1.9440     4.2840     0.8120 N.2   1 <1>  -0.3380 
 12 C       -0.7750     4.3210     0.2740 C.2   1 <1>   0.0070 
 13 C        0.9170     2.8130    -0.7900 C.3   1 <1>   0.0960 
 14 O       -6.0200    -0.4330     0.1380 O.3   1 <1>  -0.6800 
 15 C       -4.4260    -3.0270    -0.7510 C.3   1 <1>  -0.0170 
 16 C        0.0280     5.5960     0.0940 C.3   1 <1>   0.0200 
 17 C        2.1290     3.1690     0.0820 C.3   1 <1>  -0.1600 
 18 C       -3.6180    -4.2140    -0.2560 C.ar  1 <1>   0.1670 
 19 C        1.3730     5.5350     0.8320 C.3   1 <1>  -0.1600 
 20 C        2.4390     4.6750     0.1320 C.3   1 <1>  -0.1600 
 21 N       -2.4920    -4.4610    -0.8520 N.ar  1 <1>  -0.6200 
 22 C       -4.1130    -4.9730     0.8170 C.ar  1 <1>  -0.1500 
 23 C       -1.7550    -5.5100    -0.4040 C.ar  1 <1>   0.3100 
 24 C       -3.3970    -6.0310     1.2850 C.ar  1 <1>  -0.1500 
 25 C       -2.1700    -6.3280     0.6700 C.ar  1 <1>   0.0000 
 26 C       -0.5300    -5.7950    -1.0270 C.ar  1 <1>  -0.1500 
 27 C       -1.3430    -7.3950     1.0760 C.ar  1 <1>  -0.1500 
 28 C        0.2590    -6.8370    -0.6170 C.ar  1 <1>  -0.1500 
 29 C       -0.1540    -7.6450     0.4470 C.ar  1 <1>  -0.1500 
 30 H       -4.1860     1.1300     0.7520 H     1 <1>   0.0800 
 31 H       -3.9520     1.4240    -0.9720 H     1 <1>   0.0800 
 32 H       -2.2080    -1.6240    -1.1830 H     1 <1>   0.0800 
 33 H       -1.9300    -1.8130     0.5400 H     1 <1>   0.0800 
 34 H       -4.9750    -0.5640    -1.5700 H     1 <1>   0.0800 
 35 H       -4.1890    -1.8610     1.0390 H     1 <1>   0.0800 
 36 H        0.9580     1.7730    -1.0480 H     1 <1>   0.0800 
 37 H        0.9470     3.3720    -1.7080 H     1 <1>   0.0800 
 38 H       -5.8880    -0.3010     1.0970 H     1 <1>   0.4000 
 39 H       -4.2660    -2.9120    -1.8090 H     1 <1>   0.0800 
 40 H       -5.4740    -3.2160    -0.6010 H     1 <1>   0.0800 
 41 H        0.1780     5.7910    -0.9520 H     1 <1>   0.0800 
 42 H       -0.5480     6.4120     0.4960 H     1 <1>   0.0800 
 43 H        1.9900     2.7770     1.0750 H     1 <1>   0.0800 
 44 H        2.9880     2.6730    -0.3360 H     1 <1>   0.0800 
 45 H        1.7550     6.5380     0.9110 H     1 <1>   0.0800 
 46 H        1.2130     5.1760     1.8350 H     1 <1>   0.0800 
 47 H        3.3670     4.8030     0.6640 H     1 <1>   0.0800 
 48 H        2.5980     5.0440    -0.8670 H     1 <1>   0.0800 
 49 H       -5.0570    -4.7060     1.2580 H     1 <1>   0.1500 
 50 H       -3.7430    -6.6360     2.1040 H     1 <1>   0.1500 
 51 H       -0.2310    -5.1620    -1.8420 H     1 <1>   0.1500 
 52 H       -1.6660    -8.0120     1.8960 H     1 <1>   0.1500 
 53 H        1.1970    -7.0440    -1.1040 H     1 <1>   0.1500 
 54 H        0.4760    -8.4600     0.7600 H     1 <1>   0.1500 
@<TRIPOS>BOND
  1   1   2  2   
  2   2   3  am  
  3   2   4  1   
  4   3   5  1   
  5   3   6  1   
  6   4   7  2   
  7   4   8  1   
  8   5   9  1   
  9   5  30  1   
 10   5  31  1   
 11   6  10  1   
 12   6  32  1   
 13   6  33  1   
 14   7  11  1   
 15   8  12  1   
 16   8  13  1   
 17   9  10  1   
 18   9  14  1   
 19   9  34  1   
 20  10  15  1   
 21  10  35  1   
 22  11  12  2   
 23  12  16  1   
 24  13  17  1   
 25  13  36  1   
 26  13  37  1   
 27  14  38  1   
 28  15  18  1   
 29  15  39  1   
 30  15  40  1   
 31  16  19  1   
 32  16  41  1   
 33  16  42  1   
 34  17  20  1   
 35  17  43  1   
 36  17  44  1   
 37  18  21  ar  
 38  18  22  ar  
 39  19  20  1   
 40  19  45  1   
 41  19  46  1   
 42  20  47  1   
 43  20  48  1   
 44  21  23  ar  
 45  22  24  ar  
 46  22  49  1   
 47  23  25  ar  
 48  23  26  ar  
 49  24  25  ar  
 50  24  50  1   
 51  25  27  ar  
 52  26  28  ar  
 53  26  51  1   
 54  27  29  ar  
 55  27  52  1   
 56  28  29  ar  
 57  28  53  1   
 58  29  54  1   
@<TRIPOS>SUBSTRUCTURE
  1 ****   6 GROUP 4 **** **** 0

# MOE 2024.06 (io_trps.svl 2023.06)
