@<TRIPOS>MOLECULE
NONAME
28 29 1 0 0 
SMALL
USER_CHARGES


@<TRIPOS>ATOM
  1 O        3.1950     1.6310     2.1970 O.2   1 <1>  -0.5700 
  2 C        2.9140     1.0860     1.1420 C.2   1 <1>   0.8410 
  3 N        3.6480     0.0390     0.7230 N.2   1 <1>  -0.6610 
  4 N        1.8720     1.5500     0.3960 N.am  1 <1>  -0.4200 
  5 C        3.3080    -0.4690    -0.3990 C.2   1 <1>   0.7110 
  6 C        1.6130     0.9270    -0.7770 C.2   1 <1>   0.4500 
  7 C        1.1100     2.7000     0.8950 C.3   1 <1>   0.5000 
  8 N        2.2990    -0.0610    -1.1950 N.2   1 <1>  -0.6610 
  9 N        3.9930    -1.5050    -0.8640 N.pl3 1 <1>  -0.8500 
 10 O       -0.1870     2.6520     0.3760 O.3   1 <1>  -0.5600 
 11 C        1.7110     4.0300     0.4580 C.3   1 <1>  -0.1600 
 12 C       -0.5950     3.9070    -0.1130 C.3   1 <1>   0.2000 
 13 C        0.4900     4.9040     0.2960 C.3   1 <1>   0.2000 
 14 C       -0.7610     3.8130    -1.6380 C.3   1 <1>   0.1200 
 15 O        0.1760     5.4560     1.5290 O.3   1 <1>  -0.6800 
 16 O       -1.5600     2.7240    -1.9440 O.3   1 <1>  -0.6800 
 17 H        0.7960     1.2930    -1.3740 H     1 <1>   0.0600 
 18 H        1.0240     2.6590     1.9690 H     1 <1>   0.0800 
 19 H        4.7610    -1.8970    -0.3250 H     1 <1>   0.4000 
 20 H        3.7310    -1.9420    -1.7430 H     1 <1>   0.4000 
 21 H        2.4100     4.4170     1.1790 H     1 <1>   0.0800 
 22 H        2.2050     3.9160    -0.4900 H     1 <1>   0.0800 
 23 H       -1.5420     4.1660     0.3300 H     1 <1>   0.0800 
 24 H        0.6260     5.7100    -0.4060 H     1 <1>   0.0800 
 25 H        0.1910     3.6740    -2.1190 H     1 <1>   0.0800 
 26 H       -1.2290     4.6980    -2.0330 H     1 <1>   0.0800 
 27 H       -0.0880     4.7680     2.1720 H     1 <1>   0.4000 
 28 H       -1.4060     2.0210    -1.2770 H     1 <1>   0.4000 
@<TRIPOS>BOND
  1   1   2  2   
  2   2   3  1   
  3   2   4  am  
  4   3   5  2   
  5   4   6  1   
  6   4   7  1   
  7   5   8  1   
  8   5   9  1   
  9   6   8  2   
 10   6  17  1   
 11   7  10  1   
 12   7  11  1   
 13   7  18  1   
 14   9  19  1   
 15   9  20  1   
 16  10  12  1   
 17  11  13  1   
 18  11  21  1   
 19  11  22  1   
 20  12  13  1   
 21  12  14  1   
 22  12  23  1   
 23  13  15  1   
 24  13  24  1   
 25  14  16  1   
 26  14  25  1   
 27  14  26  1   
 28  15  27  1   
 29  16  28  1   
@<TRIPOS>SUBSTRUCTURE
  1 ****   4 GROUP 4 **** **** 0

# MOE 2024.06 (io_trps.svl 2023.06)
