@<TRIPOS>MOLECULE
NONAME
49 51 1 0 0 
SMALL
USER_CHARGES


@<TRIPOS>ATOM
  1 O       -1.8300     0.2770    -2.2490 O.2   1 <1>  -0.5700 
  2 C       -1.7870     0.7520    -1.1300 C.2   1 <1>   0.5440 
  3 N       -2.0000    -0.0840    -0.0720 N.am  1 <1>  -0.7300 
  4 C       -1.5130     2.1640    -0.9250 C.ar  1 <1>   0.0860 
  5 C       -2.2820    -1.5340    -0.1730 C.3   1 <1>   0.2200 
  6 C       -1.9190     2.8420     0.2290 C.ar  1 <1>  -0.1500 
  7 C       -0.8260     2.9060    -1.8870 C.ar  1 <1>  -0.1500 
  8 C       -3.7680    -1.7650     0.0360 C.3   1 <1>  -0.0800 
  9 C       -1.6850    -2.2530     1.0310 C.3   1 <1>   0.1200 
 10 C       -1.6420     4.1840     0.4200 C.ar  1 <1>  -0.1500 
 11 C       -0.5450     4.2470    -1.7030 C.ar  1 <1>  -0.1500 
 12 C       -3.8810    -1.8110     1.5650 C.3   1 <1>   0.1200 
 13 C       -4.2340    -3.0750    -0.6270 C.3   1 <1>  -0.0160 
 14 O       -2.6050    -2.0890     2.0680 O.3   1 <1>  -0.5600 
 15 C       -0.9460     4.9000    -0.5490 C.ar  1 <1>   0.0830 
 16 C       -5.7300    -3.2860    -0.4470 C.ar  1 <1>  -0.1430 
 17 O       -0.6270     6.2120    -0.4510 O.3   1 <1>  -0.3630 
 18 C       -6.2420    -4.2110     0.4410 C.ar  1 <1>  -0.1500 
 19 C       -6.6540    -2.5580    -1.1680 C.ar  1 <1>  -0.1500 
 20 C       -0.9190     7.0110     0.6730 C.3   1 <1>   0.2000 
 21 C       -7.6140    -4.3540     0.5640 C.ar  1 <1>   0.1600 
 22 C       -8.0070    -2.7790    -0.9690 C.ar  1 <1>   0.1600 
 23 C       -0.8750     8.4660     0.2120 C.3   1 <1>  -0.2400 
 24 C        0.1290     6.7440     1.7560 C.3   1 <1>  -0.2400 
 25 N       -8.5090    -3.6590    -0.1180 N.ar  1 <1>  -0.6200 
 26 H       -1.9350     0.2630     0.8860 H     1 <1>   0.3700 
 27 H       -1.9140    -1.9260    -1.1070 H     1 <1>   0.0800 
 28 H       -2.4670     2.3150     0.9880 H     1 <1>   0.1500 
 29 H       -0.5070     2.4170    -2.7920 H     1 <1>   0.1500 
 30 H       -4.3450    -0.9520    -0.3680 H     1 <1>   0.0800 
 31 H       -0.7310    -1.8530     1.3240 H     1 <1>   0.0800 
 32 H       -1.5940    -3.3080     0.8380 H     1 <1>   0.0800 
 33 H       -1.9740     4.6550     1.3250 H     1 <1>   0.1500 
 34 H       -0.0120     4.8000    -2.4560 H     1 <1>   0.1500 
 35 H       -4.5650    -2.5650     1.9150 H     1 <1>   0.0800 
 36 H       -4.1810    -0.8530     1.9530 H     1 <1>   0.0800 
 37 H       -3.6990    -3.9130    -0.2170 H     1 <1>   0.0800 
 38 H       -4.0180    -3.0360    -1.6810 H     1 <1>   0.0800 
 39 H       -5.5890    -4.8210     1.0380 H     1 <1>   0.1500 
 40 H       -6.3360    -1.8210    -1.8840 H     1 <1>   0.1500 
 41 H       -1.9130     6.7810     1.0160 H     1 <1>   0.0800 
 42 H       -7.9950    -5.0800     1.2620 H     1 <1>   0.1500 
 43 H       -8.7130    -2.2010    -1.5410 H     1 <1>   0.1500 
 44 H        0.1010     8.7090    -0.1690 H     1 <1>   0.0800 
 45 H       -1.0970     9.1210     1.0340 H     1 <1>   0.0800 
 46 H       -1.6060     8.6260    -0.5590 H     1 <1>   0.0800 
 47 H        1.1120     6.9690     1.3840 H     1 <1>   0.0800 
 48 H        0.0990     5.7180     2.0710 H     1 <1>   0.0800 
 49 H       -0.0640     7.3650     2.6120 H     1 <1>   0.0800 
@<TRIPOS>BOND
  1   1   2  2   
  2   2   3  am  
  3   2   4  1   
  4   3   5  1   
  5   3  26  1   
  6   4   6  ar  
  7   4   7  ar  
  8   5   8  1   
  9   5   9  1   
 10   5  27  1   
 11   6  10  ar  
 12   6  28  1   
 13   7  11  ar  
 14   7  29  1   
 15   8  12  1   
 16   8  13  1   
 17   8  30  1   
 18   9  14  1   
 19   9  31  1   
 20   9  32  1   
 21  10  15  ar  
 22  10  33  1   
 23  11  15  ar  
 24  11  34  1   
 25  12  14  1   
 26  12  35  1   
 27  12  36  1   
 28  13  16  1   
 29  13  37  1   
 30  13  38  1   
 31  15  17  1   
 32  16  18  ar  
 33  16  19  ar  
 34  17  20  1   
 35  18  21  ar  
 36  18  39  1   
 37  19  22  ar  
 38  19  40  1   
 39  20  23  1   
 40  20  24  1   
 41  20  41  1   
 42  21  25  ar  
 43  21  42  1   
 44  22  25  ar  
 45  22  43  1   
 46  23  44  1   
 47  23  45  1   
 48  23  46  1   
 49  24  47  1   
 50  24  48  1   
 51  24  49  1   
@<TRIPOS>SUBSTRUCTURE
  1 ****   3 GROUP 4 **** **** 0

# MOE 2024.06 (io_trps.svl 2023.06)
