@<TRIPOS>MOLECULE
NONAME
53 54 1 0 0 
SMALL
USER_CHARGES


@<TRIPOS>ATOM
  1 F       -0.4220     0.7250    -0.1370 F     1 <1>  -0.1900 
  2 C       -1.7200     0.8770    -0.0800 C.ar  1 <1>   0.1900 
  3 C       -2.3920     1.8210    -0.8650 C.ar  1 <1>   0.0830 
  4 C       -2.3980     0.0570     0.8010 C.ar  1 <1>  -0.1500 
  5 O       -1.8390     2.6840    -1.7660 O.3   1 <1>  -0.3630 
  6 C       -3.7680     1.9060    -0.7290 C.ar  1 <1>  -0.1500 
  7 C       -3.7710     0.1690     0.9120 C.ar  1 <1>  -0.1500 
  8 C       -0.4610     2.7050    -2.0660 C.3   1 <1>   0.0400 
  9 C       -4.4890     1.0930     0.1480 C.ar  1 <1>   0.0530 
 10 C       -5.9220     1.2210     0.2560 C.2   1 <1>   0.0870 
 11 O       -6.4950     2.3770     0.0290 O.3   1 <1>  -0.0190 
 12 C       -6.9190     0.3500     0.5730 C.2   1 <1>  -0.0860 
 13 N       -7.7940     2.3440     0.1660 N.2   1 <1>  -0.4100 
 14 C       -8.0750     1.1310     0.4860 C.2   1 <1>   0.3720 
 15 C       -6.9130    -1.0390     0.8910 C.2   1 <1>   0.7160 
 16 N       -9.3900     0.6710     0.6940 N.pl3 1 <1>  -0.8210 
 17 O       -6.1450    -1.8230     0.3680 O.2   1 <1>  -0.5700 
 18 N       -7.8500    -1.5300     1.7480 N.am  1 <1>  -0.7300 
 19 C      -10.0160     1.3150     1.8870 C.3   1 <1>   0.1290 
 20 C      -10.2490     0.9100    -0.5070 C.3   1 <1>   0.1290 
 21 C       -8.3280    -2.9290     1.7060 C.3   1 <1>   0.1400 
 22 C       -9.1100    -3.1670     0.4030 C.3   1 <1>   0.2000 
 23 O      -10.1380    -2.2190     0.2820 O.3   1 <1>  -0.6800 
 24 C       -9.7160    -4.5830     0.3370 C.3   1 <1>   0.3430 
 25 N      -10.8200    -4.6330    -0.6740 N.4   1 <1>  -0.9590 
 26 C      -11.8140    -5.7070    -0.3800 C.3   1 <1>   0.2630 
 27 C      -10.3050    -4.7150    -2.0750 C.3   1 <1>   0.2630 
 28 H       -1.8540    -0.6600     1.3900 H     1 <1>   0.1500 
 29 H       -4.2920     2.6290    -1.3300 H     1 <1>   0.1500 
 30 H       -4.2880    -0.4700     1.6040 H     1 <1>   0.1500 
 31 H       -0.2950     3.4530    -2.8200 H     1 <1>   0.0800 
 32 H       -0.1690     1.7400    -2.4400 H     1 <1>   0.0800 
 33 H        0.0870     2.9570    -1.1760 H     1 <1>   0.0800 
 34 H       -8.5580    -0.8370     2.0190 H     1 <1>   0.3700 
 35 H       -9.3670     1.2230     2.7420 H     1 <1>   0.0800 
 36 H      -10.9570     0.8440     2.1130 H     1 <1>   0.0800 
 37 H      -10.1830     2.3630     1.7010 H     1 <1>   0.0800 
 38 H       -9.7790     0.4980    -1.3830 H     1 <1>   0.0800 
 39 H      -10.3900     1.9670    -0.6620 H     1 <1>   0.0800 
 40 H      -11.2100     0.4440    -0.3760 H     1 <1>   0.0800 
 41 H       -8.9530    -3.1210     2.5620 H     1 <1>   0.0800 
 42 H       -7.4800    -3.5930     1.7520 H     1 <1>   0.0800 
 43 H       -8.4430    -3.0330    -0.4320 H     1 <1>   0.0800 
 44 H       -9.7720    -1.3020     0.4030 H     1 <1>   0.4000 
 45 H      -10.1150    -4.8190     1.3100 H     1 <1>   0.0800 
 46 H       -8.9520    -5.3070     0.1070 H     1 <1>   0.0800 
 47 H      -11.2730    -3.7010    -0.5620 H     1 <1>   0.4500 
 48 H      -11.3510    -6.6780    -0.4540 H     1 <1>   0.0800 
 49 H      -12.6320    -5.6610    -1.0810 H     1 <1>   0.0800 
 50 H      -12.2110    -5.5870     0.6150 H     1 <1>   0.0800 
 51 H       -9.7700    -5.6390    -2.2250 H     1 <1>   0.0800 
 52 H       -9.6400    -3.8910    -2.2770 H     1 <1>   0.0800 
 53 H      -11.1230    -4.6720    -2.7760 H     1 <1>   0.0800 
@<TRIPOS>BOND
  1   1   2  1   
  2   2   3  ar  
  3   2   4  ar  
  4   3   5  1   
  5   3   6  ar  
  6   4   7  ar  
  7   4  28  1   
  8   5   8  1   
  9   6   9  ar  
 10   6  29  1   
 11   7   9  ar  
 12   7  30  1   
 13   8  31  1   
 14   8  32  1   
 15   8  33  1   
 16   9  10  1   
 17  10  11  1   
 18  10  12  2   
 19  11  13  1   
 20  12  14  1   
 21  12  15  1   
 22  13  14  2   
 23  14  16  1   
 24  15  17  2   
 25  15  18  am  
 26  16  19  1   
 27  16  20  1   
 28  18  21  1   
 29  18  34  1   
 30  19  35  1   
 31  19  36  1   
 32  19  37  1   
 33  20  38  1   
 34  20  39  1   
 35  20  40  1   
 36  21  22  1   
 37  21  41  1   
 38  21  42  1   
 39  22  23  1   
 40  22  24  1   
 41  22  43  1   
 42  23  44  1   
 43  24  25  1   
 44  24  45  1   
 45  24  46  1   
 46  25  26  1   
 47  25  27  1   
 48  25  47  1   
 49  26  48  1   
 50  26  49  1   
 51  26  50  1   
 52  27  51  1   
 53  27  52  1   
 54  27  53  1   
@<TRIPOS>SUBSTRUCTURE
  1 ****  12 GROUP 4 **** **** 0

# MOE 2024.06 (io_trps.svl 2023.06)
