@<TRIPOS>MOLECULE
NONAME
49 51 1 0 0 
SMALL
USER_CHARGES


@<TRIPOS>ATOM
  1 S        0.4770    -0.4860     1.1300 S.3   1 <1>  -0.0800 
  2 C        0.4150    -2.0620     0.3610 C.2   1 <1>  -0.1100 
  3 C       -1.2490    -0.5260     1.4380 C.2   1 <1>  -0.1100 
  4 C       -0.8400    -2.5490     0.3600 C.2   1 <1>  -0.1810 
  5 C       -1.7900    -1.6670     0.9750 C.2   1 <1>  -0.1500 
  6 C       -1.2640    -3.8860    -0.2200 C.3   1 <1>   0.0210 
  7 C       -1.6240    -4.8730     0.8960 C.3   1 <1>  -0.0990 
  8 C       -2.0740    -6.2050     0.3270 C.2   1 <1>   0.5690 
  9 O       -1.2970    -7.1260     0.3850 O.2   1 <1>  -0.5700 
 10 N       -3.3220    -6.3740    -0.2210 N.am  1 <1>  -0.6600 
 11 C       -3.7100    -7.6780    -0.8270 C.3   1 <1>   0.1400 
 12 C       -4.4800    -5.4560    -0.0630 C.3   1 <1>   0.1400 
 13 C       -4.6840    -8.3950     0.1310 C.3   1 <1>   0.4230 
 14 C       -5.4660    -6.1010     0.9240 C.3   1 <1>  -0.1600 
 15 N       -5.0200    -9.8240    -0.2620 N.4   1 <1>  -0.9590 
 16 C       -5.9280    -7.5390     0.5320 C.3   1 <1>   0.0000 
 17 C       -6.1730   -10.4010     0.5020 C.3   1 <1>   0.3430 
 18 C       -5.2300   -10.0150    -1.7340 C.3   1 <1>   0.2630 
 19 C       -6.5690    -8.2070     1.7830 C.3   1 <1>  -0.1600 
 20 C       -7.0340    -7.4420    -0.5600 C.3   1 <1>   0.1200 
 21 C       -6.3280    -9.7320     1.8710 C.3   1 <1>  -0.1600 
 22 O       -6.5280    -7.1200    -1.8080 O.3   1 <1>  -0.6800 
 23 H        1.3410    -2.4620    -0.0130 H     1 <1>   0.1500 
 24 H       -1.6800     0.3230     1.9380 H     1 <1>   0.1500 
 25 H       -2.8310    -1.9260     1.0400 H     1 <1>   0.1500 
 26 H       -2.1020    -3.7380    -0.8780 H     1 <1>   0.0800 
 27 H       -0.4570    -4.2950    -0.8030 H     1 <1>   0.0800 
 28 H       -2.3820    -4.4680     1.5370 H     1 <1>   0.0800 
 29 H       -0.7520    -5.0370     1.5030 H     1 <1>   0.0800 
 30 H       -4.1510    -7.4930    -1.7880 H     1 <1>   0.0800 
 31 H       -2.8380    -8.2900    -0.9770 H     1 <1>   0.0800 
 32 H       -4.1710    -4.4950     0.3050 H     1 <1>   0.0800 
 33 H       -4.9460    -5.2990    -1.0210 H     1 <1>   0.0800 
 34 H       -4.1180    -8.4760     1.0440 H     1 <1>   0.0800 
 35 H       -4.9690    -6.1210     1.8780 H     1 <1>   0.0800 
 36 H       -6.3200    -5.4550     1.0360 H     1 <1>   0.0800 
 37 H       -4.1860   -10.3700    -0.0010 H     1 <1>   0.4500 
 38 H       -7.0840   -10.2550    -0.0540 H     1 <1>   0.0800 
 39 H       -6.0320   -11.4630     0.6280 H     1 <1>   0.0800 
 40 H       -6.0720    -9.4340    -2.0720 H     1 <1>   0.0800 
 41 H       -5.4180   -11.0530    -1.9540 H     1 <1>   0.0800 
 42 H       -4.3570    -9.7040    -2.2840 H     1 <1>   0.0800 
 43 H       -6.1760    -7.7780     2.6900 H     1 <1>   0.0800 
 44 H       -7.6290    -8.0120     1.8000 H     1 <1>   0.0800 
 45 H       -7.7500    -6.6830    -0.2920 H     1 <1>   0.0800 
 46 H       -7.5660    -8.3710    -0.6630 H     1 <1>   0.0800 
 47 H       -7.1500   -10.1880     2.3960 H     1 <1>   0.0800 
 48 H       -5.4420    -9.9280     2.4510 H     1 <1>   0.0800 
 49 H       -7.2410    -6.8000    -2.4020 H     1 <1>   0.4000 
@<TRIPOS>BOND
  1   1   2  1   
  2   1   3  1   
  3   2   4  2   
  4   2  23  1   
  5   3   5  2   
  6   3  24  1   
  7   4   5  1   
  8   4   6  1   
  9   5  25  1   
 10   6   7  1   
 11   6  26  1   
 12   6  27  1   
 13   7   8  1   
 14   7  28  1   
 15   7  29  1   
 16   8   9  2   
 17   8  10  am  
 18  10  11  1   
 19  10  12  1   
 20  11  13  1   
 21  11  30  1   
 22  11  31  1   
 23  12  14  1   
 24  12  32  1   
 25  12  33  1   
 26  13  15  1   
 27  13  16  1   
 28  13  34  1   
 29  14  16  1   
 30  14  35  1   
 31  14  36  1   
 32  15  17  1   
 33  15  18  1   
 34  15  37  1   
 35  16  19  1   
 36  16  20  1   
 37  17  21  1   
 38  17  38  1   
 39  17  39  1   
 40  18  40  1   
 41  18  41  1   
 42  18  42  1   
 43  19  21  1   
 44  19  43  1   
 45  19  44  1   
 46  20  22  1   
 47  20  45  1   
 48  20  46  1   
 49  21  47  1   
 50  21  48  1   
 51  22  49  1   
@<TRIPOS>SUBSTRUCTURE
  1 ****  10 GROUP 4 **** **** 0

# MOE 2024.06 (io_trps.svl 2023.06)
