@<TRIPOS>MOLECULE
NONAME
48 51 1 0 0 
SMALL
USER_CHARGES


@<TRIPOS>ATOM
  1 CL      -0.9200    -1.6430     3.3910 Cl    1 <1>  -0.1770 
  2 C       -1.9690    -1.6700     1.9980 C.ar  1 <1>   0.1770 
  3 C       -2.0370    -2.8110     1.2250 C.ar  1 <1>  -0.1500 
  4 C       -2.7140    -0.5470     1.6930 C.ar  1 <1>  -0.1500 
  5 C       -2.8750    -2.8600     0.1120 C.ar  1 <1>   0.0860 
  6 C       -3.5440    -0.5720     0.5860 C.ar  1 <1>  -0.1500 
  7 C       -2.9570    -4.0590    -0.7000 C.2   1 <1>   0.5440 
  8 C       -3.6170    -1.7160    -0.1930 C.ar  1 <1>  -0.1500 
  9 O       -1.9300    -4.5640    -1.1100 O.2   1 <1>  -0.5700 
 10 N       -4.1660    -4.6500    -1.0090 N.am  1 <1>  -0.6600 
 11 C       -4.2780    -5.7100    -2.0500 C.3   1 <1>   0.1400 
 12 C       -5.4140    -4.4510    -0.2240 C.3   1 <1>   0.1400 
 13 C       -4.6460    -7.0370    -1.3850 C.3   1 <1>  -0.1600 
 14 C       -5.7860    -5.7660     0.4640 C.3   1 <1>  -0.1600 
 15 C       -5.9240    -6.9220    -0.5420 C.3   1 <1>   0.4240 
 16 O       -6.9420    -6.5830    -1.4550 O.3   1 <1>  -0.5600 
 17 C       -6.2180    -8.2570     0.1760 C.ar  1 <1>  -0.1430 
 18 C       -8.2590    -6.8530    -1.0840 C.3   1 <1>   0.1200 
 19 C       -7.4110    -8.9420    -0.0340 C.ar  1 <1>  -0.1430 
 20 C       -5.2900    -8.8010     1.0590 C.ar  1 <1>  -0.1500 
 21 C       -8.4420    -8.3630    -0.9820 C.3   1 <1>  -0.0170 
 22 C       -7.6640   -10.1410     0.6130 C.ar  1 <1>  -0.1500 
 23 C       -5.5430    -9.9960     1.7070 C.ar  1 <1>  -0.1500 
 24 C       -6.7270   -10.6760     1.4910 C.ar  1 <1>   0.0830 
 25 O       -6.8970   -11.8410     2.1640 O.3   1 <1>  -0.3620 
 26 C       -8.0590   -12.6220     1.9970 C.3   1 <1>   0.0400 
 27 H       -1.4390    -3.6680     1.4780 H     1 <1>   0.1500 
 28 H       -2.6410     0.3300     2.3130 H     1 <1>   0.1500 
 29 H       -4.1270     0.2960     0.3290 H     1 <1>   0.1500 
 30 H       -4.2560    -1.7300    -1.0590 H     1 <1>   0.1500 
 31 H       -3.3510    -5.8160    -2.5880 H     1 <1>   0.0800 
 32 H       -5.0400    -5.4290    -2.7580 H     1 <1>   0.0800 
 33 H       -6.2040    -4.1450    -0.8890 H     1 <1>   0.0800 
 34 H       -5.2860    -3.6870     0.5220 H     1 <1>   0.0800 
 35 H       -3.8180    -7.3380    -0.7710 H     1 <1>   0.0800 
 36 H       -4.7840    -7.7950    -2.1340 H     1 <1>   0.0800 
 37 H       -6.6980    -5.6490     1.0180 H     1 <1>   0.0800 
 38 H       -5.0160    -6.0010     1.1750 H     1 <1>   0.0800 
 39 H       -8.9050    -6.4450    -1.8420 H     1 <1>   0.0800 
 40 H       -8.4690    -6.3720    -0.1450 H     1 <1>   0.0800 
 41 H       -4.3590    -8.3000     1.2510 H     1 <1>   0.1500 
 42 H       -8.3270    -8.8040    -1.9560 H     1 <1>   0.0800 
 43 H       -9.4350    -8.5760    -0.6290 H     1 <1>   0.0800 
 44 H       -8.5920   -10.6460     0.4260 H     1 <1>   0.1500 
 45 H       -4.8200   -10.4100     2.3870 H     1 <1>   0.1500 
 46 H       -7.9660   -13.4950     2.6180 H     1 <1>   0.0800 
 47 H       -8.1380   -12.9130     0.9650 H     1 <1>   0.0800 
 48 H       -8.9130   -12.0450     2.3040 H     1 <1>   0.0800 
@<TRIPOS>BOND
  1   1   2  1   
  2   2   3  ar  
  3   2   4  ar  
  4   3   5  ar  
  5   3  27  1   
  6   4   6  ar  
  7   4  28  1   
  8   5   7  1   
  9   5   8  ar  
 10   6   8  ar  
 11   6  29  1   
 12   7   9  2   
 13   7  10  am  
 14   8  30  1   
 15  10  11  1   
 16  10  12  1   
 17  11  13  1   
 18  11  31  1   
 19  11  32  1   
 20  12  14  1   
 21  12  33  1   
 22  12  34  1   
 23  13  15  1   
 24  13  35  1   
 25  13  36  1   
 26  14  15  1   
 27  14  37  1   
 28  14  38  1   
 29  15  16  1   
 30  15  17  1   
 31  16  18  1   
 32  17  19  ar  
 33  17  20  ar  
 34  18  21  1   
 35  18  39  1   
 36  18  40  1   
 37  19  21  1   
 38  19  22  ar  
 39  20  23  ar  
 40  20  41  1   
 41  21  42  1   
 42  21  43  1   
 43  22  24  ar  
 44  22  44  1   
 45  23  24  ar  
 46  23  45  1   
 47  24  25  1   
 48  25  26  1   
 49  26  46  1   
 50  26  47  1   
 51  26  48  1   
@<TRIPOS>SUBSTRUCTURE
  1 ****  14 GROUP 4 **** **** 0

# MOE 2024.06 (io_trps.svl 2023.06)
