@<TRIPOS>MOLECULE
NONAME
52 55 1 0 0 
SMALL
USER_CHARGES


@<TRIPOS>ATOM
  1 S       -0.2000    -0.0570    -1.1840 S.3   1 <1>  -0.0800 
  2 C       -0.1510     1.6270    -0.7080 C.ar  1 <1>   0.0400 
  3 C       -1.7860    -0.2090    -0.4350 C.2   1 <1>   0.1980 
  4 C       -1.3250     1.9140    -0.0360 C.ar  1 <1>   0.2270 
  5 C        0.8470     2.5560    -0.9310 C.ar  1 <1>  -0.1500 
  6 N       -2.2250     0.8580     0.1010 N.2   1 <1>  -0.5650 
  7 C       -2.4360    -1.5780    -0.5160 C.3   1 <1>   0.0200 
  8 C       -1.5090     3.2040     0.4400 C.ar  1 <1>  -0.1500 
  9 C        0.6470     3.8390    -0.4500 C.ar  1 <1>  -0.1500 
 10 C       -3.8160    -1.6050     0.1640 C.3   1 <1>  -0.0990 
 11 C       -0.5260     4.1590     0.2320 C.ar  1 <1>  -0.1500 
 12 C       -4.4890    -2.9680     0.1270 C.2   1 <1>   0.5690 
 13 O       -3.9930    -3.8340    -0.5560 O.2   1 <1>  -0.5700 
 14 N       -5.6340    -3.2020     0.8480 N.am  1 <1>  -0.6600 
 15 C       -6.2180    -4.5760     0.8680 C.3   1 <1>   0.1400 
 16 C       -6.3870    -2.1600     1.6100 C.3   1 <1>   0.1400 
 17 C       -7.1470    -4.8020    -0.3350 C.3   1 <1>   0.1400 
 18 C       -7.8980    -2.1730     1.3320 C.3   1 <1>  -0.1600 
 19 N       -8.4300    -4.0360    -0.2150 N.am  1 <1>  -0.6600 
 20 C       -8.2800    -2.5560    -0.1030 C.3   1 <1>   0.1400 
 21 C       -9.6900    -4.6000    -0.1650 C.2   1 <1>   0.5690 
 22 O      -10.6360    -3.9430     0.2150 O.2   1 <1>  -0.5700 
 23 C       -9.9260    -6.0860    -0.5370 C.3   1 <1>   0.2610 
 24 O      -11.1080    -6.2860    -1.2710 O.3   1 <1>  -0.5600 
 25 C      -10.0540    -6.9920     0.6970 C.3   1 <1>  -0.1600 
 26 C      -12.1280    -6.6990    -0.4290 C.3   1 <1>   0.1200 
 27 C      -11.4400    -7.6070     0.5770 C.3   1 <1>  -0.1600 
 28 H        1.7430     2.2840    -1.4600 H     1 <1>   0.1500 
 29 H       -2.5390    -1.8500    -1.5520 H     1 <1>   0.0800 
 30 H       -1.7890    -2.2960    -0.0440 H     1 <1>   0.0800 
 31 H       -2.4160     3.4410     0.9650 H     1 <1>   0.1500 
 32 H        1.3990     4.5940    -0.6010 H     1 <1>   0.1500 
 33 H       -4.4560    -0.8940    -0.3250 H     1 <1>   0.0800 
 34 H       -3.6950    -1.3080     1.1900 H     1 <1>   0.0800 
 35 H       -0.6680     5.1610     0.6010 H     1 <1>   0.1500 
 36 H       -5.4180    -5.2950     0.8240 H     1 <1>   0.0800 
 37 H       -6.7530    -4.7450     1.7850 H     1 <1>   0.0800 
 38 H       -6.2170    -2.3030     2.6640 H     1 <1>   0.0800 
 39 H       -6.0180    -1.1830     1.3550 H     1 <1>   0.0800 
 40 H       -7.3390    -5.8550    -0.3930 H     1 <1>   0.0800 
 41 H       -6.6370    -4.5150    -1.2390 H     1 <1>   0.0800 
 42 H       -8.2710    -1.1850     1.5290 H     1 <1>   0.0800 
 43 H       -8.3970    -2.8300     2.0220 H     1 <1>   0.0800 
 44 H       -7.5440    -2.2030    -0.8050 H     1 <1>   0.0800 
 45 H       -9.2150    -2.0830    -0.3550 H     1 <1>   0.0800 
 46 H       -9.1360    -6.4300    -1.1750 H     1 <1>   0.0800 
 47 H       -9.2860    -7.7440     0.7080 H     1 <1>   0.0800 
 48 H       -9.9790    -6.4040     1.5960 H     1 <1>   0.0800 
 49 H      -12.5420    -5.8260     0.0470 H     1 <1>   0.0800 
 50 H      -12.8830    -7.2050    -1.0040 H     1 <1>   0.0800 
 51 H      -11.9670    -7.6330     1.5140 H     1 <1>   0.0800 
 52 H      -11.3800    -8.6010     0.1710 H     1 <1>   0.0800 
@<TRIPOS>BOND
  1   1   2  1   
  2   1   3  1   
  3   2   4  ar  
  4   2   5  ar  
  5   3   6  2   
  6   3   7  1   
  7   4   6  1   
  8   4   8  ar  
  9   5   9  ar  
 10   5  28  1   
 11   7  10  1   
 12   7  29  1   
 13   7  30  1   
 14   8  11  ar  
 15   8  31  1   
 16   9  11  ar  
 17   9  32  1   
 18  10  12  1   
 19  10  33  1   
 20  10  34  1   
 21  11  35  1   
 22  12  13  2   
 23  12  14  am  
 24  14  15  1   
 25  14  16  1   
 26  15  17  1   
 27  15  36  1   
 28  15  37  1   
 29  16  18  1   
 30  16  38  1   
 31  16  39  1   
 32  17  19  1   
 33  17  40  1   
 34  17  41  1   
 35  18  20  1   
 36  18  42  1   
 37  18  43  1   
 38  19  20  1   
 39  19  21  am  
 40  20  44  1   
 41  20  45  1   
 42  21  22  2   
 43  21  23  1   
 44  23  24  1   
 45  23  25  1   
 46  23  46  1   
 47  24  26  1   
 48  25  27  1   
 49  25  47  1   
 50  25  48  1   
 51  26  27  1   
 52  26  49  1   
 53  26  50  1   
 54  27  51  1   
 55  27  52  1   
@<TRIPOS>SUBSTRUCTURE
  1 ****  12 GROUP 4 **** **** 0

# MOE 2024.06 (io_trps.svl 2023.06)
