@<TRIPOS>MOLECULE
NONAME
50 52 1 0 0 
SMALL
USER_CHARGES


@<TRIPOS>ATOM
  1 F       -2.3350    -0.6070     1.5480 F     1 <1>  -0.1900 
  2 C       -2.1410     0.2680     0.5920 C.ar  1 <1>   0.1900 
  3 C       -1.7060     1.5630     0.8920 C.ar  1 <1>   0.0830 
  4 C       -2.4250    -0.1440    -0.7070 C.ar  1 <1>   0.0860 
  5 O       -1.3900     2.0490     2.1250 O.3   1 <1>  -0.3630 
  6 C       -1.5790     2.4660    -0.1510 C.ar  1 <1>  -0.1500 
  7 C       -2.8650    -1.4890    -0.9950 C.2   1 <1>   0.5440 
  8 C       -2.2780     0.7960    -1.7260 C.ar  1 <1>  -0.1500 
  9 C       -1.0340     1.2080     3.2010 C.3   1 <1>   0.0400 
 10 C       -1.8630     2.0870    -1.4530 C.ar  1 <1>  -0.1500 
 11 O       -2.0640    -2.4040    -1.0050 O.2   1 <1>  -0.5700 
 12 N       -4.1890    -1.7850    -1.2460 N.am  1 <1>  -0.6600 
 13 C       -4.5760    -3.1650    -1.6360 C.3   1 <1>   0.1400 
 14 C       -5.3000    -1.0090    -0.6330 C.3   1 <1>   0.1400 
 15 C       -4.9710    -3.9340    -0.3570 C.3   1 <1>   0.4230 
 16 C       -5.7380    -1.7420     0.6440 C.3   1 <1>  -0.1600 
 17 N       -5.1720    -5.4280    -0.5680 N.4   1 <1>  -0.9590 
 18 C       -6.1350    -3.2320     0.4090 C.3   1 <1>   0.0000 
 19 C       -5.9380    -6.1030     0.5300 C.3   1 <1>   0.3430 
 20 C       -5.7280    -5.8240    -1.9040 C.3   1 <1>   0.2630 
 21 C       -6.3250    -3.9230     1.7920 C.3   1 <1>  -0.1600 
 22 C       -7.4470    -3.3140    -0.4230 C.3   1 <1>   0.1200 
 23 C       -5.7680    -5.3590     1.8540 C.3   1 <1>  -0.1600 
 24 O       -8.4560    -2.5420     0.1280 O.3   1 <1>  -0.6800 
 25 H       -1.2520     3.4690     0.0610 H     1 <1>   0.1500 
 26 H       -2.4900     0.5060    -2.7410 H     1 <1>   0.1500 
 27 H       -0.5970     1.8170     3.9710 H     1 <1>   0.0800 
 28 H       -0.3190     0.4810     2.8600 H     1 <1>   0.0800 
 29 H       -1.9200     0.7290     3.5790 H     1 <1>   0.0800 
 30 H       -1.7550     2.8000    -2.2530 H     1 <1>   0.1500 
 31 H       -5.3880    -3.1110    -2.3380 H     1 <1>   0.0800 
 32 H       -3.7470    -3.6530    -2.1180 H     1 <1>   0.0800 
 33 H       -4.9820    -0.0090    -0.3880 H     1 <1>   0.0800 
 34 H       -6.1190    -0.9310    -1.3280 H     1 <1>   0.0800 
 35 H       -4.1130    -3.8380     0.2900 H     1 <1>   0.0800 
 36 H       -4.9160    -1.6900     1.3370 H     1 <1>   0.0800 
 37 H       -6.5490    -1.1970     1.0940 H     1 <1>   0.0800 
 38 H       -4.2150    -5.8110    -0.5220 H     1 <1>   0.4500 
 39 H       -6.9870    -6.1240     0.2830 H     1 <1>   0.0800 
 40 H       -5.6020    -7.1220     0.6370 H     1 <1>   0.0800 
 41 H       -6.7150    -5.4120    -2.0400 H     1 <1>   0.0800 
 42 H       -5.7920    -6.8980    -1.9770 H     1 <1>   0.0800 
 43 H       -5.0920    -5.4700    -2.6990 H     1 <1>   0.0800 
 44 H       -5.8350    -3.3590     2.5680 H     1 <1>   0.0800 
 45 H       -7.3680    -3.9430     2.0560 H     1 <1>   0.0800 
 46 H       -7.8140    -4.3230    -0.4830 H     1 <1>   0.0800 
 47 H       -7.3030    -2.9470    -1.4230 H     1 <1>   0.0800 
 48 H       -6.2770    -5.9010     2.6320 H     1 <1>   0.0800 
 49 H       -4.7230    -5.3410     2.1150 H     1 <1>   0.0800 
 50 H       -8.6900    -2.8280     1.0330 H     1 <1>   0.4000 
@<TRIPOS>BOND
  1   1   2  1   
  2   2   3  ar  
  3   2   4  ar  
  4   3   5  1   
  5   3   6  ar  
  6   4   7  1   
  7   4   8  ar  
  8   5   9  1   
  9   6  10  ar  
 10   6  25  1   
 11   7  11  2   
 12   7  12  am  
 13   8  10  ar  
 14   8  26  1   
 15   9  27  1   
 16   9  28  1   
 17   9  29  1   
 18  10  30  1   
 19  12  13  1   
 20  12  14  1   
 21  13  15  1   
 22  13  31  1   
 23  13  32  1   
 24  14  16  1   
 25  14  33  1   
 26  14  34  1   
 27  15  17  1   
 28  15  18  1   
 29  15  35  1   
 30  16  18  1   
 31  16  36  1   
 32  16  37  1   
 33  17  19  1   
 34  17  20  1   
 35  17  38  1   
 36  18  21  1   
 37  18  22  1   
 38  19  23  1   
 39  19  39  1   
 40  19  40  1   
 41  20  41  1   
 42  20  42  1   
 43  20  43  1   
 44  21  23  1   
 45  21  44  1   
 46  21  45  1   
 47  22  24  1   
 48  22  46  1   
 49  22  47  1   
 50  23  48  1   
 51  23  49  1   
 52  24  50  1   
@<TRIPOS>SUBSTRUCTURE
  1 ****  12 GROUP 4 **** **** 0

# MOE 2024.06 (io_trps.svl 2023.06)
