@<TRIPOS>MOLECULE
NONAME
53 56 1 0 0 
SMALL
USER_CHARGES


@<TRIPOS>ATOM
  1 O       -3.4700     0.7030    -2.5960 O.2   1 <1>  -0.5700 
  2 C       -3.1650    -0.1140    -1.7700 C.2   1 <1>   0.5690 
  3 N       -2.5330     0.2610    -0.6380 N.am  1 <1>  -0.7300 
  4 C       -3.5630    -1.5580    -1.9660 C.3   1 <1>  -0.0190 
  5 C       -2.0990    -0.6590     0.4460 C.3   1 <1>   0.2200 
  6 C       -2.3660    -2.5290    -2.0240 C.3   1 <1>   0.1200 
  7 C       -4.6150    -1.9240    -0.9190 C.3   1 <1>   0.3430 
  8 C       -1.1340    -1.7640    -0.0580 C.3   1 <1>   0.1200 
  9 C       -3.3290    -1.2590     1.1660 C.3   1 <1>   0.3430 
 10 O       -1.2070    -2.0110    -1.4360 O.3   1 <1>  -0.5600 
 11 N       -4.0250    -2.3430     0.3950 N.4   1 <1>  -0.9590 
 12 C       -4.9970    -3.0980     1.2250 C.3   1 <1>   0.4860 
 13 C       -5.2750    -4.4100     0.5140 C.ar  1 <1>  -0.1440 
 14 C       -4.2230    -5.2780     0.3090 C.ar  1 <1>   0.0820 
 15 C       -6.5840    -4.7120     0.0580 C.ar  1 <1>   0.0000 
 16 O       -2.9930    -4.9080     0.7710 O.3   1 <1>  -0.3620 
 17 C       -4.4430    -6.4770    -0.3880 C.ar  1 <1>  -0.1500 
 18 C       -6.7840    -5.9280    -0.6370 C.ar  1 <1>   0.0000 
 19 C       -7.7160    -3.8780     0.2430 C.ar  1 <1>  -0.1500 
 20 C       -1.8810    -5.7380     1.0830 C.3   1 <1>   0.2000 
 21 C       -5.6900    -6.7870    -0.8430 C.ar  1 <1>  -0.1500 
 22 C       -8.0690    -6.2570    -1.1110 C.ar  1 <1>  -0.1500 
 23 C       -8.9520    -4.2220    -0.2290 C.ar  1 <1>  -0.1500 
 24 C       -1.0750    -6.0600    -0.1780 C.3   1 <1>  -0.2400 
 25 C       -2.2810    -6.9550     1.9240 C.3   1 <1>  -0.2400 
 26 C       -9.1330    -5.4250    -0.9150 C.ar  1 <1>  -0.1500 
 27 H       -2.1610     1.2170    -0.6370 H     1 <1>   0.3700 
 28 H       -4.0620    -1.6150    -2.9170 H     1 <1>   0.0800 
 29 H       -1.5700    -0.0720     1.1780 H     1 <1>   0.0800 
 30 H       -2.1150    -2.6950    -3.0590 H     1 <1>   0.0800 
 31 H       -2.5860    -3.4880    -1.5890 H     1 <1>   0.0800 
 32 H       -5.1970    -2.7410    -1.3160 H     1 <1>   0.0800 
 33 H       -5.2830    -1.0890    -0.7780 H     1 <1>   0.0800 
 34 H       -1.2710    -2.6920     0.4680 H     1 <1>   0.0800 
 35 H       -0.1250    -1.4400     0.1300 H     1 <1>   0.0800 
 36 H       -4.0210    -0.4640     1.3900 H     1 <1>   0.0800 
 37 H       -2.9910    -1.6700     2.1030 H     1 <1>   0.0800 
 38 H       -3.3230    -3.0730     0.1780 H     1 <1>   0.4500 
 39 H       -4.5650    -3.3190     2.1880 H     1 <1>   0.0800 
 40 H       -5.8890    -2.5190     1.3780 H     1 <1>   0.0800 
 41 H       -3.6450    -7.1630    -0.5770 H     1 <1>   0.1500 
 42 H       -7.6350    -2.9480     0.7700 H     1 <1>   0.1500 
 43 H       -1.2470    -5.1310     1.7070 H     1 <1>   0.0800 
 44 H       -5.8590    -7.7080    -1.3750 H     1 <1>   0.1500 
 45 H       -8.2030    -7.1870    -1.6350 H     1 <1>   0.1500 
 46 H       -9.8040    -3.5800    -0.0810 H     1 <1>   0.1500 
 47 H       -1.6040    -6.7010    -0.8540 H     1 <1>   0.0800 
 48 H       -0.1670    -6.5630     0.1010 H     1 <1>   0.0800 
 49 H       -0.8050    -5.1520    -0.6880 H     1 <1>   0.0800 
 50 H       -2.7940    -7.7020     1.3510 H     1 <1>   0.0800 
 51 H       -2.8980    -6.6510     2.7500 H     1 <1>   0.0800 
 52 H       -1.3950    -7.4150     2.3240 H     1 <1>   0.0800 
 53 H      -10.1140    -5.6830    -1.2780 H     1 <1>   0.1500 
@<TRIPOS>BOND
  1   1   2  2   
  2   2   3  am  
  3   2   4  1   
  4   3   5  1   
  5   3  27  1   
  6   4   6  1   
  7   4   7  1   
  8   4  28  1   
  9   5   8  1   
 10   5   9  1   
 11   5  29  1   
 12   6  10  1   
 13   6  30  1   
 14   6  31  1   
 15   7  11  1   
 16   7  32  1   
 17   7  33  1   
 18   8  10  1   
 19   8  34  1   
 20   8  35  1   
 21   9  11  1   
 22   9  36  1   
 23   9  37  1   
 24  11  12  1   
 25  11  38  1   
 26  12  13  1   
 27  12  39  1   
 28  12  40  1   
 29  13  14  ar  
 30  13  15  ar  
 31  14  16  1   
 32  14  17  ar  
 33  15  18  ar  
 34  15  19  ar  
 35  16  20  1   
 36  17  21  ar  
 37  17  41  1   
 38  18  21  ar  
 39  18  22  ar  
 40  19  23  ar  
 41  19  42  1   
 42  20  24  1   
 43  20  25  1   
 44  20  43  1   
 45  21  44  1   
 46  22  26  ar  
 47  22  45  1   
 48  23  26  ar  
 49  23  46  1   
 50  24  47  1   
 51  24  48  1   
 52  24  49  1   
 53  25  50  1   
 54  25  51  1   
 55  25  52  1   
 56  26  53  1   
@<TRIPOS>SUBSTRUCTURE
  1 ****  11 GROUP 4 **** **** 0

# MOE 2024.06 (io_trps.svl 2023.06)
