@<TRIPOS>MOLECULE
NONAME
48 51 1 0 0 
SMALL
USER_CHARGES


@<TRIPOS>ATOM
  1 S       -0.0100    -0.1710    -1.1690 S.3   1 <1>  -0.0800 
  2 C       -1.4290    -0.2420    -0.1170 C.2   1 <1>   0.0410 
  3 C        0.4450     1.4140    -0.5730 C.2   1 <1>  -0.1100 
  4 C       -2.2810    -1.4050    -0.1570 C.2   1 <1>   0.2880 
  5 C       -1.4840     0.9030     0.6110 C.2   1 <1>  -0.1500 
  6 C       -0.4330     1.8340     0.3550 C.2   1 <1>  -0.1500 
  7 N       -2.0680    -2.4720    -0.8900 N.2   1 <1>  -0.7070 
  8 C       -3.4520    -1.5540     0.5780 C.2   1 <1>  -0.1500 
  9 N       -3.0820    -3.3010    -0.6230 N.pl3 1 <1>   0.3140 
 10 C       -3.9640    -2.7720     0.2600 C.2   1 <1>  -0.2370 
 11 C       -3.1550    -4.6200    -1.2720 C.3   1 <1>   0.0160 
 12 C       -5.1540    -3.4370     0.7110 C.2   1 <1>   0.7150 
 13 O       -5.1290    -4.6360     0.9240 O.2   1 <1>  -0.5700 
 14 N       -6.3330    -2.7510     0.8990 N.am  1 <1>  -0.6600 
 15 C       -7.4560    -3.3220     1.6940 C.3   1 <1>   0.1400 
 16 C       -6.6710    -1.4780     0.2050 C.3   1 <1>   0.1400 
 17 C       -8.6600    -3.5610     0.7810 C.3   1 <1>  -0.1600 
 18 C       -7.8670    -1.7100    -0.7200 C.3   1 <1>  -0.1600 
 19 C       -9.0700    -2.2860     0.0390 C.3   1 <1>   0.4180 
 20 O       -9.4780    -1.3700     1.0260 O.3   1 <1>  -0.5600 
 21 C      -10.2210    -2.5950    -0.9140 C.2   1 <1>  -0.2880 
 22 C      -10.2950    -0.3060     0.6230 C.3   1 <1>   0.1200 
 23 C      -11.3940    -1.9570    -0.9040 C.2   1 <1>  -0.2760 
 24 C      -11.6330    -0.8270     0.0800 C.3   1 <1>  -0.0220 
 25 C      -12.5600    -2.2830    -1.8200 C.3   1 <1>  -0.1020 
 26 H        1.3300     1.8640    -0.9870 H     1 <1>   0.1500 
 27 H       -2.2450     1.1280     1.3350 H     1 <1>   0.1500 
 28 H       -0.3830     2.7730     0.8780 H     1 <1>   0.1500 
 29 H       -3.8550    -0.8320     1.2630 H     1 <1>   0.1500 
 30 H       -2.3870    -4.6900    -2.0200 H     1 <1>   0.0800 
 31 H       -4.1190    -4.7380    -1.7310 H     1 <1>   0.0800 
 32 H       -3.0100    -5.3830    -0.5320 H     1 <1>   0.0800 
 33 H       -7.7230    -2.6270     2.4740 H     1 <1>   0.0800 
 34 H       -7.1630    -4.2460     2.1620 H     1 <1>   0.0800 
 35 H       -5.8420    -1.1240    -0.3820 H     1 <1>   0.0800 
 36 H       -6.9130    -0.7290     0.9400 H     1 <1>   0.0800 
 37 H       -9.4930    -3.9150     1.3600 H     1 <1>   0.0800 
 38 H       -8.4050    -4.3280     0.0730 H     1 <1>   0.0800 
 39 H       -7.5740    -2.4020    -1.4890 H     1 <1>   0.0800 
 40 H       -8.1410    -0.7950    -1.2080 H     1 <1>   0.0800 
 41 H       -9.9940    -3.3940    -1.5960 H     1 <1>   0.1500 
 42 H       -9.7780     0.2600    -0.1310 H     1 <1>   0.0800 
 43 H      -10.4610     0.3250     1.4780 H     1 <1>   0.0800 
 44 H      -12.1450    -0.0140    -0.4020 H     1 <1>   0.0800 
 45 H      -12.2450    -1.1750     0.8930 H     1 <1>   0.0800 
 46 H      -12.8080    -1.4300    -2.4260 H     1 <1>   0.0800 
 47 H      -13.4210    -2.5610    -1.2380 H     1 <1>   0.0800 
 48 H      -12.3100    -3.1030    -2.4700 H     1 <1>   0.0800 
@<TRIPOS>BOND
  1   1   2  1   
  2   1   3  1   
  3   2   4  1   
  4   2   5  2   
  5   3   6  2   
  6   3  26  1   
  7   4   7  2   
  8   4   8  1   
  9   5   6  1   
 10   5  27  1   
 11   6  28  1   
 12   7   9  1   
 13   8  10  2   
 14   8  29  1   
 15   9  10  1   
 16   9  11  1   
 17  10  12  1   
 18  11  30  1   
 19  11  31  1   
 20  11  32  1   
 21  12  13  2   
 22  12  14  am  
 23  14  15  1   
 24  14  16  1   
 25  15  17  1   
 26  15  33  1   
 27  15  34  1   
 28  16  18  1   
 29  16  35  1   
 30  16  36  1   
 31  17  19  1   
 32  17  37  1   
 33  17  38  1   
 34  18  19  1   
 35  18  39  1   
 36  18  40  1   
 37  19  20  1   
 38  19  21  1   
 39  20  22  1   
 40  21  23  2   
 41  21  41  1   
 42  22  24  1   
 43  22  42  1   
 44  22  43  1   
 45  23  24  1   
 46  23  25  1   
 47  24  44  1   
 48  24  45  1   
 49  25  46  1   
 50  25  47  1   
 51  25  48  1   
@<TRIPOS>SUBSTRUCTURE
  1 ****  16 GROUP 4 **** **** 0

# MOE 2024.06 (io_trps.svl 2023.06)
