@<TRIPOS>MOLECULE
NONAME
53 55 1 0 0 
SMALL
USER_CHARGES


@<TRIPOS>ATOM
  1 O       -0.8490    -1.5480    -1.5620 O.2   1 <1>  -0.5700 
  2 C       -0.3420    -1.1930    -0.5300 C.2   1 <1>   0.5690 
  3 N       -1.1520    -0.7130     0.4460 N.am  1 <1>  -0.8000 
  4 C        1.2120    -1.3850    -0.3460 C.3   1 <1>   0.5640 
  5 N        1.4610    -2.7250     0.3550 N.4   1 <1>  -0.9590 
  6 C        1.7430    -0.2070     0.5120 C.3   1 <1>  -0.1600 
  7 C        1.8810    -1.3370    -1.7480 C.3   1 <1>  -0.1600 
  8 C        2.8520    -3.1050     0.7530 C.3   1 <1>   0.3430 
  9 C        0.7970    -3.8700    -0.3750 C.3   1 <1>   0.3430 
 10 C        3.2370     0.1110     0.4080 C.3   1 <1>   0.3430 
 11 C        3.3790    -1.0590    -1.7700 C.3   1 <1>   0.3430 
 12 C        2.8190    -4.3160     1.6860 C.3   1 <1>  -0.1600 
 13 C        0.7250    -5.0980     0.5330 C.3   1 <1>  -0.1600 
 14 N        3.6520     0.1910    -1.0190 N.4   1 <1>  -0.9590 
 15 C        2.1100    -5.5110     1.0420 C.3   1 <1>  -0.1600 
 16 C        5.0840     0.6120    -1.1590 C.3   1 <1>   0.4860 
 17 C        5.2460     1.9830    -0.5270 C.ar  1 <1>  -0.1430 
 18 C        5.9620     2.1980     0.6420 C.ar  1 <1>  -0.1430 
 19 C        4.6640     3.0950    -1.1100 C.ar  1 <1>  -0.1500 
 20 C        6.0190     3.4860     1.1590 C.ar  1 <1>   0.1600 
 21 C        6.7020     1.0790     1.3670 C.3   1 <1>  -0.0970 
 22 C        4.7890     4.3320    -0.5030 C.ar  1 <1>   0.1600 
 23 N        5.4400     4.5440     0.6230 N.ar  1 <1>  -0.6200 
 24 H       -2.1560    -0.6380     0.2380 H     1 <1>   0.3700 
 25 H       -0.8960    -0.3420     1.3630 H     1 <1>   0.3700 
 26 H        0.9250    -2.6780     1.2330 H     1 <1>   0.4500 
 27 H        1.4850    -0.3570     1.5450 H     1 <1>   0.0800 
 28 H        1.2320     0.6900     0.2030 H     1 <1>   0.0800 
 29 H        1.4180    -0.5470    -2.3150 H     1 <1>   0.0800 
 30 H        1.6790    -2.2380    -2.2970 H     1 <1>   0.0800 
 31 H        3.3310    -2.2970     1.2760 H     1 <1>   0.0800 
 32 H        3.4320    -3.3510    -0.1210 H     1 <1>   0.0800 
 33 H        1.3550    -4.1190    -1.2630 H     1 <1>   0.0800 
 34 H       -0.2060    -3.6110    -0.6740 H     1 <1>   0.0800 
 35 H        3.8210    -0.6390     0.9140 H     1 <1>   0.0800 
 36 H        3.4290     1.0550     0.8970 H     1 <1>   0.0800 
 37 H        3.7030    -0.9500    -2.7950 H     1 <1>   0.0800 
 38 H        3.9230    -1.8810    -1.3350 H     1 <1>   0.0800 
 39 H        2.3280    -4.0530     2.6070 H     1 <1>   0.0800 
 40 H        3.8270    -4.6010     1.9340 H     1 <1>   0.0800 
 41 H        0.2930    -5.9160    -0.0190 H     1 <1>   0.0800 
 42 H        0.0700    -4.8960     1.3630 H     1 <1>   0.0800 
 43 H        3.1240     0.9640    -1.4520 H     1 <1>   0.4500 
 44 H        2.0120    -6.3110     1.7590 H     1 <1>   0.0800 
 45 H        2.6990    -5.8850     0.2200 H     1 <1>   0.0800 
 46 H        5.3570     0.6730    -2.2000 H     1 <1>   0.0800 
 47 H        5.7370    -0.0990    -0.6790 H     1 <1>   0.0800 
 48 H        4.1160     3.0340    -2.0330 H     1 <1>   0.1500 
 49 H        6.5730     3.6630     2.0670 H     1 <1>   0.1500 
 50 H        7.4110     0.6100     0.7080 H     1 <1>   0.0800 
 51 H        6.0150     0.3420     1.7390 H     1 <1>   0.0800 
 52 H        7.2520     1.4700     2.2070 H     1 <1>   0.0800 
 53 H        4.3310     5.1920    -0.9650 H     1 <1>   0.1500 
@<TRIPOS>BOND
  1   1   2  2   
  2   2   3  am  
  3   2   4  1   
  4   3  24  1   
  5   3  25  1   
  6   4   5  1   
  7   4   6  1   
  8   4   7  1   
  9   5   8  1   
 10   5   9  1   
 11   5  26  1   
 12   6  10  1   
 13   6  27  1   
 14   6  28  1   
 15   7  11  1   
 16   7  29  1   
 17   7  30  1   
 18   8  12  1   
 19   8  31  1   
 20   8  32  1   
 21   9  13  1   
 22   9  33  1   
 23   9  34  1   
 24  10  14  1   
 25  10  35  1   
 26  10  36  1   
 27  11  14  1   
 28  11  37  1   
 29  11  38  1   
 30  12  15  1   
 31  12  39  1   
 32  12  40  1   
 33  13  15  1   
 34  13  41  1   
 35  13  42  1   
 36  14  16  1   
 37  14  43  1   
 38  15  44  1   
 39  15  45  1   
 40  16  17  1   
 41  16  46  1   
 42  16  47  1   
 43  17  18  ar  
 44  17  19  ar  
 45  18  20  ar  
 46  18  21  1   
 47  19  22  ar  
 48  19  48  1   
 49  20  23  ar  
 50  20  49  1   
 51  21  50  1   
 52  21  51  1   
 53  21  52  1   
 54  22  23  ar  
 55  22  53  1   
@<TRIPOS>SUBSTRUCTURE
  1 ****  10 GROUP 4 **** **** 0

# MOE 2024.06 (io_trps.svl 2023.06)
