@<TRIPOS>MOLECULE
NONAME
47 50 1 0 0 
SMALL
USER_CHARGES


@<TRIPOS>ATOM
  1 O       -1.4020     0.3990     2.6560 O.2   1 <1>  -0.5700 
  2 C       -1.9260     1.0060     1.7520 C.2   1 <1>   0.5690 
  3 N       -2.6370     0.3450     0.7850 N.am  1 <1>  -0.6600 
  4 C       -1.7870     2.5200     1.7480 C.3   1 <1>   0.0810 
  5 C       -3.3050     0.9300    -0.4080 C.3   1 <1>   0.1400 
  6 C       -2.7340    -1.1360     0.7460 C.3   1 <1>   0.1400 
  7 C       -0.7480     2.9940     0.7500 C.2   1 <1>  -0.0400 
  8 C       -4.2150    -0.1870    -0.9120 C.3   1 <1>   0.2000 
  9 C       -3.4270    -1.4620    -0.5850 C.3   1 <1>  -0.0800 
 10 O       -1.0370     3.0520    -0.5220 O.3   1 <1>  -0.0190 
 11 C        0.5180     3.4100     0.9020 C.2   1 <1>  -0.1500 
 12 O       -5.3860    -0.1580    -0.1680 O.3   1 <1>  -0.6800 
 13 C       -4.2740    -2.7520    -0.5580 C.3   1 <1>  -0.0170 
 14 N       -0.0340     3.4780    -1.2310 N.2   1 <1>  -0.4100 
 15 C        0.9200     3.7020    -0.3980 C.2   1 <1>   0.1080 
 16 C       -3.5120    -4.0730    -0.3860 C.ar  1 <1>  -0.1440 
 17 C        2.2880     4.2140    -0.7880 C.3   1 <1>  -0.0590 
 18 C       -4.2320    -5.2730    -0.1610 C.ar  1 <1>   0.0000 
 19 C       -2.1490    -4.1740    -0.4490 C.ar  1 <1>  -0.1500 
 20 C       -3.4950    -6.4710     0.0070 C.ar  1 <1>   0.3100 
 21 C       -5.6440    -5.3570    -0.0990 C.ar  1 <1>  -0.1500 
 22 C       -1.5190    -5.4110    -0.2730 C.ar  1 <1>   0.1600 
 23 N       -2.1410    -6.5230    -0.0500 N.ar  1 <1>  -0.6200 
 24 C       -4.1850    -7.6710     0.2410 C.ar  1 <1>  -0.1500 
 25 C       -6.2870    -6.5440     0.1280 C.ar  1 <1>  -0.1500 
 26 C       -5.5510    -7.7180     0.3020 C.ar  1 <1>  -0.1500 
 27 H       -2.7340     2.9770     1.5390 H     1 <1>   0.0800 
 28 H       -1.4870     2.8310     2.7320 H     1 <1>   0.0800 
 29 H       -3.8590     1.8220    -0.1750 H     1 <1>   0.0800 
 30 H       -2.5620     1.1460    -1.1560 H     1 <1>   0.0800 
 31 H       -1.7540    -1.5770     0.8100 H     1 <1>   0.0800 
 32 H       -3.3250    -1.4710     1.5820 H     1 <1>   0.0800 
 33 H       -4.4660    -0.0920    -1.9550 H     1 <1>   0.0800 
 34 H       -2.6700    -1.5590    -1.3430 H     1 <1>   0.0800 
 35 H        1.1110     3.5020     1.7930 H     1 <1>   0.1500 
 36 H       -5.1520    -0.1030     0.7800 H     1 <1>   0.4000 
 37 H       -4.8340    -2.8080    -1.4750 H     1 <1>   0.0800 
 38 H       -4.9820    -2.6680     0.2470 H     1 <1>   0.0800 
 39 H        3.0400     3.5020    -0.4980 H     1 <1>   0.0800 
 40 H        2.4800     5.1520    -0.3020 H     1 <1>   0.0800 
 41 H        2.3380     4.3570    -1.8530 H     1 <1>   0.0800 
 42 H       -1.5090    -3.3340    -0.6330 H     1 <1>   0.1500 
 43 H       -6.2360    -4.4720    -0.2360 H     1 <1>   0.1500 
 44 H       -0.4430    -5.4380    -0.3260 H     1 <1>   0.1500 
 45 H       -3.5970    -8.5610     0.3690 H     1 <1>   0.1500 
 46 H       -7.3610    -6.5890     0.1740 H     1 <1>   0.1500 
 47 H       -6.0670    -8.6450     0.4820 H     1 <1>   0.1500 
@<TRIPOS>BOND
  1   1   2  2   
  2   2   3  am  
  3   2   4  1   
  4   3   5  1   
  5   3   6  1   
  6   4   7  1   
  7   4  27  1   
  8   4  28  1   
  9   5   8  1   
 10   5  29  1   
 11   5  30  1   
 12   6   9  1   
 13   6  31  1   
 14   6  32  1   
 15   7  10  1   
 16   7  11  2   
 17   8   9  1   
 18   8  12  1   
 19   8  33  1   
 20   9  13  1   
 21   9  34  1   
 22  10  14  1   
 23  11  15  1   
 24  11  35  1   
 25  12  36  1   
 26  13  16  1   
 27  13  37  1   
 28  13  38  1   
 29  14  15  2   
 30  15  17  1   
 31  16  18  ar  
 32  16  19  ar  
 33  17  39  1   
 34  17  40  1   
 35  17  41  1   
 36  18  20  ar  
 37  18  21  ar  
 38  19  22  ar  
 39  19  42  1   
 40  20  23  ar  
 41  20  24  ar  
 42  21  25  ar  
 43  21  43  1   
 44  22  23  ar  
 45  22  44  1   
 46  24  26  ar  
 47  24  45  1   
 48  25  26  ar  
 49  25  46  1   
 50  26  47  1   
@<TRIPOS>SUBSTRUCTURE
  1 ****   6 GROUP 4 **** **** 0

# MOE 2024.06 (io_trps.svl 2023.06)
