@<TRIPOS>MOLECULE
NONAME
47 50 1 0 0 
SMALL
USER_CHARGES


@<TRIPOS>ATOM
  1 O       -0.2490     0.1310     1.3140 O.2   1 <1>  -0.5700 
  2 C       -1.2300     0.8140     1.0810 C.2   1 <1>   0.5440 
  3 N       -2.4030     0.1820     0.7370 N.am  1 <1>  -0.6600 
  4 C       -1.1610     2.2550     1.1610 C.ar  1 <1>   0.0860 
  5 C       -3.5380     0.8480     0.0490 C.3   1 <1>   0.1400 
  6 C       -2.4980    -1.2920     0.5980 C.3   1 <1>   0.1400 
  7 C       -0.2740     2.9770     0.3400 C.ar  1 <1>   0.0000 
  8 C       -1.9710     2.9860     2.0180 C.ar  1 <1>  -0.1500 
  9 C       -4.2010    -0.2610    -0.7660 C.3   1 <1>   0.2000 
 10 C       -3.8710    -1.5530    -0.0250 C.3   1 <1>  -0.0800 
 11 C       -0.2360     4.3690     0.3810 C.ar  1 <1>  -0.1520 
 12 C        0.6780     2.5850    -0.6220 C.2   1 <1>  -0.1500 
 13 C       -1.9270     4.3810     2.0650 C.ar  1 <1>  -0.1500 
 14 O       -5.5730    -0.0870    -0.8440 O.3   1 <1>  -0.6800 
 15 C       -3.9070    -2.7950    -0.9280 C.3   1 <1>   0.0210 
 16 N        0.7010     4.8060    -0.5260 N.pl3 1 <1>   0.0480 
 17 C       -1.0660     5.0790     1.2500 C.ar  1 <1>  -0.1500 
 18 C        1.2440     3.7070    -1.1260 C.2   1 <1>  -0.3020 
 19 C       -3.4860    -4.0330    -0.1620 C.2   1 <1>   0.1080 
 20 C        1.0660     6.2060    -0.7910 C.3   1 <1>   0.0160 
 21 N       -4.1670    -4.5070     0.8350 N.2   1 <1>  -0.7070 
 22 C       -2.3430    -4.7810    -0.4220 C.2   1 <1>  -0.1500 
 23 N       -3.4690    -5.5850     1.2410 N.pl3 1 <1>   0.3000 
 24 C       -2.3590    -5.7700     0.4960 C.2   1 <1>  -0.3320 
 25 C       -1.3670    -6.8980     0.7100 C.3   1 <1>  -0.0600 
 26 H       -4.2160     1.2380     0.7870 H     1 <1>   0.0800 
 27 H       -3.1880     1.6380    -0.5940 H     1 <1>   0.0800 
 28 H       -1.7070    -1.6350    -0.0470 H     1 <1>   0.0800 
 29 H       -2.4040    -1.7720     1.5580 H     1 <1>   0.0800 
 30 H       -2.6510     2.4620     2.6670 H     1 <1>   0.1500 
 31 H       -3.7990    -0.2640    -1.7650 H     1 <1>   0.0800 
 32 H       -4.5620    -1.6910     0.7880 H     1 <1>   0.0800 
 33 H        0.8890     1.5590    -0.8730 H     1 <1>   0.1500 
 34 H       -2.5720     4.9070     2.7470 H     1 <1>   0.1500 
 35 H       -5.9830    -0.2460     0.0280 H     1 <1>   0.4000 
 36 H       -3.2550    -2.6580    -1.7720 H     1 <1>   0.0800 
 37 H       -4.9070    -2.9410    -1.2970 H     1 <1>   0.0800 
 38 H       -1.0270     6.1530     1.2790 H     1 <1>   0.1500 
 39 H        2.0100     3.7850    -1.8770 H     1 <1>   0.1500 
 40 H        1.8270     6.2440    -1.5480 H     1 <1>   0.0800 
 41 H        1.4370     6.6510     0.1140 H     1 <1>   0.0800 
 42 H        0.1970     6.7400    -1.1280 H     1 <1>   0.0800 
 43 H       -1.6190    -4.5890    -1.1930 H     1 <1>   0.1500 
 44 H       -3.7760    -6.1700     2.0260 H     1 <1>   0.2700 
 45 H       -0.5700    -6.8300    -0.0090 H     1 <1>   0.0800 
 46 H       -1.8530    -7.8500     0.5930 H     1 <1>   0.0800 
 47 H       -0.9430    -6.8380     1.6970 H     1 <1>   0.0800 
@<TRIPOS>BOND
  1   1   2  2   
  2   2   3  am  
  3   2   4  1   
  4   3   5  1   
  5   3   6  1   
  6   4   7  ar  
  7   4   8  ar  
  8   5   9  1   
  9   5  26  1   
 10   5  27  1   
 11   6  10  1   
 12   6  28  1   
 13   6  29  1   
 14   7  11  ar  
 15   7  12  1   
 16   8  13  ar  
 17   8  30  1   
 18   9  10  1   
 19   9  14  1   
 20   9  31  1   
 21  10  15  1   
 22  10  32  1   
 23  11  16  1   
 24  11  17  ar  
 25  12  18  2   
 26  12  33  1   
 27  13  17  ar  
 28  13  34  1   
 29  14  35  1   
 30  15  19  1   
 31  15  36  1   
 32  15  37  1   
 33  16  18  1   
 34  16  20  1   
 35  17  38  1   
 36  18  39  1   
 37  19  21  2   
 38  19  22  1   
 39  20  40  1   
 40  20  41  1   
 41  20  42  1   
 42  21  23  1   
 43  22  24  2   
 44  22  43  1   
 45  23  24  1   
 46  23  44  1   
 47  24  25  1   
 48  25  45  1   
 49  25  46  1   
 50  25  47  1   
@<TRIPOS>SUBSTRUCTURE
  1 ****   3 GROUP 4 **** **** 0

# MOE 2024.06 (io_trps.svl 2023.06)
