@<TRIPOS>MOLECULE
NONAME
53 56 1 0 0 
SMALL
USER_CHARGES


@<TRIPOS>ATOM
  1 CL      -2.1560    -0.9900     1.1400 Cl    1 <1>  -0.1770 
  2 C       -2.3630     0.3960     0.0790 C.ar  1 <1>   0.1770 
  3 C       -2.2020     1.6710     0.6070 C.ar  1 <1>   0.0830 
  4 C       -2.6730     0.1980    -1.2620 C.ar  1 <1>  -0.1440 
  5 O       -1.8840     1.8100     1.9200 O.3   1 <1>  -0.3630 
  6 C       -2.3710     2.7770    -0.2320 C.ar  1 <1>   0.0830 
  7 C       -2.8100     1.3060    -2.0870 C.ar  1 <1>  -0.1500 
  8 C       -2.8630    -1.2000    -1.8310 C.3   1 <1>   0.2540 
  9 C       -0.5550     2.1960     2.1930 C.3   1 <1>   0.0400 
 10 O       -2.2590     4.0590     0.1950 O.3   1 <1>  -0.3620 
 11 C       -2.6570     2.5830    -1.5730 C.ar  1 <1>  -0.1500 
 12 N       -4.0620    -1.8210    -1.2420 N.3   1 <1>  -0.8100 
 13 C       -3.1580     4.4930     1.1940 C.3   1 <1>   0.0400 
 14 C       -5.3350    -1.1430    -1.5740 C.3   1 <1>   0.1100 
 15 C       -4.1460    -3.2750    -1.4880 C.3   1 <1>   0.1100 
 16 C       -6.5020    -1.6770    -0.7000 C.3   1 <1>   0.4230 
 17 C       -5.3930    -3.9040    -0.8180 C.3   1 <1>   0.3430 
 18 N       -6.0970    -2.9140     0.0700 N.4   1 <1>  -0.9590 
 19 C       -7.7720    -1.9350    -1.5400 C.3   1 <1>   0.1200 
 20 C       -7.2510    -3.4530     0.8530 C.3   1 <1>   0.5180 
 21 O       -8.7980    -2.4500    -0.7380 O.3   1 <1>  -0.5600 
 22 C       -6.8120    -4.7250     1.6060 C.3   1 <1>  -0.1950 
 23 C       -8.4890    -3.6390    -0.0600 C.3   1 <1>   0.1200 
 24 C       -6.8610    -6.1160     1.0440 C.3   1 <1>  -0.2000 
 25 C       -7.7870    -5.7210     2.1590 C.3   1 <1>  -0.2000 
 26 H       -3.0350     1.1870    -3.1330 H     1 <1>   0.1500 
 27 H       -1.9940    -1.7890    -1.5880 H     1 <1>   0.0800 
 28 H       -2.9530    -1.1650    -2.9030 H     1 <1>   0.0800 
 29 H       -0.4320     2.2470     3.2590 H     1 <1>   0.0800 
 30 H       -0.3700     3.1610     1.7540 H     1 <1>   0.0800 
 31 H        0.1120     1.4610     1.7790 H     1 <1>   0.0800 
 32 H       -2.7630     3.4430    -2.2120 H     1 <1>   0.1500 
 33 H       -3.0900     5.5630     1.2640 H     1 <1>   0.0800 
 34 H       -2.8890     4.0510     2.1350 H     1 <1>   0.0800 
 35 H       -4.1570     4.2050     0.9150 H     1 <1>   0.0800 
 36 H       -5.2490    -0.0840    -1.4010 H     1 <1>   0.0800 
 37 H       -5.5530    -1.2800    -2.6200 H     1 <1>   0.0800 
 38 H       -4.1710    -3.4730    -2.5460 H     1 <1>   0.0800 
 39 H       -3.2660    -3.7500    -1.0880 H     1 <1>   0.0800 
 40 H       -6.7470    -0.9020     0.0060 H     1 <1>   0.0800 
 41 H       -5.0780    -4.7600    -0.2450 H     1 <1>   0.0800 
 42 H       -6.0670    -4.2530    -1.5820 H     1 <1>   0.0800 
 43 H       -5.3630    -2.5830     0.7120 H     1 <1>   0.4500 
 44 H       -7.5800    -2.6290    -2.3390 H     1 <1>   0.0800 
 45 H       -8.1270    -1.0130    -1.9670 H     1 <1>   0.0800 
 46 H       -7.5260    -2.7230     1.5970 H     1 <1>   0.0800 
 47 H       -5.9950    -4.4970     2.2700 H     1 <1>   0.1000 
 48 H       -9.3480    -3.8990     0.5330 H     1 <1>   0.0800 
 49 H       -8.3290    -4.4160    -0.7860 H     1 <1>   0.0800 
 50 H       -7.3090    -6.3280     0.0890 H     1 <1>   0.1000 
 51 H       -6.0650    -6.8050     1.2770 H     1 <1>   0.1000 
 52 H       -7.6080    -6.1330     3.1390 H     1 <1>   0.1000 
 53 H       -8.8390    -5.6620     1.9400 H     1 <1>   0.1000 
@<TRIPOS>BOND
  1   1   2  1   
  2   2   3  ar  
  3   2   4  ar  
  4   3   5  1   
  5   3   6  ar  
  6   4   7  ar  
  7   4   8  1   
  8   5   9  1   
  9   6  10  1   
 10   6  11  ar  
 11   7  11  ar  
 12   7  26  1   
 13   8  12  1   
 14   8  27  1   
 15   8  28  1   
 16   9  29  1   
 17   9  30  1   
 18   9  31  1   
 19  10  13  1   
 20  11  32  1   
 21  12  14  1   
 22  12  15  1   
 23  13  33  1   
 24  13  34  1   
 25  13  35  1   
 26  14  16  1   
 27  14  36  1   
 28  14  37  1   
 29  15  17  1   
 30  15  38  1   
 31  15  39  1   
 32  16  18  1   
 33  16  19  1   
 34  16  40  1   
 35  17  18  1   
 36  17  41  1   
 37  17  42  1   
 38  18  20  1   
 39  18  43  1   
 40  19  21  1   
 41  19  44  1   
 42  19  45  1   
 43  20  22  1   
 44  20  23  1   
 45  20  46  1   
 46  21  23  1   
 47  22  24  1   
 48  22  25  1   
 49  22  47  1   
 50  23  48  1   
 51  23  49  1   
 52  24  25  1   
 53  24  50  1   
 54  24  51  1   
 55  25  52  1   
 56  25  53  1   
@<TRIPOS>SUBSTRUCTURE
  1 ****  12 GROUP 4 **** **** 0

# MOE 2024.06 (io_trps.svl 2023.06)
