@<TRIPOS>MOLECULE
NONAME
44 46 1 0 0 
SMALL
USER_CHARGES


@<TRIPOS>ATOM
  1 CL       6.3970    -0.2810    -0.0250 Cl    1 <1>  -0.1770 
  2 C        4.6660    -0.0160    -0.0440 C.ar  1 <1>   0.1770 
  3 C        4.0960     0.7910    -1.0250 C.ar  1 <1>   0.0830 
  4 C        3.8990    -0.6090     0.9400 C.ar  1 <1>  -0.1500 
  5 O        4.9120     1.3480    -1.9590 O.3   1 <1>  -0.3630 
  6 C        2.7180     1.0030    -1.0110 C.ar  1 <1>  -0.1500 
  7 C        2.5360    -0.3820     0.9350 C.ar  1 <1>   0.1770 
  8 C        4.6110     2.6110    -2.5360 C.3   1 <1>   0.1810 
  9 C        1.9400     0.4150    -0.0260 C.ar  1 <1>  -0.1500 
 10 CL       1.5450    -1.1160     2.1710 Cl    1 <1>  -0.1770 
 11 C        4.4100     3.7080    -1.4850 C.2   1 <1>   0.5690 
 12 O        3.5000     4.4830    -1.6650 O.2   1 <1>  -0.5700 
 13 N        5.2290     3.8530    -0.3880 N.am  1 <1>  -0.6600 
 14 C        4.7390     4.5860     0.8270 C.3   1 <1>   0.1400 
 15 C        6.5970     3.2670    -0.2630 C.3   1 <1>   0.1400 
 16 C        5.5460     5.8580     1.2080 C.3   1 <1>   0.4230 
 17 C        7.6720     4.3700    -0.1470 C.3   1 <1>  -0.0800 
 18 N        6.2660     6.5460     0.0630 N.4   1 <1>  -0.9590 
 19 C        6.4930     5.5970     2.3990 C.3   1 <1>   0.1200 
 20 C        8.2680     4.5000     1.2640 C.3   1 <1>   0.1200 
 21 C        7.2200     5.7100    -0.7530 C.3   1 <1>   0.3430 
 22 C        5.2620     7.1740    -0.8550 C.3   1 <1>   0.2630 
 23 O        7.2740     4.4560     2.2320 O.3   1 <1>  -0.5600 
 24 H        4.3500    -1.2290     1.6920 H     1 <1>   0.1500 
 25 H        2.2390     1.6130    -1.7550 H     1 <1>   0.1500 
 26 H        5.4290     2.8760    -3.1790 H     1 <1>   0.0800 
 27 H        3.7280     2.5070    -3.1390 H     1 <1>   0.0800 
 28 H        0.8750     0.5690    -0.0020 H     1 <1>   0.1500 
 29 H        3.7140     4.8770     0.6820 H     1 <1>   0.0800 
 30 H        4.7350     3.9030     1.6590 H     1 <1>   0.0800 
 31 H        6.6310     2.6080     0.5890 H     1 <1>   0.0800 
 32 H        6.8210     2.6690    -1.1290 H     1 <1>   0.0800 
 33 H        4.8220     6.5590     1.5880 H     1 <1>   0.0800 
 34 H        8.4900     4.0410    -0.7620 H     1 <1>   0.0800 
 35 H        6.8190     7.3020     0.4840 H     1 <1>   0.4500 
 36 H        5.9000     5.4260     3.2810 H     1 <1>   0.0800 
 37 H        7.1340     6.4400     2.5920 H     1 <1>   0.0800 
 38 H        8.8490     5.3990     1.3840 H     1 <1>   0.0800 
 39 H        8.9120     3.6580     1.4550 H     1 <1>   0.0800 
 40 H        6.7590     5.4870    -1.7010 H     1 <1>   0.0800 
 41 H        8.0960     6.3010    -0.9640 H     1 <1>   0.0800 
 42 H        4.6560     6.4160    -1.3230 H     1 <1>   0.0800 
 43 H        5.7590     7.7390    -1.6270 H     1 <1>   0.0800 
 44 H        4.6140     7.8390    -0.3080 H     1 <1>   0.0800 
@<TRIPOS>BOND
  1   1   2  1   
  2   2   3  ar  
  3   2   4  ar  
  4   3   5  1   
  5   3   6  ar  
  6   4   7  ar  
  7   4  24  1   
  8   5   8  1   
  9   6   9  ar  
 10   6  25  1   
 11   7   9  ar  
 12   7  10  1   
 13   8  11  1   
 14   8  26  1   
 15   8  27  1   
 16   9  28  1   
 17  11  12  2   
 18  11  13  am  
 19  13  14  1   
 20  13  15  1   
 21  14  16  1   
 22  14  29  1   
 23  14  30  1   
 24  15  17  1   
 25  15  31  1   
 26  15  32  1   
 27  16  18  1   
 28  16  19  1   
 29  16  33  1   
 30  17  20  1   
 31  17  21  1   
 32  17  34  1   
 33  18  21  1   
 34  18  22  1   
 35  18  35  1   
 36  19  23  1   
 37  19  36  1   
 38  19  37  1   
 39  20  23  1   
 40  20  38  1   
 41  20  39  1   
 42  21  40  1   
 43  21  41  1   
 44  22  42  1   
 45  22  43  1   
 46  22  44  1   
@<TRIPOS>SUBSTRUCTURE
  1 ****  13 GROUP 4 **** **** 0

# MOE 2024.06 (io_trps.svl 2023.06)
