@<TRIPOS>MOLECULE
NONAME
49 50 1 0 0 
SMALL
USER_CHARGES


@<TRIPOS>ATOM
  1 S        0.1050     0.4210     0.4770 S.o2  1 <1>   1.3330 
  2 O       -1.3040     0.6390     0.7140 O.2   1 <1>  -0.6500 
  3 O        1.0140     0.3160     1.5970 O.2   1 <1>  -0.6500 
  4 N        0.2810    -0.9780    -0.4690 N.am  1 <1>  -0.8490 
  5 C        0.6790     1.7170    -0.6180 C.3   1 <1>  -0.0550 
  6 C        1.6350    -1.5410    -0.4320 C.3   1 <1>   0.1160 
  7 C       -0.6980    -2.0120    -0.1180 C.3   1 <1>   0.1160 
  8 C        0.5230     3.1270    -0.0250 C.3   1 <1>  -0.0800 
  9 C        0.9320     4.2190    -1.0110 C.3   1 <1>   0.2000 
 10 C        1.3910     3.3960     1.2060 C.3   1 <1>   0.1400 
 11 O       -0.1230     4.5040    -1.8610 O.3   1 <1>  -0.6800 
 12 C        1.3210     5.4250    -0.1560 C.3   1 <1>   0.1400 
 13 N        1.6430     4.8560     1.1780 N.am  1 <1>  -0.6600 
 14 C        2.1460     5.5410     2.2540 C.2   1 <1>   0.5690 
 15 O        2.4140     4.9700     3.2860 O.2   1 <1>  -0.5700 
 16 C        2.3400     7.0550     2.2140 C.3   1 <1>   0.1810 
 17 O        3.1870     7.4530     1.1450 O.3   1 <1>  -0.3630 
 18 C        3.3990     8.7640     0.8700 C.ar  1 <1>   0.0820 
 19 C        4.1050     9.0530    -0.2850 C.ar  1 <1>  -0.1500 
 20 C        2.9470     9.8060     1.6760 C.ar  1 <1>  -0.1500 
 21 C        4.3600    10.3630    -0.6520 C.ar  1 <1>   0.0820 
 22 C        3.2000    11.1180     1.3150 C.ar  1 <1>  -0.1500 
 23 O        5.0550    10.5520    -1.8020 O.3   1 <1>  -0.3620 
 24 C        3.9020    11.4010     0.1550 C.ar  1 <1>  -0.1500 
 25 C        5.3800    11.8460    -2.2590 C.3   1 <1>   0.0400 
 26 H        1.7080     1.5460    -0.8670 H     1 <1>   0.0800 
 27 H        0.1110     1.6680    -1.5280 H     1 <1>   0.0800 
 28 H        1.7100    -2.3680    -1.1180 H     1 <1>   0.0800 
 29 H        1.8730    -1.8860     0.5610 H     1 <1>   0.0800 
 30 H        2.3550    -0.7950    -0.7200 H     1 <1>   0.0800 
 31 H       -0.5700    -2.8760    -0.7460 H     1 <1>   0.0800 
 32 H       -1.6980    -1.6370    -0.2640 H     1 <1>   0.0800 
 33 H       -0.5850    -2.3010     0.9140 H     1 <1>   0.0800 
 34 H       -0.5020     3.2780     0.2700 H     1 <1>   0.0800 
 35 H        1.7750     3.9140    -1.6080 H     1 <1>   0.0800 
 36 H        2.3350     2.8800     1.1400 H     1 <1>   0.0800 
 37 H        0.8940     3.1090     2.1180 H     1 <1>   0.0800 
 38 H       -0.9190     4.7510    -1.3500 H     1 <1>   0.4000 
 39 H        0.5030     6.1170    -0.0640 H     1 <1>   0.0800 
 40 H        2.1810     5.9170    -0.5760 H     1 <1>   0.0800 
 41 H        2.7920     7.3780     3.1340 H     1 <1>   0.0800 
 42 H        1.3860     7.5290     2.0870 H     1 <1>   0.0800 
 43 H        4.4600     8.2530    -0.9070 H     1 <1>   0.1500 
 44 H        2.4050     9.6210     2.5840 H     1 <1>   0.1500 
 45 H        2.8510    11.9230     1.9380 H     1 <1>   0.1500 
 46 H        4.0830    12.4270    -0.1000 H     1 <1>   0.1500 
 47 H        5.9320    11.7470    -3.1760 H     1 <1>   0.0800 
 48 H        5.9870    12.3350    -1.5190 H     1 <1>   0.0800 
 49 H        4.4710    12.3920    -2.4370 H     1 <1>   0.0800 
@<TRIPOS>BOND
  1   1   2  2   
  2   1   3  2   
  3   1   4  am  
  4   1   5  1   
  5   4   6  1   
  6   4   7  1   
  7   5   8  1   
  8   5  26  1   
  9   5  27  1   
 10   6  28  1   
 11   6  29  1   
 12   6  30  1   
 13   7  31  1   
 14   7  32  1   
 15   7  33  1   
 16   8   9  1   
 17   8  10  1   
 18   8  34  1   
 19   9  11  1   
 20   9  12  1   
 21   9  35  1   
 22  10  13  1   
 23  10  36  1   
 24  10  37  1   
 25  11  38  1   
 26  12  13  1   
 27  12  39  1   
 28  12  40  1   
 29  13  14  am  
 30  14  15  2   
 31  14  16  1   
 32  16  17  1   
 33  16  41  1   
 34  16  42  1   
 35  17  18  1   
 36  18  19  ar  
 37  18  20  ar  
 38  19  21  ar  
 39  19  43  1   
 40  20  22  ar  
 41  20  44  1   
 42  21  23  1   
 43  21  24  ar  
 44  22  24  ar  
 45  22  45  1   
 46  23  25  1   
 47  24  46  1   
 48  25  47  1   
 49  25  48  1   
 50  25  49  1   
@<TRIPOS>SUBSTRUCTURE
  1 ****  12 GROUP 4 **** **** 0

# MOE 2024.06 (io_trps.svl 2023.06)
