@<TRIPOS>MOLECULE
NONAME
45 47 1 0 0 
SMALL
USER_CHARGES


@<TRIPOS>ATOM
  1 S        0.7950     0.0400    -1.8220 S.o2  1 <1>   1.5010 
  2 O        0.5890     0.7410    -3.0660 O.2   1 <1>  -0.6500 
  3 O        1.8390    -0.9610    -1.7350 O.2   1 <1>  -0.6500 
  4 N        1.2790     1.2100    -0.6910 N.am  1 <1>  -0.8490 
  5 C       -0.7800    -0.5680    -1.1740 C.2   1 <1>  -0.0630 
  6 C        1.4880     0.7130     0.6990 C.3   1 <1>   0.2760 
  7 C        2.2050     2.2090    -1.2590 C.3   1 <1>   0.1960 
  8 C       -1.9510     0.1000    -1.1870 C.2   1 <1>  -0.1100 
  9 C       -0.9000    -1.8470    -0.5410 C.2   1 <1>  -0.1500 
 10 C        1.3870     1.8500     1.7280 C.3   1 <1>   0.1200 
 11 C        2.7940    -0.1000     0.9330 C.3   1 <1>   0.3430 
 12 C        3.3910     2.6310    -0.3780 C.3   1 <1>  -0.0800 
 13 S       -3.2230    -0.8220    -0.4200 S.3   1 <1>  -0.0800 
 14 C       -2.1310    -2.1600    -0.0640 C.2   1 <1>  -0.0450 
 15 O        2.6180     2.4850     1.8960 O.3   1 <1>  -0.5600 
 16 N        3.8650     0.1250    -0.0970 N.4   1 <1>  -0.9590 
 17 C        2.9640     3.3790     0.8930 C.3   1 <1>   0.1200 
 18 C        4.4190     1.5180    -0.0960 C.3   1 <1>   0.3430 
 19 C       -2.6140    -3.3260     0.6320 C.2   1 <1>   0.7150 
 20 C        4.9510    -0.8870     0.0440 C.3   1 <1>   0.2630 
 21 O       -1.8250    -4.1740     1.0020 O.2   1 <1>  -0.5700 
 22 N       -3.9450    -3.4890     0.8920 N.am  1 <1>  -0.7300 
 23 C       -4.5660    -4.6460     1.5890 C.3   1 <1>   0.0600 
 24 H        0.6680     0.0590     0.9380 H     1 <1>   0.0800 
 25 H        2.6140     1.8420    -2.1880 H     1 <1>   0.0800 
 26 H        1.6280     3.0840    -1.5110 H     1 <1>   0.0800 
 27 H       -2.2080     1.0700    -1.5800 H     1 <1>   0.1500 
 28 H       -0.0540    -2.5110    -0.4640 H     1 <1>   0.1500 
 29 H        1.1240     1.4380     2.6870 H     1 <1>   0.0800 
 30 H        0.6330     2.5690     1.4550 H     1 <1>   0.0800 
 31 H        2.5290    -1.1450     0.9270 H     1 <1>   0.0800 
 32 H        3.1770     0.1250     1.9150 H     1 <1>   0.0800 
 33 H        3.9200     3.3690    -0.9540 H     1 <1>   0.0800 
 34 H        3.3890    -0.0570    -1.0030 H     1 <1>   0.4500 
 35 H        2.1410     4.0500     0.7100 H     1 <1>   0.0800 
 36 H        3.7900     3.9600     1.2700 H     1 <1>   0.0800 
 37 H        4.8910     1.7160     0.8530 H     1 <1>   0.0800 
 38 H        5.1840     1.5760    -0.8530 H     1 <1>   0.0800 
 39 H        5.4500    -0.7740     0.9920 H     1 <1>   0.0800 
 40 H        5.6750    -0.7700    -0.7460 H     1 <1>   0.0800 
 41 H        4.5400    -1.8830    -0.0170 H     1 <1>   0.0800 
 42 H       -4.5850    -2.7640     0.5610 H     1 <1>   0.3700 
 43 H       -3.8130    -5.3540     1.8920 H     1 <1>   0.0800 
 44 H       -5.2580    -5.1400     0.9290 H     1 <1>   0.0800 
 45 H       -5.0920    -4.3050     2.4640 H     1 <1>   0.0800 
@<TRIPOS>BOND
  1   1   2  2   
  2   1   3  2   
  3   1   4  am  
  4   1   5  1   
  5   4   6  1   
  6   4   7  1   
  7   5   8  2   
  8   5   9  1   
  9   6  10  1   
 10   6  11  1   
 11   6  24  1   
 12   7  12  1   
 13   7  25  1   
 14   7  26  1   
 15   8  13  1   
 16   8  27  1   
 17   9  14  2   
 18   9  28  1   
 19  10  15  1   
 20  10  29  1   
 21  10  30  1   
 22  11  16  1   
 23  11  31  1   
 24  11  32  1   
 25  12  17  1   
 26  12  18  1   
 27  12  33  1   
 28  13  14  1   
 29  14  19  1   
 30  15  17  1   
 31  16  18  1   
 32  16  20  1   
 33  16  34  1   
 34  17  35  1   
 35  17  36  1   
 36  18  37  1   
 37  18  38  1   
 38  19  21  2   
 39  19  22  am  
 40  20  39  1   
 41  20  40  1   
 42  20  41  1   
 43  22  23  1   
 44  22  42  1   
 45  23  43  1   
 46  23  44  1   
 47  23  45  1   
@<TRIPOS>SUBSTRUCTURE
  1 ****   6 GROUP 4 **** **** 0

# MOE 2024.06 (io_trps.svl 2023.06)
