@<TRIPOS>MOLECULE
NONAME
56 60 1 0 0 
SMALL
USER_CHARGES


@<TRIPOS>ATOM
  1 O       -0.8040     3.0070    -3.1450 O.3   1 <1>  -0.5600 
  2 C        0.4880     3.2940    -2.6910 C.3   1 <1>   0.1200 
  3 C       -1.7120     4.0530    -2.9690 C.3   1 <1>   0.1200 
  4 C        0.4760     3.6010    -1.1830 C.3   1 <1>   0.2090 
  5 C       -1.8550     4.3970    -1.4740 C.3   1 <1>   0.2090 
  6 N       -0.5150     4.6930    -0.8550 N.pl3 1 <1>  -0.8380 
  7 C       -0.1590     5.7910    -0.1310 C.ar  1 <1>   0.7710 
  8 N        1.1140     5.9670     0.1990 N.ar  1 <1>  -0.6200 
  9 N       -1.1110     6.6720     0.2330 N.ar  1 <1>  -0.1790 
 10 C        1.4380     7.0600     0.8600 C.ar  1 <1>   0.4100 
 11 C       -0.8350     7.7620     0.9840 C.ar  1 <1>   0.2180 
 12 N        2.7550     7.3460     1.0140 N.pl3 1 <1>  -0.8380 
 13 C        0.4560     7.9470     1.3370 C.ar  1 <1>  -0.1500 
 14 C       -1.9580     8.7110     1.3800 C.3   1 <1>  -0.0170 
 15 C        3.3150     8.7250     0.8200 C.3   1 <1>   0.4690 
 16 C        3.8330     6.3330     0.9140 C.3   1 <1>   0.2090 
 17 C       -2.9950     8.0380     2.2890 C.3   1 <1>  -0.2400 
 18 C        2.5090     9.5500    -0.1970 C.2   1 <1>   0.2980 
 19 C        4.7790     8.4980     0.4330 C.3   1 <1>  -0.1600 
 20 C        5.1270     7.1310     1.0160 C.3   1 <1>  -0.1600 
 21 O        2.5990     9.2670    -1.4710 O.3   1 <1>  -0.0190 
 22 N        1.6710    10.4620     0.0940 N.2   1 <1>  -0.5650 
 23 N        1.7260    10.0410    -2.0340 N.2   1 <1>  -0.4100 
 24 C        1.1560    10.7350    -1.1110 C.2   1 <1>   0.4620 
 25 C        0.0530    11.6640    -1.3110 C.ar  1 <1>   0.3640 
 26 N       -1.0280    11.5770    -0.5150 N.ar  1 <1>  -0.6200 
 27 C        0.1390    12.6100    -2.3340 C.ar  1 <1>  -0.1500 
 28 C       -1.9930    12.4540    -0.7330 C.ar  1 <1>   0.1600 
 29 C       -0.8800    13.5090    -2.5530 C.ar  1 <1>  -0.1500 
 30 C       -1.9720    13.4230    -1.7200 C.ar  1 <1>  -0.1500 
 31 H        1.1030     2.4340    -2.8890 H     1 <1>   0.0800 
 32 H        0.8750     4.1310    -3.2470 H     1 <1>   0.0800 
 33 H       -1.3690     4.9050    -3.5300 H     1 <1>   0.0800 
 34 H       -2.6570     3.7330    -3.3710 H     1 <1>   0.0800 
 35 H        1.4760     3.8570    -0.8830 H     1 <1>   0.0800 
 36 H        0.2030     2.7050    -0.6520 H     1 <1>   0.0800 
 37 H       -2.2990     3.5530    -0.9720 H     1 <1>   0.0800 
 38 H       -2.5280     5.2290    -1.3840 H     1 <1>   0.0800 
 39 H       -2.0540     6.4600    -0.0560 H     1 <1>   0.4570 
 40 H        0.7590     8.7720     1.9550 H     1 <1>   0.1500 
 41 H       -1.5400     9.5600     1.8960 H     1 <1>   0.0800 
 42 H       -2.4380     9.0910     0.4940 H     1 <1>   0.0800 
 43 H        3.2840     9.2280     1.7710 H     1 <1>   0.0800 
 44 H        3.7500     5.6040     1.7020 H     1 <1>   0.0800 
 45 H        3.7740     5.8390    -0.0420 H     1 <1>   0.0800 
 46 H       -2.5230     7.6600     3.1810 H     1 <1>   0.0800 
 47 H       -3.4940     7.2280     1.7890 H     1 <1>   0.0800 
 48 H       -3.7380     8.7580     2.5860 H     1 <1>   0.0800 
 49 H        4.8790     8.4620    -0.6370 H     1 <1>   0.0800 
 50 H        5.4120     9.2790     0.8130 H     1 <1>   0.0800 
 51 H        5.3970     7.2280     2.0530 H     1 <1>   0.0800 
 52 H        5.9330     6.6510     0.4880 H     1 <1>   0.0800 
 53 H        1.0170    12.6330    -2.9550 H     1 <1>   0.1500 
 54 H       -2.8550    12.4030    -0.0890 H     1 <1>   0.1500 
 55 H       -0.8260    14.2470    -3.3370 H     1 <1>   0.1500 
 56 H       -2.8010    14.1000    -1.8330 H     1 <1>   0.1500 
@<TRIPOS>BOND
  1   1   2  1   
  2   1   3  1   
  3   2   4  1   
  4   2  31  1   
  5   2  32  1   
  6   3   5  1   
  7   3  33  1   
  8   3  34  1   
  9   4   6  1   
 10   4  35  1   
 11   4  36  1   
 12   5   6  1   
 13   5  37  1   
 14   5  38  1   
 15   6   7  1   
 16   7   8  ar  
 17   7   9  ar  
 18   8  10  ar  
 19   9  11  ar  
 20   9  39  1   
 21  10  12  1   
 22  10  13  ar  
 23  11  13  ar  
 24  11  14  1   
 25  12  15  1   
 26  12  16  1   
 27  13  40  1   
 28  14  17  1   
 29  14  41  1   
 30  14  42  1   
 31  15  18  1   
 32  15  19  1   
 33  15  43  1   
 34  16  20  1   
 35  16  44  1   
 36  16  45  1   
 37  17  46  1   
 38  17  47  1   
 39  17  48  1   
 40  18  21  1   
 41  18  22  2   
 42  19  20  1   
 43  19  49  1   
 44  19  50  1   
 45  20  51  1   
 46  20  52  1   
 47  21  23  1   
 48  22  24  1   
 49  23  24  2   
 50  24  25  1   
 51  25  26  ar  
 52  25  27  ar  
 53  26  28  ar  
 54  27  29  ar  
 55  27  53  1   
 56  28  30  ar  
 57  28  54  1   
 58  29  30  ar  
 59  29  55  1   
 60  30  56  1   
@<TRIPOS>SUBSTRUCTURE
  1 ****  13 GROUP 4 **** **** 0

# MOE 2024.06 (io_trps.svl 2023.06)
