@<TRIPOS>MOLECULE
NONAME
49 51 1 0 0 
SMALL
USER_CHARGES


@<TRIPOS>ATOM
  1 O        3.5720    -1.4800    -2.1310 O.2   1 <1>  -0.5700 
  2 C        2.9480    -1.4230    -1.0870 C.2   1 <1>   0.5440 
  3 N        3.0540    -0.2560    -0.3690 N.am  1 <1>  -0.6600 
  4 C        2.2560    -2.5870    -0.5630 C.ar  1 <1>   0.0860 
  5 C        3.7850    -0.3500     0.9450 C.3   1 <1>   0.2200 
  6 C        3.0650     1.0560    -1.0970 C.3   1 <1>   0.1400 
  7 C        0.9580    -2.5480    -0.0290 C.ar  1 <1>  -0.1440 
  8 C        2.9150    -3.8180    -0.5710 C.ar  1 <1>  -0.1500 
  9 C        3.4490     0.8070     1.8990 C.3   1 <1>   0.1200 
 10 C        5.3150    -0.4740     0.7140 C.3   1 <1>   0.3430 
 11 C        4.2280     2.0020    -0.7380 C.3   1 <1>  -0.0800 
 12 C        0.3800    -3.6930     0.4980 C.ar  1 <1>  -0.1500 
 13 C        0.1380    -1.2630    -0.0240 C.3   1 <1>  -0.0970 
 14 C        2.3350    -4.9560    -0.0480 C.ar  1 <1>  -0.1500 
 15 O        4.2880     1.9010     1.6870 O.3   1 <1>  -0.5600 
 16 N        5.7200    -0.0680    -0.6780 N.4   1 <1>  -0.9590 
 17 C        3.9950     2.7160     0.6030 C.3   1 <1>   0.1200 
 18 C        5.6500     1.4130    -0.8540 C.3   1 <1>   0.3430 
 19 C        1.0650    -4.9040     0.4970 C.ar  1 <1>   0.0830 
 20 C        7.1440    -0.5340    -0.9330 C.3   1 <1>   0.2370 
 21 O        0.5660    -6.0560     0.9960 O.3   1 <1>  -0.3620 
 22 C        8.1760     0.0160     0.0560 C.2   1 <1>   0.9060 
 23 C       -0.7410    -6.1400     1.5190 C.3   1 <1>   0.0400 
 24 O        8.3400    -0.5980     1.1150 O.co2 1 <1>  -0.9000 
 25 O        8.6920     1.1080    -0.1940 O.co2 1 <1>  -0.9000 
 26 H        3.4610    -1.2480     1.4420 H     1 <1>   0.0800 
 27 H        3.0930     0.8740    -2.1590 H     1 <1>   0.0800 
 28 H        2.1320     1.5550    -0.8990 H     1 <1>   0.0800 
 29 H        3.9020    -3.8810    -0.9970 H     1 <1>   0.1500 
 30 H        3.6280     0.4860     2.9110 H     1 <1>   0.0800 
 31 H        2.4200     1.1090     1.8170 H     1 <1>   0.0800 
 32 H        5.6010    -1.4990     0.8760 H     1 <1>   0.0800 
 33 H        5.8490     0.1170     1.4410 H     1 <1>   0.0800 
 34 H        4.1870     2.7930    -1.4650 H     1 <1>   0.0800 
 35 H       -0.6110    -3.6380     0.9060 H     1 <1>   0.1500 
 36 H       -0.9030    -1.4690     0.1490 H     1 <1>   0.0800 
 37 H        0.2200    -0.7630    -0.9730 H     1 <1>   0.0800 
 38 H        0.4870    -0.6040     0.7500 H     1 <1>   0.0800 
 39 H        2.8590    -5.8950    -0.0590 H     1 <1>   0.1500 
 40 H        5.0560    -0.5180    -1.3400 H     1 <1>   0.4500 
 41 H        2.9810     3.0680     0.6970 H     1 <1>   0.0800 
 42 H        4.6520     3.5670     0.6760 H     1 <1>   0.0800 
 43 H        6.2970     1.8900    -0.1320 H     1 <1>   0.0800 
 44 H        6.0380     1.6530    -1.8300 H     1 <1>   0.0800 
 45 H        7.1900    -1.6050    -0.8750 H     1 <1>   0.0800 
 46 H        7.4540    -0.2350    -1.9170 H     1 <1>   0.0800 
 47 H       -0.9100    -7.1540     1.8340 H     1 <1>   0.0800 
 48 H       -1.4440    -5.8750     0.7490 H     1 <1>   0.0800 
 49 H       -0.8230    -5.4780     2.3630 H     1 <1>   0.0800 
@<TRIPOS>BOND
  1   1   2  2   
  2   2   3  am  
  3   2   4  1   
  4   3   5  1   
  5   3   6  1   
  6   4   7  ar  
  7   4   8  ar  
  8   5   9  1   
  9   5  10  1   
 10   5  26  1   
 11   6  11  1   
 12   6  27  1   
 13   6  28  1   
 14   7  12  ar  
 15   7  13  1   
 16   8  14  ar  
 17   8  29  1   
 18   9  15  1   
 19   9  30  1   
 20   9  31  1   
 21  10  16  1   
 22  10  32  1   
 23  10  33  1   
 24  11  17  1   
 25  11  18  1   
 26  11  34  1   
 27  12  19  ar  
 28  12  35  1   
 29  13  36  1   
 30  13  37  1   
 31  13  38  1   
 32  14  19  ar  
 33  14  39  1   
 34  15  17  1   
 35  16  18  1   
 36  16  20  1   
 37  16  40  1   
 38  17  41  1   
 39  17  42  1   
 40  18  43  1   
 41  18  44  1   
 42  19  21  1   
 43  20  22  1   
 44  20  45  1   
 45  20  46  1   
 46  21  23  1   
 47  22  24  ar  
 48  22  25  ar  
 49  23  47  1   
 50  23  48  1   
 51  23  49  1   
@<TRIPOS>SUBSTRUCTURE
  1 ****   3 GROUP 4 **** **** 0

# MOE 2024.06 (io_trps.svl 2023.06)
