@<TRIPOS>MOLECULE
NONAME
52 56 1 0 0 
SMALL
USER_CHARGES


@<TRIPOS>ATOM
  1 O       -2.6760     0.2550     0.3470 O.2   1 <1>  -0.5700 
  2 C       -2.7890     1.0770    -0.5480 C.2   1 <1>   0.5440 
  3 N       -3.7410     0.7980    -1.4990 N.am  1 <1>  -0.6600 
  4 C       -2.0110     2.3050    -0.5710 C.ar  1 <1>   0.0860 
  5 C       -5.1400     1.2280    -1.1910 C.3   1 <1>   0.1400 
  6 C       -3.6870    -0.5450    -2.1640 C.3   1 <1>   0.1400 
  7 C       -1.1900     2.6580     0.5040 C.ar  1 <1>  -0.1500 
  8 C       -2.0500     3.1820    -1.6590 C.ar  1 <1>  -0.1500 
  9 C       -5.8430     0.2200    -0.2380 C.3   1 <1>   0.4230 
 10 C       -4.6410    -1.5690    -1.5000 C.3   1 <1>   0.3430 
 11 C       -0.4500     3.8270     0.5080 C.ar  1 <1>  -0.1440 
 12 C       -1.3160     4.3520    -1.6680 C.ar  1 <1>  -0.1500 
 13 N       -5.0910    -1.0890    -0.1500 N.4   1 <1>  -0.9590 
 14 C       -7.3160    -0.0140    -0.6460 C.3   1 <1>   0.1200 
 15 C       -0.5130     4.6800    -0.5900 C.ar  1 <1>   0.0830 
 16 C        0.4240     4.1760     1.7020 C.3   1 <1>  -0.0160 
 17 C       -5.8270    -2.0720     0.6980 C.3   1 <1>   0.5180 
 18 O       -7.9240    -0.9520     0.1990 O.3   1 <1>  -0.5600 
 19 O        0.1820     5.8370    -0.6430 O.3   1 <1>  -0.3630 
 20 C        0.7580     5.6700     1.6980 C.3   1 <1>  -0.1600 
 21 C       -5.0910    -3.4170     0.7010 C.3   1 <1>  -0.1950 
 22 C       -7.3000    -2.2080     0.2500 C.3   1 <1>   0.1200 
 23 C        1.2060     6.0970     0.2970 C.3   1 <1>   0.1200 
 24 C       -4.9560    -4.1950     1.9740 C.3   1 <1>  -0.2000 
 25 C       -3.7460    -3.5680     1.3440 C.3   1 <1>  -0.2000 
 26 H       -5.1310     2.2020    -0.7330 H     1 <1>   0.0800 
 27 H       -5.6870     1.3150    -2.1150 H     1 <1>   0.0800 
 28 H       -3.9290    -0.4440    -3.2080 H     1 <1>   0.0800 
 29 H       -2.6800    -0.9250    -2.1070 H     1 <1>   0.0800 
 30 H       -1.1350     1.9990     1.3530 H     1 <1>   0.1500 
 31 H       -2.6600     2.9490    -2.5130 H     1 <1>   0.1500 
 32 H       -5.8560     0.6670     0.7420 H     1 <1>   0.0800 
 33 H       -4.1220    -2.5090    -1.4110 H     1 <1>   0.0800 
 34 H       -5.4960    -1.7250    -2.1360 H     1 <1>   0.0800 
 35 H       -1.3540     5.0220    -2.5090 H     1 <1>   0.1500 
 36 H       -4.2020    -0.8460     0.3360 H     1 <1>   0.4500 
 37 H       -7.3910    -0.3680    -1.6590 H     1 <1>   0.0800 
 38 H       -7.8740     0.9030    -0.5630 H     1 <1>   0.0800 
 39 H       -0.0760     3.9200     2.6200 H     1 <1>   0.0800 
 40 H        1.3330     3.6040     1.6410 H     1 <1>   0.0800 
 41 H       -5.8340    -1.7030     1.7100 H     1 <1>   0.0800 
 42 H        1.5370     5.8730     2.4100 H     1 <1>   0.0800 
 43 H       -0.1100     6.2420     1.9760 H     1 <1>   0.0800 
 44 H       -5.2960    -4.0070    -0.1770 H     1 <1>   0.1000 
 45 H       -7.8410    -2.8130     0.9560 H     1 <1>   0.0800 
 46 H       -7.3710    -2.6700    -0.7190 H     1 <1>   0.0800 
 47 H        2.0790     5.5490    -0.0100 H     1 <1>   0.0800 
 48 H        1.4190     7.1510     0.2660 H     1 <1>   0.0800 
 49 H       -5.3080    -3.7840     2.9050 H     1 <1>   0.1000 
 50 H       -5.0430    -5.2690     1.9460 H     1 <1>   0.1000 
 51 H       -3.0140    -4.2180     0.8950 H     1 <1>   0.1000 
 52 H       -3.2890    -2.7320     1.8500 H     1 <1>   0.1000 
@<TRIPOS>BOND
  1   1   2  2   
  2   2   3  am  
  3   2   4  1   
  4   3   5  1   
  5   3   6  1   
  6   4   7  ar  
  7   4   8  ar  
  8   5   9  1   
  9   5  26  1   
 10   5  27  1   
 11   6  10  1   
 12   6  28  1   
 13   6  29  1   
 14   7  11  ar  
 15   7  30  1   
 16   8  12  ar  
 17   8  31  1   
 18   9  13  1   
 19   9  14  1   
 20   9  32  1   
 21  10  13  1   
 22  10  33  1   
 23  10  34  1   
 24  11  15  ar  
 25  11  16  1   
 26  12  15  ar  
 27  12  35  1   
 28  13  17  1   
 29  13  36  1   
 30  14  18  1   
 31  14  37  1   
 32  14  38  1   
 33  15  19  1   
 34  16  20  1   
 35  16  39  1   
 36  16  40  1   
 37  17  21  1   
 38  17  22  1   
 39  17  41  1   
 40  18  22  1   
 41  19  23  1   
 42  20  23  1   
 43  20  42  1   
 44  20  43  1   
 45  21  24  1   
 46  21  25  1   
 47  21  44  1   
 48  22  45  1   
 49  22  46  1   
 50  23  47  1   
 51  23  48  1   
 52  24  25  1   
 53  24  49  1   
 54  24  50  1   
 55  25  51  1   
 56  25  52  1   
@<TRIPOS>SUBSTRUCTURE
  1 ****   2 GROUP 4 **** **** 0

# MOE 2024.06 (io_trps.svl 2023.06)
