@<TRIPOS>MOLECULE
NONAME
56 60 1 0 0 
SMALL
USER_CHARGES


@<TRIPOS>ATOM
  1 CL      -2.5000     2.2890    -1.8610 Cl    1 <1>  -0.1770 
  2 C       -3.2060     2.4500    -0.2680 C.ar  1 <1>   0.1770 
  3 C       -4.0640     1.4640     0.2450 C.ar  1 <1>  -0.1520 
  4 C       -2.9010     3.5680     0.4690 C.ar  1 <1>  -0.1500 
  5 N       -4.5340     0.2670    -0.2520 N.pl3 1 <1>   0.0480 
  6 C       -4.5960     1.6420     1.5190 C.ar  1 <1>   0.0000 
  7 C       -3.4460     3.7380     1.7470 C.ar  1 <1>  -0.1500 
  8 C       -5.3630    -0.3050     0.6940 C.2   1 <1>  -0.2370 
  9 C       -4.1960    -0.3070    -1.5750 C.3   1 <1>   0.0160 
 10 C       -4.2870     2.7840     2.2700 C.ar  1 <1>  -0.1500 
 11 C       -5.3970     0.5220     1.7780 C.2   1 <1>  -0.1500 
 12 C       -6.0410    -1.5650     0.5120 C.2   1 <1>   0.7150 
 13 O       -5.3960    -2.5480     0.2010 O.2   1 <1>  -0.5700 
 14 N       -7.4090    -1.6700     0.6480 N.am  1 <1>  -0.6600 
 15 C       -8.3290    -0.4930     0.7550 C.3   1 <1>   0.1400 
 16 C       -8.1220    -2.9680     0.4860 C.3   1 <1>   0.1400 
 17 C       -9.2270    -0.3840    -0.4920 C.3   1 <1>   0.1440 
 18 C       -9.0180    -2.9130    -0.7580 C.3   1 <1>  -0.1600 
 19 C      -10.1600     0.7960    -0.2960 C.ar  1 <1>   0.1670 
 20 C       -9.9820    -1.7130    -0.7150 C.3   1 <1>  -0.1600 
 21 C       -8.4130     0.0470    -1.7420 C.3   1 <1>  -0.1600 
 22 N      -11.2030     0.8150     0.4960 N.ar  1 <1>  -0.6200 
 23 C       -9.7700     1.8700    -1.0360 C.ar  1 <1>  -0.1440 
 24 C       -8.5270     1.5780    -1.8400 C.3   1 <1>  -0.0170 
 25 C      -11.8780     1.9670     0.5220 C.ar  1 <1>   0.7200 
 26 C      -10.5220     3.0130    -0.9450 C.ar  1 <1>   0.1600 
 27 N      -11.5780     3.0720    -0.1690 N.ar  1 <1>  -0.6200 
 28 N      -12.9870     2.0220     1.3430 N.pl3 1 <1>  -0.8380 
 29 C      -13.6520     3.3090     1.6880 C.3   1 <1>   0.1290 
 30 C      -13.6290     0.7950     1.8920 C.3   1 <1>   0.1290 
 31 H       -2.2420     4.3160     0.0660 H     1 <1>   0.1500 
 32 H       -3.1990     4.6190     2.3130 H     1 <1>   0.1500 
 33 H       -4.4100     0.4140    -2.3410 H     1 <1>   0.0800 
 34 H       -4.7700    -1.1930    -1.7660 H     1 <1>   0.0800 
 35 H       -3.1510    -0.5550    -1.5930 H     1 <1>   0.0800 
 36 H       -4.7160     2.8940     3.2500 H     1 <1>   0.1500 
 37 H       -5.9370     0.3680     2.6960 H     1 <1>   0.1500 
 38 H       -7.7860     0.4250     0.8730 H     1 <1>   0.0800 
 39 H       -8.9500    -0.6170     1.6260 H     1 <1>   0.0800 
 40 H       -8.7230    -3.1450     1.3620 H     1 <1>   0.0800 
 41 H       -7.4240    -3.7830     0.3970 H     1 <1>   0.0800 
 42 H       -9.5850    -3.8250    -0.8230 H     1 <1>   0.0800 
 43 H       -8.3940    -2.8570    -1.6320 H     1 <1>   0.0800 
 44 H      -10.5590    -1.6640    -1.6210 H     1 <1>   0.0800 
 45 H      -10.6740    -1.8570     0.0970 H     1 <1>   0.0800 
 46 H       -8.8650    -0.3760    -2.6220 H     1 <1>   0.0800 
 47 H       -7.3880    -0.2740    -1.7050 H     1 <1>   0.0800 
 48 H       -8.6230     1.9060    -2.8600 H     1 <1>   0.0800 
 49 H       -7.6780     2.0520    -1.3780 H     1 <1>   0.0800 
 50 H      -10.2550     3.8880    -1.5110 H     1 <1>   0.1500 
 51 H      -12.9360     4.1130     1.6920 H     1 <1>   0.0800 
 52 H      -14.0950     3.2470     2.6660 H     1 <1>   0.0800 
 53 H      -14.4150     3.5240     0.9610 H     1 <1>   0.0800 
 54 H      -13.4450    -0.0480     1.2490 H     1 <1>   0.0800 
 55 H      -14.6920     0.9360     1.9680 H     1 <1>   0.0800 
 56 H      -13.2260     0.5850     2.8670 H     1 <1>   0.0800 
@<TRIPOS>BOND
  1   1   2  1   
  2   2   3  ar  
  3   2   4  ar  
  4   3   5  1   
  5   3   6  ar  
  6   4   7  ar  
  7   4  31  1   
  8   5   8  1   
  9   5   9  1   
 10   6  10  ar  
 11   6  11  1   
 12   7  10  ar  
 13   7  32  1   
 14   8  11  2   
 15   8  12  1   
 16   9  33  1   
 17   9  34  1   
 18   9  35  1   
 19  10  36  1   
 20  11  37  1   
 21  12  13  2   
 22  12  14  am  
 23  14  15  1   
 24  14  16  1   
 25  15  17  1   
 26  15  38  1   
 27  15  39  1   
 28  16  18  1   
 29  16  40  1   
 30  16  41  1   
 31  17  19  1   
 32  17  20  1   
 33  17  21  1   
 34  18  20  1   
 35  18  42  1   
 36  18  43  1   
 37  19  22  ar  
 38  19  23  ar  
 39  20  44  1   
 40  20  45  1   
 41  21  24  1   
 42  21  46  1   
 43  21  47  1   
 44  22  25  ar  
 45  23  24  1   
 46  23  26  ar  
 47  24  48  1   
 48  24  49  1   
 49  25  27  ar  
 50  25  28  1   
 51  26  27  ar  
 52  26  50  1   
 53  28  29  1   
 54  28  30  1   
 55  29  51  1   
 56  29  52  1   
 57  29  53  1   
 58  30  54  1   
 59  30  55  1   
 60  30  56  1   
@<TRIPOS>SUBSTRUCTURE
  1 ****  15 GROUP 4 **** **** 0

# MOE 2024.06 (io_trps.svl 2023.06)
