@<TRIPOS>MOLECULE
NONAME
57 60 1 0 0 
SMALL
USER_CHARGES


@<TRIPOS>ATOM
  1 O        1.9130     1.7750    -1.2730 O.3   1 <1>  -0.0190 
  2 N        2.7980     0.8330    -1.1480 N.2   1 <1>  -0.4100 
  3 C        1.2300     1.9490    -0.1740 C.2   1 <1>  -0.0400 
  4 C        2.6690     0.3740     0.0450 C.2   1 <1>   0.1080 
  5 C        1.6690     1.0600     0.7300 C.2   1 <1>  -0.1500 
  6 C        0.1750     3.0360    -0.1070 C.3   1 <1>   0.0200 
  7 C        3.4950    -0.7580     0.6160 C.3   1 <1>  -0.0590 
  8 C        0.7360     4.3570    -0.6700 C.3   1 <1>  -0.0800 
  9 C       -0.1300     5.6030    -0.4910 C.3   1 <1>   0.2000 
 10 C        2.0920     4.7430    -0.0670 C.3   1 <1>   0.3430 
 11 O       -0.5960     5.6690     0.8200 O.3   1 <1>  -0.6800 
 12 C        0.8900     6.7260    -0.6980 C.3   1 <1>   0.3430 
 13 N        2.1590     6.2390    -0.0620 N.4   1 <1>  -0.9590 
 14 C        2.2880     6.7550     1.3270 C.3   1 <1>   0.5240 
 15 C        2.4710     8.2540     1.2530 C.2   1 <1>  -0.1810 
 16 C        1.5190     9.1950     1.6270 C.2   1 <1>   0.1390 
 17 C        3.5220     8.9880     0.8250 C.2   1 <1>  -0.3020 
 18 N        1.9320    10.4030     1.4310 N.2   1 <1>  -0.7070 
 19 N        3.1950    10.3020     0.9430 N.pl3 1 <1>   0.5930 
 20 C        4.0000    11.4210     0.5800 C.ar  1 <1>  -0.0230 
 21 C        3.4180    12.5780     0.0740 C.ar  1 <1>  -0.1500 
 22 C        5.3860    11.3870     0.7170 C.ar  1 <1>  -0.1500 
 23 C        4.1940    13.6620    -0.2960 C.ar  1 <1>  -0.1500 
 24 C        6.1610    12.4720     0.3460 C.ar  1 <1>  -0.1500 
 25 C        5.5740    13.6200    -0.1660 C.ar  1 <1>  -0.1440 
 26 C        6.4150    14.8260    -0.5790 C.3   1 <1>   0.0630 
 27 C        7.3820    14.4600    -1.7100 C.3   1 <1>  -0.2400 
 28 C        7.1740    15.4000     0.6210 C.3   1 <1>  -0.2400 
 29 H        1.3590     0.8840     1.7440 H     1 <1>   0.1500 
 30 H       -0.6810     2.7300    -0.6840 H     1 <1>   0.0800 
 31 H       -0.1320     3.1460     0.9180 H     1 <1>   0.0800 
 32 H        4.0020    -0.4320     1.5050 H     1 <1>   0.0800 
 33 H        4.2260    -1.0790    -0.1040 H     1 <1>   0.0800 
 34 H        2.8580    -1.5900     0.8550 H     1 <1>   0.0800 
 35 H        0.8940     4.2190    -1.7270 H     1 <1>   0.0800 
 36 H       -0.9640     5.6670    -1.1710 H     1 <1>   0.0800 
 37 H        2.8960     4.3140    -0.6470 H     1 <1>   0.0800 
 38 H        2.1550     4.3660     0.9410 H     1 <1>   0.0800 
 39 H       -1.4630     5.2170     0.9110 H     1 <1>   0.4000 
 40 H        0.5420     7.6550    -0.2750 H     1 <1>   0.0800 
 41 H        1.0500     6.8620    -1.7550 H     1 <1>   0.0800 
 42 H        2.9680     6.5840    -0.5930 H     1 <1>   0.4500 
 43 H        1.4070     6.5160     1.9010 H     1 <1>   0.0800 
 44 H        3.1450     6.3150     1.8090 H     1 <1>   0.0800 
 45 H        0.5440     8.9680     2.0290 H     1 <1>   0.1500 
 46 H        4.4780     8.6810     0.4430 H     1 <1>   0.1500 
 47 H        2.3470    12.6350    -0.0280 H     1 <1>   0.1500 
 48 H        5.8720    10.5170     1.1200 H     1 <1>   0.1500 
 49 H        3.7130    14.5420    -0.6850 H     1 <1>   0.1500 
 50 H        7.2290    12.4200     0.4610 H     1 <1>   0.1500 
 51 H        5.7570    15.5950    -0.9480 H     1 <1>   0.0800 
 52 H        8.0970    13.7290    -1.3810 H     1 <1>   0.0800 
 53 H        7.9110    15.3330    -2.0450 H     1 <1>   0.0800 
 54 H        6.8330    14.0530    -2.5410 H     1 <1>   0.0800 
 55 H        7.8850    14.6890     1.0010 H     1 <1>   0.0800 
 56 H        6.4810    15.6440     1.4070 H     1 <1>   0.0800 
 57 H        7.6990    16.2940     0.3380 H     1 <1>   0.0800 
@<TRIPOS>BOND
  1   1   2  1   
  2   1   3  1   
  3   2   4  2   
  4   3   5  2   
  5   3   6  1   
  6   4   5  1   
  7   4   7  1   
  8   5  29  1   
  9   6   8  1   
 10   6  30  1   
 11   6  31  1   
 12   7  32  1   
 13   7  33  1   
 14   7  34  1   
 15   8   9  1   
 16   8  10  1   
 17   8  35  1   
 18   9  11  1   
 19   9  12  1   
 20   9  36  1   
 21  10  13  1   
 22  10  37  1   
 23  10  38  1   
 24  11  39  1   
 25  12  13  1   
 26  12  40  1   
 27  12  41  1   
 28  13  14  1   
 29  13  42  1   
 30  14  15  1   
 31  14  43  1   
 32  14  44  1   
 33  15  16  1   
 34  15  17  2   
 35  16  18  2   
 36  16  45  1   
 37  17  19  1   
 38  17  46  1   
 39  18  19  1   
 40  19  20  1   
 41  20  21  ar  
 42  20  22  ar  
 43  21  23  ar  
 44  21  47  1   
 45  22  24  ar  
 46  22  48  1   
 47  23  25  ar  
 48  23  49  1   
 49  24  25  ar  
 50  24  50  1   
 51  25  26  1   
 52  26  27  1   
 53  26  28  1   
 54  26  51  1   
 55  27  52  1   
 56  27  53  1   
 57  27  54  1   
 58  28  55  1   
 59  28  56  1   
 60  28  57  1   
@<TRIPOS>SUBSTRUCTURE
  1 ****  15 GROUP 4 **** **** 0

# MOE 2024.06 (io_trps.svl 2023.06)
