@<TRIPOS>MOLECULE
NONAME
42 44 1 0 0 
SMALL
USER_CHARGES


@<TRIPOS>ATOM
  1 O        1.2170     0.1340    -1.2140 O.3   1 <1>  -0.6800 
  2 C        1.2570    -0.0140     0.1590 C.3   1 <1>   0.2800 
  3 C        2.7230     0.1540     0.6370 C.3   1 <1>  -0.0800 
  4 C        0.7600    -1.4320     0.4870 C.3   1 <1>  -0.1600 
  5 C        0.2950     1.0340     0.7620 C.3   1 <1>  -0.1600 
  6 C        3.5860    -1.1270     0.6050 C.3   1 <1>  -0.0800 
  7 C        3.5210     1.1630    -0.1790 C.3   1 <1>   0.3430 
  8 C        1.6090    -2.5650    -0.1270 C.3   1 <1>  -0.1600 
  9 C        0.6170     2.5090     0.4650 C.3   1 <1>  -0.2400 
 10 C        3.0680    -2.1650    -0.4040 C.3   1 <1>  -0.1600 
 11 C        5.0020    -0.6730     0.2350 C.3   1 <1>   0.3430 
 12 N        4.9340     0.7970     0.0610 N.4   1 <1>  -0.9590 
 13 C        5.8600     1.3890    -0.9340 C.3   1 <1>   0.5230 
 14 C        6.1320     2.8240    -0.4990 C.2   1 <1>   0.0060 
 15 N        5.9060     3.2550     0.7050 N.2   1 <1>  -0.5650 
 16 N        6.6360     3.7720    -1.3240 N.pl3 1 <1>   0.0330 
 17 C        6.2810     4.5490     0.6630 C.2   1 <1>   0.0770 
 18 C        6.7270     4.8790    -0.5680 C.2   1 <1>  -0.3020 
 19 H        0.3100    -0.0460    -1.5290 H     1 <1>   0.4000 
 20 H        2.7050     0.4980     1.6560 H     1 <1>   0.0800 
 21 H        0.7810    -1.5470     1.5580 H     1 <1>   0.0800 
 22 H       -0.2670    -1.5510     0.1880 H     1 <1>   0.0800 
 23 H       -0.7010     0.8290     0.4090 H     1 <1>   0.0800 
 24 H        0.2700     0.9060     1.8310 H     1 <1>   0.0800 
 25 H        3.6000    -1.5810     1.5820 H     1 <1>   0.0800 
 26 H        3.3190     2.1780     0.1220 H     1 <1>   0.0800 
 27 H        3.2880     1.0480    -1.2250 H     1 <1>   0.0800 
 28 H        1.5860    -3.4110     0.5380 H     1 <1>   0.0800 
 29 H        1.1620    -2.8800    -1.0560 H     1 <1>   0.0800 
 30 H        0.7200     2.6760    -0.5930 H     1 <1>   0.0800 
 31 H        1.5160     2.8190     0.9650 H     1 <1>   0.0800 
 32 H       -0.1860     3.1300     0.8230 H     1 <1>   0.0800 
 33 H        3.1230    -1.7500    -1.3970 H     1 <1>   0.0800 
 34 H        3.6850    -3.0480    -0.3890 H     1 <1>   0.0800 
 35 H        5.3000    -1.1440    -0.6880 H     1 <1>   0.0800 
 36 H        5.7070    -0.9340     1.0090 H     1 <1>   0.0800 
 37 H        5.2010     1.2810     0.9390 H     1 <1>   0.4500 
 38 H        6.7900     0.8450    -0.9430 H     1 <1>   0.0800 
 39 H        5.4230     1.3610    -1.9180 H     1 <1>   0.0800 
 40 H        6.9020     3.6930    -2.3130 H     1 <1>   0.2700 
 41 H        6.2100     5.1860     1.5310 H     1 <1>   0.1500 
 42 H        7.0970     5.8220    -0.9310 H     1 <1>   0.1500 
@<TRIPOS>BOND
  1   1   2  1   
  2   1  19  1   
  3   2   3  1   
  4   2   4  1   
  5   2   5  1   
  6   3   6  1   
  7   3   7  1   
  8   3  20  1   
  9   4   8  1   
 10   4  21  1   
 11   4  22  1   
 12   5   9  1   
 13   5  23  1   
 14   5  24  1   
 15   6  10  1   
 16   6  11  1   
 17   6  25  1   
 18   7  12  1   
 19   7  26  1   
 20   7  27  1   
 21   8  10  1   
 22   8  28  1   
 23   8  29  1   
 24   9  30  1   
 25   9  31  1   
 26   9  32  1   
 27  10  33  1   
 28  10  34  1   
 29  11  12  1   
 30  11  35  1   
 31  11  36  1   
 32  12  13  1   
 33  12  37  1   
 34  13  14  1   
 35  13  38  1   
 36  13  39  1   
 37  14  15  2   
 38  14  16  1   
 39  15  17  1   
 40  16  18  1   
 41  16  40  1   
 42  17  18  2   
 43  17  41  1   
 44  18  42  1   
@<TRIPOS>SUBSTRUCTURE
  1 ****   7 GROUP 4 **** **** 0

# MOE 2024.06 (io_trps.svl 2023.06)
