@<TRIPOS>MOLECULE
NONAME
54 56 1 0 0 
SMALL
USER_CHARGES


@<TRIPOS>ATOM
  1 O        0.0430    -0.3990     0.9200 O.2   1 <1>  -0.5700 
  2 C        0.9070    -0.7840     0.1570 C.2   1 <1>   0.5440 
  3 N        0.5320    -1.6060    -0.8650 N.am  1 <1>  -0.7300 
  4 C        2.2930    -0.3780     0.3220 C.ar  1 <1>   0.0860 
  5 C       -0.8180    -2.2180    -1.0290 C.3   1 <1>   0.2010 
  6 C        2.6160     0.8150     0.9700 C.ar  1 <1>  -0.1500 
  7 C        3.3540    -1.1540    -0.1520 C.ar  1 <1>  -0.1500 
  8 C       -0.7520    -3.6570    -1.5620 C.2   1 <1>   0.5690 
  9 C        3.9290     1.2220     1.1290 C.ar  1 <1>  -0.1500 
 10 C        4.6690    -0.7530     0.0030 C.ar  1 <1>  -0.1500 
 11 O        0.2180    -3.9580    -2.2220 O.2   1 <1>  -0.5700 
 12 N       -1.7500    -4.5660    -1.2930 N.am  1 <1>  -0.6600 
 13 C        4.9590     0.4380     0.6430 C.ar  1 <1>  -0.1500 
 14 C       -1.5940    -6.0190    -1.6380 C.3   1 <1>   0.1400 
 15 C       -3.0740    -4.2210    -0.7070 C.3   1 <1>   0.1400 
 16 C       -1.7910    -6.9260    -0.3950 C.3   1 <1>   0.0000 
 17 C       -3.2940    -5.0460     0.5600 C.3   1 <1>  -0.1600 
 18 C       -3.1560    -6.5360     0.2350 C.3   1 <1>   0.2000 
 19 C       -1.9150    -8.4020    -0.8510 C.3   1 <1>   0.1200 
 20 C       -0.6170    -6.7340     0.6200 C.3   1 <1>  -0.0170 
 21 O       -3.4060    -7.2510     1.3940 O.3   1 <1>  -0.6800 
 22 O       -0.9090    -8.7520    -1.7410 O.3   1 <1>  -0.6800 
 23 C        0.7050    -7.3860     0.2270 C.ar  1 <1>  -0.1430 
 24 C        1.6100    -6.7220    -0.5870 C.ar  1 <1>  -0.1500 
 25 C        1.0170    -8.6590     0.6830 C.ar  1 <1>  -0.1500 
 26 C        2.7990    -7.3260    -0.9560 C.ar  1 <1>  -0.1500 
 27 C        2.2060    -9.2650     0.3160 C.ar  1 <1>  -0.1500 
 28 C        3.0970    -8.6000    -0.5060 C.ar  1 <1>  -0.1500 
 29 H        1.2270    -1.9830    -1.5170 H     1 <1>   0.3700 
 30 H       -1.3130    -2.2130    -0.0760 H     1 <1>   0.0800 
 31 H       -1.3890    -1.6220    -1.7170 H     1 <1>   0.0800 
 32 H        1.8190     1.4290     1.3540 H     1 <1>   0.1500 
 33 H        3.1530    -2.0900    -0.6430 H     1 <1>   0.1500 
 34 H        4.1480     2.1490     1.6320 H     1 <1>   0.1500 
 35 H        5.4690    -1.3680    -0.3720 H     1 <1>   0.1500 
 36 H        5.9810     0.7530     0.7650 H     1 <1>   0.1500 
 37 H       -2.3250    -6.2730    -2.3860 H     1 <1>   0.0800 
 38 H       -0.6270    -6.2020    -2.0740 H     1 <1>   0.0800 
 39 H       -3.1510    -3.1740    -0.4780 H     1 <1>   0.0800 
 40 H       -3.8410    -4.4530    -1.4270 H     1 <1>   0.0800 
 41 H       -4.2840    -4.8520     0.9310 H     1 <1>   0.0800 
 42 H       -2.5830    -4.7430     1.3070 H     1 <1>   0.0800 
 43 H       -3.9400    -6.7990    -0.4560 H     1 <1>   0.0800 
 44 H       -2.8490    -8.5650    -1.3600 H     1 <1>   0.0800 
 45 H       -1.8680    -9.0690    -0.0070 H     1 <1>   0.0800 
 46 H       -0.4410    -5.6860     0.7830 H     1 <1>   0.0800 
 47 H       -0.8940    -7.1460     1.5730 H     1 <1>   0.0800 
 48 H       -2.8570    -6.9160     2.1280 H     1 <1>   0.4000 
 49 H       -0.0280    -8.5920    -1.3270 H     1 <1>   0.4000 
 50 H        1.3980    -5.7300    -0.9410 H     1 <1>   0.1500 
 51 H        0.3340    -9.1900     1.3230 H     1 <1>   0.1500 
 52 H        3.4900    -6.8030    -1.5930 H     1 <1>   0.1500 
 53 H        2.4370   -10.2550     0.6700 H     1 <1>   0.1500 
 54 H        4.0210    -9.0710    -0.7940 H     1 <1>   0.1500 
@<TRIPOS>BOND
  1   1   2  2   
  2   2   3  am  
  3   2   4  1   
  4   3   5  1   
  5   3  29  1   
  6   4   6  ar  
  7   4   7  ar  
  8   5   8  1   
  9   5  30  1   
 10   5  31  1   
 11   6   9  ar  
 12   6  32  1   
 13   7  10  ar  
 14   7  33  1   
 15   8  11  2   
 16   8  12  am  
 17   9  13  ar  
 18   9  34  1   
 19  10  13  ar  
 20  10  35  1   
 21  12  14  1   
 22  12  15  1   
 23  13  36  1   
 24  14  16  1   
 25  14  37  1   
 26  14  38  1   
 27  15  17  1   
 28  15  39  1   
 29  15  40  1   
 30  16  18  1   
 31  16  19  1   
 32  16  20  1   
 33  17  18  1   
 34  17  41  1   
 35  17  42  1   
 36  18  21  1   
 37  18  43  1   
 38  19  22  1   
 39  19  44  1   
 40  19  45  1   
 41  20  23  1   
 42  20  46  1   
 43  20  47  1   
 44  21  48  1   
 45  22  49  1   
 46  23  24  ar  
 47  23  25  ar  
 48  24  26  ar  
 49  24  50  1   
 50  25  27  ar  
 51  25  51  1   
 52  26  28  ar  
 53  26  52  1   
 54  27  28  ar  
 55  27  53  1   
 56  28  54  1   
@<TRIPOS>SUBSTRUCTURE
  1 ****   8 GROUP 4 **** **** 0

# MOE 2024.06 (io_trps.svl 2023.06)
