@<TRIPOS>MOLECULE
NONAME
42 44 1 0 0 
SMALL
USER_CHARGES


@<TRIPOS>ATOM
  1 O       -1.1910     0.1100     2.7050 O.2   1 <1>  -0.5700 
  2 C       -1.4660     0.7560     1.7220 C.2   1 <1>   0.5690 
  3 N       -2.0310     0.1680     0.6230 N.am  1 <1>  -0.6600 
  4 C       -1.1680     2.2500     1.7500 C.3   1 <1>   0.0440 
  5 C       -2.4120     0.8250    -0.6550 C.3   1 <1>   0.1400 
  6 C       -2.2780    -1.2940     0.5350 C.3   1 <1>   0.1400 
  7 C       -0.2640     2.7170     0.6120 C.ar  1 <1>  -0.1440 
  8 C       -3.3760    -0.1620    -1.3090 C.3   1 <1>   0.2000 
  9 C       -2.8300    -1.5260    -0.8770 C.3   1 <1>  -0.0800 
 10 C        0.8400     1.9680     0.2260 C.ar  1 <1>   0.1600 
 11 C       -0.5350     3.8930    -0.0590 C.ar  1 <1>  -0.1500 
 12 O       -4.6310     0.0360    -0.7500 O.3   1 <1>  -0.6800 
 13 C       -3.8200    -2.7010    -0.9730 C.3   1 <1>   0.0210 
 14 N        1.6640     2.2870    -0.7590 N.ar  1 <1>  -0.6200 
 15 C        0.3180     4.2430    -1.0830 C.ar  1 <1>  -0.1500 
 16 C       -3.1710    -3.9890    -0.5050 C.2   1 <1>   0.1080 
 17 C        1.3860     3.4160    -1.3890 C.ar  1 <1>   0.1600 
 18 N       -2.1520    -4.5210    -1.1060 N.2   1 <1>  -0.7070 
 19 C       -3.5730    -4.7260     0.6030 C.2   1 <1>  -0.1500 
 20 N       -1.8730    -5.6250    -0.3880 N.pl3 1 <1>   0.3000 
 21 C       -2.7190    -5.7700     0.6540 C.2   1 <1>  -0.3320 
 22 C       -2.6590    -6.9150     1.6490 C.3   1 <1>  -0.0600 
 23 H       -2.1040     2.7740     1.7220 H     1 <1>   0.0800 
 24 H       -0.6920     2.4870     2.6840 H     1 <1>   0.0800 
 25 H       -2.8700     1.7870    -0.5010 H     1 <1>   0.0800 
 26 H       -1.5330     0.9360    -1.2670 H     1 <1>   0.0800 
 27 H       -1.3660    -1.8470     0.6920 H     1 <1>   0.0800 
 28 H       -2.9960    -1.5770     1.2850 H     1 <1>   0.0800 
 29 H       -3.4480    -0.0440    -2.3770 H     1 <1>   0.0800 
 30 H       -1.9890    -1.7540    -1.5090 H     1 <1>   0.0800 
 31 H        1.0590     1.0530     0.7530 H     1 <1>   0.1500 
 32 H       -1.3720     4.5190     0.2000 H     1 <1>   0.1500 
 33 H       -4.5370     0.0390     0.2230 H     1 <1>   0.4000 
 34 H       -4.1350    -2.8240    -1.9930 H     1 <1>   0.0800 
 35 H       -4.6940    -2.5120    -0.3760 H     1 <1>   0.0800 
 36 H        0.1620     5.1470    -1.6420 H     1 <1>   0.1500 
 37 H        2.0460     3.6990    -2.1910 H     1 <1>   0.1500 
 38 H       -4.3900    -4.4910     1.2620 H     1 <1>   0.1500 
 39 H       -1.1020    -6.2560    -0.6340 H     1 <1>   0.2700 
 40 H       -3.4360    -6.8060     2.3840 H     1 <1>   0.0800 
 41 H       -1.7090    -6.9200     2.1530 H     1 <1>   0.0800 
 42 H       -2.7940    -7.8540     1.1430 H     1 <1>   0.0800 
@<TRIPOS>BOND
  1   1   2  2   
  2   2   3  am  
  3   2   4  1   
  4   3   5  1   
  5   3   6  1   
  6   4   7  1   
  7   4  23  1   
  8   4  24  1   
  9   5   8  1   
 10   5  25  1   
 11   5  26  1   
 12   6   9  1   
 13   6  27  1   
 14   6  28  1   
 15   7  10  ar  
 16   7  11  ar  
 17   8   9  1   
 18   8  12  1   
 19   8  29  1   
 20   9  13  1   
 21   9  30  1   
 22  10  14  ar  
 23  10  31  1   
 24  11  15  ar  
 25  11  32  1   
 26  12  33  1   
 27  13  16  1   
 28  13  34  1   
 29  13  35  1   
 30  14  17  ar  
 31  15  17  ar  
 32  15  36  1   
 33  16  18  2   
 34  16  19  1   
 35  17  37  1   
 36  18  20  1   
 37  19  21  2   
 38  19  38  1   
 39  20  21  1   
 40  20  39  1   
 41  21  22  1   
 42  22  40  1   
 43  22  41  1   
 44  22  42  1   
@<TRIPOS>SUBSTRUCTURE
  1 ****   6 GROUP 4 **** **** 0

# MOE 2024.06 (io_trps.svl 2023.06)
