@<TRIPOS>MOLECULE
NONAME
57 60 1 0 0 
SMALL
USER_CHARGES


@<TRIPOS>ATOM
  1 O        0.2180     0.6850     0.3130 O.2   1 <1>  -0.5700 
  2 C       -0.5220     1.5580    -0.0750 C.2   1 <1>   0.5690 
  3 N       -1.8870     1.4160    -0.0290 N.am  1 <1>  -0.6600 
  4 C        0.0990     2.8400    -0.6260 C.3   1 <1>  -0.0990 
  5 C       -2.8860     2.4560    -0.4400 C.3   1 <1>   0.1400 
  6 C       -2.5150     0.1460     0.4430 C.3   1 <1>   0.1400 
  7 C        1.6400     2.8390    -0.6580 C.3   1 <1>  -0.1600 
  8 C       -3.8450     2.7910     0.7190 C.3   1 <1>   0.1440 
  9 C       -3.4780     0.4310     1.6020 C.3   1 <1>  -0.1600 
 10 C        2.1920     4.1350    -1.2510 C.3   1 <1>   0.1400 
 11 C       -4.8540     3.8110     0.2260 C.ar  1 <1>   0.1660 
 12 C       -4.5200     1.4990     1.2280 C.3   1 <1>  -0.1600 
 13 C       -3.1240     3.5570     1.8640 C.3   1 <1>  -0.1600 
 14 N        3.6670     4.0760    -1.2490 N.am  1 <1>  -0.7300 
 15 N       -5.8240     3.5690    -0.6210 N.ar  1 <1>  -0.6200 
 16 C       -4.6260     5.0440     0.7550 C.ar  1 <1>  -0.1440 
 17 C       -3.4320     5.0530     1.6760 C.3   1 <1>  -0.0170 
 18 C        4.5640     4.9940    -0.8220 C.2   1 <1>   0.5690 
 19 C       -6.6090     4.6100    -0.9290 C.ar  1 <1>   0.6200 
 20 C       -5.4680     6.0610     0.3890 C.ar  1 <1>   0.1600 
 21 O        5.7430     4.7700    -0.9070 O.2   1 <1>  -0.5700 
 22 C        4.1090     6.3080    -0.2370 C.3   1 <1>  -0.1790 
 23 N       -6.4590     5.8540    -0.4490 N.ar  1 <1>  -0.6200 
 24 C       -7.7070     4.3740    -1.8590 C.ar  1 <1>   0.0000 
 25 C       -8.8630     5.1610    -1.8460 C.ar  1 <1>  -0.1500 
 26 C       -7.6580     3.3490    -2.8090 C.ar  1 <1>  -0.1500 
 27 C       -9.9060     4.9410    -2.7260 C.ar  1 <1>  -0.1500 
 28 C       -8.6980     3.1220    -3.6920 C.ar  1 <1>  -0.1500 
 29 C       -9.8260     3.9190    -3.6530 C.ar  1 <1>  -0.1500 
 30 H       -0.2350     3.6600    -0.0190 H     1 <1>   0.0800 
 31 H       -0.2680     2.9800    -1.6260 H     1 <1>   0.0800 
 32 H       -3.4600     2.0710    -1.2660 H     1 <1>   0.0800 
 33 H       -2.4050     3.3560    -0.7720 H     1 <1>   0.0800 
 34 H       -1.7650    -0.5560     0.7660 H     1 <1>   0.0800 
 35 H       -3.0520    -0.3010    -0.3760 H     1 <1>   0.0800 
 36 H        1.9780     2.0040    -1.2480 H     1 <1>   0.0800 
 37 H        2.0140     2.7180     0.3450 H     1 <1>   0.0800 
 38 H       -2.9060     0.7490     2.4560 H     1 <1>   0.0800 
 39 H       -3.9800    -0.4810     1.8720 H     1 <1>   0.0800 
 40 H        1.8500     4.9770    -0.6740 H     1 <1>   0.0800 
 41 H        1.8490     4.2520    -2.2660 H     1 <1>   0.0800 
 42 H       -5.1520     1.1070     0.4490 H     1 <1>   0.0800 
 43 H       -5.1500     1.7160     2.0720 H     1 <1>   0.0800 
 44 H       -2.0660     3.3670     1.8860 H     1 <1>   0.0800 
 45 H       -3.5340     3.2520     2.8110 H     1 <1>   0.0800 
 46 H        4.0790     3.2160    -1.6180 H     1 <1>   0.3700 
 47 H       -2.6090     5.5550     1.1990 H     1 <1>   0.0800 
 48 H       -3.6580     5.5290     2.6150 H     1 <1>   0.0800 
 49 H       -5.3310     7.0530     0.7830 H     1 <1>   0.1500 
 50 H        3.5010     6.8330    -0.9490 H     1 <1>   0.0800 
 51 H        4.9650     6.9120     0.0000 H     1 <1>   0.0800 
 52 H        3.5500     6.1310     0.6620 H     1 <1>   0.0800 
 53 H       -8.9450     5.9620    -1.1310 H     1 <1>   0.1500 
 54 H       -6.7880     2.7170    -2.8570 H     1 <1>   0.1500 
 55 H      -10.7820     5.5660    -2.6890 H     1 <1>   0.1500 
 56 H       -8.6290     2.3240    -4.4110 H     1 <1>   0.1500 
 57 H      -10.6370     3.7450    -4.3390 H     1 <1>   0.1500 
@<TRIPOS>BOND
  1   1   2  2   
  2   2   3  am  
  3   2   4  1   
  4   3   5  1   
  5   3   6  1   
  6   4   7  1   
  7   4  30  1   
  8   4  31  1   
  9   5   8  1   
 10   5  32  1   
 11   5  33  1   
 12   6   9  1   
 13   6  34  1   
 14   6  35  1   
 15   7  10  1   
 16   7  36  1   
 17   7  37  1   
 18   8  11  1   
 19   8  12  1   
 20   8  13  1   
 21   9  12  1   
 22   9  38  1   
 23   9  39  1   
 24  10  14  1   
 25  10  40  1   
 26  10  41  1   
 27  11  15  ar  
 28  11  16  ar  
 29  12  42  1   
 30  12  43  1   
 31  13  17  1   
 32  13  44  1   
 33  13  45  1   
 34  14  18  am  
 35  14  46  1   
 36  15  19  ar  
 37  16  17  1   
 38  16  20  ar  
 39  17  47  1   
 40  17  48  1   
 41  18  21  2   
 42  18  22  1   
 43  19  23  ar  
 44  19  24  1   
 45  20  23  ar  
 46  20  49  1   
 47  22  50  1   
 48  22  51  1   
 49  22  52  1   
 50  24  25  ar  
 51  24  26  ar  
 52  25  27  ar  
 53  25  53  1   
 54  26  28  ar  
 55  26  54  1   
 56  27  29  ar  
 57  27  55  1   
 58  28  29  ar  
 59  28  56  1   
 60  29  57  1   
@<TRIPOS>SUBSTRUCTURE
  1 ****   5 GROUP 4 **** **** 0

# MOE 2024.06 (io_trps.svl 2023.06)
