@<TRIPOS>MOLECULE
NONAME
45 48 1 0 0 
SMALL
USER_CHARGES


@<TRIPOS>ATOM
  1 CL      -0.0660    -0.5820     1.7450 Cl    1 <1>  -0.1770 
  2 C       -0.1320    -2.1180     0.9210 C.ar  1 <1>   0.1770 
  3 C       -1.0060    -3.1010     1.3490 C.ar  1 <1>   0.1600 
  4 C        0.6880    -2.3510    -0.1570 C.ar  1 <1>  -0.1500 
  5 N       -1.1250    -4.2920     0.7810 N.ar  1 <1>  -0.6200 
  6 C        0.5740    -3.5910    -0.7510 C.ar  1 <1>  -0.1500 
  7 C       -0.3300    -4.5490    -0.2800 C.ar  1 <1>   0.3960 
  8 C       -0.3790    -5.8510    -0.9560 C.2   1 <1>   0.5440 
  9 O        0.6680    -6.3520    -1.3330 O.2   1 <1>  -0.5700 
 10 N       -1.5480    -6.5490    -1.2130 N.am  1 <1>  -0.6600 
 11 C       -2.9310    -6.0100    -1.0420 C.3   1 <1>   0.1400 
 12 C       -1.5500    -8.0170    -1.4950 C.3   1 <1>   0.1400 
 13 C       -3.6640    -6.7810     0.0700 C.3   1 <1>   0.1900 
 14 C       -2.3460    -8.7720    -0.4150 C.3   1 <1>   0.1100 
 15 N       -3.7170    -8.2300    -0.2580 N.3   1 <1>  -0.8100 
 16 C       -5.0830    -6.2170     0.2730 C.3   1 <1>   0.1200 
 17 C       -4.4830    -8.9510     0.7860 C.3   1 <1>   0.3330 
 18 O       -5.7590    -6.9300     1.2700 O.3   1 <1>  -0.5600 
 19 C       -4.6660   -10.4230     0.4180 C.ar  1 <1>  -0.1430 
 20 C       -5.8680    -8.3010     0.9920 C.3   1 <1>   0.1200 
 21 C       -5.0870   -10.7940    -0.8510 C.ar  1 <1>  -0.1500 
 22 C       -4.4170   -11.4110     1.3600 C.ar  1 <1>  -0.1500 
 23 C       -5.2580   -12.1290    -1.1750 C.ar  1 <1>  -0.1500 
 24 C       -4.5880   -12.7470     1.0390 C.ar  1 <1>  -0.1500 
 25 C       -5.0090   -13.1060    -0.2290 C.ar  1 <1>  -0.1500 
 26 H       -1.6320    -2.8890     2.1980 H     1 <1>   0.1500 
 27 H        1.3780    -1.6040    -0.5080 H     1 <1>   0.1500 
 28 H        1.1950    -3.8380    -1.5950 H     1 <1>   0.1500 
 29 H       -2.9120    -4.9610    -0.8160 H     1 <1>   0.0800 
 30 H       -3.4690    -6.1320    -1.9660 H     1 <1>   0.0800 
 31 H       -2.0000    -8.1930    -2.4560 H     1 <1>   0.0800 
 32 H       -0.5460    -8.4020    -1.5250 H     1 <1>   0.0800 
 33 H       -3.1170    -6.6360     0.9870 H     1 <1>   0.0800 
 34 H       -1.8160    -8.7030     0.5200 H     1 <1>   0.0800 
 35 H       -2.3950    -9.8100    -0.6940 H     1 <1>   0.0800 
 36 H       -5.6510    -6.2790    -0.6380 H     1 <1>   0.0800 
 37 H       -5.0350    -5.1890     0.5860 H     1 <1>   0.0800 
 38 H       -3.9470    -8.8870     1.7170 H     1 <1>   0.0800 
 39 H       -6.3710    -8.7660     1.8200 H     1 <1>   0.0800 
 40 H       -6.4720    -8.4250     0.1100 H     1 <1>   0.0800 
 41 H       -5.2760   -10.0350    -1.5920 H     1 <1>   0.1500 
 42 H       -4.0890   -11.1470     2.3510 H     1 <1>   0.1500 
 43 H       -5.5840   -12.4040    -2.1630 H     1 <1>   0.1500 
 44 H       -4.3930   -13.5070     1.7750 H     1 <1>   0.1500 
 45 H       -5.1420   -14.1440    -0.4790 H     1 <1>   0.1500 
@<TRIPOS>BOND
  1   1   2  1   
  2   2   3  ar  
  3   2   4  ar  
  4   3   5  ar  
  5   3  26  1   
  6   4   6  ar  
  7   4  27  1   
  8   5   7  ar  
  9   6   7  ar  
 10   6  28  1   
 11   7   8  1   
 12   8   9  2   
 13   8  10  am  
 14  10  11  1   
 15  10  12  1   
 16  11  13  1   
 17  11  29  1   
 18  11  30  1   
 19  12  14  1   
 20  12  31  1   
 21  12  32  1   
 22  13  15  1   
 23  13  16  1   
 24  13  33  1   
 25  14  15  1   
 26  14  34  1   
 27  14  35  1   
 28  15  17  1   
 29  16  18  1   
 30  16  36  1   
 31  16  37  1   
 32  17  19  1   
 33  17  20  1   
 34  17  38  1   
 35  18  20  1   
 36  19  21  ar  
 37  19  22  ar  
 38  20  39  1   
 39  20  40  1   
 40  21  23  ar  
 41  21  41  1   
 42  22  24  ar  
 43  22  42  1   
 44  23  25  ar  
 45  23  43  1   
 46  24  25  ar  
 47  24  44  1   
 48  25  45  1   
@<TRIPOS>SUBSTRUCTURE
  1 ****  13 GROUP 4 **** **** 0

# MOE 2024.06 (io_trps.svl 2023.06)
