@<TRIPOS>MOLECULE
NONAME
43 45 1 0 0 
SMALL
USER_CHARGES


@<TRIPOS>ATOM
  1 O        4.4520    -1.8710    -1.4340 O.2   1 <1>  -0.5700 
  2 C        3.4710    -1.6890    -0.7370 C.2   1 <1>   0.5440 
  3 N        3.3420    -0.4340    -0.2020 N.am  1 <1>  -0.6600 
  4 C        2.5260    -2.7500    -0.4510 C.ar  1 <1>   0.0860 
  5 C        3.9890    -0.1870     1.1350 C.3   1 <1>   0.2200 
  6 C        3.1660     0.7110    -1.1500 C.3   1 <1>   0.1400 
  7 C        2.7930    -4.0640    -0.8340 C.ar  1 <1>   0.1600 
  8 C        1.3220    -2.5280     0.2120 C.ar  1 <1>  -0.1500 
  9 C        3.3890     1.0190     1.8760 C.3   1 <1>   0.1200 
 10 C        5.5300    -0.0410     1.0080 C.3   1 <1>   0.3430 
 11 C        4.0820     1.9230    -0.8980 C.3   1 <1>  -0.0800 
 12 N        2.0180    -5.1110    -0.6120 N.ar  1 <1>  -0.6200 
 13 C        0.4960    -3.6050     0.4470 C.ar  1 <1>  -0.1500 
 14 O        4.0360     2.1980     1.5030 O.3   1 <1>  -0.5600 
 15 N        5.9800     0.2670    -0.3930 N.4   1 <1>  -0.9590 
 16 C        3.6220     2.7620     0.3050 C.3   1 <1>   0.1200 
 17 C        5.5980     1.6330    -0.8700 C.3   1 <1>   0.3430 
 18 C        0.8800    -4.8750     0.0220 C.ar  1 <1>   0.3930 
 19 C        7.4350     0.0050    -0.5730 C.3   1 <1>   0.2630 
 20 O        0.1200    -5.9670     0.2230 O.3   1 <1>  -0.3630 
 21 C       -1.1520    -5.9320     0.8300 C.3   1 <1>   0.0400 
 22 H        3.7940    -1.0460     1.7530 H     1 <1>   0.0800 
 23 H        3.3340     0.3580    -2.1550 H     1 <1>   0.0800 
 24 H        2.1380     1.0300    -1.1040 H     1 <1>   0.0800 
 25 H        3.7130    -4.2610    -1.3580 H     1 <1>   0.1500 
 26 H        1.0380    -1.5410     0.5300 H     1 <1>   0.1500 
 27 H        3.5570     0.9030     2.9330 H     1 <1>   0.0800 
 28 H        2.3280     1.1070     1.7120 H     1 <1>   0.0800 
 29 H        5.9710    -0.9730     1.3170 H     1 <1>   0.0800 
 30 H        5.8780     0.7210     1.6860 H     1 <1>   0.0800 
 31 H        3.9300     2.5720    -1.7420 H     1 <1>   0.0800 
 32 H       -0.4360    -3.4520     0.9550 H     1 <1>   0.1500 
 33 H        5.4510    -0.4190    -0.9800 H     1 <1>   0.4500 
 34 H        2.5520     2.8850     0.3230 H     1 <1>   0.0800 
 35 H        4.0660     3.7430     0.2560 H     1 <1>   0.0800 
 36 H        6.0820     2.3760    -0.2550 H     1 <1>   0.0800 
 37 H        5.9730     1.7530    -1.8730 H     1 <1>   0.0800 
 38 H        8.0150     0.6730     0.0430 H     1 <1>   0.0800 
 39 H        7.7140     0.1520    -1.6040 H     1 <1>   0.0800 
 40 H        7.6660    -1.0120    -0.3000 H     1 <1>   0.0800 
 41 H       -1.5410    -6.9340     0.8440 H     1 <1>   0.0800 
 42 H       -1.8000    -5.2990     0.2510 H     1 <1>   0.0800 
 43 H       -1.0510    -5.5680     1.8370 H     1 <1>   0.0800 
@<TRIPOS>BOND
  1   1   2  2   
  2   2   3  am  
  3   2   4  1   
  4   3   5  1   
  5   3   6  1   
  6   4   7  ar  
  7   4   8  ar  
  8   5   9  1   
  9   5  10  1   
 10   5  22  1   
 11   6  11  1   
 12   6  23  1   
 13   6  24  1   
 14   7  12  ar  
 15   7  25  1   
 16   8  13  ar  
 17   8  26  1   
 18   9  14  1   
 19   9  27  1   
 20   9  28  1   
 21  10  15  1   
 22  10  29  1   
 23  10  30  1   
 24  11  16  1   
 25  11  17  1   
 26  11  31  1   
 27  12  18  ar  
 28  13  18  ar  
 29  13  32  1   
 30  14  16  1   
 31  15  17  1   
 32  15  19  1   
 33  15  33  1   
 34  16  34  1   
 35  16  35  1   
 36  17  36  1   
 37  17  37  1   
 38  18  20  1   
 39  19  38  1   
 40  19  39  1   
 41  19  40  1   
 42  20  21  1   
 43  21  41  1   
 44  21  42  1   
 45  21  43  1   
@<TRIPOS>SUBSTRUCTURE
  1 ****   2 GROUP 4 **** **** 0

# MOE 2024.06 (io_trps.svl 2023.06)
