@<TRIPOS>MOLECULE
NONAME
48 49 1 0 0 
SMALL
USER_CHARGES


@<TRIPOS>ATOM
  1 CL      -5.7810    -0.3390    -2.3880 Cl    1 <1>  -0.1770 
  2 C       -4.3580    -0.2210    -1.3740 C.ar  1 <1>   0.1770 
  3 C       -4.4590    -0.4410    -0.0010 C.ar  1 <1>   0.0820 
  4 C       -3.1510     0.0770    -1.9750 C.ar  1 <1>  -0.1500 
  5 O       -5.6870    -0.7310     0.5150 O.3   1 <1>  -0.3630 
  6 C       -3.3050    -0.3630     0.7780 C.ar  1 <1>  -0.1500 
  7 C       -2.0230     0.1480    -1.1810 C.ar  1 <1>   0.1770 
  8 C       -5.8300    -1.3600     1.7830 C.3   1 <1>   0.1810 
  9 C       -2.0870    -0.0680     0.1840 C.ar  1 <1>  -0.1500 
 10 CL      -0.4840     0.5170    -1.9170 Cl    1 <1>  -0.1770 
 11 C       -5.1890    -2.7490     1.8510 C.2   1 <1>   0.5690 
 12 O       -4.3570    -2.9110     2.7120 O.2   1 <1>  -0.5700 
 13 N       -5.5510    -3.7810     1.0150 N.am  1 <1>  -0.6600 
 14 C       -5.0370    -5.1580     1.3370 C.3   1 <1>   0.3210 
 15 C       -6.3040    -3.6290    -0.2680 C.3   1 <1>   0.1400 
 16 C       -5.9150    -6.2930     0.8030 C.2   1 <1>   0.0460 
 17 C       -7.8210    -3.7390    -0.0360 C.3   1 <1>   0.3430 
 18 N       -7.1930    -6.4520     1.2180 N.2   1 <1>  -0.5650 
 19 C       -5.5790    -7.2640    -0.0820 C.2   1 <1>  -0.3320 
 20 N       -8.6290    -2.9850    -1.0540 N.4   1 <1>  -0.9590 
 21 C       -7.5890    -7.5210     0.6090 C.2   1 <1>   0.0360 
 22 N       -6.6570    -8.0610    -0.2000 N.pl3 1 <1>   0.0330 
 23 C       -4.2850    -7.5400    -0.8330 C.3   1 <1>  -0.0600 
 24 C       -8.5710    -1.5050    -0.8310 C.3   1 <1>   0.2630 
 25 C      -10.0460    -3.4590    -1.0240 C.3   1 <1>   0.2630 
 26 H       -3.0850     0.2460    -3.0330 H     1 <1>   0.1500 
 27 H       -3.3250    -0.5240     1.8410 H     1 <1>   0.1500 
 28 H       -6.8800    -1.4510     1.9840 H     1 <1>   0.0800 
 29 H       -5.4050    -0.7180     2.5320 H     1 <1>   0.0800 
 30 H       -1.1900    -0.0070     0.7750 H     1 <1>   0.1500 
 31 H       -4.9720    -5.2740     2.4060 H     1 <1>   0.0800 
 32 H       -4.0420    -5.2520     0.9440 H     1 <1>   0.0800 
 33 H       -5.9940    -4.3930    -0.9600 H     1 <1>   0.0800 
 34 H       -6.0580    -2.6890    -0.7200 H     1 <1>   0.0800 
 35 H       -8.0540    -3.3750     0.9500 H     1 <1>   0.0800 
 36 H       -8.0910    -4.7810    -0.0740 H     1 <1>   0.0800 
 37 H       -8.2410    -3.1910    -1.9880 H     1 <1>   0.4500 
 38 H       -8.5650    -7.9620     0.7270 H     1 <1>   0.1500 
 39 H       -6.7460    -8.9140    -0.7610 H     1 <1>   0.2700 
 40 H       -3.5470    -6.7870    -0.6240 H     1 <1>   0.0800 
 41 H       -4.4650    -7.5520    -1.8930 H     1 <1>   0.0800 
 42 H       -3.8850    -8.4950    -0.5390 H     1 <1>   0.0800 
 43 H       -9.0000    -1.2520     0.1250 H     1 <1>   0.0800 
 44 H       -9.1170    -0.9880    -1.6030 H     1 <1>   0.0800 
 45 H       -7.5520    -1.1610    -0.8480 H     1 <1>   0.0800 
 46 H      -10.4860    -3.2660    -0.0590 H     1 <1>   0.0800 
 47 H      -10.0890    -4.5200    -1.2140 H     1 <1>   0.0800 
 48 H      -10.6270    -2.9510    -1.7770 H     1 <1>   0.0800 
@<TRIPOS>BOND
  1   1   2  1   
  2   2   3  ar  
  3   2   4  ar  
  4   3   5  1   
  5   3   6  ar  
  6   4   7  ar  
  7   4  26  1   
  8   5   8  1   
  9   6   9  ar  
 10   6  27  1   
 11   7   9  ar  
 12   7  10  1   
 13   8  11  1   
 14   8  28  1   
 15   8  29  1   
 16   9  30  1   
 17  11  12  2   
 18  11  13  am  
 19  13  14  1   
 20  13  15  1   
 21  14  16  1   
 22  14  31  1   
 23  14  32  1   
 24  15  17  1   
 25  15  33  1   
 26  15  34  1   
 27  16  18  1   
 28  16  19  2   
 29  17  20  1   
 30  17  35  1   
 31  17  36  1   
 32  18  21  2   
 33  19  22  1   
 34  19  23  1   
 35  20  24  1   
 36  20  25  1   
 37  20  37  1   
 38  21  22  1   
 39  21  38  1   
 40  22  39  1   
 41  23  40  1   
 42  23  41  1   
 43  23  42  1   
 44  24  43  1   
 45  24  44  1   
 46  24  45  1   
 47  25  46  1   
 48  25  47  1   
 49  25  48  1   
@<TRIPOS>SUBSTRUCTURE
  1 ****  15 GROUP 4 **** **** 0

# MOE 2024.06 (io_trps.svl 2023.06)
