@<TRIPOS>MOLECULE
NONAME
55 58 1 0 0 
SMALL
USER_CHARGES


@<TRIPOS>ATOM
  1 O        1.3000    -1.5330     0.8880 O.3   1 <1>  -0.6800 
  2 C        1.1650    -1.8900    -0.4410 C.3   1 <1>   0.2000 
  3 C        1.6630    -3.3220    -0.6110 C.3   1 <1>  -0.1600 
  4 C        2.1370    -1.0530    -1.2660 C.3   1 <1>  -0.1600 
  5 C        3.1890    -3.2230    -0.7690 C.3   1 <1>  -0.0800 
  6 C        3.4890    -1.7760    -1.1910 C.3   1 <1>  -0.0800 
  7 C        3.9560    -3.4340     0.5460 C.3   1 <1>  -0.1600 
  8 C        4.4190    -1.2060    -0.1090 C.3   1 <1>  -0.1600 
  9 C        5.0970    -2.4100     0.5420 C.3   1 <1>   0.4230 
 10 N        6.2860    -2.8000    -0.2970 N.4   1 <1>  -0.9590 
 11 C        7.5650    -2.2590     0.2640 C.3   1 <1>   0.4860 
 12 C        6.4530    -4.2690    -0.5490 C.3   1 <1>   0.2630 
 13 C        7.6070    -0.7530     0.1710 C.ar  1 <1>  -0.1440 
 14 C        7.3570     0.0450     1.2650 C.ar  1 <1>   0.1600 
 15 C        7.8910    -0.1110    -1.0140 C.ar  1 <1>   0.1600 
 16 N        7.3510     1.3500     1.1870 N.ar  1 <1>  -0.6200 
 17 N        7.8900     1.1920    -1.1170 N.ar  1 <1>  -0.6200 
 18 C        7.6080     1.8620    -0.0060 C.ar  1 <1>   0.7200 
 19 N        7.5650     3.2050    -0.0640 N.pl3 1 <1>  -0.8690 
 20 C        8.3080     4.0050    -1.0480 C.3   1 <1>   0.3530 
 21 C        8.7630     5.2810    -0.3640 C.ar  1 <1>  -0.1440 
 22 C        9.9520     5.3050     0.3500 C.ar  1 <1>  -0.1500 
 23 C        7.9930     6.4320    -0.4390 C.ar  1 <1>  -0.1500 
 24 C       10.3700     6.4670     0.9750 C.ar  1 <1>  -0.1500 
 25 C        8.4100     7.5950     0.1850 C.ar  1 <1>  -0.1500 
 26 C        9.5990     7.6130     0.8920 C.ar  1 <1>  -0.1500 
 27 H        0.5850    -1.9370     1.4160 H     1 <1>   0.4000 
 28 H        0.1380    -1.7500    -0.7370 H     1 <1>   0.0800 
 29 H        1.3540    -3.9670     0.1930 H     1 <1>   0.0800 
 30 H        1.2500    -3.7080    -1.5270 H     1 <1>   0.0800 
 31 H        1.7990    -1.0610    -2.2870 H     1 <1>   0.0800 
 32 H        2.1760    -0.0290    -0.9330 H     1 <1>   0.0800 
 33 H        3.5320    -3.9130    -1.5200 H     1 <1>   0.0800 
 34 H        3.9770    -1.7550    -2.1510 H     1 <1>   0.0800 
 35 H        4.2490    -4.4530     0.7110 H     1 <1>   0.0800 
 36 H        3.3120    -3.1690     1.3670 H     1 <1>   0.0800 
 37 H        3.8270    -0.7210     0.6500 H     1 <1>   0.0800 
 38 H        5.0880    -0.4680    -0.5080 H     1 <1>   0.0800 
 39 H        5.4020    -2.1870     1.5520 H     1 <1>   0.0800 
 40 H        6.1200    -2.3430    -1.2030 H     1 <1>   0.4500 
 41 H        7.6720    -2.5640     1.2920 H     1 <1>   0.0800 
 42 H        8.4010    -2.6580    -0.2870 H     1 <1>   0.0800 
 43 H        6.5720    -4.7990     0.3830 H     1 <1>   0.0800 
 44 H        7.3190    -4.4510    -1.1640 H     1 <1>   0.0800 
 45 H        5.5890    -4.6620    -1.0590 H     1 <1>   0.0800 
 46 H        7.1480    -0.3860     2.2310 H     1 <1>   0.1500 
 47 H        8.1210    -0.6710    -1.9060 H     1 <1>   0.1500 
 48 H        7.4990     3.6500     0.8510 H     1 <1>   0.4000 
 49 H        9.1610     3.4570    -1.4100 H     1 <1>   0.0800 
 50 H        7.6660     4.2300    -1.8820 H     1 <1>   0.0800 
 51 H       10.5540     4.4160     0.4230 H     1 <1>   0.1500 
 52 H        7.0630     6.4270    -0.9830 H     1 <1>   0.1500 
 53 H       11.2930     6.4770     1.5270 H     1 <1>   0.1500 
 54 H        7.8080     8.4850     0.1230 H     1 <1>   0.1500 
 55 H        9.9240     8.5160     1.3790 H     1 <1>   0.1500 
@<TRIPOS>BOND
  1   1   2  1   
  2   1  27  1   
  3   2   3  1   
  4   2   4  1   
  5   2  28  1   
  6   3   5  1   
  7   3  29  1   
  8   3  30  1   
  9   4   6  1   
 10   4  31  1   
 11   4  32  1   
 12   5   6  1   
 13   5   7  1   
 14   5  33  1   
 15   6   8  1   
 16   6  34  1   
 17   7   9  1   
 18   7  35  1   
 19   7  36  1   
 20   8   9  1   
 21   8  37  1   
 22   8  38  1   
 23   9  10  1   
 24   9  39  1   
 25  10  11  1   
 26  10  12  1   
 27  10  40  1   
 28  11  13  1   
 29  11  41  1   
 30  11  42  1   
 31  12  43  1   
 32  12  44  1   
 33  12  45  1   
 34  13  14  ar  
 35  13  15  ar  
 36  14  16  ar  
 37  14  46  1   
 38  15  17  ar  
 39  15  47  1   
 40  16  18  ar  
 41  17  18  ar  
 42  18  19  1   
 43  19  20  1   
 44  19  48  1   
 45  20  21  1   
 46  20  49  1   
 47  20  50  1   
 48  21  22  ar  
 49  21  23  ar  
 50  22  24  ar  
 51  22  51  1   
 52  23  25  ar  
 53  23  52  1   
 54  24  26  ar  
 55  24  53  1   
 56  25  26  ar  
 57  25  54  1   
 58  26  55  1   
@<TRIPOS>SUBSTRUCTURE
  1 ****  18 GROUP 4 **** **** 0

# MOE 2024.06 (io_trps.svl 2023.06)
