@<TRIPOS>MOLECULE
NONAME
53 56 1 0 0 
SMALL
USER_CHARGES


@<TRIPOS>ATOM
  1 S       -0.2020     0.2830     0.5970 S.3   1 <1>  -0.3320 
  2 C       -0.7710    -1.3200     0.0460 C.ar  1 <1>   0.4120 
  3 C        1.2120     0.6510    -0.5300 C.3   1 <1>   0.2140 
  4 N       -0.1200    -1.8570    -0.9730 N.ar  1 <1>  -0.6200 
  5 C       -1.8440    -1.8840     0.7150 C.ar  1 <1>  -0.1500 
  6 C        1.7790     2.0110    -0.1560 C.ar  1 <1>  -0.1440 
  7 C       -0.5770    -3.0430    -1.3460 C.ar  1 <1>   0.1600 
  8 C       -2.3020    -3.1190     0.3090 C.ar  1 <1>  -0.1500 
  9 C        2.9770     2.1100     0.5310 C.ar  1 <1>  -0.1500 
 10 C        1.0990     3.1680    -0.4940 C.ar  1 <1>  -0.1500 
 11 C       -1.6420    -3.7050    -0.7530 C.ar  1 <1>  -0.1500 
 12 C        3.4890     3.3500     0.8650 C.ar  1 <1>  -0.1500 
 13 C        1.6140     4.4060    -0.1560 C.ar  1 <1>  -0.1500 
 14 C        2.8270     4.5290     0.5240 C.ar  1 <1>   0.0860 
 15 C        3.3860     5.8270     0.8660 C.2   1 <1>   0.5440 
 16 O        4.1930     5.9520     1.7680 O.2   1 <1>  -0.5700 
 17 N        3.1050     6.9590     0.1390 N.am  1 <1>  -0.6600 
 18 C        2.9990     8.2840     0.8600 C.3   1 <1>   0.2200 
 19 C        3.3890     6.9540    -1.3250 C.3   1 <1>   0.1400 
 20 C        2.1740     9.3250     0.0840 C.3   1 <1>   0.1200 
 21 C        4.3940     8.8600     1.2090 C.3   1 <1>   0.3430 
 22 C        4.1820     8.1820    -1.8120 C.3   1 <1>  -0.0800 
 23 O        2.9900    10.0350    -0.8010 O.3   1 <1>  -0.5600 
 24 N        5.4880     8.1960     0.4260 N.4   1 <1>  -0.9590 
 25 C        3.2750     9.4090    -2.0060 C.3   1 <1>   0.1200 
 26 C        5.4820     8.5160    -1.0400 C.3   1 <1>   0.3430 
 27 C        6.8180     8.4300     1.0520 C.3   1 <1>   0.2630 
 28 H        1.9340    -0.1370    -0.4040 H     1 <1>   0.0800 
 29 H        0.8320     0.6420    -1.5360 H     1 <1>   0.0800 
 30 H       -2.3010    -1.3590     1.5330 H     1 <1>   0.1500 
 31 H       -0.0750    -3.5170    -2.1720 H     1 <1>   0.1500 
 32 H       -3.1330    -3.6020     0.7950 H     1 <1>   0.1500 
 33 H        3.5130     1.2190     0.8130 H     1 <1>   0.1500 
 34 H        0.1580     3.1020    -1.0150 H     1 <1>   0.1500 
 35 H       -1.9490    -4.6680    -1.1200 H     1 <1>   0.1500 
 36 H        4.4180     3.4050     1.4060 H     1 <1>   0.1500 
 37 H        1.0590     5.2880    -0.4170 H     1 <1>   0.1500 
 38 H        2.4770     8.1050     1.7840 H     1 <1>   0.0800 
 39 H        3.9500     6.0660    -1.5660 H     1 <1>   0.0800 
 40 H        2.4560     6.8920    -1.8590 H     1 <1>   0.0800 
 41 H        1.7780    10.0460     0.7770 H     1 <1>   0.0800 
 42 H        1.3500     8.8760    -0.4430 H     1 <1>   0.0800 
 43 H        4.5610     8.6860     2.2590 H     1 <1>   0.0800 
 44 H        4.4060     9.9250     1.0480 H     1 <1>   0.0800 
 45 H        4.4980     7.9360    -2.8100 H     1 <1>   0.0800 
 46 H        5.2460     7.1900     0.5410 H     1 <1>   0.4500 
 47 H        2.3480     9.1480    -2.4900 H     1 <1>   0.0800 
 48 H        3.7740    10.1380    -2.6220 H     1 <1>   0.0800 
 49 H        5.6980     9.5640    -1.1730 H     1 <1>   0.0800 
 50 H        6.2850     7.9650    -1.5020 H     1 <1>   0.0800 
 51 H        7.0720     9.4770     1.0110 H     1 <1>   0.0800 
 52 H        7.5780     7.8660     0.5360 H     1 <1>   0.0800 
 53 H        6.8020     8.1160     2.0840 H     1 <1>   0.0800 
@<TRIPOS>BOND
  1   1   2  1   
  2   1   3  1   
  3   2   4  ar  
  4   2   5  ar  
  5   3   6  1   
  6   3  28  1   
  7   3  29  1   
  8   4   7  ar  
  9   5   8  ar  
 10   5  30  1   
 11   6   9  ar  
 12   6  10  ar  
 13   7  11  ar  
 14   7  31  1   
 15   8  11  ar  
 16   8  32  1   
 17   9  12  ar  
 18   9  33  1   
 19  10  13  ar  
 20  10  34  1   
 21  11  35  1   
 22  12  14  ar  
 23  12  36  1   
 24  13  14  ar  
 25  13  37  1   
 26  14  15  1   
 27  15  16  2   
 28  15  17  am  
 29  17  18  1   
 30  17  19  1   
 31  18  20  1   
 32  18  21  1   
 33  18  38  1   
 34  19  22  1   
 35  19  39  1   
 36  19  40  1   
 37  20  23  1   
 38  20  41  1   
 39  20  42  1   
 40  21  24  1   
 41  21  43  1   
 42  21  44  1   
 43  22  25  1   
 44  22  26  1   
 45  22  45  1   
 46  23  25  1   
 47  24  26  1   
 48  24  27  1   
 49  24  46  1   
 50  25  47  1   
 51  25  48  1   
 52  26  49  1   
 53  26  50  1   
 54  27  51  1   
 55  27  52  1   
 56  27  53  1   
@<TRIPOS>SUBSTRUCTURE
  1 ****  13 GROUP 4 **** **** 0

# MOE 2024.06 (io_trps.svl 2023.06)
