@<TRIPOS>MOLECULE
NONAME
44 46 1 0 0 
SMALL
USER_CHARGES


@<TRIPOS>ATOM
  1 O        1.3100    -0.4040    -1.6880 O.2   1 <1>  -0.5700 
  2 C        1.0620    -1.2160    -0.8180 C.2   1 <1>   0.6900 
  3 N        2.0180    -1.8190    -0.0550 N.am  1 <1>  -0.4200 
  4 N       -0.1860    -1.6270    -0.4660 N.am  1 <1>  -0.6600 
  5 C        1.4320    -2.6750     0.8260 C.2   1 <1>   0.5690 
  6 C        3.4810    -1.5790    -0.1750 C.3   1 <1>   0.2010 
  7 C       -0.0770    -2.6150     0.6420 C.3   1 <1>   0.2010 
  8 C       -1.4800    -1.2330    -1.0720 C.3   1 <1>   0.0600 
  9 O        2.0000    -3.3850     1.6160 O.2   1 <1>  -0.5700 
 10 C        3.9010    -0.1950     0.3110 C.2   1 <1>   0.5690 
 11 O        4.6540    -0.1240     1.2520 O.2   1 <1>  -0.5700 
 12 N        3.4200     0.9050    -0.3460 N.am  1 <1>  -0.4940 
 13 C        3.5630     2.2870    -0.0740 C.2   1 <1>  -0.0880 
 14 N        4.6940     2.9770     0.2730 N.pl3 1 <1>   0.3140 
 15 C        2.5620     3.1960    -0.1440 C.2   1 <1>  -0.1810 
 16 N        4.4140     4.3000     0.4330 N.2   1 <1>  -0.7070 
 17 C        6.0910     2.4460     0.4040 C.3   1 <1>   0.1760 
 18 C        3.1490     4.4110     0.1810 C.2   1 <1>   0.1390 
 19 C        1.1000     2.9860    -0.4930 C.3   1 <1>  -0.0590 
 20 C        7.1600     3.5130     0.6740 C.3   1 <1>  -0.1600 
 21 C        6.5850     1.7290    -0.8650 C.3   1 <1>  -0.1600 
 22 C        8.4630     2.8580     0.2290 C.3   1 <1>  -0.1600 
 23 C        8.0780     2.0560    -1.0130 C.3   1 <1>  -0.1600 
 24 H        3.7710    -1.6880    -1.2040 H     1 <1>   0.0800 
 25 H        4.0100    -2.3190     0.4000 H     1 <1>   0.0800 
 26 H       -0.4650    -3.5730     0.3490 H     1 <1>   0.0800 
 27 H       -0.5570    -2.2540     1.5330 H     1 <1>   0.0800 
 28 H       -1.3120    -0.5280    -1.8690 H     1 <1>   0.0800 
 29 H       -2.1080    -0.7740    -0.3280 H     1 <1>   0.0800 
 30 H       -1.9760    -2.1000    -1.4720 H     1 <1>   0.0800 
 31 H        2.6850     0.6940    -1.0390 H     1 <1>   0.3700 
 32 H        6.1120     1.7600     1.2290 H     1 <1>   0.0800 
 33 H        2.6230     5.3500     0.2230 H     1 <1>   0.1500 
 34 H        0.8270     1.9540    -0.3710 H     1 <1>   0.0800 
 35 H        0.9240     3.2740    -1.5130 H     1 <1>   0.0800 
 36 H        0.4800     3.5810     0.1520 H     1 <1>   0.0800 
 37 H        7.1830     3.8000     1.7110 H     1 <1>   0.0800 
 38 H        6.9840     4.3820     0.0620 H     1 <1>   0.0800 
 39 H        6.0520     2.0840    -1.7300 H     1 <1>   0.0800 
 40 H        6.4430     0.6680    -0.7670 H     1 <1>   0.0800 
 41 H        8.8080     2.1890     0.9990 H     1 <1>   0.0800 
 42 H        9.2290     3.5850     0.0220 H     1 <1>   0.0800 
 43 H        8.2240     2.6630    -1.8900 H     1 <1>   0.0800 
 44 H        8.6760     1.1650    -1.1020 H     1 <1>   0.0800 
@<TRIPOS>BOND
  1   1   2  2   
  2   2   3  am  
  3   2   4  am  
  4   3   5  am  
  5   3   6  1   
  6   4   7  1   
  7   4   8  1   
  8   5   7  1   
  9   5   9  2   
 10   6  10  1   
 11   6  24  1   
 12   6  25  1   
 13   7  26  1   
 14   7  27  1   
 15   8  28  1   
 16   8  29  1   
 17   8  30  1   
 18  10  11  2   
 19  10  12  am  
 20  12  13  1   
 21  12  31  1   
 22  13  14  1   
 23  13  15  2   
 24  14  16  1   
 25  14  17  1   
 26  15  18  1   
 27  15  19  1   
 28  16  18  2   
 29  17  20  1   
 30  17  21  1   
 31  17  32  1   
 32  18  33  1   
 33  19  34  1   
 34  19  35  1   
 35  19  36  1   
 36  20  22  1   
 37  20  37  1   
 38  20  38  1   
 39  21  23  1   
 40  21  39  1   
 41  21  40  1   
 42  22  23  1   
 43  22  41  1   
 44  22  42  1   
 45  23  43  1   
 46  23  44  1   
@<TRIPOS>SUBSTRUCTURE
  1 ****  12 GROUP 4 **** **** 0

# MOE 2024.06 (io_trps.svl 2023.06)
