@<TRIPOS>MOLECULE
NONAME
50 53 1 0 0 
SMALL
USER_CHARGES


@<TRIPOS>ATOM
  1 O        2.5750    -0.9730    -2.9510 O.2   1 <1>  -0.5700 
  2 C        2.3910    -1.3920    -1.8200 C.2   1 <1>   0.5440 
  3 N        2.4720    -0.4810    -0.7800 N.am  1 <1>  -0.6600 
  4 C        2.1200    -2.8160    -1.6370 C.ar  1 <1>   0.3960 
  5 C        2.3120     0.9870    -0.9970 C.3   1 <1>   0.1400 
  6 C        2.5480    -0.8300     0.6700 C.3   1 <1>   0.1400 
  7 N        1.1940    -3.2320    -0.7570 N.ar  1 <1>  -0.6200 
  8 C        2.8430    -3.7210    -2.4160 C.ar  1 <1>   0.1600 
  9 C        1.1410     1.5200    -0.1520 C.3   1 <1>   0.1200 
 10 C        1.3490    -0.2240     1.4140 C.3   1 <1>   0.1200 
 11 C        1.0510    -4.5460    -0.6970 C.ar  1 <1>   0.4100 
 12 N        2.7320    -5.0400    -2.3680 N.ar  1 <1>  -0.6200 
 13 O        1.2870     1.1590     1.1950 O.3   1 <1>  -0.5600 
 14 N        0.0980    -5.0180     0.2040 N.pl3 1 <1>  -0.8380 
 15 C        1.8260    -5.4140    -1.4880 C.ar  1 <1>   0.1600 
 16 C       -0.8320    -4.0990     0.9270 C.3   1 <1>   0.2090 
 17 C       -0.5290    -6.3570     0.0650 C.3   1 <1>   0.2090 
 18 C       -2.0950    -4.9190     1.2010 C.3   1 <1>   0.2000 
 19 C       -1.6690    -6.3790     1.0820 C.3   1 <1>  -0.0800 
 20 O       -2.6100    -4.6790     2.4670 O.3   1 <1>  -0.6800 
 21 C       -2.8260    -7.3150     0.6970 C.3   1 <1>   0.0200 
 22 C       -2.3220    -8.7120     0.3910 C.2   1 <1>  -0.0400 
 23 O       -1.6330    -9.3710     1.2840 O.3   1 <1>  -0.0190 
 24 C       -2.4310    -9.4850    -0.7000 C.2   1 <1>  -0.1500 
 25 N       -1.2670   -10.5400     0.8460 N.2   1 <1>  -0.4100 
 26 C       -1.7370   -10.6390    -0.3450 C.2   1 <1>   0.1080 
 27 C       -1.5540   -11.8500    -1.2330 C.3   1 <1>  -0.0590 
 28 H        3.2190     1.4910    -0.7130 H     1 <1>   0.0800 
 29 H        2.1240     1.2010    -2.0350 H     1 <1>   0.0800 
 30 H        2.5750    -1.8930     0.8210 H     1 <1>   0.0800 
 31 H        3.4550    -0.4220     1.0820 H     1 <1>   0.0800 
 32 H        3.5560    -3.3200    -3.1170 H     1 <1>   0.1500 
 33 H        0.2080     1.1250    -0.5140 H     1 <1>   0.0800 
 34 H        1.1060     2.5930    -0.2030 H     1 <1>   0.0800 
 35 H        1.4470    -0.3850     2.4720 H     1 <1>   0.0800 
 36 H        0.4300    -0.6720     1.0760 H     1 <1>   0.0800 
 37 H        1.6770    -6.4700    -1.3720 H     1 <1>   0.1500 
 38 H       -0.3690    -3.7820     1.8450 H     1 <1>   0.0800 
 39 H       -1.0770    -3.2410     0.3250 H     1 <1>   0.0800 
 40 H       -0.9100    -6.4700    -0.9360 H     1 <1>   0.0800 
 41 H        0.1800    -7.1410     0.2740 H     1 <1>   0.0800 
 42 H       -2.8490    -4.6670     0.4760 H     1 <1>   0.0800 
 43 H       -1.2450    -6.7060     2.0150 H     1 <1>   0.0800 
 44 H       -1.9570    -4.9260     3.1510 H     1 <1>   0.4000 
 45 H       -3.3400    -6.9320    -0.1660 H     1 <1>   0.0800 
 46 H       -3.5310    -7.3640     1.5090 H     1 <1>   0.0800 
 47 H       -2.9220    -9.2980    -1.6360 H     1 <1>   0.1500 
 48 H       -1.0960   -11.5580    -2.1600 H     1 <1>   0.0800 
 49 H       -2.5080   -12.3020    -1.4340 H     1 <1>   0.0800 
 50 H       -0.9230   -12.5710    -0.7450 H     1 <1>   0.0800 
@<TRIPOS>BOND
  1   1   2  2   
  2   2   3  am  
  3   2   4  1   
  4   3   5  1   
  5   3   6  1   
  6   4   7  ar  
  7   4   8  ar  
  8   5   9  1   
  9   5  28  1   
 10   5  29  1   
 11   6  10  1   
 12   6  30  1   
 13   6  31  1   
 14   7  11  ar  
 15   8  12  ar  
 16   8  32  1   
 17   9  13  1   
 18   9  33  1   
 19   9  34  1   
 20  10  13  1   
 21  10  35  1   
 22  10  36  1   
 23  11  14  1   
 24  11  15  ar  
 25  12  15  ar  
 26  14  16  1   
 27  14  17  1   
 28  15  37  1   
 29  16  18  1   
 30  16  38  1   
 31  16  39  1   
 32  17  19  1   
 33  17  40  1   
 34  17  41  1   
 35  18  19  1   
 36  18  20  1   
 37  18  42  1   
 38  19  21  1   
 39  19  43  1   
 40  20  44  1   
 41  21  22  1   
 42  21  45  1   
 43  21  46  1   
 44  22  23  1   
 45  22  24  2   
 46  23  25  1   
 47  24  26  1   
 48  24  47  1   
 49  25  26  2   
 50  26  27  1   
 51  27  48  1   
 52  27  49  1   
 53  27  50  1   
@<TRIPOS>SUBSTRUCTURE
  1 ****  14 GROUP 4 **** **** 0

# MOE 2024.06 (io_trps.svl 2023.06)
