@<TRIPOS>MOLECULE
NONAME
51 54 1 0 0 
SMALL
USER_CHARGES


@<TRIPOS>ATOM
  1 F        1.5640     0.6880     0.3960 F     1 <1>  -0.1900 
  2 C        2.0250    -0.5220     0.5590 C.ar  1 <1>   0.1900 
  3 C        1.7460    -1.4740    -0.3970 C.ar  1 <1>  -0.1500 
  4 C        2.7730    -0.8020     1.6840 C.ar  1 <1>  -0.1500 
  5 C        2.2220    -2.7740    -0.2380 C.ar  1 <1>   0.0860 
  6 C        3.2580    -2.0870     1.8480 C.ar  1 <1>  -0.1500 
  7 C        2.9910    -3.0660     0.8990 C.ar  1 <1>  -0.1440 
  8 C        1.9060    -3.7790    -1.2330 C.2   1 <1>   0.5440 
  9 C        3.5480    -4.4700     1.0990 C.3   1 <1>  -0.0960 
 10 O        2.7050    -4.0010    -2.1230 O.2   1 <1>  -0.5700 
 11 N        0.7240    -4.4890    -1.1830 N.am  1 <1>  -0.6600 
 12 C       -0.3320    -4.2850    -0.1530 C.3   1 <1>   0.1400 
 13 C        0.4350    -5.6140    -2.1130 C.3   1 <1>   0.1400 
 14 C       -0.4710    -5.5560     0.6870 C.3   1 <1>  -0.1600 
 15 C        0.3120    -6.9090    -1.3060 C.3   1 <1>  -0.1600 
 16 C       -0.7380    -6.8000    -0.1840 C.3   1 <1>   0.4240 
 17 O       -1.9430    -6.5560    -0.8770 O.3   1 <1>  -0.5600 
 18 C       -0.8110    -8.1080     0.6560 C.ar  1 <1>  -0.1430 
 19 C       -3.1380    -6.8470    -0.2300 C.3   1 <1>   0.1200 
 20 C        0.2850    -8.5900     1.3860 C.ar  1 <1>   0.0830 
 21 C       -1.9980    -8.8400     0.6980 C.ar  1 <1>  -0.1430 
 22 C       -3.2220    -8.3540    -0.0500 C.3   1 <1>  -0.0170 
 23 O        1.4490    -7.8880     1.3770 O.3   1 <1>  -0.3630 
 24 C        0.1770    -9.7730     2.1150 C.ar  1 <1>  -0.1500 
 25 C       -2.0910   -10.0160     1.4220 C.ar  1 <1>  -0.1500 
 26 C        2.6700    -8.4440     1.8130 C.3   1 <1>   0.0400 
 27 C       -1.0050   -10.4850     2.1300 C.ar  1 <1>  -0.1500 
 28 H        1.1630    -1.2170    -1.2630 H     1 <1>   0.1500 
 29 H        2.9710    -0.0320     2.4080 H     1 <1>   0.1500 
 30 H        3.8480    -2.3190     2.7180 H     1 <1>   0.1500 
 31 H        4.2130    -4.7160     0.2890 H     1 <1>   0.0800 
 32 H        2.7500    -5.1890     1.1160 H     1 <1>   0.0800 
 33 H        4.0940    -4.5450     2.0220 H     1 <1>   0.0800 
 34 H       -1.2640    -4.0690    -0.6490 H     1 <1>   0.0800 
 35 H       -0.0970    -3.4540     0.4870 H     1 <1>   0.0800 
 36 H        1.2160    -5.7180    -2.8460 H     1 <1>   0.0800 
 37 H       -0.4850    -5.4130    -2.6350 H     1 <1>   0.0800 
 38 H       -1.2570    -5.4370     1.4070 H     1 <1>   0.0800 
 39 H        0.4360    -5.6790     1.2430 H     1 <1>   0.0800 
 40 H        1.2810    -7.1310    -0.9070 H     1 <1>   0.0800 
 41 H        0.0440    -7.7200    -1.9580 H     1 <1>   0.0800 
 42 H       -3.9440    -6.4940    -0.8490 H     1 <1>   0.0800 
 43 H       -3.1680    -6.3380     0.7170 H     1 <1>   0.0800 
 44 H       -3.2730    -8.8290    -1.0140 H     1 <1>   0.0800 
 45 H       -4.1160    -8.5950     0.4960 H     1 <1>   0.0800 
 46 H        1.0010   -10.1580     2.6840 H     1 <1>   0.1500 
 47 H       -3.0120   -10.5730     1.4380 H     1 <1>   0.1500 
 48 H        3.4570    -7.7530     1.5720 H     1 <1>   0.0800 
 49 H        2.8320    -9.3760     1.2990 H     1 <1>   0.0800 
 50 H        2.6270    -8.5920     2.8770 H     1 <1>   0.0800 
 51 H       -1.0810   -11.3990     2.6930 H     1 <1>   0.1500 
@<TRIPOS>BOND
  1   1   2  1   
  2   2   3  ar  
  3   2   4  ar  
  4   3   5  ar  
  5   3  28  1   
  6   4   6  ar  
  7   4  29  1   
  8   5   7  ar  
  9   5   8  1   
 10   6   7  ar  
 11   6  30  1   
 12   7   9  1   
 13   8  10  2   
 14   8  11  am  
 15   9  31  1   
 16   9  32  1   
 17   9  33  1   
 18  11  12  1   
 19  11  13  1   
 20  12  14  1   
 21  12  34  1   
 22  12  35  1   
 23  13  15  1   
 24  13  36  1   
 25  13  37  1   
 26  14  16  1   
 27  14  38  1   
 28  14  39  1   
 29  15  16  1   
 30  15  40  1   
 31  15  41  1   
 32  16  17  1   
 33  16  18  1   
 34  17  19  1   
 35  18  20  ar  
 36  18  21  ar  
 37  19  22  1   
 38  19  42  1   
 39  19  43  1   
 40  20  23  1   
 41  20  24  ar  
 42  21  22  1   
 43  21  25  ar  
 44  22  44  1   
 45  22  45  1   
 46  23  26  1   
 47  24  27  ar  
 48  24  46  1   
 49  25  27  ar  
 50  25  47  1   
 51  26  48  1   
 52  26  49  1   
 53  26  50  1   
 54  27  51  1   
@<TRIPOS>SUBSTRUCTURE
  1 ****  14 GROUP 4 **** **** 0

# MOE 2024.06 (io_trps.svl 2023.06)
