@<TRIPOS>MOLECULE
NONAME
50 53 1 0 0 
SMALL
USER_CHARGES


@<TRIPOS>ATOM
  1 O       -1.3350     0.7300     2.2130 O.2   1 <1>  -0.5700 
  2 C       -1.5940     0.7740     1.0240 C.2   1 <1>   0.7160 
  3 N       -2.0720    -0.3570     0.4090 N.am  1 <1>  -0.6600 
  4 C       -1.4610     2.0020     0.3130 C.2   1 <1>  -0.0860 
  5 C       -2.7620    -1.4270     1.1840 C.3   1 <1>   0.1400 
  6 C       -2.5230    -0.4370    -1.0050 C.3   1 <1>   0.1400 
  7 C       -2.5450     2.7870    -0.0880 C.2   1 <1>   0.3720 
  8 C       -0.3800     2.6680    -0.1700 C.2   1 <1>   0.0870 
  9 C       -3.7910    -2.0600     0.2350 C.3   1 <1>   0.2000 
 10 C       -3.9130    -1.0620    -0.9240 C.3   1 <1>   0.2000 
 11 N       -2.1470     3.8090    -0.7610 N.2   1 <1>  -0.4100 
 12 N       -3.8910     2.4930     0.1900 N.pl3 1 <1>  -0.8210 
 13 O       -0.8430     3.7230    -0.7940 O.3   1 <1>  -0.0190 
 14 C        1.0390     2.4120    -0.1300 C.ar  1 <1>   0.0530 
 15 O       -3.2640    -3.2670    -0.2460 O.3   1 <1>  -0.5600 
 16 O       -4.8460    -0.0790    -0.5940 O.3   1 <1>  -0.6800 
 17 C       -4.2410     2.6630     1.6380 C.3   1 <1>   0.2090 
 18 C       -4.8830     3.2360    -0.6630 C.3   1 <1>   0.2090 
 19 C        1.6340     1.6780     0.8970 C.ar  1 <1>  -0.1500 
 20 C        1.8780     2.8980    -1.1340 C.ar  1 <1>  -0.1500 
 21 C       -4.2120    -4.1730    -0.7190 C.3   1 <1>   0.0400 
 22 C       -5.7190     2.3280     1.9020 C.3   1 <1>   0.1200 
 23 C       -6.3370     2.8970    -0.2830 C.3   1 <1>   0.1200 
 24 C        2.9950     1.4330     0.9160 C.ar  1 <1>  -0.1500 
 25 C        3.2400     2.6600    -1.1200 C.ar  1 <1>  -0.1500 
 26 O       -6.5550     3.0970     1.0860 O.3   1 <1>  -0.5600 
 27 C        3.8020     1.9230    -0.0940 C.ar  1 <1>  -0.1500 
 28 H       -2.0540    -2.1580     1.5340 H     1 <1>   0.0800 
 29 H       -3.2670    -0.9860     2.0250 H     1 <1>   0.0800 
 30 H       -2.5440     0.5140    -1.5070 H     1 <1>   0.0800 
 31 H       -1.8630    -1.1010    -1.5360 H     1 <1>   0.0800 
 32 H       -4.7280    -2.2510     0.7280 H     1 <1>   0.0800 
 33 H       -4.2230    -1.5230    -1.8440 H     1 <1>   0.0800 
 34 H       -4.3880     0.7300    -0.2390 H     1 <1>   0.4000 
 35 H       -3.6280     2.0220     2.2460 H     1 <1>   0.0800 
 36 H       -4.0510     3.6810     1.9380 H     1 <1>   0.0800 
 37 H       -4.7360     4.2970    -0.5500 H     1 <1>   0.0800 
 38 H       -4.7190     2.9880    -1.6970 H     1 <1>   0.0800 
 39 H        1.0340     1.2960     1.7020 H     1 <1>   0.1500 
 40 H        1.4570     3.4720    -1.9410 H     1 <1>   0.1500 
 41 H       -3.6910    -5.0410    -1.0840 H     1 <1>   0.0800 
 42 H       -4.7740    -3.7250    -1.5200 H     1 <1>   0.0800 
 43 H       -4.8640    -4.4570     0.0880 H     1 <1>   0.0800 
 44 H       -5.9710     2.5450     2.9250 H     1 <1>   0.0800 
 45 H       -5.9120     1.2860     1.7110 H     1 <1>   0.0800 
 46 H       -6.5660     1.8730    -0.5230 H     1 <1>   0.0800 
 47 H       -7.0160     3.5350    -0.8190 H     1 <1>   0.0800 
 48 H        3.4260     0.8620     1.7200 H     1 <1>   0.1500 
 49 H        3.8650     3.0460    -1.9070 H     1 <1>   0.1500 
 50 H        4.8620     1.7340    -0.0790 H     1 <1>   0.1500 
@<TRIPOS>BOND
  1   1   2  2   
  2   2   3  am  
  3   2   4  1   
  4   3   5  1   
  5   3   6  1   
  6   4   7  1   
  7   4   8  2   
  8   5   9  1   
  9   5  28  1   
 10   5  29  1   
 11   6  10  1   
 12   6  30  1   
 13   6  31  1   
 14   7  11  2   
 15   7  12  1   
 16   8  13  1   
 17   8  14  1   
 18   9  10  1   
 19   9  15  1   
 20   9  32  1   
 21  10  16  1   
 22  10  33  1   
 23  11  13  1   
 24  12  17  1   
 25  12  18  1   
 26  14  19  ar  
 27  14  20  ar  
 28  15  21  1   
 29  16  34  1   
 30  17  22  1   
 31  17  35  1   
 32  17  36  1   
 33  18  23  1   
 34  18  37  1   
 35  18  38  1   
 36  19  24  ar  
 37  19  39  1   
 38  20  25  ar  
 39  20  40  1   
 40  21  41  1   
 41  21  42  1   
 42  21  43  1   
 43  22  26  1   
 44  22  44  1   
 45  22  45  1   
 46  23  26  1   
 47  23  46  1   
 48  23  47  1   
 49  24  27  ar  
 50  24  48  1   
 51  25  27  ar  
 52  25  49  1   
 53  27  50  1   
@<TRIPOS>SUBSTRUCTURE
  1 ****   4 GROUP 4 **** **** 0

# MOE 2024.06 (io_trps.svl 2023.06)
