@<TRIPOS>MOLECULE
NONAME
50 51 1 0 0 
SMALL
USER_CHARGES


@<TRIPOS>ATOM
  1 O       -2.1240     1.0940    -3.2830 O.2   1 <1>  -0.5700 
  2 C       -2.3470     1.5400    -2.1810 C.2   1 <1>   0.5690 
  3 N       -2.9630     0.7800    -1.2100 N.am  1 <1>  -0.6600 
  4 C       -1.9410     2.9920    -1.9360 C.3   1 <1>   0.1810 
  5 C       -3.2810    -0.6630    -1.4650 C.3   1 <1>   0.1400 
  6 C       -3.2570     1.2670     0.1700 C.3   1 <1>   0.1400 
  7 O       -1.0350     3.1010    -0.8470 O.3   1 <1>  -0.3620 
  8 C       -4.7120    -1.0110    -1.0200 C.3   1 <1>   0.2000 
  9 C       -4.7020     0.9250     0.5570 C.3   1 <1>  -0.1600 
 10 C       -0.6820     4.3110    -0.3480 C.ar  1 <1>   0.0820 
 11 O       -4.9260    -2.3740    -1.2030 O.3   1 <1>  -0.6800 
 12 C       -5.0230    -0.5880     0.4450 C.3   1 <1>   0.0000 
 13 C        0.0750     4.3090     0.8120 C.ar  1 <1>  -0.1500 
 14 C       -1.0420     5.5230    -0.9310 C.ar  1 <1>  -0.1500 
 15 C       -4.1350    -1.4070     1.4260 C.3   1 <1>   0.1200 
 16 C       -6.5150    -0.8490     0.8100 C.3   1 <1>  -0.1600 
 17 C        0.4700     5.4980     1.4030 C.ar  1 <1>  -0.1430 
 18 C       -0.6500     6.7120    -0.3420 C.ar  1 <1>  -0.1500 
 19 O       -4.3100    -1.0010     2.7420 O.3   1 <1>  -0.6800 
 20 C       -7.5790    -0.2290    -0.1170 C.3   1 <1>  -0.1600 
 21 C        0.1010     6.7000     0.8210 C.ar  1 <1>  -0.1500 
 22 C        1.2980     5.4900     2.6750 C.3   1 <1>  -0.0970 
 23 C       -8.9880    -0.5410     0.3940 C.3   1 <1>  -0.2400 
 24 H       -2.8170     3.5710    -1.7150 H     1 <1>   0.0800 
 25 H       -1.4560     3.3820    -2.8120 H     1 <1>   0.0800 
 26 H       -3.1930    -0.8830    -2.5150 H     1 <1>   0.0800 
 27 H       -2.5650    -1.2680    -0.9390 H     1 <1>   0.0800 
 28 H       -2.5600     0.8180     0.8570 H     1 <1>   0.0800 
 29 H       -3.1350     2.3330     0.2380 H     1 <1>   0.0800 
 30 H       -5.3790    -0.5040    -1.6930 H     1 <1>   0.0800 
 31 H       -4.8940     1.2760     1.5540 H     1 <1>   0.0800 
 32 H       -5.3430     1.4860    -0.0980 H     1 <1>   0.0800 
 33 H       -4.3610    -2.9040    -0.6120 H     1 <1>   0.4000 
 34 H        0.3510     3.3660     1.2470 H     1 <1>   0.1500 
 35 H       -1.6170     5.5650    -1.8350 H     1 <1>   0.1500 
 36 H       -3.0890    -1.3100     1.1960 H     1 <1>   0.0800 
 37 H       -4.3940    -2.4510     1.3840 H     1 <1>   0.0800 
 38 H       -6.6790    -1.9130     0.8300 H     1 <1>   0.0800 
 39 H       -6.6950    -0.4930     1.8100 H     1 <1>   0.0800 
 40 H       -0.9270     7.6510    -0.7880 H     1 <1>   0.1500 
 41 H       -4.1340    -0.0460     2.8390 H     1 <1>   0.4000 
 42 H       -7.4650     0.8380    -0.1690 H     1 <1>   0.0800 
 43 H       -7.4850    -0.6310    -1.1110 H     1 <1>   0.0800 
 44 H        0.4000     7.6300     1.2710 H     1 <1>   0.1500 
 45 H        2.0450     6.2630     2.6370 H     1 <1>   0.0800 
 46 H        1.7950     4.5450     2.7990 H     1 <1>   0.0800 
 47 H        0.6620     5.6620     3.5240 H     1 <1>   0.0800 
 48 H       -9.1310    -0.1350     1.3800 H     1 <1>   0.0800 
 49 H       -9.1470    -1.6050     0.4310 H     1 <1>   0.0800 
 50 H       -9.7220    -0.1100    -0.2630 H     1 <1>   0.0800 
@<TRIPOS>BOND
  1   1   2  2   
  2   2   3  am  
  3   2   4  1   
  4   3   5  1   
  5   3   6  1   
  6   4   7  1   
  7   4  24  1   
  8   4  25  1   
  9   5   8  1   
 10   5  26  1   
 11   5  27  1   
 12   6   9  1   
 13   6  28  1   
 14   6  29  1   
 15   7  10  1   
 16   8  11  1   
 17   8  12  1   
 18   8  30  1   
 19   9  12  1   
 20   9  31  1   
 21   9  32  1   
 22  10  13  ar  
 23  10  14  ar  
 24  11  33  1   
 25  12  15  1   
 26  12  16  1   
 27  13  17  ar  
 28  13  34  1   
 29  14  18  ar  
 30  14  35  1   
 31  15  19  1   
 32  15  36  1   
 33  15  37  1   
 34  16  20  1   
 35  16  38  1   
 36  16  39  1   
 37  17  21  ar  
 38  17  22  1   
 39  18  21  ar  
 40  18  40  1   
 41  19  41  1   
 42  20  23  1   
 43  20  42  1   
 44  20  43  1   
 45  21  44  1   
 46  22  45  1   
 47  22  46  1   
 48  22  47  1   
 49  23  48  1   
 50  23  49  1   
 51  23  50  1   
@<TRIPOS>SUBSTRUCTURE
  1 ****   6 GROUP 4 **** **** 0

# MOE 2024.06 (io_trps.svl 2023.06)
