@<TRIPOS>MOLECULE
NONAME
55 58 1 0 0 
SMALL
USER_CHARGES


@<TRIPOS>ATOM
  1 O       -1.7480     0.7340    -1.8230 O.2   1 <1>  -0.5700 
  2 C       -1.7520     0.8460    -0.6180 C.2   1 <1>   0.5690 
  3 N       -1.8350    -0.2720     0.1560 N.am  1 <1>  -0.7300 
  4 C       -1.6590     2.2560     0.0320 C.3   1 <1>   0.2040 
  5 C       -1.8340    -1.6650    -0.3460 C.3   1 <1>   0.2200 
  6 C       -0.1730     2.6940    -0.0010 C.ar  1 <1>  -0.1440 
  7 C       -2.5900     3.2400    -0.7310 C.3   1 <1>  -0.1600 
  8 C       -2.1190     2.2770     1.5190 C.3   1 <1>  -0.1600 
  9 C       -3.2400    -2.2480    -0.3730 C.3   1 <1>  -0.0800 
 10 C       -1.1910    -2.5550     0.7080 C.3   1 <1>   0.1200 
 11 C        0.7780     1.8940     0.6270 C.ar  1 <1>  -0.1500 
 12 C        0.2750     3.8530    -0.6330 C.ar  1 <1>  -0.1500 
 13 C       -4.0800     2.8900    -0.5910 C.3   1 <1>  -0.1600 
 14 C       -3.6150     1.9740     1.7260 C.3   1 <1>  -0.1600 
 15 C       -3.4490    -2.7010     1.0760 C.3   1 <1>   0.1200 
 16 C       -4.3440    -1.3260    -0.9220 C.3   1 <1>  -0.0170 
 17 O       -2.1830    -2.7440     1.6720 O.3   1 <1>  -0.5600 
 18 C        2.1180     2.2380     0.6360 C.ar  1 <1>  -0.1500 
 19 C        1.6140     4.2000    -0.6260 C.ar  1 <1>  -0.1500 
 20 C       -4.5010     2.8970     0.8830 C.3   1 <1>  -0.1600 
 21 C       -5.6830    -2.0460    -0.9640 C.ar  1 <1>  -0.1440 
 22 C        2.5390     3.3940     0.0100 C.ar  1 <1>  -0.1500 
 23 C       -6.6370    -1.8790     0.0200 C.ar  1 <1>  -0.1500 
 24 C       -6.0120    -2.9060    -1.9910 C.ar  1 <1>  -0.1500 
 25 C       -7.8360    -2.5660    -0.0660 C.ar  1 <1>   0.1600 
 26 C       -7.2410    -3.5450    -1.9830 C.ar  1 <1>   0.1600 
 27 N       -8.1600    -3.3970    -1.0430 N.ar  1 <1>  -0.6200 
 28 H       -1.9220    -0.1950     1.1710 H     1 <1>   0.3700 
 29 H       -1.3360    -1.7260    -1.2990 H     1 <1>   0.0800 
 30 H       -2.4500     4.2340    -0.3470 H     1 <1>   0.0800 
 31 H       -2.3280     3.2500    -1.7760 H     1 <1>   0.0800 
 32 H       -1.5390     1.5880     2.1060 H     1 <1>   0.0800 
 33 H       -1.9190     3.2580     1.9140 H     1 <1>   0.0800 
 34 H       -3.2140    -3.1330    -0.9840 H     1 <1>   0.0800 
 35 H       -0.3220    -2.1110     1.1590 H     1 <1>   0.0800 
 36 H       -0.9420    -3.5180     0.2960 H     1 <1>   0.0800 
 37 H        0.4860     0.9830     1.1170 H     1 <1>   0.1500 
 38 H       -0.3980     4.5100    -1.1500 H     1 <1>   0.1500 
 39 H       -4.6670     3.6120    -1.1320 H     1 <1>   0.0800 
 40 H       -4.2730     1.9250    -1.0250 H     1 <1>   0.0800 
 41 H       -3.8270     0.9520     1.4710 H     1 <1>   0.0800 
 42 H       -3.8630     2.1000     2.7670 H     1 <1>   0.0800 
 43 H       -3.8960    -3.6790     1.1290 H     1 <1>   0.0800 
 44 H       -4.0450    -1.9970     1.6310 H     1 <1>   0.0800 
 45 H       -4.0790    -1.0040    -1.9150 H     1 <1>   0.0800 
 46 H       -4.4370    -0.4460    -0.3150 H     1 <1>   0.0800 
 47 H        2.8330     1.6030     1.1290 H     1 <1>   0.1500 
 48 H        1.9380     5.0990    -1.1200 H     1 <1>   0.1500 
 49 H       -5.5290     2.5910     0.9670 H     1 <1>   0.0800 
 50 H       -4.4260     3.9020     1.2650 H     1 <1>   0.0800 
 51 H        3.5800     3.6650     0.0150 H     1 <1>   0.1500 
 52 H       -6.4610    -1.2220     0.8520 H     1 <1>   0.1500 
 53 H       -5.3250    -3.0850    -2.7980 H     1 <1>   0.1500 
 54 H       -8.5690    -2.4250     0.7110 H     1 <1>   0.1500 
 55 H       -7.4800    -4.2120    -2.7930 H     1 <1>   0.1500 
@<TRIPOS>BOND
  1   1   2  2   
  2   2   3  am  
  3   2   4  1   
  4   3   5  1   
  5   3  28  1   
  6   4   6  1   
  7   4   7  1   
  8   4   8  1   
  9   5   9  1   
 10   5  10  1   
 11   5  29  1   
 12   6  11  ar  
 13   6  12  ar  
 14   7  13  1   
 15   7  30  1   
 16   7  31  1   
 17   8  14  1   
 18   8  32  1   
 19   8  33  1   
 20   9  15  1   
 21   9  16  1   
 22   9  34  1   
 23  10  17  1   
 24  10  35  1   
 25  10  36  1   
 26  11  18  ar  
 27  11  37  1   
 28  12  19  ar  
 29  12  38  1   
 30  13  20  1   
 31  13  39  1   
 32  13  40  1   
 33  14  20  1   
 34  14  41  1   
 35  14  42  1   
 36  15  17  1   
 37  15  43  1   
 38  15  44  1   
 39  16  21  1   
 40  16  45  1   
 41  16  46  1   
 42  18  22  ar  
 43  18  47  1   
 44  19  22  ar  
 45  19  48  1   
 46  20  49  1   
 47  20  50  1   
 48  21  23  ar  
 49  21  24  ar  
 50  22  51  1   
 51  23  25  ar  
 52  23  52  1   
 53  24  26  ar  
 54  24  53  1   
 55  25  27  ar  
 56  25  54  1   
 57  26  27  ar  
 58  26  55  1   
@<TRIPOS>SUBSTRUCTURE
  1 ****   3 GROUP 4 **** **** 0

# MOE 2024.06 (io_trps.svl 2023.06)
