@<TRIPOS>MOLECULE
NONAME
44 44 1 0 0 
SMALL
USER_CHARGES


@<TRIPOS>ATOM
  1 S        0.3050    -0.0370     0.8240 S.o2  1 <1>   1.3330 
  2 O        1.6590     0.4070     0.5970 O.2   1 <1>  -0.6500 
  3 O       -0.2270    -0.1400     2.1640 O.2   1 <1>  -0.6500 
  4 N       -0.7430     0.9340    -0.0950 N.am  1 <1>  -0.8490 
  5 C        0.0910    -1.6530     0.0670 C.3   1 <1>  -0.0550 
  6 C       -0.1130     1.4760    -1.3060 C.3   1 <1>   0.1160 
  7 C       -1.2980     2.0410     0.6950 C.3   1 <1>   0.1160 
  8 C       -1.3490    -2.1900     0.1880 C.3   1 <1>  -0.1600 
  9 C       -1.4820    -3.5960    -0.3960 C.3   1 <1>   0.3430 
 10 N       -2.8410    -4.1430    -0.1160 N.4   1 <1>  -0.9590 
 11 C       -2.8440    -5.6250    -0.3400 C.3   1 <1>   0.3430 
 12 C       -3.8990    -3.4550    -0.9290 C.3   1 <1>   0.2630 
 13 C       -4.0930    -6.2980     0.2340 C.3   1 <1>  -0.0170 
 14 C       -3.9490    -7.7970     0.0640 C.ar  1 <1>  -0.1440 
 15 C       -4.3600    -8.4090    -1.1110 C.ar  1 <1>  -0.1500 
 16 C       -3.3950    -8.5680     1.0750 C.ar  1 <1>  -0.1500 
 17 C       -4.2120    -9.7750    -1.2760 C.ar  1 <1>  -0.1500 
 18 C       -3.2470    -9.9340     0.9100 C.ar  1 <1>  -0.1500 
 19 C       -3.6540   -10.5380    -0.2660 C.ar  1 <1>  -0.1500 
 20 H        0.7650    -2.3370     0.5480 H     1 <1>   0.0800 
 21 H        0.3690    -1.5920    -0.9670 H     1 <1>   0.0800 
 22 H        0.2880     0.6790    -1.9080 H     1 <1>   0.0800 
 23 H        0.6910     2.1460    -1.0450 H     1 <1>   0.0800 
 24 H       -0.8380     2.0140    -1.8930 H     1 <1>   0.0800 
 25 H       -1.8600     1.6570     1.5300 H     1 <1>   0.0800 
 26 H       -1.9610     2.6370     0.0910 H     1 <1>   0.0800 
 27 H       -0.5060     2.6670     1.0730 H     1 <1>   0.0800 
 28 H       -2.0080    -1.5090    -0.3210 H     1 <1>   0.0800 
 29 H       -1.6160    -2.2090     1.2310 H     1 <1>   0.0800 
 30 H       -0.7390    -4.2310     0.0610 H     1 <1>   0.0800 
 31 H       -1.2990    -3.5760    -1.4590 H     1 <1>   0.0800 
 32 H       -3.0370    -3.9780     0.8830 H     1 <1>   0.4500 
 33 H       -1.9820    -6.0630     0.1380 H     1 <1>   0.0800 
 34 H       -2.7770    -5.8410    -1.3940 H     1 <1>   0.0800 
 35 H       -3.7210    -3.6050    -1.9810 H     1 <1>   0.0800 
 36 H       -3.9000    -2.3960    -0.7270 H     1 <1>   0.0800 
 37 H       -4.8740    -3.8430    -0.6860 H     1 <1>   0.0800 
 38 H       -4.9780    -5.9710    -0.2800 H     1 <1>   0.0800 
 39 H       -4.1950    -6.0670     1.2800 H     1 <1>   0.0800 
 40 H       -4.8020    -7.8370    -1.9090 H     1 <1>   0.1500 
 41 H       -3.0770    -8.1210     2.0010 H     1 <1>   0.1500 
 42 H       -4.5320   -10.2490    -2.1880 H     1 <1>   0.1500 
 43 H       -2.8180   -10.5300     1.6970 H     1 <1>   0.1500 
 44 H       -3.5390   -11.6010    -0.3930 H     1 <1>   0.1500 
@<TRIPOS>BOND
  1   1   2  2   
  2   1   3  2   
  3   1   4  am  
  4   1   5  1   
  5   4   6  1   
  6   4   7  1   
  7   5   8  1   
  8   5  20  1   
  9   5  21  1   
 10   6  22  1   
 11   6  23  1   
 12   6  24  1   
 13   7  25  1   
 14   7  26  1   
 15   7  27  1   
 16   8   9  1   
 17   8  28  1   
 18   8  29  1   
 19   9  10  1   
 20   9  30  1   
 21   9  31  1   
 22  10  11  1   
 23  10  12  1   
 24  10  32  1   
 25  11  13  1   
 26  11  33  1   
 27  11  34  1   
 28  12  35  1   
 29  12  36  1   
 30  12  37  1   
 31  13  14  1   
 32  13  38  1   
 33  13  39  1   
 34  14  15  ar  
 35  14  16  ar  
 36  15  17  ar  
 37  15  40  1   
 38  16  18  ar  
 39  16  41  1   
 40  17  19  ar  
 41  17  42  1   
 42  18  19  ar  
 43  18  43  1   
 44  19  44  1   
@<TRIPOS>SUBSTRUCTURE
  1 ****  10 GROUP 4 **** **** 0

# MOE 2024.06 (io_trps.svl 2023.06)
