@<TRIPOS>MOLECULE
NONAME
53 55 1 0 0 
SMALL
USER_CHARGES


@<TRIPOS>ATOM
  1 O       -0.9670     0.4360    -1.0250 O.2   1 <1>  -0.5700 
  2 C       -0.6660     1.5190    -0.5790 C.2   1 <1>   0.5690 
  3 N       -1.5880     2.3660    -0.0170 N.am  1 <1>  -0.6600 
  4 C        0.8060     1.9310    -0.6780 C.3   1 <1>   0.1810 
  5 C       -1.1640     3.7420     0.4420 C.3   1 <1>   0.3640 
  6 C       -2.9340     1.8320     0.3680 C.3   1 <1>   0.2200 
  7 O        1.1540     2.9630     0.2090 O.3   1 <1>  -0.5600 
  8 C       -2.0270     4.8380    -0.1860 C.ar  1 <1>  -0.1440 
  9 C        0.3080     4.0880     0.1100 C.3   1 <1>   0.2610 
 10 C       -3.9970     2.2340    -0.6520 C.3   1 <1>  -0.2400 
 11 C       -3.3420     2.2390     1.7850 C.3   1 <1>  -0.2400 
 12 C       -2.5350     5.8540     0.6110 C.ar  1 <1>  -0.1500 
 13 C       -2.2800     4.8630    -1.5520 C.ar  1 <1>  -0.1500 
 14 C        0.8030     5.2540     0.9890 C.2   1 <1>   0.5690 
 15 C       -3.2860     6.8740     0.0550 C.ar  1 <1>  -0.1500 
 16 C       -3.0310     5.8820    -2.1090 C.ar  1 <1>  -0.1500 
 17 O        0.4570     5.2770     2.1510 O.2   1 <1>  -0.5700 
 18 N        1.5830     6.2630     0.4630 N.am  1 <1>  -0.6600 
 19 C       -3.5350     6.8890    -1.3060 C.ar  1 <1>  -0.1500 
 20 C        2.1480     6.2470    -0.9130 C.3   1 <1>   0.1400 
 21 C        1.8950     7.4800     1.2590 C.3   1 <1>   0.1400 
 22 C        1.1770     6.9550    -1.8650 C.3   1 <1>  -0.1600 
 23 C        1.2000     8.7160     0.6730 C.3   1 <1>  -0.1600 
 24 C        1.2950     8.4900    -1.9100 C.3   1 <1>  -0.1600 
 25 C        1.8230     9.1950    -0.6490 C.3   1 <1>  -0.1600 
 26 H        1.0230     2.2510    -1.6800 H     1 <1>   0.0800 
 27 H        1.4240     1.0830    -0.4450 H     1 <1>   0.0800 
 28 H       -1.2750     3.7740     1.5110 H     1 <1>   0.0800 
 29 H       -2.8820     0.7550     0.3600 H     1 <1>   0.0800 
 30 H        0.3350     4.4040    -0.9130 H     1 <1>   0.0800 
 31 H       -4.2320     3.2790    -0.5800 H     1 <1>   0.0800 
 32 H       -4.8990     1.6810    -0.4660 H     1 <1>   0.0800 
 33 H       -3.6600     2.0040    -1.6460 H     1 <1>   0.0800 
 34 H       -3.5390     3.2930     1.8470 H     1 <1>   0.0800 
 35 H       -2.5720     1.9680     2.4850 H     1 <1>   0.0800 
 36 H       -4.2420     1.7190     2.0600 H     1 <1>   0.0800 
 37 H       -2.3400     5.8620     1.6710 H     1 <1>   0.1500 
 38 H       -1.8980     4.0810    -2.1860 H     1 <1>   0.1500 
 39 H       -3.6760     7.6580     0.6820 H     1 <1>   0.1500 
 40 H       -3.2260     5.8910    -3.1680 H     1 <1>   0.1500 
 41 H       -4.1190     7.6830    -1.7380 H     1 <1>   0.1500 
 42 H        3.1110     6.7270    -0.9260 H     1 <1>   0.0800 
 43 H        2.2990     5.2300    -1.2290 H     1 <1>   0.0800 
 44 H        1.5670     7.3520     2.2760 H     1 <1>   0.0800 
 45 H        2.9600     7.6270     1.2850 H     1 <1>   0.0800 
 46 H        1.3450     6.5830    -2.8610 H     1 <1>   0.0800 
 47 H        0.1680     6.6900    -1.6000 H     1 <1>   0.0800 
 48 H        0.1460     8.5290     0.5580 H     1 <1>   0.0800 
 49 H        1.3060     9.5080     1.3930 H     1 <1>   0.0800 
 50 H        1.9440     8.7600    -2.7260 H     1 <1>   0.0800 
 51 H        0.3220     8.8880    -2.1450 H     1 <1>   0.0800 
 52 H        1.6180    10.2470    -0.7570 H     1 <1>   0.0800 
 53 H        2.8930     9.0940    -0.5970 H     1 <1>   0.0800 
@<TRIPOS>BOND
  1   1   2  2   
  2   2   3  am  
  3   2   4  1   
  4   3   5  1   
  5   3   6  1   
  6   4   7  1   
  7   4  26  1   
  8   4  27  1   
  9   5   8  1   
 10   5   9  1   
 11   5  28  1   
 12   6  10  1   
 13   6  11  1   
 14   6  29  1   
 15   7   9  1   
 16   8  12  ar  
 17   8  13  ar  
 18   9  14  1   
 19   9  30  1   
 20  10  31  1   
 21  10  32  1   
 22  10  33  1   
 23  11  34  1   
 24  11  35  1   
 25  11  36  1   
 26  12  15  ar  
 27  12  37  1   
 28  13  16  ar  
 29  13  38  1   
 30  14  17  2   
 31  14  18  am  
 32  15  19  ar  
 33  15  39  1   
 34  16  19  ar  
 35  16  40  1   
 36  18  20  1   
 37  18  21  1   
 38  19  41  1   
 39  20  22  1   
 40  20  42  1   
 41  20  43  1   
 42  21  23  1   
 43  21  44  1   
 44  21  45  1   
 45  22  24  1   
 46  22  46  1   
 47  22  47  1   
 48  23  25  1   
 49  23  48  1   
 50  23  49  1   
 51  24  25  1   
 52  24  50  1   
 53  24  51  1   
 54  25  52  1   
 55  25  53  1   
@<TRIPOS>SUBSTRUCTURE
  1 ****   9 GROUP 4 **** **** 0

# MOE 2024.06 (io_trps.svl 2023.06)
