@<TRIPOS>MOLECULE
NONAME
47 50 1 0 0 
SMALL
USER_CHARGES


@<TRIPOS>ATOM
  1 S       -0.4970     0.1310    -1.1890 S.o2  1 <1>   1.5760 
  2 O       -1.1800    -0.9940    -1.7860 O.2   1 <1>  -0.6500 
  3 O       -0.0950     1.2620    -1.9960 O.2   1 <1>  -0.6500 
  4 N       -1.4200     0.6910     0.1060 N.am  1 <1>  -0.8490 
  5 N        0.8580    -0.4360    -0.3640 N.am  1 <1>  -0.8490 
  6 C       -2.5590     1.4870    -0.3820 C.3   1 <1>   0.1960 
  7 C       -1.8900    -0.4120     0.9500 C.3   1 <1>   0.1960 
  8 C        1.6460     0.6090     0.2620 C.3   1 <1>   0.1960 
  9 C        1.7760    -1.1490    -1.2290 C.3   1 <1>   0.1960 
 10 C       -3.3420     2.1300     0.7790 C.3   1 <1>   0.1440 
 11 C       -2.6330     0.1350     2.1750 C.3   1 <1>  -0.1600 
 12 C        2.9790    -0.0610     0.5690 C.3   1 <1>  -0.1600 
 13 C        3.0770    -1.2100    -0.4360 C.3   1 <1>  -0.1600 
 14 C       -4.4980     2.9230     0.2010 C.ar  1 <1>   0.1670 
 15 C       -3.8090     1.0330     1.7590 C.3   1 <1>  -0.1600 
 16 C       -2.5040     3.2290     1.4880 C.3   1 <1>  -0.1600 
 17 N       -5.5910     2.4100    -0.3200 N.ar  1 <1>  -0.6200 
 18 C       -4.2690     4.2650     0.2640 C.ar  1 <1>  -0.1430 
 19 C       -2.9320     4.5790     0.8870 C.3   1 <1>  -0.0160 
 20 C       -6.4580     3.3070    -0.7690 C.ar  1 <1>   0.4770 
 21 C       -5.2360     5.1040    -0.2320 C.ar  1 <1>   0.1600 
 22 N       -6.3470     4.6290    -0.7540 N.ar  1 <1>  -0.6200 
 23 C       -7.7290     2.7560    -1.3670 C.3   1 <1>  -0.0970 
 24 H       -3.2220     0.8590    -0.9560 H     1 <1>   0.0800 
 25 H       -2.2040     2.2690    -1.0320 H     1 <1>   0.0800 
 26 H       -1.0500    -1.0000     1.2830 H     1 <1>   0.0800 
 27 H       -2.5440    -1.0570     0.3840 H     1 <1>   0.0800 
 28 H        1.1620     0.9780     1.1510 H     1 <1>   0.0800 
 29 H        1.8040     1.4250    -0.4250 H     1 <1>   0.0800 
 30 H        1.9290    -0.5920    -2.1400 H     1 <1>   0.0800 
 31 H        1.3970    -2.1290    -1.4660 H     1 <1>   0.0800 
 32 H       -1.9380     0.6880     2.7830 H     1 <1>   0.0800 
 33 H       -2.9990    -0.6880     2.7620 H     1 <1>   0.0800 
 34 H        2.9650    -0.4460     1.5740 H     1 <1>   0.0800 
 35 H        3.7920     0.6360     0.4700 H     1 <1>   0.0800 
 36 H        3.9240    -1.1050    -1.0900 H     1 <1>   0.0800 
 37 H        3.1440    -2.1530     0.0790 H     1 <1>   0.0800 
 38 H       -4.5500     0.4240     1.2700 H     1 <1>   0.0800 
 39 H       -4.2730     1.4730     2.6240 H     1 <1>   0.0800 
 40 H       -1.4450     3.0680     1.3850 H     1 <1>   0.0800 
 41 H       -2.7400     3.2410     2.5370 H     1 <1>   0.0800 
 42 H       -2.2410     4.8900     0.1220 H     1 <1>   0.0800 
 43 H       -3.0120     5.3420     1.6420 H     1 <1>   0.0800 
 44 H       -5.1000     6.1710    -0.2030 H     1 <1>   0.1500 
 45 H       -7.5460     1.7890    -1.7980 H     1 <1>   0.0800 
 46 H       -8.0930     3.4160    -2.1330 H     1 <1>   0.0800 
 47 H       -8.4710     2.6650    -0.5970 H     1 <1>   0.0800 
@<TRIPOS>BOND
  1   1   2  2   
  2   1   3  2   
  3   1   4  am  
  4   1   5  am  
  5   4   6  1   
  6   4   7  1   
  7   5   8  1   
  8   5   9  1   
  9   6  10  1   
 10   6  24  1   
 11   6  25  1   
 12   7  11  1   
 13   7  26  1   
 14   7  27  1   
 15   8  12  1   
 16   8  28  1   
 17   8  29  1   
 18   9  13  1   
 19   9  30  1   
 20   9  31  1   
 21  10  14  1   
 22  10  15  1   
 23  10  16  1   
 24  11  15  1   
 25  11  32  1   
 26  11  33  1   
 27  12  13  1   
 28  12  34  1   
 29  12  35  1   
 30  13  36  1   
 31  13  37  1   
 32  14  17  ar  
 33  14  18  ar  
 34  15  38  1   
 35  15  39  1   
 36  16  19  1   
 37  16  40  1   
 38  16  41  1   
 39  17  20  ar  
 40  18  19  1   
 41  18  21  ar  
 42  19  42  1   
 43  19  43  1   
 44  20  22  ar  
 45  20  23  1   
 46  21  22  ar  
 47  21  44  1   
 48  23  45  1   
 49  23  46  1   
 50  23  47  1   
@<TRIPOS>SUBSTRUCTURE
  1 ****   6 GROUP 4 **** **** 0

# MOE 2024.06 (io_trps.svl 2023.06)
