@<TRIPOS>MOLECULE
NONAME
36 37 1 0 0 
SMALL
USER_CHARGES


@<TRIPOS>ATOM
  1 N        0.0550     0.1750    -0.2840 N.ar  1 <1>  -0.6200 
  2 C       -1.0720     0.2330     0.4150 C.ar  1 <1>   0.7200 
  3 C        0.7490     1.2830    -0.3340 C.ar  1 <1>   0.1660 
  4 N       -1.5700     1.2780     1.0570 N.ar  1 <1>  -0.6200 
  5 N       -1.8350    -0.8740     0.5030 N.pl3 1 <1>  -0.8690 
  6 C        0.3280     2.4290     0.2990 C.ar  1 <1>  -0.1500 
  7 C        2.0410     1.2470    -1.1220 C.3   1 <1>  -0.0970 
  8 C       -0.8590     2.3750     0.9930 C.ar  1 <1>   0.1670 
  9 C       -1.9290    -1.8460    -0.6050 C.3   1 <1>   0.4330 
 10 C       -1.4010     3.5870     1.7200 C.3   1 <1>  -0.0970 
 11 C       -3.3710    -2.3500    -0.7650 C.ar  1 <1>   0.1670 
 12 C       -0.9750    -3.0040    -0.3140 C.3   1 <1>  -0.2400 
 13 N       -3.8800    -2.3470    -1.9930 N.ar  1 <1>  -0.6200 
 14 C       -4.0750    -2.7840     0.3530 C.ar  1 <1>  -0.1500 
 15 C       -5.1240    -2.7820    -2.1020 C.ar  1 <1>   0.1600 
 16 C       -5.3720    -3.2350     0.2270 C.ar  1 <1>  -0.1430 
 17 C       -5.8990    -3.2290    -1.0460 C.ar  1 <1>  -0.1500 
 18 C       -6.1690    -3.7150     1.4250 C.3   1 <1>  -0.0970 
 19 H       -2.7450    -0.6320     0.8840 H     1 <1>   0.4000 
 20 H        0.9040     3.3330     0.2530 H     1 <1>   0.1500 
 21 H        2.6970     0.5070    -0.7010 H     1 <1>   0.0800 
 22 H        2.5330     2.2020    -1.1030 H     1 <1>   0.0800 
 23 H        1.8310     0.9820    -2.1420 H     1 <1>   0.0800 
 24 H       -1.6340    -1.3680    -1.5250 H     1 <1>   0.0800 
 25 H       -2.3680     3.8400     1.3230 H     1 <1>   0.0800 
 26 H       -0.7470     4.4310     1.6080 H     1 <1>   0.0800 
 27 H       -1.5050     3.3610     2.7650 H     1 <1>   0.0800 
 28 H       -1.2310    -3.4780     0.6150 H     1 <1>   0.0800 
 29 H        0.0350    -2.6400    -0.2630 H     1 <1>   0.0800 
 30 H       -1.0400    -3.7280    -1.1040 H     1 <1>   0.0800 
 31 H       -3.6020    -2.7690     1.3190 H     1 <1>   0.1500 
 32 H       -5.5510    -2.7840    -3.0900 H     1 <1>   0.1500 
 33 H       -6.9030    -3.5660    -1.2270 H     1 <1>   0.1500 
 34 H       -5.8820    -3.1720     2.3080 H     1 <1>   0.0800 
 35 H       -5.9890    -4.7620     1.5870 H     1 <1>   0.0800 
 36 H       -7.2210    -3.5640     1.2620 H     1 <1>   0.0800 
@<TRIPOS>BOND
  1   1   2  ar  
  2   1   3  ar  
  3   2   4  ar  
  4   2   5  1   
  5   3   6  ar  
  6   3   7  1   
  7   4   8  ar  
  8   5   9  1   
  9   5  19  1   
 10   6   8  ar  
 11   6  20  1   
 12   7  21  1   
 13   7  22  1   
 14   7  23  1   
 15   8  10  1   
 16   9  11  1   
 17   9  12  1   
 18   9  24  1   
 19  10  25  1   
 20  10  26  1   
 21  10  27  1   
 22  11  13  ar  
 23  11  14  ar  
 24  12  28  1   
 25  12  29  1   
 26  12  30  1   
 27  13  15  ar  
 28  14  16  ar  
 29  14  31  1   
 30  15  17  ar  
 31  15  32  1   
 32  16  17  ar  
 33  16  18  1   
 34  17  33  1   
 35  18  34  1   
 36  18  35  1   
 37  18  36  1   
@<TRIPOS>SUBSTRUCTURE
  1 ****   5 GROUP 4 **** **** 0

# MOE 2024.06 (io_trps.svl 2023.06)
