@<TRIPOS>MOLECULE
NONAME
52 54 1 0 0 
SMALL
USER_CHARGES


@<TRIPOS>ATOM
  1 O       -0.6720     2.4770     0.3320 O.2   1 <1>  -0.5700 
  2 C        0.2480     1.7470     0.0420 C.2   1 <1>   0.5690 
  3 N       -0.0170     0.5450    -0.5160 N.am  1 <1>  -0.8000 
  4 C        1.7000     2.2090     0.3080 C.3   1 <1>   0.3500 
  5 N        1.7650     3.6850     0.5430 N.pl3 1 <1>  -0.8690 
  6 C        2.3200     1.4880     1.5130 C.3   1 <1>  -0.0170 
  7 C        2.7600     4.5280     0.2080 C.ar  1 <1>   0.4100 
  8 C        2.4340    -0.0100     1.2660 C.ar  1 <1>  -0.1430 
  9 N        3.8940     3.9810    -0.1720 N.ar  1 <1>  -0.6200 
 10 C        2.5670     5.9300     0.2790 C.ar  1 <1>  -0.1430 
 11 C        3.3590    -0.4930     0.3510 C.ar  1 <1>  -0.1500 
 12 C        1.6050    -0.8990     1.9360 C.ar  1 <1>  -0.1500 
 13 C        4.8930     4.7890    -0.4820 C.ar  1 <1>   0.7710 
 14 C        3.6250     6.7320    -0.0340 C.ar  1 <1>   0.2180 
 15 C        1.1860     6.4590     0.6890 C.3   1 <1>  -0.0970 
 16 C        3.4460    -1.8510     0.0980 C.ar  1 <1>  -0.1500 
 17 C        1.6900    -2.2580     1.6880 C.ar  1 <1>  -0.1500 
 18 N        4.7720     6.1230    -0.4180 N.ar  1 <1>  -0.1790 
 19 N        6.0770     4.2570    -0.8740 N.pl3 1 <1>  -0.8380 
 20 C        3.6430     8.2560     0.0050 C.3   1 <1>  -0.0970 
 21 C        2.6100    -2.7280     0.7660 C.ar  1 <1>   0.0830 
 22 C        6.2700     2.7830    -0.9810 C.3   1 <1>   0.2090 
 23 C        7.3420     4.9600    -1.2210 C.3   1 <1>   0.2090 
 24 O        2.7020    -4.0400     0.5090 O.3   1 <1>  -0.5330 
 25 C        7.6320     2.6040    -1.6370 C.3   1 <1>  -0.1600 
 26 C        8.4010     3.8670    -1.2720 C.3   1 <1>  -0.1600 
 27 H       -0.9860     0.2660    -0.6700 H     1 <1>   0.3700 
 28 H        0.6880    -0.1900    -0.6240 H     1 <1>   0.3700 
 29 H        2.2780     1.9770    -0.5690 H     1 <1>   0.0800 
 30 H        0.8310     4.0410     0.7860 H     1 <1>   0.4000 
 31 H        3.3030     1.8820     1.6950 H     1 <1>   0.0800 
 32 H        1.7190     1.6760     2.3850 H     1 <1>   0.0800 
 33 H        4.0170     0.1820    -0.1680 H     1 <1>   0.1500 
 34 H        0.8870    -0.5370     2.6520 H     1 <1>   0.1500 
 35 H        1.0770     7.5150     0.5360 H     1 <1>   0.0800 
 36 H        1.0050     6.2450     1.7280 H     1 <1>   0.0800 
 37 H        0.4190     5.9780     0.1060 H     1 <1>   0.0800 
 38 H        4.1580    -2.2370    -0.6090 H     1 <1>   0.1500 
 39 H        1.0440    -2.9390     2.2120 H     1 <1>   0.1500 
 40 H        5.5960     6.6430    -0.6840 H     1 <1>   0.4570 
 41 H        2.9270     8.6410     0.7070 H     1 <1>   0.0800 
 42 H        3.4150     8.6520    -0.9700 H     1 <1>   0.0800 
 43 H        4.6080     8.6190     0.3100 H     1 <1>   0.0800 
 44 H        6.2720     2.3520     0.0070 H     1 <1>   0.0800 
 45 H        5.4920     2.3270    -1.5700 H     1 <1>   0.0800 
 46 H        7.2470     5.4140    -2.1950 H     1 <1>   0.0800 
 47 H        7.6050     5.7030    -0.4870 H     1 <1>   0.0800 
 48 H        2.1040    -4.5810     1.0540 H     1 <1>   0.4500 
 49 H        8.1240     1.7100    -1.2960 H     1 <1>   0.0800 
 50 H        7.5030     2.5450    -2.7040 H     1 <1>   0.0800 
 51 H        9.1780     4.0920    -1.9820 H     1 <1>   0.0800 
 52 H        8.8430     3.7570    -0.2960 H     1 <1>   0.0800 
@<TRIPOS>BOND
  1   1   2  2   
  2   2   3  am  
  3   2   4  1   
  4   3  27  1   
  5   3  28  1   
  6   4   5  1   
  7   4   6  1   
  8   4  29  1   
  9   5   7  1   
 10   5  30  1   
 11   6   8  1   
 12   6  31  1   
 13   6  32  1   
 14   7   9  ar  
 15   7  10  ar  
 16   8  11  ar  
 17   8  12  ar  
 18   9  13  ar  
 19  10  14  ar  
 20  10  15  1   
 21  11  16  ar  
 22  11  33  1   
 23  12  17  ar  
 24  12  34  1   
 25  13  18  ar  
 26  13  19  1   
 27  14  18  ar  
 28  14  20  1   
 29  15  35  1   
 30  15  36  1   
 31  15  37  1   
 32  16  21  ar  
 33  16  38  1   
 34  17  21  ar  
 35  17  39  1   
 36  18  40  1   
 37  19  22  1   
 38  19  23  1   
 39  20  41  1   
 40  20  42  1   
 41  20  43  1   
 42  21  24  1   
 43  22  25  1   
 44  22  44  1   
 45  22  45  1   
 46  23  26  1   
 47  23  46  1   
 48  23  47  1   
 49  24  48  1   
 50  25  26  1   
 51  25  49  1   
 52  25  50  1   
 53  26  51  1   
 54  26  52  1   
@<TRIPOS>SUBSTRUCTURE
  1 ****   9 GROUP 4 **** **** 0

# MOE 2024.06 (io_trps.svl 2023.06)
