@<TRIPOS>MOLECULE
NONAME
49 51 1 0 0 
SMALL
USER_CHARGES


@<TRIPOS>ATOM
  1 S        1.7570     2.0900    -0.3190 S.o2  1 <1>   1.3330 
  2 O        1.2420     2.7000    -1.5220 O.2   1 <1>  -0.6500 
  3 O        2.4820     2.9170     0.6200 O.2   1 <1>  -0.6500 
  4 N        2.6820     0.7290    -0.7150 N.am  1 <1>  -0.8490 
  5 C        0.3600     1.4200     0.5910 C.3   1 <1>  -0.0550 
  6 C        2.2320     0.0510    -1.9370 C.3   1 <1>   0.1160 
  7 C        4.1130     1.0390    -0.8220 C.3   1 <1>   0.1160 
  8 C       -0.6400     2.4570     1.1680 C.3   1 <1>  -0.0800 
  9 C       -1.2840     3.3470     0.0970 C.3   1 <1>   0.2000 
 10 C        0.0050     3.4590     2.1340 C.3   1 <1>   0.3430 
 11 O       -2.5850     3.6310     0.4920 O.3   1 <1>  -0.6800 
 12 C       -0.4660     4.6480     0.0720 C.3   1 <1>   0.3430 
 13 N        0.3840     4.6300     1.3040 N.4   1 <1>  -0.9590 
 14 C        0.4890     5.9400     2.0050 C.3   1 <1>   0.5240 
 15 C        1.1470     6.9400     1.0670 C.2   1 <1>   0.0460 
 16 N        2.2150     6.5740     0.3340 N.2   1 <1>  -0.5650 
 17 C        0.8340     8.2160     0.7960 C.2   1 <1>  -0.0400 
 18 C        2.5070     7.6420    -0.3480 C.2   1 <1>   0.4780 
 19 O        1.6870     8.6460    -0.0870 O.3   1 <1>  -0.2800 
 20 C       -0.2400     9.1680     1.2860 C.3   1 <1>  -0.0600 
 21 C        3.5630     7.8200    -1.3050 C.2   1 <1>   0.0400 
 22 S        4.6080     6.4480    -1.6910 S.3   1 <1>  -0.0800 
 23 C        3.9650     8.8910    -2.0370 C.2   1 <1>  -0.1500 
 24 C        5.5460     7.3910    -2.8310 C.2   1 <1>  -0.1100 
 25 C        5.0790     8.6510    -2.8940 C.2   1 <1>  -0.1500 
 26 H       -0.1790     0.7530    -0.0540 H     1 <1>   0.0800 
 27 H        0.7420     0.8270     1.4000 H     1 <1>   0.0800 
 28 H        2.8050    -0.8480    -2.0930 H     1 <1>   0.0800 
 29 H        2.3540     0.6950    -2.7930 H     1 <1>   0.0800 
 30 H        1.1940    -0.2200    -1.8540 H     1 <1>   0.0800 
 31 H        4.6720     0.1480    -1.0500 H     1 <1>   0.0800 
 32 H        4.4780     1.4330     0.1120 H     1 <1>   0.0800 
 33 H        4.2830     1.7710    -1.5950 H     1 <1>   0.0800 
 34 H       -1.3960     1.8950     1.6900 H     1 <1>   0.0800 
 35 H       -1.3350     2.8860    -0.8760 H     1 <1>   0.0800 
 36 H        0.8650     3.0380     2.6320 H     1 <1>   0.0800 
 37 H       -0.7210     3.7580     2.8730 H     1 <1>   0.0800 
 38 H       -2.6500     3.9750     1.4030 H     1 <1>   0.4000 
 39 H       -1.1230     5.5010     0.0470 H     1 <1>   0.0800 
 40 H        0.1690     4.6710    -0.8000 H     1 <1>   0.0800 
 41 H        1.3610     4.4650     0.9640 H     1 <1>   0.4500 
 42 H       -0.4830     6.2930     2.3040 H     1 <1>   0.0800 
 43 H        1.1090     5.8320     2.8790 H     1 <1>   0.0800 
 44 H       -0.8760     8.6940     2.0110 H     1 <1>   0.0800 
 45 H       -0.8410     9.4960     0.4570 H     1 <1>   0.0800 
 46 H        0.2190    10.0300     1.7370 H     1 <1>   0.0800 
 47 H        3.5000     9.8610    -1.9970 H     1 <1>   0.1500 
 48 H        6.3560     6.8980    -3.3380 H     1 <1>   0.1500 
 49 H        5.4780     9.4320    -3.5180 H     1 <1>   0.1500 
@<TRIPOS>BOND
  1   1   2  2   
  2   1   3  2   
  3   1   4  am  
  4   1   5  1   
  5   4   6  1   
  6   4   7  1   
  7   5   8  1   
  8   5  26  1   
  9   5  27  1   
 10   6  28  1   
 11   6  29  1   
 12   6  30  1   
 13   7  31  1   
 14   7  32  1   
 15   7  33  1   
 16   8   9  1   
 17   8  10  1   
 18   8  34  1   
 19   9  11  1   
 20   9  12  1   
 21   9  35  1   
 22  10  13  1   
 23  10  36  1   
 24  10  37  1   
 25  11  38  1   
 26  12  13  1   
 27  12  39  1   
 28  12  40  1   
 29  13  14  1   
 30  13  41  1   
 31  14  15  1   
 32  14  42  1   
 33  14  43  1   
 34  15  16  1   
 35  15  17  2   
 36  16  18  2   
 37  17  19  1   
 38  17  20  1   
 39  18  19  1   
 40  18  21  1   
 41  20  44  1   
 42  20  45  1   
 43  20  46  1   
 44  21  22  1   
 45  21  23  2   
 46  22  24  1   
 47  23  25  1   
 48  23  47  1   
 49  24  25  2   
 50  24  48  1   
 51  25  49  1   
@<TRIPOS>SUBSTRUCTURE
  1 ****  16 GROUP 4 **** **** 0

# MOE 2024.06 (io_trps.svl 2023.06)
