@<TRIPOS>MOLECULE
NONAME
46 48 1 0 0 
SMALL
USER_CHARGES


@<TRIPOS>ATOM
  1 O       -1.6780     0.3360    -1.5840 O.2   1 <1>  -0.5700 
  2 C       -1.9580     0.7150    -0.4590 C.2   1 <1>   0.7160 
  3 N       -2.8820    -0.0160     0.2460 N.am  1 <1>  -0.6600 
  4 C       -1.4020     1.9450     0.0910 C.2   1 <1>   0.1410 
  5 C       -2.8110    -1.5000     0.3340 C.3   1 <1>   0.3640 
  6 C       -4.2870     0.4690     0.2790 C.3   1 <1>   0.1400 
  7 N       -2.1080     2.7670     0.9360 N.2   1 <1>  -0.5650 
  8 C       -0.1830     2.5160    -0.0950 C.2   1 <1>  -0.0400 
  9 C       -1.3670    -2.0130     0.4200 C.ar  1 <1>  -0.1440 
 10 C       -3.6860    -2.1370    -0.7730 C.3   1 <1>   0.2000 
 11 C       -5.1220    -0.2570    -0.7930 C.3   1 <1>   0.1200 
 12 C       -1.3010     3.7300     1.1740 C.2   1 <1>   0.3280 
 13 O       -0.1420     3.6280     0.5800 O.3   1 <1>  -0.2800 
 14 C        1.0700     2.1300    -0.8740 C.3   1 <1>   0.1000 
 15 C       -0.6330    -2.3860    -0.7010 C.ar  1 <1>  -0.1500 
 16 C       -0.7720    -2.1140     1.6700 C.ar  1 <1>  -0.1500 
 17 O       -5.0050    -1.6490    -0.6680 O.3   1 <1>  -0.5600 
 18 C       -3.7170    -3.6790    -0.7220 C.3   1 <1>   0.1200 
 19 C        0.9010     2.4360    -2.3640 C.3   1 <1>  -0.2400 
 20 C        1.4720     0.6690    -0.6490 C.3   1 <1>  -0.2400 
 21 C        0.6570    -2.8670    -0.5710 C.ar  1 <1>  -0.1500 
 22 C        0.5200    -2.5920     1.8020 C.ar  1 <1>  -0.1500 
 23 O       -3.9270    -4.1750     0.5650 O.3   1 <1>  -0.6800 
 24 C        1.2350    -2.9730     0.6810 C.ar  1 <1>  -0.1500 
 25 H       -3.2770    -1.7720     1.2650 H     1 <1>   0.0800 
 26 H       -4.7080     0.2870     1.2530 H     1 <1>   0.0800 
 27 H       -4.3190     1.5300     0.0980 H     1 <1>   0.0800 
 28 H       -3.3140    -1.8400    -1.7370 H     1 <1>   0.0800 
 29 H       -4.7970     0.0280    -1.7790 H     1 <1>   0.0800 
 30 H       -6.1630    -0.0050    -0.6870 H     1 <1>   0.0800 
 31 H       -1.4860     4.5860     1.8000 H     1 <1>   0.1500 
 32 H        1.8780     2.7380    -0.5020 H     1 <1>   0.0800 
 33 H       -1.0530    -2.2930    -1.6870 H     1 <1>   0.1500 
 34 H       -1.3130    -1.8160     2.5520 H     1 <1>   0.1500 
 35 H       -2.7870    -4.0860    -1.0780 H     1 <1>   0.0800 
 36 H       -4.5110    -4.0420    -1.3510 H     1 <1>   0.0800 
 37 H        0.1120     1.8390    -2.7860 H     1 <1>   0.0800 
 38 H        1.8120     2.2260    -2.8940 H     1 <1>   0.0800 
 39 H        0.6540     3.4740    -2.4990 H     1 <1>   0.0800 
 40 H        0.7800     0.0020    -1.1260 H     1 <1>   0.0800 
 41 H        1.4950     0.4450     0.4030 H     1 <1>   0.0800 
 42 H        2.4480     0.4860    -1.0600 H     1 <1>   0.0800 
 43 H        1.2140    -3.1540    -1.4460 H     1 <1>   0.1500 
 44 H        0.9690    -2.6660     2.7770 H     1 <1>   0.1500 
 45 H       -3.1030    -4.1310     1.0900 H     1 <1>   0.4000 
 46 H        2.2400    -3.3450     0.7830 H     1 <1>   0.1500 
@<TRIPOS>BOND
  1   1   2  2   
  2   2   3  am  
  3   2   4  1   
  4   3   5  1   
  5   3   6  1   
  6   4   7  1   
  7   4   8  2   
  8   5   9  1   
  9   5  10  1   
 10   5  25  1   
 11   6  11  1   
 12   6  26  1   
 13   6  27  1   
 14   7  12  2   
 15   8  13  1   
 16   8  14  1   
 17   9  15  ar  
 18   9  16  ar  
 19  10  17  1   
 20  10  18  1   
 21  10  28  1   
 22  11  17  1   
 23  11  29  1   
 24  11  30  1   
 25  12  13  1   
 26  12  31  1   
 27  14  19  1   
 28  14  20  1   
 29  14  32  1   
 30  15  21  ar  
 31  15  33  1   
 32  16  22  ar  
 33  16  34  1   
 34  18  23  1   
 35  18  35  1   
 36  18  36  1   
 37  19  37  1   
 38  19  38  1   
 39  19  39  1   
 40  20  40  1   
 41  20  41  1   
 42  20  42  1   
 43  21  24  ar  
 44  21  43  1   
 45  22  24  ar  
 46  22  44  1   
 47  23  45  1   
 48  24  46  1   
@<TRIPOS>SUBSTRUCTURE
  1 ****   2 GROUP 4 **** **** 0

# MOE 2024.06 (io_trps.svl 2023.06)
