@<TRIPOS>MOLECULE
NONAME
57 60 1 0 0 
SMALL
USER_CHARGES


@<TRIPOS>ATOM
  1 O        1.2200     5.1150    -1.3700 O.2   1 <1>  -0.5700 
  2 C        0.7330     4.4490    -0.4750 C.2   1 <1>   0.5440 
  3 N       -0.5620     4.7120    -0.0700 N.am  1 <1>  -0.6600 
  4 C        1.5520     3.4460     0.1690 C.ar  1 <1>   0.0860 
  5 C       -1.4110     5.7340    -0.7370 C.3   1 <1>   0.1400 
  6 C       -1.2370     4.0380     1.0710 C.3   1 <1>   0.1400 
  7 C        1.3250     2.0760     0.0100 C.ar  1 <1>   0.0820 
  8 C        2.6130     3.8410     0.9860 C.ar  1 <1>  -0.1500 
  9 C       -2.6870     5.0640    -1.2520 C.3   1 <1>  -0.1600 
 10 C       -2.5120     3.3550     0.5680 C.3   1 <1>  -0.1600 
 11 O        0.2950     1.6530    -0.7690 O.3   1 <1>  -0.3620 
 12 C        2.1490     1.1450     0.6490 C.ar  1 <1>   0.0820 
 13 C        3.4160     2.9200     1.6320 C.ar  1 <1>  -0.1500 
 14 C       -3.4640     4.3440    -0.1300 C.3   1 <1>   0.2800 
 15 C       -0.0660     0.2860    -0.7250 C.3   1 <1>   0.1200 
 16 O        1.9670    -0.1890     0.4820 O.3   1 <1>  -0.3630 
 17 C        3.1830     1.5660     1.4640 C.ar  1 <1>  -0.1500 
 18 O       -3.8320     5.2800     0.8450 O.3   1 <1>  -0.5600 
 19 C       -4.7150     3.6170    -0.6880 C.3   1 <1>  -0.1600 
 20 C        1.1870    -0.5910    -0.6250 C.3   1 <1>   0.1200 
 21 C       -4.9430     6.0970     0.5880 C.3   1 <1>   0.1200 
 22 C       -5.9750     3.7560     0.1850 C.3   1 <1>   0.3000 
 23 C       -6.2370     5.2790     0.4090 C.3   1 <1>   0.2000 
 24 N       -7.0780     3.1140    -0.5780 N.am  1 <1>  -0.7300 
 25 C       -5.8260     2.9570     1.4930 C.3   1 <1>  -0.2400 
 26 O       -7.0780     5.5070     1.4950 O.3   1 <1>  -0.6800 
 27 C       -8.4120     3.1580    -0.3340 C.2   1 <1>   0.5690 
 28 O       -8.9040     3.8030     0.5570 O.2   1 <1>  -0.5700 
 29 C       -9.3130     2.3490    -1.2300 C.3   1 <1>  -0.1790 
 30 H       -1.6580     6.5040    -0.0260 H     1 <1>   0.0800 
 31 H       -0.8870     6.1920    -1.5580 H     1 <1>   0.0800 
 32 H       -0.5930     3.3100     1.5290 H     1 <1>   0.0800 
 33 H       -1.4870     4.7750     1.8150 H     1 <1>   0.0800 
 34 H        2.8010     4.8950     1.1070 H     1 <1>   0.1500 
 35 H       -2.4030     4.3490    -2.0030 H     1 <1>   0.0800 
 36 H       -3.3040     5.7980    -1.7340 H     1 <1>   0.0800 
 37 H       -3.0050     2.8860     1.3970 H     1 <1>   0.0800 
 38 H       -2.2270     2.5800    -0.1190 H     1 <1>   0.0800 
 39 H        4.2250     3.2530     2.2600 H     1 <1>   0.1500 
 40 H       -0.6960     0.1330     0.1330 H     1 <1>   0.0800 
 41 H       -0.6200     0.0600    -1.6180 H     1 <1>   0.0800 
 42 H        3.8020     0.8370     1.9560 H     1 <1>   0.1500 
 43 H       -4.9390     4.0330    -1.6540 H     1 <1>   0.0800 
 44 H       -4.4870     2.5790    -0.8480 H     1 <1>   0.0800 
 45 H        1.7880    -0.4900    -1.5130 H     1 <1>   0.0800 
 46 H        0.9250    -1.6240    -0.4900 H     1 <1>   0.0800 
 47 H       -5.0460     6.7780     1.4150 H     1 <1>   0.0800 
 48 H       -4.7430     6.6700    -0.2980 H     1 <1>   0.0800 
 49 H       -6.7480     5.6720    -0.4520 H     1 <1>   0.0800 
 50 H       -6.7530     2.4880    -1.3130 H     1 <1>   0.3700 
 51 H       -5.1130     3.4300     2.1430 H     1 <1>   0.0800 
 52 H       -5.5030     1.9520     1.2970 H     1 <1>   0.0800 
 53 H       -6.7610     2.9220     2.0240 H     1 <1>   0.0800 
 54 H       -7.8860     4.9420     1.3700 H     1 <1>   0.4000 
 55 H       -9.1090     1.3030    -1.1010 H     1 <1>   0.0800 
 56 H       -9.1550     2.6260    -2.2550 H     1 <1>   0.0800 
 57 H      -10.3400     2.5370    -0.9740 H     1 <1>   0.0800 
@<TRIPOS>BOND
  1   1   2  2   
  2   2   3  am  
  3   2   4  1   
  4   3   5  1   
  5   3   6  1   
  6   4   7  ar  
  7   4   8  ar  
  8   5   9  1   
  9   5  30  1   
 10   5  31  1   
 11   6  10  1   
 12   6  32  1   
 13   6  33  1   
 14   7  11  1   
 15   7  12  ar  
 16   8  13  ar  
 17   8  34  1   
 18   9  14  1   
 19   9  35  1   
 20   9  36  1   
 21  10  14  1   
 22  10  37  1   
 23  10  38  1   
 24  11  15  1   
 25  12  16  1   
 26  12  17  ar  
 27  13  17  ar  
 28  13  39  1   
 29  14  18  1   
 30  14  19  1   
 31  15  20  1   
 32  15  40  1   
 33  15  41  1   
 34  16  20  1   
 35  17  42  1   
 36  18  21  1   
 37  19  22  1   
 38  19  43  1   
 39  19  44  1   
 40  20  45  1   
 41  20  46  1   
 42  21  23  1   
 43  21  47  1   
 44  21  48  1   
 45  22  23  1   
 46  22  24  1   
 47  22  25  1   
 48  23  26  1   
 49  23  49  1   
 50  24  27  am  
 51  24  50  1   
 52  25  51  1   
 53  25  52  1   
 54  25  53  1   
 55  26  54  1   
 56  27  28  2   
 57  27  29  1   
 58  29  55  1   
 59  29  56  1   
 60  29  57  1   
@<TRIPOS>SUBSTRUCTURE
  1 ****  10 GROUP 4 **** **** 0

# MOE 2024.06 (io_trps.svl 2023.06)
