@<TRIPOS>MOLECULE
NONAME
49 50 1 0 0 
SMALL
USER_CHARGES


@<TRIPOS>ATOM
  1 F        1.2590    -0.0680    -0.9740 F     1 <1>  -0.1900 
  2 C        2.2680     0.7300    -0.7450 C.ar  1 <1>   0.1900 
  3 C        3.1410     1.0120    -1.7780 C.ar  1 <1>  -0.1500 
  4 C        2.4250     1.2610     0.5190 C.ar  1 <1>  -0.1500 
  5 C        4.2110     1.8570    -1.5310 C.ar  1 <1>  -0.1500 
  6 C        3.4990     2.1040     0.7520 C.ar  1 <1>  -0.1500 
  7 C        4.3980     2.4070    -0.2660 C.ar  1 <1>  -0.1430 
  8 C        5.5890     3.3350     0.0090 C.3   1 <1>   0.3950 
  9 N        6.3910     2.8190     1.1710 N.3   1 <1>  -0.8100 
 10 C        5.1500     4.8210     0.1210 C.2   1 <1>   0.5690 
 11 C        7.4650     3.7180     1.6150 C.3   1 <1>   0.0300 
 12 C        6.9170     1.4640     0.9380 C.3   1 <1>   0.0300 
 13 O        4.1180     5.1260     0.6790 O.2   1 <1>  -0.5700 
 14 N        5.9860     5.7660    -0.4300 N.am  1 <1>  -0.4940 
 15 C        5.8520     7.1780    -0.4580 C.2   1 <1>  -0.0880 
 16 N        6.8220     8.0490    -0.8500 N.pl3 1 <1>   0.3140 
 17 C        4.7880     7.9400    -0.1150 C.2   1 <1>  -0.1500 
 18 N        6.4050     9.3310    -0.7690 N.2   1 <1>  -0.7070 
 19 C        8.1880     7.7260    -1.3080 C.3   1 <1>   0.0960 
 20 C        5.1900     9.2520    -0.3280 C.2   1 <1>   0.1080 
 21 C        9.0820     7.3130    -0.1290 C.3   1 <1>  -0.1600 
 22 C        4.3370    10.4740    -0.0830 C.3   1 <1>  -0.0590 
 23 C       10.4750     6.8880    -0.6080 C.3   1 <1>  -0.1600 
 24 C       11.3510     6.4580     0.5710 C.3   1 <1>  -0.2400 
 25 H        2.9820     0.5790    -2.7480 H     1 <1>   0.1500 
 26 H        1.7260     1.0230     1.3000 H     1 <1>   0.1500 
 27 H        4.8940     2.0810    -2.3310 H     1 <1>   0.1500 
 28 H        3.6440     2.5330     1.7300 H     1 <1>   0.1500 
 29 H        6.2270     3.2820    -0.8530 H     1 <1>   0.0800 
 30 H        7.0550     4.6620     1.9340 H     1 <1>   0.0800 
 31 H        8.1780     3.8810     0.8260 H     1 <1>   0.0800 
 32 H        7.9750     3.2850     2.4600 H     1 <1>   0.0800 
 33 H        6.1120     0.7740     0.7510 H     1 <1>   0.0800 
 34 H        7.4440     1.1210     1.8120 H     1 <1>   0.0800 
 35 H        7.5890     1.4560     0.0980 H     1 <1>   0.0800 
 36 H        6.8510     5.4000    -0.8200 H     1 <1>   0.3700 
 37 H        3.8300     7.6170     0.2490 H     1 <1>   0.1500 
 38 H        8.5950     8.5980    -1.7880 H     1 <1>   0.0800 
 39 H        8.1250     6.9380    -2.0340 H     1 <1>   0.0800 
 40 H        8.6270     6.5000     0.4070 H     1 <1>   0.0800 
 41 H        9.1750     8.1500     0.5430 H     1 <1>   0.0800 
 42 H        3.3660    10.1870     0.2760 H     1 <1>   0.0800 
 43 H        4.2270    11.0230    -1.0000 H     1 <1>   0.0800 
 44 H        4.8130    11.1020     0.6460 H     1 <1>   0.0800 
 45 H       10.9500     7.7110    -1.1180 H     1 <1>   0.0800 
 46 H       10.3920     6.0690    -1.3030 H     1 <1>   0.0800 
 47 H       11.4700     7.2700     1.2680 H     1 <1>   0.0800 
 48 H       12.3270     6.1690     0.2190 H     1 <1>   0.0800 
 49 H       10.9130     5.6220     1.0860 H     1 <1>   0.0800 
@<TRIPOS>BOND
  1   1   2  1   
  2   2   3  ar  
  3   2   4  ar  
  4   3   5  ar  
  5   3  25  1   
  6   4   6  ar  
  7   4  26  1   
  8   5   7  ar  
  9   5  27  1   
 10   6   7  ar  
 11   6  28  1   
 12   7   8  1   
 13   8   9  1   
 14   8  10  1   
 15   8  29  1   
 16   9  11  1   
 17   9  12  1   
 18  10  13  2   
 19  10  14  am  
 20  11  30  1   
 21  11  31  1   
 22  11  32  1   
 23  12  33  1   
 24  12  34  1   
 25  12  35  1   
 26  14  15  1   
 27  14  36  1   
 28  15  16  1   
 29  15  17  2   
 30  16  18  1   
 31  16  19  1   
 32  17  20  1   
 33  17  37  1   
 34  18  20  2   
 35  19  21  1   
 36  19  38  1   
 37  19  39  1   
 38  20  22  1   
 39  21  23  1   
 40  21  40  1   
 41  21  41  1   
 42  22  42  1   
 43  22  43  1   
 44  22  44  1   
 45  23  24  1   
 46  23  45  1   
 47  23  46  1   
 48  24  47  1   
 49  24  48  1   
 50  24  49  1   
@<TRIPOS>SUBSTRUCTURE
  1 ****  10 GROUP 4 **** **** 0

# MOE 2024.06 (io_trps.svl 2023.06)
