@<TRIPOS>MOLECULE
NONAME
53 56 1 0 0 
SMALL
USER_CHARGES


@<TRIPOS>ATOM
  1 O        0.1210    -0.0670    -0.2970 O.3   1 <1>  -0.6800 
  2 C        1.2990    -0.2710    -1.0050 C.3   1 <1>   0.2000 
  3 C        1.9450    -1.5520    -0.4790 C.3   1 <1>  -0.0800 
  4 C        2.2970     0.8290    -0.6000 C.3   1 <1>   0.3430 
  5 C        2.5180    -1.0560     0.8520 C.3   1 <1>   0.3430 
  6 C        3.0170    -2.0750    -1.4750 C.3   1 <1>  -0.0170 
  7 N        3.1200     0.2530     0.5140 N.4   1 <1>  -0.9590 
  8 C        4.2780    -2.6180    -0.8180 C.ar  1 <1>   0.1670 
  9 C        3.2850     1.1670     1.6660 C.3   1 <1>   0.5240 
 10 N        5.1660    -1.7160    -0.4130 N.ar  1 <1>  -0.6200 
 11 C        4.4540    -3.9940    -0.6750 C.ar  1 <1>   0.1600 
 12 C        3.9660     2.4170     1.1560 C.2   1 <1>  -0.1810 
 13 C        6.2420    -2.2880     0.1120 C.ar  1 <1>   0.1600 
 14 N        5.5140    -4.5540    -0.1250 N.ar  1 <1>  -0.6200 
 15 C        3.3750     3.6700     1.0330 C.2   1 <1>   0.1080 
 16 C        5.2340     2.5880     0.7160 C.2   1 <1>  -0.3320 
 17 C        6.4090    -3.6600     0.2540 C.ar  1 <1>   0.1600 
 18 N        4.1920     4.5400     0.5470 N.2   1 <1>  -0.7070 
 19 C        1.9580     4.0530     1.4090 C.3   1 <1>  -0.0590 
 20 N        5.3640     3.8930     0.3410 N.pl3 1 <1>   0.5930 
 21 C        6.3760     1.5820     0.6410 C.3   1 <1>  -0.0600 
 22 C        6.5270     4.5440    -0.1560 C.ar  1 <1>  -0.0230 
 23 C        7.1030     5.5890     0.5600 C.ar  1 <1>  -0.1500 
 24 C        7.1120     4.1540    -1.3570 C.ar  1 <1>  -0.1500 
 25 C        8.2450     6.2180     0.0960 C.ar  1 <1>  -0.1500 
 26 C        8.2540     4.7820    -1.8220 C.ar  1 <1>  -0.1500 
 27 C        8.8230     5.8130    -1.0950 C.ar  1 <1>  -0.1500 
 28 H       -0.6190    -0.5930    -0.6690 H     1 <1>   0.4000 
 29 H        1.0770    -0.2710    -2.0590 H     1 <1>   0.0800 
 30 H        1.2190    -2.3270    -0.3030 H     1 <1>   0.0800 
 31 H        1.7650     1.7130    -0.2920 H     1 <1>   0.0800 
 32 H        2.9390     1.0760    -1.4290 H     1 <1>   0.0800 
 33 H        3.2430    -1.7370     1.2690 H     1 <1>   0.0800 
 34 H        1.7090    -0.9170     1.5530 H     1 <1>   0.0800 
 35 H        3.3280    -1.2920    -2.1460 H     1 <1>   0.0800 
 36 H        2.5750    -2.8380    -2.0920 H     1 <1>   0.0800 
 37 H        4.0650     0.0500     0.1390 H     1 <1>   0.4500 
 38 H        2.3260     1.4110     2.0920 H     1 <1>   0.0800 
 39 H        3.8970     0.7060     2.4220 H     1 <1>   0.0800 
 40 H        3.6880    -4.6630    -1.0290 H     1 <1>   0.1500 
 41 H        7.0380    -1.6460     0.4480 H     1 <1>   0.1500 
 42 H        7.3170    -4.0320     0.6960 H     1 <1>   0.1500 
 43 H        1.2760     3.2390     1.2570 H     1 <1>   0.0800 
 44 H        1.6390     4.8840     0.8040 H     1 <1>   0.0800 
 45 H        1.9290     4.3560     2.4390 H     1 <1>   0.0800 
 46 H        6.1200     0.6710     1.1490 H     1 <1>   0.0800 
 47 H        7.2570     1.9890     1.1090 H     1 <1>   0.0800 
 48 H        6.6080     1.3520    -0.3840 H     1 <1>   0.0800 
 49 H        6.6500     5.9120     1.4820 H     1 <1>   0.1500 
 50 H        6.6730     3.3610    -1.9350 H     1 <1>   0.1500 
 51 H        8.6810     7.0250     0.6590 H     1 <1>   0.1500 
 52 H        8.7010     4.4740    -2.7520 H     1 <1>   0.1500 
 53 H        9.7100     6.3040    -1.4560 H     1 <1>   0.1500 
@<TRIPOS>BOND
  1   1   2  1   
  2   1  28  1   
  3   2   3  1   
  4   2   4  1   
  5   2  29  1   
  6   3   5  1   
  7   3   6  1   
  8   3  30  1   
  9   4   7  1   
 10   4  31  1   
 11   4  32  1   
 12   5   7  1   
 13   5  33  1   
 14   5  34  1   
 15   6   8  1   
 16   6  35  1   
 17   6  36  1   
 18   7   9  1   
 19   7  37  1   
 20   8  10  ar  
 21   8  11  ar  
 22   9  12  1   
 23   9  38  1   
 24   9  39  1   
 25  10  13  ar  
 26  11  14  ar  
 27  11  40  1   
 28  12  15  1   
 29  12  16  2   
 30  13  17  ar  
 31  13  41  1   
 32  14  17  ar  
 33  15  18  2   
 34  15  19  1   
 35  16  20  1   
 36  16  21  1   
 37  17  42  1   
 38  18  20  1   
 39  19  43  1   
 40  19  44  1   
 41  19  45  1   
 42  20  22  1   
 43  21  46  1   
 44  21  47  1   
 45  21  48  1   
 46  22  23  ar  
 47  22  24  ar  
 48  23  25  ar  
 49  23  49  1   
 50  24  26  ar  
 51  24  50  1   
 52  25  27  ar  
 53  25  51  1   
 54  26  27  ar  
 55  26  52  1   
 56  27  53  1   
@<TRIPOS>SUBSTRUCTURE
  1 ****  16 GROUP 4 **** **** 0

# MOE 2024.06 (io_trps.svl 2023.06)
