@<TRIPOS>MOLECULE
NONAME
39 42 1 0 0 
SMALL
USER_CHARGES


@<TRIPOS>ATOM
  1 S       -0.1520    -0.1190     1.2530 S.3   1 <1>  -0.0800 
  2 C       -1.4210    -1.1790     0.6750 C.2   1 <1>  -0.1400 
  3 C       -1.0470     1.2910     0.7020 C.2   1 <1>  -0.1100 
  4 C       -2.4280    -0.4880     0.1240 C.2   1 <1>  -0.1810 
  5 C       -1.3320    -2.6760     0.8160 C.3   1 <1>   0.0200 
  6 C       -2.2140     0.9290     0.1340 C.2   1 <1>  -0.1500 
  7 C       -3.6670    -1.1640    -0.4410 C.3   1 <1>   0.3210 
  8 C       -2.3250    -3.3250    -0.1620 C.3   1 <1>   0.1400 
  9 N       -3.6650    -2.6400    -0.1590 N.am  1 <1>  -0.6600 
 10 C       -4.8710    -3.3120    -0.0350 C.2   1 <1>   0.7160 
 11 O       -5.8730    -2.6400     0.1560 O.2   1 <1>  -0.5700 
 12 C       -5.0130    -4.7660    -0.1210 C.2   1 <1>   0.2030 
 13 N       -4.2810    -5.6120    -0.8290 N.2   1 <1>  -0.7070 
 14 C       -6.0060    -5.4710     0.5520 C.2   1 <1>  -0.1500 
 15 N       -4.8020    -6.8210    -0.6070 N.pl3 1 <1>   0.3140 
 16 C       -5.8550    -6.7850     0.2420 C.2   1 <1>  -0.2370 
 17 C       -4.2150    -8.0020    -1.2520 C.3   1 <1>   0.0960 
 18 C       -6.6440    -7.8970     0.6850 C.2   1 <1>   0.7150 
 19 C       -3.8650    -9.0400    -0.1890 C.3   1 <1>   0.2000 
 20 O       -7.6980    -7.7010     1.2490 O.2   1 <1>  -0.5700 
 21 N       -6.3170    -9.2060     0.5300 N.am  1 <1>  -0.7300 
 22 O       -2.8630    -9.8630    -0.6880 O.3   1 <1>  -0.6800 
 23 C       -5.0530    -9.9250     0.2140 C.3   1 <1>   0.1400 
 24 H       -0.5970     2.2540     0.8640 H     1 <1>   0.1500 
 25 H       -1.5720    -2.9570     1.8260 H     1 <1>   0.0800 
 26 H       -0.3360    -3.0130     0.5930 H     1 <1>   0.0800 
 27 H       -2.9420     1.6050    -0.2790 H     1 <1>   0.1500 
 28 H       -3.7040    -1.0110    -1.5050 H     1 <1>   0.0800 
 29 H       -4.5340    -0.7000    -0.0030 H     1 <1>   0.0800 
 30 H       -2.4150    -4.3600     0.1060 H     1 <1>   0.0800 
 31 H       -1.9230    -3.2730    -1.1590 H     1 <1>   0.0800 
 32 H       -6.7530    -5.0320     1.1920 H     1 <1>   0.1500 
 33 H       -3.3230    -7.6860    -1.7620 H     1 <1>   0.0800 
 34 H       -4.9170    -8.3920    -1.9640 H     1 <1>   0.0800 
 35 H       -3.4540    -8.5530     0.6810 H     1 <1>   0.0800 
 36 H       -7.0580    -9.8110     0.8940 H     1 <1>   0.3700 
 37 H       -3.1390   -10.3200    -1.5070 H     1 <1>   0.4000 
 38 H       -4.7670   -10.5030     1.0760 H     1 <1>   0.0800 
 39 H       -5.2640   -10.6100    -0.5900 H     1 <1>   0.0800 
@<TRIPOS>BOND
  1   1   2  1   
  2   1   3  1   
  3   2   4  2   
  4   2   5  1   
  5   3   6  2   
  6   3  24  1   
  7   4   6  1   
  8   4   7  1   
  9   5   8  1   
 10   5  25  1   
 11   5  26  1   
 12   6  27  1   
 13   7   9  1   
 14   7  28  1   
 15   7  29  1   
 16   8   9  1   
 17   8  30  1   
 18   8  31  1   
 19   9  10  am  
 20  10  11  2   
 21  10  12  1   
 22  12  13  2   
 23  12  14  1   
 24  13  15  1   
 25  14  16  2   
 26  14  32  1   
 27  15  16  1   
 28  15  17  1   
 29  16  18  1   
 30  17  19  1   
 31  17  33  1   
 32  17  34  1   
 33  18  20  2   
 34  18  21  am  
 35  19  22  1   
 36  19  23  1   
 37  19  35  1   
 38  21  23  1   
 39  21  36  1   
 40  22  37  1   
 41  23  38  1   
 42  23  39  1   
@<TRIPOS>SUBSTRUCTURE
  1 ****  12 GROUP 4 **** **** 0

# MOE 2024.06 (io_trps.svl 2023.06)
