@<TRIPOS>MOLECULE
NONAME
36 38 1 0 0 
SMALL
USER_CHARGES


@<TRIPOS>ATOM
  1 S       -4.4250    -0.3620     0.8570 S.3   1 <1>  -0.0800 
  2 C       -2.8490    -0.9920     0.4530 C.2   1 <1>  -0.1400 
  3 C       -3.7440     1.2480     0.8790 C.2   1 <1>   0.2280 
  4 C       -1.9850     0.0350     0.3770 C.2   1 <1>   0.0460 
  5 C       -2.7300    -2.4940     0.2730 C.3   1 <1>   0.0200 
  6 N       -2.5010     1.2970     0.6170 N.2   1 <1>  -0.5650 
  7 C       -0.5060    -0.0220     0.0580 C.3   1 <1>  -0.0590 
  8 C       -3.4310    -2.9400    -1.0120 C.3   1 <1>   0.2090 
  9 N       -3.4550    -4.4320    -1.0950 N.pl3 1 <1>  -0.8380 
 10 C       -4.3000    -5.2260    -0.3580 C.2   1 <1>   0.2710 
 11 C       -2.3530    -5.0100    -1.9290 C.3   1 <1>   0.1290 
 12 N       -3.9100    -6.4950    -0.1560 N.2   1 <1>  -0.6210 
 13 C       -5.4870    -4.7660     0.1650 C.2   1 <1>  -0.1410 
 14 C       -4.6620    -7.2840     0.5380 C.2   1 <1>   0.9190 
 15 C       -6.2460    -5.6490     0.8920 C.cat 1 <1>   0.7910 
 16 N       -5.8370    -6.9000     1.0800 N.pl3 1 <1>  -0.6690 
 17 N       -4.2480    -8.5350     0.7240 N.pl3 1 <1>  -0.8500 
 18 N       -7.4260    -5.5390     1.5250 N.pl3 1 <1>  -0.3930 
 19 C       -6.8110    -7.5040     1.8340 C.2   1 <1>   0.5030 
 20 N       -7.7760    -6.7120     2.1170 N.2   1 <1>  -0.2600 
 21 H       -4.4100     2.0610     1.1080 H     1 <1>   0.1500 
 22 H       -3.1720    -2.9810     1.1230 H     1 <1>   0.0800 
 23 H       -1.6960    -2.7780     0.2240 H     1 <1>   0.0800 
 24 H       -0.1860    -1.0300    -0.1250 H     1 <1>   0.0800 
 25 H        0.0550     0.3780     0.8830 H     1 <1>   0.0800 
 26 H       -0.3040     0.5710    -0.8150 H     1 <1>   0.0800 
 27 H       -2.9100    -2.5290    -1.8600 H     1 <1>   0.0800 
 28 H       -4.4330    -2.5520    -1.0450 H     1 <1>   0.0800 
 29 H       -2.2080    -4.4210    -2.8180 H     1 <1>   0.0800 
 30 H       -2.5910    -6.0140    -2.2350 H     1 <1>   0.0800 
 31 H       -1.4380    -5.0270    -1.3620 H     1 <1>   0.0800 
 32 H       -5.8260    -3.7630     0.0160 H     1 <1>   0.1500 
 33 H       -3.3550    -8.7990     0.3040 H     1 <1>   0.4000 
 34 H       -4.7280    -9.2630     1.2420 H     1 <1>   0.4000 
 35 H       -8.0060    -4.6930     1.5690 H     1 <1>   0.4500 
 36 H       -6.7500    -8.5360     2.1450 H     1 <1>   0.1500 
@<TRIPOS>BOND
  1   1   2  1   
  2   1   3  1   
  3   2   4  2   
  4   2   5  1   
  5   3   6  2   
  6   3  21  1   
  7   4   6  1   
  8   4   7  1   
  9   5   8  1   
 10   5  22  1   
 11   5  23  1   
 12   7  24  1   
 13   7  25  1   
 14   7  26  1   
 15   8   9  1   
 16   8  27  1   
 17   8  28  1   
 18   9  10  1   
 19   9  11  1   
 20  10  12  1   
 21  10  13  2   
 22  11  29  1   
 23  11  30  1   
 24  11  31  1   
 25  12  14  2   
 26  13  15  1   
 27  13  32  1   
 28  14  16  1   
 29  14  17  1   
 30  15  16  ar  
 31  15  18  ar  
 32  16  19  1   
 33  17  33  1   
 34  17  34  1   
 35  18  20  1   
 36  18  35  1   
 37  19  20  2   
 38  19  36  1   
@<TRIPOS>SUBSTRUCTURE
  1 ****  10 GROUP 4 **** **** 0

# MOE 2024.06 (io_trps.svl 2023.06)
