@<TRIPOS>MOLECULE
NONAME
43 46 1 0 0 
SMALL
USER_CHARGES


@<TRIPOS>ATOM
  1 O       -0.7130     0.4850     1.4290 O.2   1 <1>  -0.5700 
  2 C       -1.6460     1.0720     0.9170 C.2   1 <1>   0.5440 
  3 N       -2.7540     0.3460     0.5420 N.am  1 <1>  -0.6600 
  4 C       -1.5580     2.5030     0.7020 C.ar  1 <1>   0.0860 
  5 C       -3.7710     0.7980    -0.4450 C.3   1 <1>   0.1400 
  6 C       -2.8260    -1.1290     0.7070 C.3   1 <1>   0.1400 
  7 C       -0.4900     3.0630     0.0330 C.ar  1 <1>  -0.1500 
  8 C       -2.5570     3.3730     1.1800 C.ar  1 <1>  -0.1500 
  9 C       -4.7260    -0.3870    -0.5850 C.3   1 <1>   0.2000 
 10 C       -3.8280    -1.6060    -0.3510 C.3   1 <1>  -0.0800 
 11 C       -0.3840     4.4400    -0.2000 C.ar  1 <1>   0.3100 
 12 C       -2.4830     4.7250     0.9730 C.ar  1 <1>  -0.1500 
 13 O       -5.6690    -0.3030     0.4290 O.3   1 <1>  -0.6800 
 14 C       -4.5730    -2.9000     0.0300 C.3   1 <1>   0.0200 
 15 N        0.6920     4.9160    -0.8830 N.ar  1 <1>  -0.6200 
 16 C       -1.4070     5.2970     0.2790 C.ar  1 <1>   0.3100 
 17 C       -3.6590    -4.1110     0.1160 C.2   1 <1>  -0.0400 
 18 C        0.6860     6.2020    -1.0420 C.ar  1 <1>   0.1600 
 19 N       -1.3760     6.6410     0.0880 N.ar  1 <1>  -0.6200 
 20 O       -4.1530    -5.2370     0.5570 O.3   1 <1>  -0.0190 
 21 C       -2.3650    -4.3220    -0.1770 C.2   1 <1>  -0.1500 
 22 C       -0.3330     7.0520    -0.5630 C.ar  1 <1>   0.1600 
 23 N       -3.2630    -6.1860     0.5790 N.2   1 <1>  -0.4100 
 24 C       -2.1740    -5.6630     0.1430 C.2   1 <1>   0.1080 
 25 C       -0.8680    -6.4120     0.0000 C.3   1 <1>  -0.0590 
 26 H       -4.2910     1.6830    -0.1210 H     1 <1>   0.0800 
 27 H       -3.2850     0.9900    -1.3860 H     1 <1>   0.0800 
 28 H       -1.8580    -1.5800     0.5670 H     1 <1>   0.0800 
 29 H       -3.1760    -1.3520     1.7010 H     1 <1>   0.0800 
 30 H        0.3030     2.4340    -0.3290 H     1 <1>   0.1500 
 31 H       -3.3850     2.9510     1.7250 H     1 <1>   0.1500 
 32 H       -5.2410    -0.4070    -1.5310 H     1 <1>   0.0800 
 33 H       -3.2820    -1.7830    -1.2610 H     1 <1>   0.0800 
 34 H       -3.2460     5.3880     1.3390 H     1 <1>   0.1500 
 35 H       -5.2070    -0.1570     1.2790 H     1 <1>   0.4000 
 36 H       -5.3340    -3.1020    -0.7030 H     1 <1>   0.0800 
 37 H       -5.0630    -2.7780     0.9800 H     1 <1>   0.0800 
 38 H        1.5060     6.6560    -1.5700 H     1 <1>   0.1500 
 39 H       -1.6170    -3.6560    -0.5650 H     1 <1>   0.1500 
 40 H       -0.2310     8.1060    -0.7550 H     1 <1>   0.1500 
 41 H       -0.5540    -6.4060    -1.0270 H     1 <1>   0.0800 
 42 H       -0.9930    -7.4310     0.3190 H     1 <1>   0.0800 
 43 H       -0.1130    -5.9470     0.6060 H     1 <1>   0.0800 
@<TRIPOS>BOND
  1   1   2  2   
  2   2   3  am  
  3   2   4  1   
  4   3   5  1   
  5   3   6  1   
  6   4   7  ar  
  7   4   8  ar  
  8   5   9  1   
  9   5  26  1   
 10   5  27  1   
 11   6  10  1   
 12   6  28  1   
 13   6  29  1   
 14   7  11  ar  
 15   7  30  1   
 16   8  12  ar  
 17   8  31  1   
 18   9  10  1   
 19   9  13  1   
 20   9  32  1   
 21  10  14  1   
 22  10  33  1   
 23  11  15  ar  
 24  11  16  ar  
 25  12  16  ar  
 26  12  34  1   
 27  13  35  1   
 28  14  17  1   
 29  14  36  1   
 30  14  37  1   
 31  15  18  ar  
 32  16  19  ar  
 33  17  20  1   
 34  17  21  2   
 35  18  22  ar  
 36  18  38  1   
 37  19  22  ar  
 38  20  23  1   
 39  21  24  1   
 40  21  39  1   
 41  22  40  1   
 42  23  24  2   
 43  24  25  1   
 44  25  41  1   
 45  25  42  1   
 46  25  43  1   
@<TRIPOS>SUBSTRUCTURE
  1 ****   3 GROUP 4 **** **** 0

# MOE 2024.06 (io_trps.svl 2023.06)
