@<TRIPOS>MOLECULE
NONAME
49 51 1 0 0 
SMALL
USER_CHARGES


@<TRIPOS>ATOM
  1 CL       5.9450    -0.0120     3.3720 Cl    1 <1>  -0.1230 
  2 C        6.5850     0.2060     1.7520 C.2   1 <1>   0.1230 
  3 C        6.2090     1.1790     0.8200 C.2   1 <1>   0.2030 
  4 C        7.5260    -0.5590     1.1800 C.2   1 <1>  -0.3020 
  5 N        6.9080     0.9960    -0.2980 N.2   1 <1>  -0.7070 
  6 C        5.2240     2.2220     1.0830 C.2   1 <1>   0.7160 
  7 N        7.7090    -0.0570    -0.0540 N.pl3 1 <1>   0.3140 
  8 O        5.1060     2.6850     2.2040 O.2   1 <1>  -0.5700 
  9 N        4.4370     2.7940     0.0880 N.am  1 <1>  -0.6600 
 10 C        8.6550    -0.5730    -1.0510 C.3   1 <1>   0.0160 
 11 C        4.5280     2.4360    -1.3620 C.3   1 <1>   0.1400 
 12 C        3.5330     3.9400     0.3750 C.3   1 <1>   0.1400 
 13 C        5.6710     3.1970    -2.0670 C.3   1 <1>   0.3430 
 14 C        4.2840     5.2630     0.1860 C.3   1 <1>  -0.1600 
 15 N        6.0810     4.4440    -1.3380 N.4   1 <1>  -0.9590 
 16 C        4.9780     5.4350    -1.1700 C.3   1 <1>   0.3430 
 17 C        7.3210     5.0370    -1.9130 C.3   1 <1>   0.3430 
 18 C        8.1850     5.6440    -0.8030 C.3   1 <1>  -0.0170 
 19 C        8.6120     4.5650     0.1800 C.ar  1 <1>  -0.1430 
 20 C        7.9670     4.4190     1.4000 C.ar  1 <1>  -0.1500 
 21 C        9.6570     3.7110    -0.1460 C.ar  1 <1>  -0.1500 
 22 C        8.3490     3.4170     2.2750 C.ar  1 <1>  -0.1500 
 23 C       10.0500     2.7160     0.7320 C.ar  1 <1>  -0.1500 
 24 C        9.3890     2.5710     1.9400 C.ar  1 <1>   0.0820 
 25 O        9.7580     1.6150     2.8040 O.3   1 <1>  -0.5330 
 26 H        8.0570    -1.4040     1.5760 H     1 <1>   0.1500 
 27 H        9.5860    -0.8070    -0.5700 H     1 <1>   0.0800 
 28 H        8.8180     0.1750    -1.8050 H     1 <1>   0.0800 
 29 H        8.2450    -1.4570    -1.5010 H     1 <1>   0.0800 
 30 H        3.5980     2.6690    -1.8500 H     1 <1>   0.0800 
 31 H        4.6730     1.3750    -1.4760 H     1 <1>   0.0800 
 32 H        3.1660     3.8760     1.3870 H     1 <1>   0.0800 
 33 H        2.6750     3.9000    -0.2750 H     1 <1>   0.0800 
 34 H        5.3790     3.4280    -3.0780 H     1 <1>   0.0800 
 35 H        6.5200     2.5340    -2.1210 H     1 <1>   0.0800 
 36 H        4.9970     5.3810     0.9800 H     1 <1>   0.0800 
 37 H        3.5710     6.0600     0.2980 H     1 <1>   0.0800 
 38 H        6.3320     4.1050    -0.3900 H     1 <1>   0.4500 
 39 H        5.3830     6.4330    -1.2160 H     1 <1>   0.0800 
 40 H        4.2610     5.3310    -1.9680 H     1 <1>   0.0800 
 41 H        7.0720     5.7850    -2.6480 H     1 <1>   0.0800 
 42 H        7.8960     4.2650    -2.3970 H     1 <1>   0.0800 
 43 H        7.6520     6.4310    -0.3000 H     1 <1>   0.0800 
 44 H        9.0620     6.0840    -1.2450 H     1 <1>   0.0800 
 45 H        7.1690     5.0760     1.6960 H     1 <1>   0.1500 
 46 H       10.1800     3.8160    -1.0810 H     1 <1>   0.1500 
 47 H        7.8460     3.2890     3.2180 H     1 <1>   0.1500 
 48 H       10.8630     2.0630     0.4760 H     1 <1>   0.1500 
 49 H       10.5640     1.1410     2.5410 H     1 <1>   0.4500 
@<TRIPOS>BOND
  1   1   2  1   
  2   2   3  1   
  3   2   4  2   
  4   3   5  2   
  5   3   6  1   
  6   4   7  1   
  7   4  26  1   
  8   5   7  1   
  9   6   8  2   
 10   6   9  am  
 11   7  10  1   
 12   9  11  1   
 13   9  12  1   
 14  10  27  1   
 15  10  28  1   
 16  10  29  1   
 17  11  13  1   
 18  11  30  1   
 19  11  31  1   
 20  12  14  1   
 21  12  32  1   
 22  12  33  1   
 23  13  15  1   
 24  13  34  1   
 25  13  35  1   
 26  14  16  1   
 27  14  36  1   
 28  14  37  1   
 29  15  16  1   
 30  15  17  1   
 31  15  38  1   
 32  16  39  1   
 33  16  40  1   
 34  17  18  1   
 35  17  41  1   
 36  17  42  1   
 37  18  19  1   
 38  18  43  1   
 39  18  44  1   
 40  19  20  ar  
 41  19  21  ar  
 42  20  22  ar  
 43  20  45  1   
 44  21  23  ar  
 45  21  46  1   
 46  22  24  ar  
 47  22  47  1   
 48  23  24  ar  
 49  23  48  1   
 50  24  25  1   
 51  25  49  1   
@<TRIPOS>SUBSTRUCTURE
  1 ****   3 GROUP 4 **** **** 0

# MOE 2024.06 (io_trps.svl 2023.06)
