@<TRIPOS>MOLECULE
NONAME
47 50 1 0 0 
SMALL
USER_CHARGES


@<TRIPOS>ATOM
  1 S       -1.1590    -0.1390    -0.3840 S.3   1 <1>  -0.3320 
  2 C       -0.8200    -1.8980    -0.2810 C.ar  1 <1>   0.1020 
  3 C        0.4090     0.6910    -0.9030 C.3   1 <1>  -0.0100 
  4 C       -1.8580    -2.7110     0.0920 C.ar  1 <1>  -0.1500 
  5 C        0.4370    -2.4300    -0.5650 C.ar  1 <1>  -0.1500 
  6 C       -1.6670    -4.0900     0.1920 C.ar  1 <1>   0.3610 
  7 C        0.6340    -3.7870    -0.4680 C.ar  1 <1>  -0.1500 
  8 N       -2.7060    -4.9240     0.5600 N.ar  1 <1>  -0.1790 
  9 C       -0.4070    -4.6530    -0.0870 C.ar  1 <1>   0.0000 
 10 C       -2.6230    -6.2510     0.6770 C.ar  1 <1>   0.4610 
 11 C       -0.2730    -6.0690     0.0380 C.ar  1 <1>  -0.1430 
 12 N       -3.7270    -6.9610     1.0220 N.pl3 1 <1>  -0.8380 
 13 C       -1.3490    -6.8200     0.4100 C.ar  1 <1>  -0.1500 
 14 C        1.0700    -6.7370    -0.2340 C.3   1 <1>  -0.0970 
 15 C       -4.9840    -6.3880     1.6080 C.3   1 <1>   0.2090 
 16 C       -3.8500    -8.4490     0.8650 C.3   1 <1>   0.2090 
 17 C       -6.1480    -6.6450     0.6510 C.3   1 <1>  -0.1600 
 18 C       -5.0160    -8.7690    -0.0750 C.3   1 <1>  -0.1600 
 19 C       -6.3330    -8.1490     0.4080 C.3   1 <1>   0.1000 
 20 C       -7.4420    -8.4190    -0.5990 C.2   1 <1>  -0.3320 
 21 N       -7.9910    -9.6430    -0.7780 N.pl3 1 <1>   0.3000 
 22 C       -8.0780    -7.5940    -1.4620 C.2   1 <1>  -0.1500 
 23 N       -8.9490    -9.6310    -1.7210 N.2   1 <1>  -0.7070 
 24 C       -8.9950    -8.4000    -2.1260 C.2   1 <1>   0.1390 
 25 H        0.2100     1.7470    -0.9660 H     1 <1>   0.0800 
 26 H        0.6920     0.3010    -1.8630 H     1 <1>   0.0800 
 27 H        1.1570     0.4900    -0.1570 H     1 <1>   0.0800 
 28 H       -2.8140    -2.2670     0.3020 H     1 <1>   0.1500 
 29 H        1.2490    -1.7910    -0.8570 H     1 <1>   0.1500 
 30 H        1.6090    -4.1850    -0.6890 H     1 <1>   0.1500 
 31 H       -3.6190    -4.5120     0.7080 H     1 <1>   0.4570 
 32 H       -1.2280    -7.8780     0.5230 H     1 <1>   0.1500 
 33 H        1.8200    -6.3530     0.4350 H     1 <1>   0.0800 
 34 H        1.3790    -6.5540    -1.2480 H     1 <1>   0.0800 
 35 H        1.0120    -7.8020    -0.0920 H     1 <1>   0.0800 
 36 H       -4.8970    -5.3350     1.8030 H     1 <1>   0.0800 
 37 H       -5.1840    -6.8700     2.5530 H     1 <1>   0.0800 
 38 H       -4.0230    -8.8980     1.8300 H     1 <1>   0.0800 
 39 H       -2.9630    -8.8910     0.4530 H     1 <1>   0.0800 
 40 H       -5.9580    -6.1420    -0.2800 H     1 <1>   0.0800 
 41 H       -7.0530    -6.2410     1.0700 H     1 <1>   0.0800 
 42 H       -5.1240    -9.8360    -0.1480 H     1 <1>   0.0800 
 43 H       -4.7840    -8.4000    -1.0590 H     1 <1>   0.0800 
 44 H       -6.6100    -8.6070     1.3440 H     1 <1>   0.0800 
 45 H       -7.7420   -10.5040    -0.2760 H     1 <1>   0.2700 
 46 H       -7.9430    -6.5420    -1.6380 H     1 <1>   0.1500 
 47 H       -9.6710    -8.0540    -2.8900 H     1 <1>   0.1500 
@<TRIPOS>BOND
  1   1   2  1   
  2   1   3  1   
  3   2   4  ar  
  4   2   5  ar  
  5   3  25  1   
  6   3  26  1   
  7   3  27  1   
  8   4   6  ar  
  9   4  28  1   
 10   5   7  ar  
 11   5  29  1   
 12   6   8  ar  
 13   6   9  ar  
 14   7   9  ar  
 15   7  30  1   
 16   8  10  ar  
 17   8  31  1   
 18   9  11  ar  
 19  10  12  1   
 20  10  13  ar  
 21  11  13  ar  
 22  11  14  1   
 23  12  15  1   
 24  12  16  1   
 25  13  32  1   
 26  14  33  1   
 27  14  34  1   
 28  14  35  1   
 29  15  17  1   
 30  15  36  1   
 31  15  37  1   
 32  16  18  1   
 33  16  38  1   
 34  16  39  1   
 35  17  19  1   
 36  17  40  1   
 37  17  41  1   
 38  18  19  1   
 39  18  42  1   
 40  18  43  1   
 41  19  20  1   
 42  19  44  1   
 43  20  21  1   
 44  20  22  2   
 45  21  23  1   
 46  21  45  1   
 47  22  24  1   
 48  22  46  1   
 49  23  24  2   
 50  24  47  1   
@<TRIPOS>SUBSTRUCTURE
  1 ****  10 GROUP 4 **** **** 0

# MOE 2024.06 (io_trps.svl 2023.06)
