@<TRIPOS>MOLECULE
NONAME
43 44 1 0 0 
SMALL
USER_CHARGES


@<TRIPOS>ATOM
  1 S        0.4210     0.3240    -1.1890 S.o2  1 <1>   1.3330 
  2 O        0.7270     1.0030    -2.4250 O.2   1 <1>  -0.6500 
  3 O        0.6150    -1.1000    -1.0550 O.2   1 <1>  -0.6500 
  4 N        1.3120     1.0810     0.0950 N.am  1 <1>  -0.6930 
  5 C       -1.2540     0.6980    -0.7240 C.3   1 <1>  -0.1350 
  6 C        1.4050     2.4570     0.2350 C.ar  1 <1>   0.1990 
  7 C        1.9190     0.1910     1.1150 C.3   1 <1>   0.1160 
  8 C        1.9490     3.2530    -0.7670 C.ar  1 <1>  -0.1500 
  9 C        0.9580     3.0860     1.3910 C.ar  1 <1>  -0.1500 
 10 C        2.0280     4.6240    -0.6260 C.ar  1 <1>  -0.1500 
 11 C        1.0380     4.4570     1.5320 C.ar  1 <1>  -0.1500 
 12 C        1.5670     5.2690     0.5260 C.ar  1 <1>   0.0860 
 13 C        1.6280     6.7100     0.6860 C.2   1 <1>   0.5440 
 14 O        1.6410     7.2130     1.7940 O.2   1 <1>  -0.5700 
 15 N        1.6680     7.5400    -0.4020 N.am  1 <1>  -0.7300 
 16 C        1.7270     9.0150    -0.3380 C.3   1 <1>   0.1400 
 17 C        3.1900     9.4510    -0.3560 C.3   1 <1>  -0.1600 
 18 C        3.3220    10.9670    -0.1740 C.3   1 <1>   0.0200 
 19 C        4.7780    11.3910    -0.1970 C.2   1 <1>   0.0060 
 20 N        5.3120    12.0700    -1.1590 N.2   1 <1>  -0.5650 
 21 N        5.6430    11.0900     0.7960 N.pl3 1 <1>   0.0330 
 22 C        6.5940    12.2210    -0.7740 C.2   1 <1>   0.0770 
 23 C        6.8150    11.6280     0.4190 C.2   1 <1>  -0.3020 
 24 H       -1.9350     0.2700    -1.4330 H     1 <1>   0.0800 
 25 H       -1.4030     1.7590    -0.7000 H     1 <1>   0.0800 
 26 H       -1.4680     0.2940     0.2460 H     1 <1>   0.0800 
 27 H        2.5760    -0.5130     0.6330 H     1 <1>   0.0800 
 28 H        1.1480    -0.3520     1.6340 H     1 <1>   0.0800 
 29 H        2.4900     0.7650     1.8240 H     1 <1>   0.0800 
 30 H        2.3180     2.7850    -1.6630 H     1 <1>   0.1500 
 31 H        0.5400     2.4920     2.1840 H     1 <1>   0.1500 
 32 H        2.4660     5.2000    -1.4210 H     1 <1>   0.1500 
 33 H        0.6840     4.9210     2.4370 H     1 <1>   0.1500 
 34 H        1.6300     7.1390    -1.3390 H     1 <1>   0.3700 
 35 H        1.2530     9.3530     0.5700 H     1 <1>   0.0800 
 36 H        1.1950     9.4340    -1.1750 H     1 <1>   0.0800 
 37 H        3.6400     9.1690    -1.2920 H     1 <1>   0.0800 
 38 H        3.7120     8.9520     0.4420 H     1 <1>   0.0800 
 39 H        2.8800    11.2710     0.7580 H     1 <1>   0.0800 
 40 H        2.8030    11.4740    -0.9690 H     1 <1>   0.0800 
 41 H        5.4380    10.5590     1.6480 H     1 <1>   0.2700 
 42 H        7.3000    12.7570    -1.3870 H     1 <1>   0.1500 
 43 H        7.7170    11.5630     1.0000 H     1 <1>   0.1500 
@<TRIPOS>BOND
  1   1   2  2   
  2   1   3  2   
  3   1   4  am  
  4   1   5  1   
  5   4   6  1   
  6   4   7  1   
  7   5  24  1   
  8   5  25  1   
  9   5  26  1   
 10   6   8  ar  
 11   6   9  ar  
 12   7  27  1   
 13   7  28  1   
 14   7  29  1   
 15   8  10  ar  
 16   8  30  1   
 17   9  11  ar  
 18   9  31  1   
 19  10  12  ar  
 20  10  32  1   
 21  11  12  ar  
 22  11  33  1   
 23  12  13  1   
 24  13  14  2   
 25  13  15  am  
 26  15  16  1   
 27  15  34  1   
 28  16  17  1   
 29  16  35  1   
 30  16  36  1   
 31  17  18  1   
 32  17  37  1   
 33  17  38  1   
 34  18  19  1   
 35  18  39  1   
 36  18  40  1   
 37  19  20  2   
 38  19  21  1   
 39  20  22  1   
 40  21  23  1   
 41  21  41  1   
 42  22  23  2   
 43  22  42  1   
 44  23  43  1   
@<TRIPOS>SUBSTRUCTURE
  1 ****  12 GROUP 4 **** **** 0

# MOE 2024.06 (io_trps.svl 2023.06)
