@<TRIPOS>MOLECULE
NONAME
44 47 1 0 0 
SMALL
USER_CHARGES


@<TRIPOS>ATOM
  1 S        0.1650     0.0370     0.0710 S.3   1 <1>  -0.0800 
  2 C        1.5230     1.1330     0.2280 C.2   1 <1>  -0.1400 
  3 C        0.8580    -0.6490    -1.3920 C.2   1 <1>  -0.1100 
  4 C        2.4140     0.9580    -0.7590 C.2   1 <1>  -0.1810 
  5 C        1.6260     2.1290     1.3590 C.3   1 <1>   0.0200 
  6 C        2.0330    -0.0600    -1.6930 C.2   1 <1>  -0.1500 
  7 C        3.6940     1.7800    -0.8430 C.3   1 <1>   0.3900 
  8 C        2.6930     3.1740     0.9910 C.3   1 <1>   0.2090 
  9 N        3.9230     2.5250     0.4320 N.pl3 1 <1>  -0.8380 
 10 C        5.0780     3.2680     0.4560 C.ar  1 <1>   0.4100 
 11 N        5.0080     4.5170     0.1040 N.ar  1 <1>  -0.6200 
 12 C        6.2740     2.6400     0.8360 C.ar  1 <1>  -0.1500 
 13 C        6.1560     5.2490     0.1050 C.ar  1 <1>   0.3100 
 14 C        7.4460     3.3270     0.8490 C.ar  1 <1>  -0.1430 
 15 C        6.1120     6.6200    -0.2730 C.ar  1 <1>   0.0830 
 16 C        7.4070     4.6890     0.4680 C.ar  1 <1>   0.0000 
 17 C        8.7410     2.6430     1.2630 C.3   1 <1>  -0.0970 
 18 O        4.8970     7.1400    -0.6160 O.3   1 <1>  -0.3630 
 19 C        7.2570     7.3870    -0.2900 C.ar  1 <1>  -0.1500 
 20 C        8.5510     5.5090     0.4360 C.ar  1 <1>  -0.1500 
 21 C        4.7210     8.4770    -1.0260 C.3   1 <1>   0.0400 
 22 C        8.4900     6.8250     0.0680 C.ar  1 <1>   0.0830 
 23 O        9.6560     7.5230     0.0720 O.3   1 <1>  -0.3630 
 24 C        9.7080     8.8850    -0.2910 C.3   1 <1>   0.0400 
 25 H        0.3040    -1.4310    -1.8780 H     1 <1>   0.1500 
 26 H        1.9090     1.6220     2.2630 H     1 <1>   0.0800 
 27 H        0.6820     2.6180     1.5160 H     1 <1>   0.0800 
 28 H        2.6530    -0.3020    -2.5380 H     1 <1>   0.1500 
 29 H        3.6240     2.4790    -1.6590 H     1 <1>   0.0800 
 30 H        4.5290     1.1250    -1.0220 H     1 <1>   0.0800 
 31 H        2.9520     3.7540     1.8600 H     1 <1>   0.0800 
 32 H        2.2930     3.8460     0.2490 H     1 <1>   0.0800 
 33 H        6.2130     1.6060     1.1160 H     1 <1>   0.1500 
 34 H        8.5650     1.6140     1.5190 H     1 <1>   0.0800 
 35 H        9.1610     3.1370     2.1200 H     1 <1>   0.0800 
 36 H        9.4500     2.6740     0.4550 H     1 <1>   0.0800 
 37 H        7.2200     8.4170    -0.5740 H     1 <1>   0.1500 
 38 H        9.5070     5.1030     0.7060 H     1 <1>   0.1500 
 39 H        3.6780     8.6220    -1.2430 H     1 <1>   0.0800 
 40 H        5.3060     8.6510    -1.9120 H     1 <1>   0.0800 
 41 H        5.0210     9.1300    -0.2260 H     1 <1>   0.0800 
 42 H       10.7300     9.2120    -0.2100 H     1 <1>   0.0800 
 43 H        9.0900     9.4500     0.3840 H     1 <1>   0.0800 
 44 H        9.3710     8.9900    -1.3060 H     1 <1>   0.0800 
@<TRIPOS>BOND
  1   1   2  1   
  2   1   3  1   
  3   2   4  2   
  4   2   5  1   
  5   3   6  2   
  6   3  25  1   
  7   4   6  1   
  8   4   7  1   
  9   5   8  1   
 10   5  26  1   
 11   5  27  1   
 12   6  28  1   
 13   7   9  1   
 14   7  29  1   
 15   7  30  1   
 16   8   9  1   
 17   8  31  1   
 18   8  32  1   
 19   9  10  1   
 20  10  11  ar  
 21  10  12  ar  
 22  11  13  ar  
 23  12  14  ar  
 24  12  33  1   
 25  13  15  ar  
 26  13  16  ar  
 27  14  16  ar  
 28  14  17  1   
 29  15  18  1   
 30  15  19  ar  
 31  16  20  ar  
 32  17  34  1   
 33  17  35  1   
 34  17  36  1   
 35  18  21  1   
 36  19  22  ar  
 37  19  37  1   
 38  20  22  ar  
 39  20  38  1   
 40  21  39  1   
 41  21  40  1   
 42  21  41  1   
 43  22  23  1   
 44  23  24  1   
 45  24  42  1   
 46  24  43  1   
 47  24  44  1   
@<TRIPOS>SUBSTRUCTURE
  1 ****  11 GROUP 4 **** **** 0

# MOE 2024.06 (io_trps.svl 2023.06)
