@<TRIPOS>MOLECULE
NONAME
44 47 1 0 0 
SMALL
USER_CHARGES


@<TRIPOS>ATOM
  1 O        0.6110     0.0270     0.6460 O.3   1 <1>  -0.6800 
  2 C        1.7010    -0.1140    -0.1980 C.3   1 <1>   0.2000 
  3 C        2.4750    -1.3860     0.1440 C.3   1 <1>  -0.0800 
  4 C        2.7040     1.0220     0.0120 C.3   1 <1>   0.2090 
  5 C        3.9090    -1.0730    -0.2820 C.3   1 <1>   0.2090 
  6 C        1.9100    -2.6550    -0.5200 C.3   1 <1>  -0.0170 
  7 N        4.0510     0.4050    -0.1900 N.pl3 1 <1>  -0.8380 
  8 C        2.7270    -3.8940    -0.1790 C.ar  1 <1>   0.1660 
  9 C        5.2050     1.1390    -0.1680 C.ar  1 <1>   0.7710 
 10 N        3.9040    -4.0160    -0.7800 N.ar  1 <1>  -0.6200 
 11 C        2.2140    -4.8210     0.7180 C.ar  1 <1>  -0.1500 
 12 N        6.3760     0.4770    -0.4080 N.ar  1 <1>  -0.1790 
 13 N        5.1610     2.4240     0.0650 N.ar  1 <1>  -0.5670 
 14 C        4.5810    -5.1180    -0.4900 C.ar  1 <1>   0.1600 
 15 C        2.9380    -5.9540     1.0180 C.ar  1 <1>  -0.1500 
 16 C        7.5730     1.0760    -0.4170 C.ar  1 <1>   0.4610 
 17 C        6.3540     3.0680     0.0690 C.ar  1 <1>   0.1050 
 18 C        4.1540    -6.0990     0.3880 C.ar  1 <1>  -0.1500 
 19 N        8.6910     0.3710    -0.6630 N.pl3 1 <1>  -0.9000 
 20 C        7.5600     2.4510    -0.1610 C.ar  1 <1>   0.0000 
 21 N        6.6240     4.3800     0.2860 N.pl3 1 <1>   0.3140 
 22 C        8.4990     3.4890    -0.0610 C.2   1 <1>   0.1390 
 23 N        7.9550     4.6280     0.2020 N.2   1 <1>  -0.7070 
 24 C        5.6670     5.4570     0.5810 C.3   1 <1>   0.0160 
 25 H       -0.0720    -0.6470     0.4610 H     1 <1>   0.4000 
 26 H        1.3570    -0.1140    -1.2180 H     1 <1>   0.0800 
 27 H        2.4790    -1.5160     1.2130 H     1 <1>   0.0800 
 28 H        2.6320     1.4020     1.0180 H     1 <1>   0.0800 
 29 H        2.5350     1.8180    -0.6930 H     1 <1>   0.0800 
 30 H        4.0640    -1.3810    -1.3040 H     1 <1>   0.0800 
 31 H        4.6050    -1.5840     0.3620 H     1 <1>   0.0800 
 32 H        1.8970    -2.5390    -1.5900 H     1 <1>   0.0800 
 33 H        0.8930    -2.7990    -0.2020 H     1 <1>   0.0800 
 34 H        1.2560    -4.6660     1.1800 H     1 <1>   0.1500 
 35 H        6.2810    -0.5090    -0.5950 H     1 <1>   0.4570 
 36 H        5.5300    -5.2520    -0.9790 H     1 <1>   0.1500 
 37 H        2.5690    -6.6940     1.7080 H     1 <1>   0.1500 
 38 H        4.7640    -6.9650     0.5710 H     1 <1>   0.1500 
 39 H        8.7540    -0.6360    -0.8560 H     1 <1>   0.4000 
 40 H        9.6210     0.8110    -0.6760 H     1 <1>   0.4000 
 41 H        9.5620     3.3600    -0.1880 H     1 <1>   0.1500 
 42 H        4.6730     5.0550     0.6460 H     1 <1>   0.0800 
 43 H        5.7120     6.1890    -0.2040 H     1 <1>   0.0800 
 44 H        5.9340     5.9160     1.5140 H     1 <1>   0.0800 
@<TRIPOS>BOND
  1   1   2  1   
  2   1  25  1   
  3   2   3  1   
  4   2   4  1   
  5   2  26  1   
  6   3   5  1   
  7   3   6  1   
  8   3  27  1   
  9   4   7  1   
 10   4  28  1   
 11   4  29  1   
 12   5   7  1   
 13   5  30  1   
 14   5  31  1   
 15   6   8  1   
 16   6  32  1   
 17   6  33  1   
 18   7   9  1   
 19   8  10  ar  
 20   8  11  ar  
 21   9  12  ar  
 22   9  13  ar  
 23  10  14  ar  
 24  11  15  ar  
 25  11  34  1   
 26  12  16  ar  
 27  12  35  1   
 28  13  17  ar  
 29  14  18  ar  
 30  14  36  1   
 31  15  18  ar  
 32  15  37  1   
 33  16  19  1   
 34  16  20  ar  
 35  17  20  ar  
 36  17  21  1   
 37  18  38  1   
 38  19  39  1   
 39  19  40  1   
 40  20  22  1   
 41  21  23  1   
 42  21  24  1   
 43  22  23  2   
 44  22  41  1   
 45  24  42  1   
 46  24  43  1   
 47  24  44  1   
@<TRIPOS>SUBSTRUCTURE
  1 ****   7 GROUP 4 **** **** 0

# MOE 2024.06 (io_trps.svl 2023.06)
