@<TRIPOS>MOLECULE
NONAME
51 53 1 0 0 
SMALL
USER_CHARGES


@<TRIPOS>ATOM
  1 O       -1.3420     0.0610     1.3810 O.2   1 <1>  -0.5700 
  2 C       -2.1550     0.9660     1.2920 C.2   1 <1>   0.5440 
  3 N       -3.4910     0.6440     1.3920 N.am  1 <1>  -0.6600 
  4 C       -1.7240     2.3340     1.0670 C.ar  1 <1>   0.0860 
  5 C       -3.9150    -0.7230     1.8030 C.3   1 <1>   0.1400 
  6 C       -4.5470     1.3790     0.6370 C.3   1 <1>   0.1400 
  7 C       -0.9180     2.7170    -0.0160 C.ar  1 <1>  -0.1440 
  8 C       -2.1340     3.3290     1.9550 C.ar  1 <1>  -0.1500 
  9 C       -4.1660    -1.5380     0.5170 C.3   1 <1>   0.4230 
 10 C       -4.9080     0.5700    -0.6220 C.3   1 <1>  -0.1600 
 11 C       -0.5480     4.0410    -0.1840 C.ar  1 <1>  -0.1500 
 12 C       -0.4360     1.6870    -1.0310 C.3   1 <1>  -0.0960 
 13 C       -1.7660     4.6480     1.7840 C.ar  1 <1>  -0.1500 
 14 N       -4.4410    -2.9990     0.7280 N.4   1 <1>  -0.9590 
 15 C       -5.3150    -0.9010    -0.3020 C.3   1 <1>  -0.1060 
 16 C       -0.9700     5.0170     0.7140 C.ar  1 <1>   0.0830 
 17 C       -4.5950    -3.7780    -0.5360 C.3   1 <1>   0.3430 
 18 C       -3.5680    -3.6780     1.7210 C.3   1 <1>   0.2630 
 19 C       -6.5890    -0.9500     0.5640 C.2   1 <1>   0.9060 
 20 C       -5.5580    -1.6800    -1.6280 C.3   1 <1>  -0.1600 
 21 O       -0.6510     6.3270     0.6120 O.3   1 <1>  -0.3630 
 22 C       -4.6200    -2.8880    -1.7880 C.3   1 <1>  -0.1600 
 23 O       -6.8200    -1.9840     1.2110 O.co2 1 <1>  -0.9000 
 24 O       -7.3370     0.0240     0.6180 O.co2 1 <1>  -0.9000 
 25 C        0.1870     6.8110    -0.4130 C.3   1 <1>   0.0400 
 26 H       -3.1380    -1.1700     2.3940 H     1 <1>   0.0800 
 27 H       -4.8050    -0.6570     2.4050 H     1 <1>   0.0800 
 28 H       -5.4150     1.5020     1.2660 H     1 <1>   0.0800 
 29 H       -4.2090     2.3590     0.3510 H     1 <1>   0.0800 
 30 H       -2.7520     3.0560     2.7930 H     1 <1>   0.1500 
 31 H       -3.2620    -1.4600    -0.0620 H     1 <1>   0.0800 
 32 H       -5.7240     1.0670    -1.1200 H     1 <1>   0.0800 
 33 H       -4.0660     0.5850    -1.2900 H     1 <1>   0.0800 
 34 H        0.0710     4.3080    -1.0180 H     1 <1>   0.1500 
 35 H        0.0360     2.1590    -1.8730 H     1 <1>   0.0800 
 36 H       -1.2630     1.1030    -1.3910 H     1 <1>   0.0800 
 37 H        0.2770     1.0270    -0.5680 H     1 <1>   0.0800 
 38 H       -2.0920     5.4020     2.4780 H     1 <1>   0.1500 
 39 H       -5.4200    -2.9410     1.1220 H     1 <1>   0.4500 
 40 H       -3.7890    -4.4870    -0.6310 H     1 <1>   0.0800 
 41 H       -5.5200    -4.3300    -0.4850 H     1 <1>   0.0800 
 42 H       -2.5400    -3.6440     1.3980 H     1 <1>   0.0800 
 43 H       -3.8680    -4.7070     1.8360 H     1 <1>   0.0800 
 44 H       -3.6480    -3.1940     2.6800 H     1 <1>   0.0800 
 45 H       -6.5770    -2.0330    -1.6460 H     1 <1>   0.0800 
 46 H       -5.4480    -1.0310    -2.4800 H     1 <1>   0.0800 
 47 H       -3.6210    -2.5480    -1.9990 H     1 <1>   0.0800 
 48 H       -4.9380    -3.4770    -2.6300 H     1 <1>   0.0800 
 49 H        0.3070     7.8700    -0.2740 H     1 <1>   0.0800 
 50 H       -0.2760     6.6170    -1.3640 H     1 <1>   0.0800 
 51 H        1.1430     6.3220    -0.3420 H     1 <1>   0.0800 
@<TRIPOS>BOND
  1   1   2  2   
  2   2   3  am  
  3   2   4  1   
  4   3   5  1   
  5   3   6  1   
  6   4   7  ar  
  7   4   8  ar  
  8   5   9  1   
  9   5  26  1   
 10   5  27  1   
 11   6  10  1   
 12   6  28  1   
 13   6  29  1   
 14   7  11  ar  
 15   7  12  1   
 16   8  13  ar  
 17   8  30  1   
 18   9  14  1   
 19   9  15  1   
 20   9  31  1   
 21  10  15  1   
 22  10  32  1   
 23  10  33  1   
 24  11  16  ar  
 25  11  34  1   
 26  12  35  1   
 27  12  36  1   
 28  12  37  1   
 29  13  16  ar  
 30  13  38  1   
 31  14  17  1   
 32  14  18  1   
 33  14  39  1   
 34  15  19  1   
 35  15  20  1   
 36  16  21  1   
 37  17  22  1   
 38  17  40  1   
 39  17  41  1   
 40  18  42  1   
 41  18  43  1   
 42  18  44  1   
 43  19  23  ar  
 44  19  24  ar  
 45  20  22  1   
 46  20  45  1   
 47  20  46  1   
 48  21  25  1   
 49  22  47  1   
 50  22  48  1   
 51  25  49  1   
 52  25  50  1   
 53  25  51  1   
@<TRIPOS>SUBSTRUCTURE
  1 ****   3 GROUP 4 **** **** 0

# MOE 2024.06 (io_trps.svl 2023.06)
