@<TRIPOS>MOLECULE
NONAME
56 59 1 0 0 
SMALL
USER_CHARGES


@<TRIPOS>ATOM
  1 O       -0.9230    -0.6200    -0.6450 O.2   1 <1>  -0.5700 
  2 C       -1.8840     0.1000    -0.4470 C.2   1 <1>   0.5440 
  3 N       -1.6790     1.3230     0.1580 N.am  1 <1>  -0.6600 
  4 C       -3.1980    -0.3560    -0.8370 C.ar  1 <1>   0.0860 
  5 C       -2.6980     2.0120     1.0070 C.3   1 <1>   0.1400 
  6 C       -0.3150     1.9260     0.2780 C.3   1 <1>   0.1400 
  7 C       -3.5730    -1.6810    -0.6370 C.ar  1 <1>   0.1600 
  8 C       -4.1410     0.4750    -1.4350 C.ar  1 <1>  -0.1500 
  9 C       -2.1720     2.2030     2.4400 C.3   1 <1>   0.1200 
 10 C        0.0680     2.1090     1.7540 C.3   1 <1>   0.1200 
 11 N       -4.7480    -2.2120    -0.9320 N.ar  1 <1>  -0.6200 
 12 C       -5.3650    -0.0600    -1.7550 C.ar  1 <1>  -0.1500 
 13 O       -0.9220     2.8320     2.4330 O.3   1 <1>  -0.5600 
 14 C       -5.6460    -1.3990    -1.4820 C.ar  1 <1>   0.4100 
 15 N       -6.8780    -1.9430    -1.7870 N.pl3 1 <1>  -0.8380 
 16 C       -6.9730    -3.3770    -2.2000 C.3   1 <1>   0.2090 
 17 C       -8.1440    -1.2380    -1.4720 C.3   1 <1>   0.2090 
 18 C       -7.2080    -4.3020    -0.9950 C.3   1 <1>   0.2090 
 19 C       -8.9210    -1.9330    -0.3510 C.3   1 <1>  -0.1600 
 20 N       -8.6450    -4.4320    -0.5450 N.pl3 1 <1>  -0.8380 
 21 C       -9.5500    -3.2630    -0.7770 C.3   1 <1>   0.2090 
 22 C       -9.0700    -5.5500     0.1030 C.ar  1 <1>   0.1000 
 23 C      -10.3680    -6.0540    -0.0600 C.ar  1 <1>  -0.1500 
 24 C       -8.2270    -6.2570     0.9710 C.ar  1 <1>  -0.1500 
 25 C      -10.7860    -7.1800     0.6030 C.ar  1 <1>   0.2180 
 26 C       -8.6660    -7.3780     1.6220 C.ar  1 <1>   0.2110 
 27 N       -9.9320    -7.8270     1.4340 N.ar  1 <1>  -0.1790 
 28 C      -12.1890    -7.7380     0.4330 C.3   1 <1>  -0.0970 
 29 H       -3.6080     1.4420     1.0470 H     1 <1>   0.0800 
 30 H       -2.9210     2.9750     0.5820 H     1 <1>   0.0800 
 31 H       -0.3100     2.8850    -0.2090 H     1 <1>   0.0800 
 32 H        0.4200     1.3080    -0.2080 H     1 <1>   0.0800 
 33 H       -2.8420    -2.3400    -0.2010 H     1 <1>   0.1500 
 34 H       -3.9040     1.5030    -1.6470 H     1 <1>   0.1500 
 35 H       -2.0760     1.2540     2.9390 H     1 <1>   0.0800 
 36 H       -2.8460     2.8220     3.0040 H     1 <1>   0.0800 
 37 H        0.9900     2.6570     1.8340 H     1 <1>   0.0800 
 38 H        0.1910     1.1520     2.2330 H     1 <1>   0.0800 
 39 H       -6.1120     0.5430    -2.2320 H     1 <1>   0.1500 
 40 H       -6.0410    -3.6560    -2.6620 H     1 <1>   0.0800 
 41 H       -7.7460    -3.5100    -2.9340 H     1 <1>   0.0800 
 42 H       -8.7460    -1.1770    -2.3620 H     1 <1>   0.0800 
 43 H       -7.9270    -0.2340    -1.1530 H     1 <1>   0.0800 
 44 H       -6.6060    -3.9540    -0.1740 H     1 <1>   0.0800 
 45 H       -6.8530    -5.2800    -1.2670 H     1 <1>   0.0800 
 46 H       -9.7230    -1.2740    -0.0750 H     1 <1>   0.0800 
 47 H       -8.3010    -2.0620     0.5180 H     1 <1>   0.0800 
 48 H       -9.8390    -3.2270    -1.8130 H     1 <1>   0.0800 
 49 H      -10.4440    -3.3990    -0.1940 H     1 <1>   0.0800 
 50 H      -11.0310    -5.5430    -0.7330 H     1 <1>   0.1500 
 51 H       -7.2270    -5.8980     1.1320 H     1 <1>   0.1500 
 52 H       -8.0160    -7.9180     2.2920 H     1 <1>   0.1500 
 53 H      -10.2510    -8.6660     1.9270 H     1 <1>   0.4570 
 54 H      -12.7560    -7.1320    -0.2520 H     1 <1>   0.0800 
 55 H      -12.7060    -7.7480     1.3760 H     1 <1>   0.0800 
 56 H      -12.1510    -8.7390     0.0400 H     1 <1>   0.0800 
@<TRIPOS>BOND
  1   1   2  2   
  2   2   3  am  
  3   2   4  1   
  4   3   5  1   
  5   3   6  1   
  6   4   7  ar  
  7   4   8  ar  
  8   5   9  1   
  9   5  29  1   
 10   5  30  1   
 11   6  10  1   
 12   6  31  1   
 13   6  32  1   
 14   7  11  ar  
 15   7  33  1   
 16   8  12  ar  
 17   8  34  1   
 18   9  13  1   
 19   9  35  1   
 20   9  36  1   
 21  10  13  1   
 22  10  37  1   
 23  10  38  1   
 24  11  14  ar  
 25  12  14  ar  
 26  12  39  1   
 27  14  15  1   
 28  15  16  1   
 29  15  17  1   
 30  16  18  1   
 31  16  40  1   
 32  16  41  1   
 33  17  19  1   
 34  17  42  1   
 35  17  43  1   
 36  18  20  1   
 37  18  44  1   
 38  18  45  1   
 39  19  21  1   
 40  19  46  1   
 41  19  47  1   
 42  20  21  1   
 43  20  22  1   
 44  21  48  1   
 45  21  49  1   
 46  22  23  ar  
 47  22  24  ar  
 48  23  25  ar  
 49  23  50  1   
 50  24  26  ar  
 51  24  51  1   
 52  25  27  ar  
 53  25  28  1   
 54  26  27  ar  
 55  26  52  1   
 56  27  53  1   
 57  28  54  1   
 58  28  55  1   
 59  28  56  1   
@<TRIPOS>SUBSTRUCTURE
  1 ****  11 GROUP 4 **** **** 0

# MOE 2024.06 (io_trps.svl 2023.06)
