@<TRIPOS>MOLECULE
NONAME
40 41 1 0 0 
SMALL
USER_CHARGES


@<TRIPOS>ATOM
  1 O        0.7200     0.3670    -0.3460 O.2   1 <1>  -0.5700 
  2 C        1.5110    -0.4970    -0.0480 C.2   1 <1>   0.5690 
  3 N        1.0960    -1.5070     0.7560 N.am  1 <1>  -0.7300 
  4 C        2.9590    -0.4540    -0.5890 C.3   1 <1>   0.3500 
  5 C        1.8410    -2.7160     1.1580 C.3   1 <1>   0.1400 
  6 N        3.2620     0.8110    -1.3150 N.pl3 1 <1>  -0.8690 
  7 C        3.2390    -1.6250    -1.5440 C.3   1 <1>  -0.1600 
  8 C        2.2600    -3.5270    -0.0730 C.3   1 <1>  -0.1600 
  9 C        4.2920     1.6050    -0.9310 C.ar  1 <1>   0.4100 
 10 C        3.4780    -2.9650    -0.8280 C.3   1 <1>  -0.1600 
 11 N        3.9490     2.8470    -0.6480 N.ar  1 <1>  -0.6200 
 12 C        5.6000     1.1340    -0.8440 C.ar  1 <1>  -0.1500 
 13 C        4.9300     3.6450    -0.2610 C.ar  1 <1>   0.1600 
 14 C        6.6060     1.9770    -0.4410 C.ar  1 <1>  -0.1500 
 15 C        6.2750     3.2970    -0.1380 C.ar  1 <1>   0.0860 
 16 C        7.2510     4.2760     0.2850 C.2   1 <1>   0.5440 
 17 O        6.9080     5.2660     0.9010 O.2   1 <1>  -0.5700 
 18 N        8.5790     4.1210    -0.0110 N.am  1 <1>  -0.7300 
 19 C        9.6520     5.0500     0.3960 C.3   1 <1>   0.1400 
 20 C       10.9060     4.2400     0.7010 C.3   1 <1>  -0.2400 
 21 H        0.1170    -1.4540     1.0480 H     1 <1>   0.3700 
 22 H        3.6210    -0.5230     0.2560 H     1 <1>   0.0800 
 23 H        1.1990    -3.3200     1.7770 H     1 <1>   0.0800 
 24 H        2.7030    -2.4390     1.7420 H     1 <1>   0.0800 
 25 H        2.3930     1.3590    -1.3810 H     1 <1>   0.4000 
 26 H        4.1200    -1.3970    -2.1170 H     1 <1>   0.0800 
 27 H        2.4180    -1.7190    -2.2340 H     1 <1>   0.0800 
 28 H        1.4220    -3.6360    -0.7410 H     1 <1>   0.0800 
 29 H        2.5200    -4.5150     0.2660 H     1 <1>   0.0800 
 30 H        4.3090    -2.8670    -0.1490 H     1 <1>   0.0800 
 31 H        3.7670    -3.6880    -1.5730 H     1 <1>   0.0800 
 32 H        5.8030     0.1120    -1.0990 H     1 <1>   0.1500 
 33 H        4.6550     4.6590    -0.0230 H     1 <1>   0.1500 
 34 H        7.6190     1.6250    -0.3590 H     1 <1>   0.1500 
 35 H        8.8670     3.3820    -0.6510 H     1 <1>   0.3700 
 36 H        9.3480     5.6030     1.2700 H     1 <1>   0.0800 
 37 H        9.8410     5.7480    -0.4020 H     1 <1>   0.0800 
 38 H       10.7140     3.5460     1.5000 H     1 <1>   0.0800 
 39 H       11.6940     4.9030     1.0100 H     1 <1>   0.0800 
 40 H       11.2340     3.7070    -0.1730 H     1 <1>   0.0800 
@<TRIPOS>BOND
  1   1   2  2   
  2   2   3  am  
  3   2   4  1   
  4   3   5  1   
  5   3  21  1   
  6   4   6  1   
  7   4   7  1   
  8   4  22  1   
  9   5   8  1   
 10   5  23  1   
 11   5  24  1   
 12   6   9  1   
 13   6  25  1   
 14   7  10  1   
 15   7  26  1   
 16   7  27  1   
 17   8  10  1   
 18   8  28  1   
 19   8  29  1   
 20   9  11  ar  
 21   9  12  ar  
 22  10  30  1   
 23  10  31  1   
 24  11  13  ar  
 25  12  14  ar  
 26  12  32  1   
 27  13  15  ar  
 28  13  33  1   
 29  14  15  ar  
 30  14  34  1   
 31  15  16  1   
 32  16  17  2   
 33  16  18  am  
 34  18  19  1   
 35  18  35  1   
 36  19  20  1   
 37  19  36  1   
 38  19  37  1   
 39  20  38  1   
 40  20  39  1   
 41  20  40  1   
@<TRIPOS>SUBSTRUCTURE
  1 ****   9 GROUP 4 **** **** 0

# MOE 2024.06 (io_trps.svl 2023.06)
