@<TRIPOS>MOLECULE
NONAME
53 55 1 0 0 
SMALL
USER_CHARGES


@<TRIPOS>ATOM
  1 O       -3.8180     0.5740     1.5180 O.2   1 <1>  -0.5700 
  2 C       -3.1540     1.2700     0.7770 C.2   1 <1>   0.6900 
  3 N       -3.1770     1.1150    -0.6030 N.am  1 <1>  -0.4690 
  4 N       -2.3670     2.2430     1.3080 N.am  1 <1>  -0.4900 
  5 C       -2.4260     1.9530    -1.4190 C.2   1 <1>  -0.0410 
  6 C       -3.9930     0.0290    -1.2070 C.3   1 <1>   0.1400 
  7 C       -1.6100     3.0820     0.5500 C.2   1 <1>   0.6160 
  8 C       -1.6570     2.9180    -0.8640 C.2   1 <1>  -0.1360 
  9 C       -5.4480     0.4730    -1.3400 C.3   1 <1>  -0.0990 
 10 O       -0.9370     3.9260     1.1020 O.2   1 <1>  -0.5700 
 11 C       -6.2860    -0.6970    -1.8060 C.2   1 <1>   0.5690 
 12 O       -6.4470    -0.8090    -2.9980 O.2   1 <1>  -0.5700 
 13 N       -6.8160    -1.5950    -0.9160 N.am  1 <1>  -0.6600 
 14 C       -7.5930    -2.7820    -1.3950 C.3   1 <1>   0.1400 
 15 C       -6.7030    -1.5090     0.5710 C.3   1 <1>   0.1400 
 16 C       -9.1080    -2.5990    -1.2230 C.3   1 <1>   0.1400 
 17 C       -7.8300    -0.6660     1.1840 C.3   1 <1>  -0.1600 
 18 N       -9.4850    -2.2580     0.1880 N.am  1 <1>  -0.6600 
 19 C       -9.2140    -0.8370     0.5430 C.3   1 <1>   0.1400 
 20 C       -9.9650    -3.1530     1.1340 C.2   1 <1>   0.5440 
 21 O      -10.0350    -2.7630     2.2900 O.2   1 <1>  -0.5700 
 22 C      -10.3390    -4.5410     0.8510 C.ar  1 <1>   0.3960 
 23 N      -11.0620    -4.8770    -0.2200 N.ar  1 <1>  -0.6200 
 24 C       -9.9460    -5.5330     1.7320 C.ar  1 <1>  -0.1500 
 25 C      -11.3460    -6.1530    -0.3700 C.ar  1 <1>   0.4770 
 26 C      -10.2960    -6.8330     1.4730 C.ar  1 <1>   0.1670 
 27 N      -10.9980    -7.1550     0.4140 N.ar  1 <1>  -0.6200 
 28 C      -12.1670    -6.5240    -1.5810 C.3   1 <1>  -0.0970 
 29 C       -9.8940    -7.9610     2.3990 C.3   1 <1>  -0.0970 
 30 H       -2.3480     2.3500     2.3150 H     1 <1>   0.3700 
 31 H       -2.4840     1.8010    -2.4850 H     1 <1>   0.1500 
 32 H       -3.9300    -0.8480    -0.5850 H     1 <1>   0.0800 
 33 H       -3.6010    -0.2290    -2.1770 H     1 <1>   0.0800 
 34 H       -1.0560     3.5930    -1.4430 H     1 <1>   0.1500 
 35 H       -5.5180     1.2590    -2.0690 H     1 <1>   0.0800 
 36 H       -5.8200     0.8480    -0.4070 H     1 <1>   0.0800 
 37 H       -7.2790    -3.6590    -0.8580 H     1 <1>   0.0800 
 38 H       -7.3860    -2.9600    -2.4360 H     1 <1>   0.0800 
 39 H       -5.7480    -1.1030     0.8570 H     1 <1>   0.0800 
 40 H       -6.7560    -2.5030     0.9820 H     1 <1>   0.0800 
 41 H       -9.5960    -3.4950    -1.5500 H     1 <1>   0.0800 
 42 H       -9.4380    -1.8130    -1.8800 H     1 <1>   0.0800 
 43 H       -7.5610     0.3730     1.1420 H     1 <1>   0.0800 
 44 H       -7.9050    -0.9190     2.2270 H     1 <1>   0.0800 
 45 H       -9.2710    -0.2320    -0.3460 H     1 <1>   0.0800 
 46 H       -9.9710    -0.4830     1.2220 H     1 <1>   0.0800 
 47 H       -9.3780    -5.2740     2.6050 H     1 <1>   0.1500 
 48 H      -12.4270    -5.6490    -2.1480 H     1 <1>   0.0800 
 49 H      -13.0680    -7.0150    -1.2640 H     1 <1>   0.0800 
 50 H      -11.6030    -7.1920    -2.2040 H     1 <1>   0.0800 
 51 H       -9.3290    -7.5930     3.2350 H     1 <1>   0.0800 
 52 H       -9.2970    -8.6740     1.8600 H     1 <1>   0.0800 
 53 H      -10.7750    -8.4550     2.7650 H     1 <1>   0.0800 
@<TRIPOS>BOND
  1   1   2  2   
  2   2   3  am  
  3   2   4  am  
  4   3   5  1   
  5   3   6  1   
  6   4   7  am  
  7   4  30  1   
  8   5   8  2   
  9   5  31  1   
 10   6   9  1   
 11   6  32  1   
 12   6  33  1   
 13   7   8  1   
 14   7  10  2   
 15   8  34  1   
 16   9  11  1   
 17   9  35  1   
 18   9  36  1   
 19  11  12  2   
 20  11  13  am  
 21  13  14  1   
 22  13  15  1   
 23  14  16  1   
 24  14  37  1   
 25  14  38  1   
 26  15  17  1   
 27  15  39  1   
 28  15  40  1   
 29  16  18  1   
 30  16  41  1   
 31  16  42  1   
 32  17  19  1   
 33  17  43  1   
 34  17  44  1   
 35  18  19  1   
 36  18  20  am  
 37  19  45  1   
 38  19  46  1   
 39  20  21  2   
 40  20  22  1   
 41  22  23  ar  
 42  22  24  ar  
 43  23  25  ar  
 44  24  26  ar  
 45  24  47  1   
 46  25  27  ar  
 47  25  28  1   
 48  26  27  ar  
 49  26  29  1   
 50  28  48  1   
 51  28  49  1   
 52  28  50  1   
 53  29  51  1   
 54  29  52  1   
 55  29  53  1   
@<TRIPOS>SUBSTRUCTURE
  1 ****  15 GROUP 4 **** **** 0

# MOE 2024.06 (io_trps.svl 2023.06)
