@<TRIPOS>MOLECULE
NONAME
36 36 1 0 0 
SMALL
USER_CHARGES


@<TRIPOS>ATOM
  1 CL       0.4070     0.0370    -1.5870 Cl    1 <1>  -0.1770 
  2 C        1.4250    -1.0180    -0.6210 C.ar  1 <1>   0.1770 
  3 C        1.1830    -2.3850    -0.5590 C.ar  1 <1>   0.4100 
  4 C        2.4790    -0.5120     0.0870 C.ar  1 <1>   0.1600 
  5 N        1.9580    -3.1700     0.1710 N.ar  1 <1>  -0.6200 
  6 N        0.1370    -2.9710    -1.2420 N.pl3 1 <1>  -0.8690 
  7 N        3.2610    -1.2890     0.8180 N.ar  1 <1>  -0.6200 
  8 C        2.9510    -2.5750     0.8110 C.ar  1 <1>   0.4770 
  9 C        0.0270    -4.4210    -1.4910 C.3   1 <1>   0.2090 
 10 C        3.8410    -3.4680     1.6420 C.3   1 <1>  -0.0970 
 11 C       -0.7460    -5.0390    -0.3220 C.3   1 <1>  -0.1600 
 12 C       -1.0280    -6.5450    -0.4710 C.3   1 <1>   0.4230 
 13 N       -1.7020    -7.0680     0.7640 N.4   1 <1>  -0.9590 
 14 C        0.2700    -7.3340    -0.6910 C.3   1 <1>  -0.2400 
 15 C       -2.1000    -8.5090     0.6510 C.3   1 <1>   0.2630 
 16 C       -2.9100    -6.2790     1.1750 C.3   1 <1>   0.2630 
 17 H        2.6900     0.5420     0.0590 H     1 <1>   0.1500 
 18 H       -0.3590    -2.3630    -1.9050 H     1 <1>   0.4000 
 19 H        1.0170    -4.8380    -1.5710 H     1 <1>   0.0800 
 20 H       -0.4910    -4.5830    -2.4210 H     1 <1>   0.0800 
 21 H        3.7870    -4.4820     1.2930 H     1 <1>   0.0800 
 22 H        3.5250    -3.4280     2.6670 H     1 <1>   0.0800 
 23 H        4.8590    -3.1320     1.5760 H     1 <1>   0.0800 
 24 H       -1.6720    -4.5010    -0.2590 H     1 <1>   0.0800 
 25 H       -0.1810    -4.8700     0.5770 H     1 <1>   0.0800 
 26 H       -1.6760    -6.6930    -1.3200 H     1 <1>   0.0800 
 27 H       -1.0070    -6.9880     1.5220 H     1 <1>   0.4500 
 28 H        0.9530    -7.1820     0.1260 H     1 <1>   0.0800 
 29 H        0.7560    -7.0130    -1.5930 H     1 <1>   0.0800 
 30 H        0.0870    -8.3840    -0.8150 H     1 <1>   0.0800 
 31 H       -2.7570    -8.6520    -0.1920 H     1 <1>   0.0800 
 32 H       -2.6130    -8.8270     1.5450 H     1 <1>   0.0800 
 33 H       -1.2330    -9.1360     0.5240 H     1 <1>   0.0800 
 34 H       -3.6330    -6.2540     0.3760 H     1 <1>   0.0800 
 35 H       -2.6350    -5.2670     1.4260 H     1 <1>   0.0800 
 36 H       -3.3700    -6.7240     2.0430 H     1 <1>   0.0800 
@<TRIPOS>BOND
  1   1   2  1   
  2   2   3  ar  
  3   2   4  ar  
  4   3   5  ar  
  5   3   6  1   
  6   4   7  ar  
  7   4  17  1   
  8   5   8  ar  
  9   6   9  1   
 10   6  18  1   
 11   7   8  ar  
 12   8  10  1   
 13   9  11  1   
 14   9  19  1   
 15   9  20  1   
 16  10  21  1   
 17  10  22  1   
 18  10  23  1   
 19  11  12  1   
 20  11  24  1   
 21  11  25  1   
 22  12  13  1   
 23  12  14  1   
 24  12  26  1   
 25  13  15  1   
 26  13  16  1   
 27  13  27  1   
 28  14  28  1   
 29  14  29  1   
 30  14  30  1   
 31  15  31  1   
 32  15  32  1   
 33  15  33  1   
 34  16  34  1   
 35  16  35  1   
 36  16  36  1   
@<TRIPOS>SUBSTRUCTURE
  1 ****   5 GROUP 4 **** **** 0

# MOE 2024.06 (io_trps.svl 2023.06)
