@<TRIPOS>MOLECULE
NONAME
46 47 1 0 0 
SMALL
USER_CHARGES


@<TRIPOS>ATOM
  1 O       -0.4590     0.7070    -2.0270 O.co2 1 <1>  -0.9000 
  2 C       -0.7760     0.8730    -0.8420 C.2   1 <1>   0.9060 
  3 O       -1.3150    -0.0350    -0.1880 O.co2 1 <1>  -0.9000 
  4 C       -0.5580     2.2290    -0.1650 C.3   1 <1>  -0.1060 
  5 C       -1.9410     2.6900     0.3480 C.3   1 <1>   0.2000 
  6 C       -0.1200     3.2570    -1.2300 C.3   1 <1>   0.2090 
  7 C        0.5020     2.1230     0.9790 C.3   1 <1>  -0.1600 
  8 O       -2.3950     1.8390     1.3380 O.3   1 <1>  -0.6800 
  9 C       -1.9510     4.1150     0.8990 C.3   1 <1>  -0.1600 
 10 N       -0.1280     4.6590    -0.6810 N.pl3 1 <1>  -0.8380 
 11 C        1.8670     1.5650     0.5360 C.3   1 <1>  -0.1600 
 12 C       -1.4470     5.1020    -0.1530 C.3   1 <1>   0.2090 
 13 C        0.9570     5.5070    -0.7850 C.ar  1 <1>   0.7200 
 14 C        2.8230     1.4520     1.7260 C.3   1 <1>  -0.2400 
 15 N        2.1470     4.9570    -1.0210 N.ar  1 <1>  -0.6200 
 16 N        0.7260     6.8140    -0.6450 N.ar  1 <1>  -0.6200 
 17 C        3.1650     5.7740    -1.1160 C.ar  1 <1>   0.1600 
 18 C        1.7640     7.6060    -0.7460 C.ar  1 <1>   0.1600 
 19 C        3.0330     7.1370    -0.9860 C.ar  1 <1>  -0.1440 
 20 C        4.2270     8.0720    -1.1000 C.3   1 <1>  -0.0170 
 21 C        4.8670     8.2960     0.2740 C.3   1 <1>  -0.1600 
 22 C        6.0730     9.2380     0.1850 C.3   1 <1>  -0.2400 
 23 H       -2.6460     2.6220    -0.4640 H     1 <1>   0.0800 
 24 H       -0.8080     3.2180    -2.0570 H     1 <1>   0.0800 
 25 H        0.8410     2.9880    -1.6270 H     1 <1>   0.0800 
 26 H        0.6580     3.0920     1.4160 H     1 <1>   0.0800 
 27 H        0.1150     1.4780     1.7480 H     1 <1>   0.0800 
 28 H       -2.1560     0.9200     1.0170 H     1 <1>   0.4000 
 29 H       -2.9540     4.3810     1.1790 H     1 <1>   0.0800 
 30 H       -1.3280     4.1830     1.7710 H     1 <1>   0.0800 
 31 H        1.7360     0.5910     0.0930 H     1 <1>   0.0800 
 32 H        2.3080     2.2100    -0.2020 H     1 <1>   0.0800 
 33 H       -1.3840     6.0780     0.2940 H     1 <1>   0.0800 
 34 H       -2.1450     5.1530    -0.9710 H     1 <1>   0.0800 
 35 H        2.4140     0.7900     2.4690 H     1 <1>   0.0800 
 36 H        2.9820     2.4200     2.1670 H     1 <1>   0.0800 
 37 H        3.7690     1.0600     1.3980 H     1 <1>   0.0800 
 38 H        4.1320     5.3410    -1.3020 H     1 <1>   0.1500 
 39 H        1.5960     8.6630    -0.6330 H     1 <1>   0.1500 
 40 H        4.9520     7.6500    -1.7750 H     1 <1>   0.0800 
 41 H        3.9070     9.0140    -1.5110 H     1 <1>   0.0800 
 42 H        4.1370     8.7160     0.9460 H     1 <1>   0.0800 
 43 H        5.1840     7.3510     0.6810 H     1 <1>   0.0800 
 44 H        5.7740    10.1990    -0.1960 H     1 <1>   0.0800 
 45 H        6.8270     8.8260    -0.4620 H     1 <1>   0.0800 
 46 H        6.5020     9.3770     1.1620 H     1 <1>   0.0800 
@<TRIPOS>BOND
  1   1   2  ar  
  2   2   3  ar  
  3   2   4  1   
  4   4   5  1   
  5   4   6  1   
  6   4   7  1   
  7   5   8  1   
  8   5   9  1   
  9   5  23  1   
 10   6  10  1   
 11   6  24  1   
 12   6  25  1   
 13   7  11  1   
 14   7  26  1   
 15   7  27  1   
 16   8  28  1   
 17   9  12  1   
 18   9  29  1   
 19   9  30  1   
 20  10  12  1   
 21  10  13  1   
 22  11  14  1   
 23  11  31  1   
 24  11  32  1   
 25  12  33  1   
 26  12  34  1   
 27  13  15  ar  
 28  13  16  ar  
 29  14  35  1   
 30  14  36  1   
 31  14  37  1   
 32  15  17  ar  
 33  16  18  ar  
 34  17  19  ar  
 35  17  38  1   
 36  18  19  ar  
 37  18  39  1   
 38  19  20  1   
 39  20  21  1   
 40  20  40  1   
 41  20  41  1   
 42  21  22  1   
 43  21  42  1   
 44  21  43  1   
 45  22  44  1   
 46  22  45  1   
 47  22  46  1   
@<TRIPOS>SUBSTRUCTURE
  1 ****  10 GROUP 4 **** **** 0

# MOE 2024.06 (io_trps.svl 2023.06)
