@<TRIPOS>MOLECULE
NONAME
37 38 1 0 0 
SMALL
USER_CHARGES


@<TRIPOS>ATOM
  1 O       -1.6890    -0.5650     2.0790 O.2   1 <1>  -0.5700 
  2 C       -2.1170    -0.0130     1.0900 C.2   1 <1>   0.5690 
  3 N       -1.6100     1.1160     0.5370 N.am  1 <1>  -0.6600 
  4 C       -3.3030    -0.5260     0.2840 C.3   1 <1>   0.2810 
  5 C       -2.3180     1.5090    -0.6930 C.3   1 <1>   0.1400 
  6 C       -0.4620     1.9030     1.0480 C.3   1 <1>   0.0600 
  7 N       -3.2250    -1.9750    -0.0360 N.am  1 <1>  -0.7300 
  8 C       -3.2410     0.3190    -0.9990 C.3   1 <1>  -0.1600 
  9 C       -4.2710    -2.7220    -0.4660 C.2   1 <1>   0.7150 
 10 O       -5.2990    -2.1550    -0.7800 O.2   1 <1>  -0.5700 
 11 C       -4.1070    -4.1470    -0.5410 C.2   1 <1>  -0.2370 
 12 N       -5.0350    -5.1070    -0.1860 N.pl3 1 <1>   0.0480 
 13 C       -2.9800    -4.7990    -0.9770 C.2   1 <1>  -0.1500 
 14 C       -4.4670    -6.3200    -0.4130 C.2   1 <1>  -0.3020 
 15 C       -6.4000    -4.9900     0.4140 C.3   1 <1>   0.1760 
 16 C       -3.2080    -6.1660    -0.8980 C.2   1 <1>  -0.1500 
 17 C       -7.4460    -4.6070    -0.6390 C.3   1 <1>  -0.2400 
 18 C       -6.4300    -4.0630     1.6360 C.3   1 <1>  -0.2400 
 19 H       -4.2060    -0.3160     0.8300 H     1 <1>   0.0800 
 20 H       -1.6210     1.6790    -1.4970 H     1 <1>   0.0800 
 21 H       -2.8900     2.4030    -0.5070 H     1 <1>   0.0800 
 22 H       -0.0850     1.4570     1.9530 H     1 <1>   0.0800 
 23 H       -0.7760     2.9100     1.2600 H     1 <1>   0.0800 
 24 H        0.3240     1.9200     0.3140 H     1 <1>   0.0800 
 25 H       -2.4530    -2.4640     0.4210 H     1 <1>   0.3700 
 26 H       -4.2200     0.6510    -1.2940 H     1 <1>   0.0800 
 27 H       -2.8110    -0.2530    -1.8020 H     1 <1>   0.0800 
 28 H       -2.0680    -4.3500    -1.3300 H     1 <1>   0.1500 
 29 H       -4.9800    -7.2450    -0.2180 H     1 <1>   0.1500 
 30 H       -6.6590    -5.9730     0.7680 H     1 <1>   0.0800 
 31 H       -2.5080    -6.9360    -1.1740 H     1 <1>   0.1500 
 32 H       -7.2840    -3.6120    -1.0070 H     1 <1>   0.0800 
 33 H       -8.4300    -4.6470    -0.2080 H     1 <1>   0.0800 
 34 H       -7.4080    -5.2960    -1.4640 H     1 <1>   0.0800 
 35 H       -6.3260    -3.0330     1.3520 H     1 <1>   0.0800 
 36 H       -5.6440    -4.3260     2.3210 H     1 <1>   0.0800 
 37 H       -7.3710    -4.1680     2.1440 H     1 <1>   0.0800 
@<TRIPOS>BOND
  1   1   2  2   
  2   2   3  am  
  3   2   4  1   
  4   3   5  1   
  5   3   6  1   
  6   4   7  1   
  7   4   8  1   
  8   4  19  1   
  9   5   8  1   
 10   5  20  1   
 11   5  21  1   
 12   6  22  1   
 13   6  23  1   
 14   6  24  1   
 15   7   9  am  
 16   7  25  1   
 17   8  26  1   
 18   8  27  1   
 19   9  10  2   
 20   9  11  1   
 21  11  12  1   
 22  11  13  2   
 23  12  14  1   
 24  12  15  1   
 25  13  16  1   
 26  13  28  1   
 27  14  16  2   
 28  14  29  1   
 29  15  17  1   
 30  15  18  1   
 31  15  30  1   
 32  16  31  1   
 33  17  32  1   
 34  17  33  1   
 35  17  34  1   
 36  18  35  1   
 37  18  36  1   
 38  18  37  1   
@<TRIPOS>SUBSTRUCTURE
  1 ****   7 GROUP 4 **** **** 0

# MOE 2024.06 (io_trps.svl 2023.06)
