@<TRIPOS>MOLECULE
NONAME
30 31 1 0 0 
SMALL
USER_CHARGES


@<TRIPOS>ATOM
  1 CL      -0.2540    -0.0160     0.1590 Cl    1 <1>  -0.1360 
  2 C        1.4660    -0.3540     0.0650 C.2   1 <1>   0.1100 
  3 C        2.4890     0.5930     0.0250 C.2   1 <1>   0.1900 
  4 C        2.0430    -1.5670     0.0180 C.2   1 <1>  -0.3420 
  5 N        3.6630    -0.0220    -0.0440 N.2   1 <1>  -0.7140 
  6 C        2.3480     2.0310     0.0520 C.2   1 <1>   0.9960 
  7 N        3.3750    -1.3390    -0.0480 N.pl3 1 <1>   0.3030 
  8 C        1.3980    -2.9450     0.0330 C.3   1 <1>  -0.0740 
  9 O        1.3020     2.6460     0.1150 O.2   1 <1>  -0.5780 
 10 N        3.5060     2.7390     0.0020 N.pl3 1 <1>  -0.7360 
 11 C        4.4280    -2.3650    -0.1160 C.3   1 <1>   0.0010 
 12 C        3.6970     4.0490     0.0100 C.cat 1 <1>   1.0670 
 13 N        2.7550     4.9710     0.0720 N.pl3 1 <1>  -0.7070 
 14 N        4.8940     4.6340    -0.0440 N.pl3 1 <1>  -0.7700 
 15 C        3.3500     6.2090     0.0580 C.2   1 <1>   0.1880 
 16 C        4.6780     6.0020    -0.0130 C.2   1 <1>   0.1880 
 17 C        6.2500     4.0260    -0.1220 C.3   1 <1>   0.2620 
 18 H        0.3270    -2.8570     0.0900 H     1 <1>   0.0660 
 19 H        1.7380    -3.5070     0.8850 H     1 <1>   0.0660 
 20 H        1.6470    -3.4830    -0.8640 H     1 <1>   0.0660 
 21 H        4.3070     2.1170    -0.0480 H     1 <1>   0.4400 
 22 H        4.2830    -2.9630    -0.9970 H     1 <1>   0.0660 
 23 H        4.3740    -2.9870     0.7580 H     1 <1>   0.0660 
 24 H        5.3910    -1.8900    -0.1600 H     1 <1>   0.0660 
 25 H        1.7590     4.7270     0.1200 H     1 <1>   0.4400 
 26 H        2.7950     7.1340     0.1000 H     1 <1>   0.1370 
 27 H        5.4770     6.7280    -0.0450 H     1 <1>   0.1370 
 28 H        6.1930     2.9510    -0.1380 H     1 <1>   0.0660 
 29 H        6.8340     4.3280     0.7310 H     1 <1>   0.0660 
 30 H        6.7460     4.3580    -1.0180 H     1 <1>   0.0660 
@<TRIPOS>BOND
  1   1   2  1   
  2   2   3  1   
  3   2   4  2   
  4   3   5  2   
  5   3   6  1   
  6   4   7  1   
  7   4   8  1   
  8   5   7  1   
  9   6   9  2   
 10   6  10  1   
 11   7  11  1   
 12   8  18  1   
 13   8  19  1   
 14   8  20  1   
 15  10  12  ar  
 16  10  21  1   
 17  11  22  1   
 18  11  23  1   
 19  11  24  1   
 20  12  13  ar  
 21  12  14  ar  
 22  13  15  1   
 23  13  25  1   
 24  14  16  1   
 25  14  17  1   
 26  15  16  2   
 27  15  26  1   
 28  16  27  1   
 29  17  28  1   
 30  17  29  1   
 31  17  30  1   
@<TRIPOS>SUBSTRUCTURE
  1 ****   6 GROUP 4 **** **** 0

# MOE 2024.06 (io_trps.svl 2023.06)
