@<TRIPOS>MOLECULE
NONAME
39 41 1 0 0 
SMALL
USER_CHARGES


@<TRIPOS>ATOM
  1 O       -0.8490     0.4580    -1.5290 O.2   1 <1>  -0.5700 
  2 C       -1.6970     0.9850    -0.8320 C.2   1 <1>   0.5440 
  3 N       -2.6960     0.2210    -0.2910 N.am  1 <1>  -0.6600 
  4 C       -1.6230     2.4110    -0.5860 C.ar  1 <1>   0.0860 
  5 C       -3.7320     0.6740     0.6820 C.3   1 <1>   0.2350 
  6 C       -2.9660    -1.1880    -0.6880 C.3   1 <1>   0.2350 
  7 C       -2.6170     3.2760    -1.0340 C.ar  1 <1>  -0.1500 
  8 C       -0.5460     2.9640     0.0990 C.ar  1 <1>  -0.1500 
  9 C       -4.9190    -0.2430     0.4530 C.3   1 <1>  -0.2420 
 10 C       -4.4420    -1.4030    -0.3890 C.3   1 <1>  -0.2420 
 11 C       -2.5530     4.6370    -0.8000 C.ar  1 <1>   0.0820 
 12 C       -0.4610     4.3230     0.3430 C.ar  1 <1>   0.0820 
 13 C       -5.8940    -0.1610     1.6310 C.2   1 <1>   0.9470 
 14 C       -5.4760    -0.4510    -0.9330 C.3   1 <1>  -0.2000 
 15 C       -4.7670    -2.8960    -0.3180 C.2   1 <1>   0.9470 
 16 O       -3.5820     5.3830    -1.2750 O.3   1 <1>  -0.3630 
 17 C       -1.4700     5.1680    -0.1060 C.ar  1 <1>  -0.1500 
 18 O        0.6340     4.7510     1.0220 O.3   1 <1>  -0.3630 
 19 O       -7.0790     0.1370     1.4260 O.co2 1 <1>  -0.9000 
 20 O       -5.4440    -0.2220     2.7840 O.co2 1 <1>  -0.9000 
 21 O       -5.5880    -3.3790    -1.1110 O.co2 1 <1>  -0.9000 
 22 O       -4.0920    -3.6220     0.4240 O.co2 1 <1>  -0.9000 
 23 C       -3.7050     6.7530    -0.9670 C.3   1 <1>   0.0400 
 24 C        0.8560     6.1190     1.2810 C.3   1 <1>   0.0400 
 25 H       -3.3550     0.5460     1.6830 H     1 <1>   0.0800 
 26 H       -4.0180     1.6980     0.5320 H     1 <1>   0.0800 
 27 H       -2.7550    -1.3480    -1.7300 H     1 <1>   0.0800 
 28 H       -2.3630    -1.8480    -0.0880 H     1 <1>   0.0800 
 29 H       -3.4580     2.8730    -1.5720 H     1 <1>   0.1500 
 30 H        0.2390     2.3150     0.4450 H     1 <1>   0.1500 
 31 H       -5.2090     0.2270    -1.7220 H     1 <1>   0.1000 
 32 H       -6.4880    -0.8100    -1.0210 H     1 <1>   0.1000 
 33 H       -1.4140     6.2200     0.0780 H     1 <1>   0.1500 
 34 H       -4.6230     7.1090    -1.3980 H     1 <1>   0.0800 
 35 H       -2.8720     7.2830    -1.3930 H     1 <1>   0.0800 
 36 H       -3.7340     6.8690     0.1020 H     1 <1>   0.0800 
 37 H        1.7890     6.2110     1.8060 H     1 <1>   0.0800 
 38 H        0.0540     6.4940     1.8920 H     1 <1>   0.0800 
 39 H        0.9100     6.6470     0.3450 H     1 <1>   0.0800 
@<TRIPOS>BOND
  1   1   2  2   
  2   2   3  am  
  3   2   4  1   
  4   3   5  1   
  5   3   6  1   
  6   4   7  ar  
  7   4   8  ar  
  8   5   9  1   
  9   5  25  1   
 10   5  26  1   
 11   6  10  1   
 12   6  27  1   
 13   6  28  1   
 14   7  11  ar  
 15   7  29  1   
 16   8  12  ar  
 17   8  30  1   
 18   9  10  1   
 19   9  13  1   
 20   9  14  1   
 21  10  14  1   
 22  10  15  1   
 23  11  16  1   
 24  11  17  ar  
 25  12  17  ar  
 26  12  18  1   
 27  13  19  ar  
 28  13  20  ar  
 29  14  31  1   
 30  14  32  1   
 31  15  21  ar  
 32  15  22  ar  
 33  16  23  1   
 34  17  33  1   
 35  18  24  1   
 36  23  34  1   
 37  23  35  1   
 38  23  36  1   
 39  24  37  1   
 40  24  38  1   
 41  24  39  1   
@<TRIPOS>SUBSTRUCTURE
  1 ****   5 GROUP 4 **** **** 0

# MOE 2024.06 (io_trps.svl 2023.06)
