@<TRIPOS>MOLECULE
NONAME
45 47 1 0 0 
SMALL
USER_CHARGES


@<TRIPOS>ATOM
  1 CL       0.2200    -0.8770     1.8660 Cl    1 <1>  -0.1400 
  2 C       -1.1690    -1.4280     0.9540 C.2   1 <1>   0.1540 
  3 C       -2.0170    -0.4520     0.3420 C.2   1 <1>   0.6160 
  4 C       -1.4200    -2.7590     0.8430 C.2   1 <1>  -0.1500 
  5 O       -1.8680     0.7590     0.4030 O.2   1 <1>  -0.5700 
  6 N       -3.0870    -0.9260    -0.3700 N.am  1 <1>  -0.5390 
  7 C       -2.5540    -3.2200     0.1050 C.2   1 <1>   0.0140 
  8 C       -3.3480    -2.2690    -0.4910 C.2   1 <1>  -0.0410 
  9 C       -2.8080    -4.6380    -0.0050 C.2   1 <1>   0.6160 
 10 O       -1.8740    -5.3840    -0.2350 O.2   1 <1>  -0.5700 
 11 N       -4.0720    -5.1690     0.1380 N.am  1 <1>  -0.6600 
 12 C       -4.4060    -6.5600    -0.3000 C.3   1 <1>   0.1400 
 13 C       -5.1810    -4.5180     0.8910 C.3   1 <1>   0.1400 
 14 C       -5.6570    -6.5210    -1.1910 C.3   1 <1>   0.2000 
 15 C       -6.4420    -4.4750     0.0160 C.3   1 <1>  -0.1600 
 16 O       -5.9580    -7.8040    -1.6150 O.3   1 <1>  -0.6800 
 17 C       -6.8780    -5.8910    -0.4700 C.3   1 <1>  -0.1060 
 18 C       -7.2890    -6.7980     0.7080 C.2   1 <1>   0.9060 
 19 C       -8.0600    -5.7840    -1.4740 C.3   1 <1>  -0.0170 
 20 O       -7.4720    -6.3220     1.8340 O.co2 1 <1>  -0.9000 
 21 O       -7.4150    -8.0150     0.5040 O.co2 1 <1>  -0.9000 
 22 C       -9.1480    -4.7800    -1.0980 C.ar  1 <1>  -0.1430 
 23 C       -9.3430    -3.6390    -1.8630 C.ar  1 <1>  -0.1500 
 24 C       -9.9570    -4.9970     0.0070 C.ar  1 <1>  -0.1500 
 25 C      -10.3310    -2.7280    -1.5280 C.ar  1 <1>  -0.1500 
 26 C      -10.9430    -4.0870     0.3450 C.ar  1 <1>  -0.1500 
 27 C      -11.1320    -2.9510    -0.4220 C.ar  1 <1>  -0.1500 
 28 H       -0.7780    -3.4930     1.3000 H     1 <1>   0.1500 
 29 H       -3.6650    -0.2000    -0.8000 H     1 <1>   0.3700 
 30 H       -4.2050    -2.5600    -1.0780 H     1 <1>   0.1500 
 31 H       -3.5910    -6.9860    -0.8580 H     1 <1>   0.0800 
 32 H       -4.5890    -7.1710     0.5680 H     1 <1>   0.0800 
 33 H       -5.3730    -5.0870     1.7850 H     1 <1>   0.0800 
 34 H       -4.9160    -3.5240     1.2000 H     1 <1>   0.0800 
 35 H       -5.4160    -5.9560    -2.0730 H     1 <1>   0.0800 
 36 H       -7.2330    -4.0380     0.6010 H     1 <1>   0.0800 
 37 H       -6.2700    -3.8330    -0.8270 H     1 <1>   0.0800 
 38 H       -6.5190    -8.2060    -0.8810 H     1 <1>   0.4000 
 39 H       -7.6730    -5.5160    -2.4400 H     1 <1>   0.0800 
 40 H       -8.5140    -6.7540    -1.5890 H     1 <1>   0.0800 
 41 H       -8.7270    -3.4560    -2.7240 H     1 <1>   0.1500 
 42 H       -9.8160    -5.8760     0.6150 H     1 <1>   0.1500 
 43 H      -10.4760    -1.8470    -2.1270 H     1 <1>   0.1500 
 44 H      -11.5570    -4.2690     1.2090 H     1 <1>   0.1500 
 45 H      -11.8980    -2.2450    -0.1570 H     1 <1>   0.1500 
@<TRIPOS>BOND
  1   1   2  1   
  2   2   3  1   
  3   2   4  2   
  4   3   5  2   
  5   3   6  am  
  6   4   7  1   
  7   4  28  1   
  8   6   8  1   
  9   6  29  1   
 10   7   8  2   
 11   7   9  1   
 12   8  30  1   
 13   9  10  2   
 14   9  11  am  
 15  11  12  1   
 16  11  13  1   
 17  12  14  1   
 18  12  31  1   
 19  12  32  1   
 20  13  15  1   
 21  13  33  1   
 22  13  34  1   
 23  14  16  1   
 24  14  17  1   
 25  14  35  1   
 26  15  17  1   
 27  15  36  1   
 28  15  37  1   
 29  16  38  1   
 30  17  18  1   
 31  17  19  1   
 32  18  20  ar  
 33  18  21  ar  
 34  19  22  1   
 35  19  39  1   
 36  19  40  1   
 37  22  23  ar  
 38  22  24  ar  
 39  23  25  ar  
 40  23  41  1   
 41  24  26  ar  
 42  24  42  1   
 43  25  27  ar  
 44  25  43  1   
 45  26  27  ar  
 46  26  44  1   
 47  27  45  1   
@<TRIPOS>SUBSTRUCTURE
  1 ****  15 GROUP 4 **** **** 0

# MOE 2024.06 (io_trps.svl 2023.06)
