@<TRIPOS>MOLECULE
NONAME
56 57 1 0 0 
SMALL
USER_CHARGES


@<TRIPOS>ATOM
  1 O       -1.1300     0.0800     2.5520 O.2   1 <1>  -0.5700 
  2 C       -1.7070     0.8250     1.7950 C.2   1 <1>   0.5690 
  3 N       -2.1960     0.3760     0.5860 N.am  1 <1>  -0.6600 
  4 C       -1.8580     2.2640     2.2610 C.3   1 <1>   0.1570 
  5 C       -1.8370    -1.0100     0.1150 C.3   1 <1>   0.3210 
  6 C       -2.8060     1.3160    -0.4100 C.3   1 <1>   0.1400 
  7 N       -1.1430     3.1900     1.3640 N.pl3 1 <1>   0.3140 
  8 C       -3.0280    -1.9700     0.1350 C.2   1 <1>   0.0460 
  9 C       -3.8140     0.6920    -1.3840 C.3   1 <1>   0.3430 
 10 N       -1.8160     4.0400     0.5570 N.2   1 <1>  -0.7070 
 11 C        0.1950     3.3360     1.2220 C.2   1 <1>  -0.3320 
 12 N       -3.8010    -2.1620    -0.9590 N.2   1 <1>  -0.5650 
 13 C       -3.4500    -2.7500     1.1590 C.2   1 <1>  -0.3320 
 14 N       -4.5510     1.7220    -2.1920 N.4   1 <1>  -0.9590 
 15 C       -0.8960     4.7180    -0.0530 C.2   1 <1>   0.1080 
 16 C        0.3860     4.3190     0.3140 C.2   1 <1>  -0.1810 
 17 C        1.2280     2.5130     1.9810 C.3   1 <1>  -0.0600 
 18 C       -4.6610    -3.0510    -0.5800 C.2   1 <1>   0.0360 
 19 N       -4.5050    -3.4460     0.6990 N.pl3 1 <1>   0.0330 
 20 C       -2.9230    -2.9120     2.5760 C.3   1 <1>  -0.0600 
 21 C       -5.5190     1.0300    -3.0960 C.3   1 <1>   0.2630 
 22 C       -3.6320     2.6130    -2.9700 C.3   1 <1>   0.2630 
 23 C       -1.2210     5.8200    -1.0360 C.3   1 <1>  -0.0590 
 24 C        1.6960     4.8890    -0.2040 C.3   1 <1>   0.0210 
 25 C        2.1620     4.1190    -1.4400 C.3   1 <1>  -0.2400 
 26 H       -1.4510     2.3670     3.2480 H     1 <1>   0.0800 
 27 H       -2.8950     2.5330     2.2920 H     1 <1>   0.0800 
 28 H       -1.0620    -1.4250     0.7350 H     1 <1>   0.0800 
 29 H       -1.4380    -0.9620    -0.8820 H     1 <1>   0.0800 
 30 H       -2.0060     1.7730    -0.9660 H     1 <1>   0.0800 
 31 H       -3.3380     2.0810     0.1220 H     1 <1>   0.0800 
 32 H       -4.5260     0.1210    -0.8100 H     1 <1>   0.0800 
 33 H       -3.2950     0.0150    -2.0430 H     1 <1>   0.0800 
 34 H       -5.0860     2.3080    -1.5320 H     1 <1>   0.4500 
 35 H        1.0950     2.6320     3.0420 H     1 <1>   0.0800 
 36 H        2.2250     2.8230     1.7290 H     1 <1>   0.0800 
 37 H        1.1320     1.4700     1.7340 H     1 <1>   0.0800 
 38 H       -5.4360    -3.4570    -1.2070 H     1 <1>   0.1500 
 39 H       -5.0620    -4.1410     1.2060 H     1 <1>   0.2700 
 40 H       -2.0290    -2.3350     2.7210 H     1 <1>   0.0800 
 41 H       -2.6900    -3.9440     2.7710 H     1 <1>   0.0800 
 42 H       -3.6580    -2.5800     3.2860 H     1 <1>   0.0800 
 43 H       -4.9920     0.3970    -3.7920 H     1 <1>   0.0800 
 44 H       -6.0970     1.7510    -3.6510 H     1 <1>   0.0800 
 45 H       -6.1940     0.4160    -2.5200 H     1 <1>   0.0800 
 46 H       -3.0180     2.0280    -3.6350 H     1 <1>   0.0800 
 47 H       -2.9910     3.1670    -2.3020 H     1 <1>   0.0800 
 48 H       -4.2020     3.3170    -3.5550 H     1 <1>   0.0800 
 49 H       -2.2820     5.8720    -1.1950 H     1 <1>   0.0800 
 50 H       -0.7300     5.6360    -1.9730 H     1 <1>   0.0800 
 51 H       -0.8870     6.7620    -0.6410 H     1 <1>   0.0800 
 52 H        2.4460     4.8260     0.5640 H     1 <1>   0.0800 
 53 H        1.5710     5.9300    -0.4450 H     1 <1>   0.0800 
 54 H        2.3030     3.0820    -1.1940 H     1 <1>   0.0800 
 55 H        3.0930     4.5210    -1.7970 H     1 <1>   0.0800 
 56 H        1.4290     4.1920    -2.2230 H     1 <1>   0.0800 
@<TRIPOS>BOND
  1   1   2  2   
  2   2   3  am  
  3   2   4  1   
  4   3   5  1   
  5   3   6  1   
  6   4   7  1   
  7   4  26  1   
  8   4  27  1   
  9   5   8  1   
 10   5  28  1   
 11   5  29  1   
 12   6   9  1   
 13   6  30  1   
 14   6  31  1   
 15   7  10  1   
 16   7  11  1   
 17   8  12  1   
 18   8  13  2   
 19   9  14  1   
 20   9  32  1   
 21   9  33  1   
 22  10  15  2   
 23  11  16  2   
 24  11  17  1   
 25  12  18  2   
 26  13  19  1   
 27  13  20  1   
 28  14  21  1   
 29  14  22  1   
 30  14  34  1   
 31  15  16  1   
 32  15  23  1   
 33  16  24  1   
 34  17  35  1   
 35  17  36  1   
 36  17  37  1   
 37  18  19  1   
 38  18  38  1   
 39  19  39  1   
 40  20  40  1   
 41  20  41  1   
 42  20  42  1   
 43  21  43  1   
 44  21  44  1   
 45  21  45  1   
 46  22  46  1   
 47  22  47  1   
 48  22  48  1   
 49  23  49  1   
 50  23  50  1   
 51  23  51  1   
 52  24  25  1   
 53  24  52  1   
 54  24  53  1   
 55  25  54  1   
 56  25  55  1   
 57  25  56  1   
@<TRIPOS>SUBSTRUCTURE
  1 ****   6 GROUP 4 **** **** 0

# MOE 2024.06 (io_trps.svl 2023.06)
