@<TRIPOS>MOLECULE
NONAME
49 52 1 0 0 
SMALL
USER_CHARGES


@<TRIPOS>ATOM
  1 O       -0.9540     0.8870     2.5970 O.co2 1 <1>  -0.9000 
  2 C       -1.3990     0.3500     1.5630 C.2   1 <1>   0.9790 
  3 O       -0.8510    -0.6870     1.1500 O.co2 1 <1>  -0.9000 
  4 C       -2.5510     0.8710     0.8880 C.ar  1 <1>  -0.1790 
  5 C       -2.5360     2.0000     0.0760 C.ar  1 <1>   0.1000 
  6 C       -3.7560     0.1750     1.0630 C.ar  1 <1>   0.1600 
  7 N       -1.3930     2.7260    -0.2120 N.pl3 1 <1>  -0.8380 
  8 C       -3.7710     2.3710    -0.4770 C.ar  1 <1>   0.0000 
  9 N       -4.9190     0.4930     0.5450 N.ar  1 <1>  -0.5670 
 10 C       -0.4060     2.0670    -1.1320 C.3   1 <1>   0.2090 
 11 C       -0.7630     3.4770     0.9330 C.3   1 <1>   0.2090 
 12 C       -4.8830     1.6050    -0.2190 C.ar  1 <1>   0.1050 
 13 C       -4.2540     3.4030    -1.3050 C.2   1 <1>   0.1080 
 14 C        0.8430     2.9360    -1.4090 C.3   1 <1>   0.2090 
 15 C        0.7400     3.1730     1.0940 C.3   1 <1>   0.2090 
 16 N       -5.9120     2.1950    -0.8860 N.pl3 1 <1>   0.3140 
 17 N       -5.5190     3.3060    -1.5560 N.2   1 <1>  -0.7070 
 18 C       -3.3920     4.5200    -1.8460 C.3   1 <1>  -0.0590 
 19 N        1.4740     3.5120    -0.1730 N.pl3 1 <1>  -0.8380 
 20 C       -7.3000     1.7230    -0.9020 C.3   1 <1>   0.0160 
 21 C        2.5920     4.3220    -0.2730 C.ar  1 <1>   0.4100 
 22 N        3.5230     3.8440    -1.1020 N.ar  1 <1>  -0.6200 
 23 C        2.7480     5.5400     0.4260 C.ar  1 <1>   0.0860 
 24 C        4.6350     4.5360    -1.2310 C.ar  1 <1>   0.1600 
 25 C        1.7350     6.1070     1.2760 C.2   1 <1>   0.5440 
 26 C        3.9380     6.2380     0.2670 C.ar  1 <1>  -0.1500 
 27 C        4.8950     5.7230    -0.5750 C.ar  1 <1>  -0.1500 
 28 O        0.7410     6.6480     0.8420 O.2   1 <1>  -0.5700 
 29 N        1.8780     6.1150     2.6240 N.am  1 <1>  -0.8000 
 30 H       -3.7130    -0.7050     1.6830 H     1 <1>   0.1500 
 31 H       -0.8940     1.8380    -2.0620 H     1 <1>   0.0800 
 32 H       -0.0850     1.1350    -0.6980 H     1 <1>   0.0800 
 33 H       -1.2700     3.2350     1.8510 H     1 <1>   0.0800 
 34 H       -0.8860     4.5310     0.7630 H     1 <1>   0.0800 
 35 H        0.5590     3.7470    -2.0550 H     1 <1>   0.0800 
 36 H        1.5680     2.3360    -1.9290 H     1 <1>   0.0800 
 37 H        0.8630     2.1250     1.3080 H     1 <1>   0.0800 
 38 H        1.1360     3.7080     1.9330 H     1 <1>   0.0800 
 39 H       -2.9310     5.0450    -1.0300 H     1 <1>   0.0800 
 40 H       -3.9890     5.2070    -2.4170 H     1 <1>   0.0800 
 41 H       -2.6240     4.1100    -2.4730 H     1 <1>   0.0800 
 42 H       -7.3210     0.7160    -1.2720 H     1 <1>   0.0800 
 43 H       -7.8840     2.3610    -1.5380 H     1 <1>   0.0800 
 44 H       -7.6880     1.7500     0.0990 H     1 <1>   0.0800 
 45 H        5.3820     4.1360    -1.8950 H     1 <1>   0.1500 
 46 H        4.0960     7.1680     0.7850 H     1 <1>   0.1500 
 47 H        5.8290     6.2330    -0.7290 H     1 <1>   0.1500 
 48 H        1.1150     6.4830     3.1930 H     1 <1>   0.3700 
 49 H        2.6110     5.5990     3.1120 H     1 <1>   0.3700 
@<TRIPOS>BOND
  1   1   2  ar  
  2   2   3  ar  
  3   2   4  1   
  4   4   5  ar  
  5   4   6  ar  
  6   5   7  1   
  7   5   8  ar  
  8   6   9  ar  
  9   6  30  1   
 10   7  10  1   
 11   7  11  1   
 12   8  12  ar  
 13   8  13  1   
 14   9  12  ar  
 15  10  14  1   
 16  10  31  1   
 17  10  32  1   
 18  11  15  1   
 19  11  33  1   
 20  11  34  1   
 21  12  16  1   
 22  13  17  2   
 23  13  18  1   
 24  14  19  1   
 25  14  35  1   
 26  14  36  1   
 27  15  19  1   
 28  15  37  1   
 29  15  38  1   
 30  16  17  1   
 31  16  20  1   
 32  18  39  1   
 33  18  40  1   
 34  18  41  1   
 35  19  21  1   
 36  20  42  1   
 37  20  43  1   
 38  20  44  1   
 39  21  22  ar  
 40  21  23  ar  
 41  22  24  ar  
 42  23  25  1   
 43  23  26  ar  
 44  24  27  ar  
 45  24  45  1   
 46  25  28  2   
 47  25  29  am  
 48  26  27  ar  
 49  26  46  1   
 50  27  47  1   
 51  29  48  1   
 52  29  49  1   
@<TRIPOS>SUBSTRUCTURE
  1 ****   7 GROUP 4 **** **** 0

# MOE 2024.06 (io_trps.svl 2023.06)
