@<TRIPOS>MOLECULE
NONAME
39 40 1 0 0 
SMALL
USER_CHARGES


@<TRIPOS>ATOM
  1 O       -0.8700     2.3880     1.6270 O.2   1 <1>  -0.5700 
  2 C       -1.4730     1.9390     0.6830 C.2   1 <1>   0.5690 
  3 N       -0.8890     1.7660    -0.5350 N.am  1 <1>  -0.7300 
  4 C       -2.9280     1.5740     0.8710 C.3   1 <1>   0.1570 
  5 C        0.5200     2.0720    -0.8800 C.3   1 <1>   0.0600 
  6 N       -3.2050     0.2660     0.2600 N.pl3 1 <1>   0.3140 
  7 N       -3.3900     0.1290    -1.0680 N.2   1 <1>  -0.7070 
  8 C       -3.3020    -0.9240     0.8960 C.2   1 <1>  -0.3020 
  9 C       -3.6030    -1.1430    -1.2420 C.2   1 <1>   0.1390 
 10 C       -3.5580    -1.8570    -0.0440 C.2   1 <1>   0.0630 
 11 N       -3.7320    -3.2460     0.1850 N.am  1 <1>  -0.4930 
 12 C       -3.9930    -4.2290    -0.7200 C.2   1 <1>   0.5690 
 13 O       -4.1300    -4.0290    -1.9020 O.2   1 <1>  -0.5700 
 14 C       -4.1280    -5.6480    -0.2230 C.3   1 <1>  -0.0990 
 15 C       -5.5290    -6.1840    -0.5350 C.3   1 <1>   0.0960 
 16 N       -5.6930    -7.5370     0.0220 N.pl3 1 <1>   0.3140 
 17 N       -5.7430    -7.7530     1.3490 N.2   1 <1>  -0.7070 
 18 C       -5.7960    -8.6900    -0.6680 C.2   1 <1>  -0.3020 
 19 C       -5.8810    -9.0380     1.4700 C.2   1 <1>   0.1390 
 20 C       -5.9200    -9.6810     0.2380 C.2   1 <1>  -0.1810 
 21 C       -6.0700   -11.1690    -0.0050 C.3   1 <1>  -0.0590 
 22 H       -1.4510     1.2980    -1.2640 H     1 <1>   0.3700 
 23 H       -3.5440     2.3140     0.3990 H     1 <1>   0.0800 
 24 H       -3.1600     1.5340     1.9170 H     1 <1>   0.0800 
 25 H        1.0200     2.5270    -0.0420 H     1 <1>   0.0800 
 26 H        0.5500     2.7510    -1.7150 H     1 <1>   0.0800 
 27 H        1.0340     1.1640    -1.1420 H     1 <1>   0.0800 
 28 H       -3.1810    -1.0330     1.9570 H     1 <1>   0.1500 
 29 H       -3.7910    -1.5890    -2.2050 H     1 <1>   0.1500 
 30 H       -3.6410    -3.5300     1.1600 H     1 <1>   0.3700 
 31 H       -3.9520    -5.6850     0.8370 H     1 <1>   0.0800 
 32 H       -3.3910    -6.2550    -0.7170 H     1 <1>   0.0800 
 33 H       -5.6890    -6.2190    -1.5970 H     1 <1>   0.0800 
 34 H       -6.2770    -5.5500    -0.0940 H     1 <1>   0.0800 
 35 H       -5.7750    -8.7380    -1.7410 H     1 <1>   0.1500 
 36 H       -5.9560    -9.5380     2.4210 H     1 <1>   0.1500 
 37 H       -6.0660   -11.3750    -1.0600 H     1 <1>   0.0800 
 38 H       -6.9970   -11.5170     0.4140 H     1 <1>   0.0800 
 39 H       -5.2560   -11.6990     0.4560 H     1 <1>   0.0800 
@<TRIPOS>BOND
  1   1   2  2   
  2   2   3  am  
  3   2   4  1   
  4   3   5  1   
  5   3  22  1   
  6   4   6  1   
  7   4  23  1   
  8   4  24  1   
  9   5  25  1   
 10   5  26  1   
 11   5  27  1   
 12   6   7  1   
 13   6   8  1   
 14   7   9  2   
 15   8  10  2   
 16   8  28  1   
 17   9  10  1   
 18   9  29  1   
 19  10  11  1   
 20  11  12  am  
 21  11  30  1   
 22  12  13  2   
 23  12  14  1   
 24  14  15  1   
 25  14  31  1   
 26  14  32  1   
 27  15  16  1   
 28  15  33  1   
 29  15  34  1   
 30  16  17  1   
 31  16  18  1   
 32  17  19  2   
 33  18  20  2   
 34  18  35  1   
 35  19  20  1   
 36  19  36  1   
 37  20  21  1   
 38  21  37  1   
 39  21  38  1   
 40  21  39  1   
@<TRIPOS>SUBSTRUCTURE
  1 ****  11 GROUP 4 **** **** 0

# MOE 2024.06 (io_trps.svl 2023.06)
