@<TRIPOS>MOLECULE
NONAME
54 58 1 0 0 
SMALL
USER_CHARGES


@<TRIPOS>ATOM
  1 O       -3.7360     1.7150     2.5610 O.2   1 <1>  -0.5700 
  2 C       -3.3740     2.1910     1.5010 C.2   1 <1>   0.5440 
  3 N       -3.8530     1.6630     0.3180 N.am  1 <1>  -0.6600 
  4 C       -2.4600     3.3100     1.5080 C.ar  1 <1>   0.0860 
  5 C       -4.9460     0.6430     0.3440 C.3   1 <1>   0.2200 
  6 C       -3.2470     2.0130    -1.0040 C.3   1 <1>   0.0600 
  7 C       -1.1120     3.1750     1.9120 C.ar  1 <1>   0.0000 
  8 C       -2.8630     4.5530     1.1020 C.ar  1 <1>  -0.1500 
  9 C       -4.4320    -0.7740     0.1170 C.3   1 <1>  -0.1600 
 10 C       -6.0260     0.8360    -0.7200 C.3   1 <1>  -0.1600 
 11 C       -0.2880     4.3190     1.8370 C.ar  1 <1>   0.3100 
 12 C       -0.5470     1.9670     2.3750 C.ar  1 <1>  -0.1500 
 13 C       -1.9840     5.6460     1.0730 C.ar  1 <1>   0.3100 
 14 C       -5.6720    -1.5690    -0.3160 C.3   1 <1>  -0.0800 
 15 C       -6.6960    -0.5400    -0.8310 C.3   1 <1>  -0.0800 
 16 N       -0.7290     5.5250     1.4150 N.ar  1 <1>  -0.6200 
 17 C        1.0590     4.2040     2.2160 C.ar  1 <1>  -0.1500 
 18 C        0.7710     1.8880     2.7370 C.ar  1 <1>  -0.1500 
 19 C       -2.4690     6.9380     0.6380 C.ar  1 <1>   0.0000 
 20 C       -6.3520    -2.3150     0.8430 C.3   1 <1>  -0.1600 
 21 C       -7.9390    -0.6850     0.0580 C.3   1 <1>  -0.1600 
 22 C        1.5860     3.0200     2.6560 C.ar  1 <1>  -0.1500 
 23 C       -1.7120     7.7280    -0.2270 C.ar  1 <1>   0.1600 
 24 C       -3.6940     7.4500     1.0490 C.ar  1 <1>  -0.1500 
 25 C       -7.8400    -2.0920     0.6250 C.3   1 <1>   0.2000 
 26 N       -2.0650     8.9100    -0.7100 N.ar  1 <1>  -0.6200 
 27 C       -4.0770     8.6810     0.5640 C.ar  1 <1>  -0.1500 
 28 O       -8.5120    -2.1690     1.8240 O.3   1 <1>  -0.6800 
 29 C       -3.2390     9.3600    -0.3030 C.ar  1 <1>   0.1600 
 30 H       -5.4380     0.6650     1.3030 H     1 <1>   0.0800 
 31 H       -3.2180     1.1510    -1.6460 H     1 <1>   0.0800 
 32 H       -2.2380     2.3670    -0.8820 H     1 <1>   0.0800 
 33 H       -3.8330     2.7810    -1.4780 H     1 <1>   0.0800 
 34 H       -3.8800     4.7010     0.7890 H     1 <1>   0.1500 
 35 H       -3.7160    -0.7880    -0.6830 H     1 <1>   0.0800 
 36 H       -3.9750    -1.1710     1.0060 H     1 <1>   0.0800 
 37 H       -6.7180     1.6110    -0.4460 H     1 <1>   0.0800 
 38 H       -5.5900     1.0690    -1.6730 H     1 <1>   0.0800 
 39 H       -1.1680     1.0900     2.4480 H     1 <1>   0.1500 
 40 H       -5.4210    -2.2660    -1.0980 H     1 <1>   0.0800 
 41 H       -6.9560    -0.7560    -1.8540 H     1 <1>   0.0800 
 42 H        1.6700     5.0860     2.1500 H     1 <1>   0.1500 
 43 H        1.1920     0.9610     3.0890 H     1 <1>   0.1500 
 44 H       -6.0550    -1.8870     1.7850 H     1 <1>   0.0800 
 45 H       -6.1090    -3.3630     0.8310 H     1 <1>   0.0800 
 46 H       -8.8450    -0.5560    -0.5080 H     1 <1>   0.0800 
 47 H       -7.9090     0.0320     0.8600 H     1 <1>   0.0800 
 48 H        2.6210     2.9470     2.9440 H     1 <1>   0.1500 
 49 H       -0.7530     7.3500    -0.5370 H     1 <1>   0.1500 
 50 H       -4.3240     6.9080     1.7320 H     1 <1>   0.1500 
 51 H       -8.2490    -2.8180    -0.0570 H     1 <1>   0.0800 
 52 H       -5.0160     9.1170     0.8550 H     1 <1>   0.1500 
 53 H       -8.1300    -1.5320     2.4570 H     1 <1>   0.4000 
 54 H       -3.5480    10.3210    -0.6780 H     1 <1>   0.1500 
@<TRIPOS>BOND
  1   1   2  2   
  2   2   3  am  
  3   2   4  1   
  4   3   5  1   
  5   3   6  1   
  6   4   7  ar  
  7   4   8  ar  
  8   5   9  1   
  9   5  10  1   
 10   5  30  1   
 11   6  31  1   
 12   6  32  1   
 13   6  33  1   
 14   7  11  ar  
 15   7  12  ar  
 16   8  13  ar  
 17   8  34  1   
 18   9  14  1   
 19   9  35  1   
 20   9  36  1   
 21  10  15  1   
 22  10  37  1   
 23  10  38  1   
 24  11  16  ar  
 25  11  17  ar  
 26  12  18  ar  
 27  12  39  1   
 28  13  16  ar  
 29  13  19  1   
 30  14  15  1   
 31  14  20  1   
 32  14  40  1   
 33  15  21  1   
 34  15  41  1   
 35  17  22  ar  
 36  17  42  1   
 37  18  22  ar  
 38  18  43  1   
 39  19  23  ar  
 40  19  24  ar  
 41  20  25  1   
 42  20  44  1   
 43  20  45  1   
 44  21  25  1   
 45  21  46  1   
 46  21  47  1   
 47  22  48  1   
 48  23  26  ar  
 49  23  49  1   
 50  24  27  ar  
 51  24  50  1   
 52  25  28  1   
 53  25  51  1   
 54  26  29  ar  
 55  27  29  ar  
 56  27  52  1   
 57  28  53  1   
 58  29  54  1   
@<TRIPOS>SUBSTRUCTURE
  1 ****   2 GROUP 4 **** **** 0

# MOE 2024.06 (io_trps.svl 2023.06)
