@<TRIPOS>MOLECULE
NONAME
50 53 1 0 0 
SMALL
USER_CHARGES


@<TRIPOS>ATOM
  1 O        4.9140    -1.6560    -0.8920 O.2   1 <1>  -0.5700 
  2 C        3.7780    -1.5090    -0.4740 C.2   1 <1>   0.6160 
  3 N        3.3870    -0.2080    -0.3140 N.am  1 <1>  -0.6600 
  4 C        2.9150    -2.6370    -0.2390 C.2   1 <1>   0.0290 
  5 C        3.8230     0.5110     0.9370 C.3   1 <1>   0.2200 
  6 C        3.0190     0.5730    -1.5280 C.3   1 <1>   0.1400 
  7 C        1.9260    -2.5880     0.7970 C.2   1 <1>   0.6160 
  8 C        3.0120    -3.7870    -0.9870 C.2   1 <1>  -0.1500 
  9 C        2.8840     1.6660     1.3130 C.3   1 <1>   0.1200 
 10 C        5.2870     1.0040     0.8300 C.3   1 <1>   0.3430 
 11 C        3.6080     1.9950    -1.5790 C.3   1 <1>  -0.0800 
 12 O        1.7810    -1.6620     1.5840 O.2   1 <1>  -0.5700 
 13 N        1.0900    -3.6580     0.9550 N.am  1 <1>  -0.5390 
 14 C        2.1430    -4.8790    -0.7690 C.2   1 <1>  -0.1380 
 15 O        3.2700     2.8430     0.6630 O.3   1 <1>  -0.5600 
 16 N        5.7840     1.0380    -0.5870 N.4   1 <1>  -0.9590 
 17 C        2.8540     2.9660    -0.6550 C.3   1 <1>   0.1200 
 18 C        5.1420     2.0990    -1.4280 C.3   1 <1>   0.3430 
 19 C        1.1820    -4.7930     0.1960 C.2   1 <1>  -0.0290 
 20 C        2.3100    -6.1200    -1.6390 C.3   1 <1>  -0.0220 
 21 C        7.2700     1.0990    -0.6450 C.3   1 <1>   0.2630 
 22 C        0.1950    -5.9120     0.4980 C.3   1 <1>  -0.0220 
 23 C        1.5890    -7.3410    -1.0510 C.3   1 <1>  -0.1600 
 24 C        0.1670    -6.9740    -0.6090 C.3   1 <1>  -0.1600 
 25 H        3.7790    -0.1900     1.7520 H     1 <1>   0.0800 
 26 H        3.3480     0.0320    -2.4000 H     1 <1>   0.0800 
 27 H        1.9440     0.6310    -1.5800 H     1 <1>   0.0800 
 28 H        3.7570    -3.8730    -1.7600 H     1 <1>   0.1500 
 29 H        2.9660     1.8580     2.3680 H     1 <1>   0.0800 
 30 H        1.8550     1.4320     1.0950 H     1 <1>   0.0800 
 31 H        5.9000     0.3270     1.4000 H     1 <1>   0.0800 
 32 H        5.3750     1.9790     1.2820 H     1 <1>   0.0800 
 33 H        3.3910     2.3560    -2.5690 H     1 <1>   0.0800 
 34 H        0.4030    -3.5600     1.7030 H     1 <1>   0.3700 
 35 H        5.4800     0.1120    -0.9650 H     1 <1>   0.4500 
 36 H        1.7870     2.8180    -0.7020 H     1 <1>   0.0800 
 37 H        3.0600     3.9820    -0.9490 H     1 <1>   0.0800 
 38 H        5.3850     3.0690    -1.0250 H     1 <1>   0.0800 
 39 H        5.5720     2.0450    -2.4150 H     1 <1>   0.0800 
 40 H        1.9110    -5.9080    -2.6160 H     1 <1>   0.0800 
 41 H        3.3550    -6.3520    -1.7500 H     1 <1>   0.0800 
 42 H        7.6230     2.0260    -0.2220 H     1 <1>   0.0800 
 43 H        7.6060     1.0320    -1.6660 H     1 <1>   0.0800 
 44 H        7.6960     0.2780    -0.0910 H     1 <1>   0.0800 
 45 H        0.4790    -6.3740     1.4270 H     1 <1>   0.0800 
 46 H       -0.7940    -5.5050     0.6170 H     1 <1>   0.0800 
 47 H        1.5540    -8.1260    -1.7860 H     1 <1>   0.0800 
 48 H        2.1410    -7.7050    -0.2010 H     1 <1>   0.0800 
 49 H       -0.3460    -7.8500    -0.2550 H     1 <1>   0.0800 
 50 H       -0.3770    -6.5900    -1.4550 H     1 <1>   0.0800 
@<TRIPOS>BOND
  1   1   2  2   
  2   2   3  am  
  3   2   4  1   
  4   3   5  1   
  5   3   6  1   
  6   4   7  1   
  7   4   8  2   
  8   5   9  1   
  9   5  10  1   
 10   5  25  1   
 11   6  11  1   
 12   6  26  1   
 13   6  27  1   
 14   7  12  2   
 15   7  13  am  
 16   8  14  1   
 17   8  28  1   
 18   9  15  1   
 19   9  29  1   
 20   9  30  1   
 21  10  16  1   
 22  10  31  1   
 23  10  32  1   
 24  11  17  1   
 25  11  18  1   
 26  11  33  1   
 27  13  19  1   
 28  13  34  1   
 29  14  19  2   
 30  14  20  1   
 31  15  17  1   
 32  16  18  1   
 33  16  21  1   
 34  16  35  1   
 35  17  36  1   
 36  17  37  1   
 37  18  38  1   
 38  18  39  1   
 39  19  22  1   
 40  20  23  1   
 41  20  40  1   
 42  20  41  1   
 43  21  42  1   
 44  21  43  1   
 45  21  44  1   
 46  22  24  1   
 47  22  45  1   
 48  22  46  1   
 49  23  24  1   
 50  23  47  1   
 51  23  48  1   
 52  24  49  1   
 53  24  50  1   
@<TRIPOS>SUBSTRUCTURE
  1 ****   2 GROUP 4 **** **** 0

# MOE 2024.06 (io_trps.svl 2023.06)
