@<TRIPOS>MOLECULE
NONAME
41 41 1 0 0 
SMALL
USER_CHARGES


@<TRIPOS>ATOM
  1 O       -0.1410     0.2170     0.8760 O.2   1 <1>  -0.5700 
  2 C        0.5260     1.1690     0.5220 C.2   1 <1>   0.7800 
  3 O        0.0370     2.4050     0.4920 O.3   1 <1>  -0.4300 
  4 N        1.8160     1.0620     0.1290 N.am  1 <1>  -0.7300 
  5 C       -1.2670     2.8150     0.8440 C.3   1 <1>   0.2800 
  6 C        2.6660    -0.1270     0.0380 C.3   1 <1>   0.3000 
  7 C       -1.5360     2.5180     2.3240 C.3   1 <1>  -0.2400 
  8 C       -1.2840     4.3280     0.6220 C.3   1 <1>  -0.2400 
  9 C       -2.2980     2.1580    -0.0820 C.3   1 <1>  -0.2400 
 10 C        2.0510    -1.1180    -0.9770 C.3   1 <1>  -0.1600 
 11 C        2.8170    -0.7560     1.4420 C.3   1 <1>  -0.1600 
 12 C        4.0250     0.3720    -0.4670 C.3   1 <1>  -0.2400 
 13 C        2.7050    -2.5110    -0.9530 C.3   1 <1>  -0.1600 
 14 C        3.4590    -2.1550     1.4250 C.3   1 <1>  -0.1600 
 15 C        2.6970    -3.0770     0.4690 C.3   1 <1>   0.4230 
 16 N        3.3320    -4.4000     0.4660 N.4   1 <1>  -0.8530 
 17 H        2.2590     1.9370    -0.1420 H     1 <1>   0.3700 
 18 H       -0.7550     2.9310     2.9360 H     1 <1>   0.0800 
 19 H       -1.6040     1.4610     2.5020 H     1 <1>   0.0800 
 20 H       -2.4710     2.9570     2.6210 H     1 <1>   0.0800 
 21 H       -0.5490     4.8050     1.2460 H     1 <1>   0.0800 
 22 H       -2.2490     4.7310     0.8680 H     1 <1>   0.0800 
 23 H       -1.0730     4.5570    -0.4070 H     1 <1>   0.0800 
 24 H       -2.3650     1.1010     0.1000 H     1 <1>   0.0800 
 25 H       -2.0380     2.3250    -1.1110 H     1 <1>   0.0800 
 26 H       -3.2710     2.5790     0.0970 H     1 <1>   0.0800 
 27 H        2.1160    -0.7060    -1.9690 H     1 <1>   0.0800 
 28 H        1.0060    -1.2520    -0.7600 H     1 <1>   0.0800 
 29 H        1.8480    -0.8540     1.8980 H     1 <1>   0.0800 
 30 H        3.3960    -0.1010     2.0700 H     1 <1>   0.0800 
 31 H        3.9200     0.8400    -1.4300 H     1 <1>   0.0800 
 32 H        4.7260    -0.4340    -0.5690 H     1 <1>   0.0800 
 33 H        4.4420     1.0870     0.2190 H     1 <1>   0.0800 
 34 H        3.7120    -2.4350    -1.3240 H     1 <1>   0.0800 
 35 H        2.1470    -3.1560    -1.6090 H     1 <1>   0.0800 
 36 H        3.4250    -2.5520     2.4250 H     1 <1>   0.0800 
 37 H        4.4890    -2.0680     1.1260 H     1 <1>   0.0800 
 38 H        1.6740    -3.1620     0.8060 H     1 <1>   0.0800 
 39 H        4.3030    -4.3300     0.1480 H     1 <1>   0.4500 
 40 H        2.8280    -5.0360    -0.1600 H     1 <1>   0.4500 
 41 H        3.3250    -4.8010     1.4090 H     1 <1>   0.4500 
@<TRIPOS>BOND
  1   1   2  2   
  2   2   3  1   
  3   2   4  am  
  4   3   5  1   
  5   4   6  1   
  6   4  17  1   
  7   5   7  1   
  8   5   8  1   
  9   5   9  1   
 10   6  10  1   
 11   6  11  1   
 12   6  12  1   
 13   7  18  1   
 14   7  19  1   
 15   7  20  1   
 16   8  21  1   
 17   8  22  1   
 18   8  23  1   
 19   9  24  1   
 20   9  25  1   
 21   9  26  1   
 22  10  13  1   
 23  10  27  1   
 24  10  28  1   
 25  11  14  1   
 26  11  29  1   
 27  11  30  1   
 28  12  31  1   
 29  12  32  1   
 30  12  33  1   
 31  13  15  1   
 32  13  34  1   
 33  13  35  1   
 34  14  15  1   
 35  14  36  1   
 36  14  37  1   
 37  15  16  1   
 38  15  38  1   
 39  16  39  1   
 40  16  40  1   
 41  16  41  1   
@<TRIPOS>SUBSTRUCTURE
  1 ****   4 GROUP 4 **** **** 0

# MOE 2024.06 (io_trps.svl 2023.06)
