@<TRIPOS>MOLECULE
NONAME
57 59 1 0 0 
SMALL
USER_CHARGES


@<TRIPOS>ATOM
  1 S       -3.7920     4.5790     1.1600 S.3   1 <1>  -0.0800 
  2 C       -2.5050     3.8100     0.2570 C.2   1 <1>   0.1980 
  3 C       -4.6860     3.0900     1.0910 C.2   1 <1>  -0.1100 
  4 N       -2.7310     2.5980    -0.0540 N.2   1 <1>  -0.5650 
  5 C       -1.2840     4.6420    -0.0550 C.3   1 <1>  -0.0600 
  6 C       -3.9660     2.1780     0.4170 C.2   1 <1>   0.0460 
  7 C       -4.3600     0.7430     0.1090 C.3   1 <1>   0.0820 
  8 C       -5.8010     0.4280     0.4810 C.2   1 <1>   0.5690 
  9 O       -5.9790    -0.2560     1.4630 O.2   1 <1>  -0.5700 
 10 N       -6.8500     0.8930    -0.2790 N.am  1 <1>  -0.6600 
 11 C       -6.6730     1.7110    -1.5170 C.3   1 <1>   0.1400 
 12 C       -8.2550     0.7130     0.1710 C.3   1 <1>   0.1400 
 13 C       -7.9340     2.5070    -1.8780 C.3   1 <1>  -0.1600 
 14 C       -8.9190     2.0760     0.4060 C.3   1 <1>  -0.1600 
 15 C       -8.5790     3.1730    -0.6400 C.3   1 <1>   0.2800 
 16 O       -7.5850     3.9760    -0.0340 O.3   1 <1>  -0.5600 
 17 C       -9.8560     4.0300    -0.9760 C.3   1 <1>   0.2000 
 18 C       -7.4300     5.2870    -0.4760 C.3   1 <1>   0.1200 
 19 O       -9.8460     4.4740    -2.3120 O.3   1 <1>  -0.6800 
 20 C       -9.9760     5.2600    -0.0270 C.3   1 <1>   0.3000 
 21 C       -8.6950     6.1120    -0.1770 C.3   1 <1>  -0.1600 
 22 N      -10.0120     4.8430     1.3970 N.am  1 <1>  -0.7300 
 23 C      -11.2010     6.1380    -0.3300 C.3   1 <1>  -0.2400 
 24 C      -10.9400     4.2570     2.1990 C.2   1 <1>   0.5690 
 25 O      -10.5970     3.9170     3.3040 O.2   1 <1>  -0.5700 
 26 C      -12.3980     4.0040     1.8050 C.3   1 <1>   0.1810 
 27 O      -12.5120     3.1630     0.6840 O.3   1 <1>  -0.5600 
 28 C      -13.8240     2.8780     0.3220 C.3   1 <1>   0.0400 
 29 H       -5.6560     3.0570     1.5560 H     1 <1>   0.1500 
 30 H       -0.5760     4.0520    -0.6100 H     1 <1>   0.0800 
 31 H       -0.8250     4.9700     0.8580 H     1 <1>   0.0800 
 32 H       -1.5640     5.4960    -0.6420 H     1 <1>   0.0800 
 33 H       -3.7070     0.0860     0.6530 H     1 <1>   0.0800 
 34 H       -4.2160     0.5490    -0.9360 H     1 <1>   0.0800 
 35 H       -5.8710     2.4120    -1.3690 H     1 <1>   0.0800 
 36 H       -6.4060     1.0640    -2.3350 H     1 <1>   0.0800 
 37 H       -8.7910     0.1710    -0.5890 H     1 <1>   0.0800 
 38 H       -8.3010     0.1320     1.0770 H     1 <1>   0.0800 
 39 H       -8.6490     1.8500    -2.3390 H     1 <1>   0.0800 
 40 H       -7.6660     3.2390    -2.6150 H     1 <1>   0.0800 
 41 H       -8.6500     2.4170     1.3890 H     1 <1>   0.0800 
 42 H       -9.9780     1.8970     0.4270 H     1 <1>   0.0800 
 43 H      -10.7340     3.4200    -0.8970 H     1 <1>   0.0800 
 44 H       -6.5790     5.7060     0.0330 H     1 <1>   0.0800 
 45 H       -7.2160     5.2640    -1.5300 H     1 <1>   0.0800 
 46 H       -9.0640     5.0330    -2.4690 H     1 <1>   0.4000 
 47 H       -8.5410     6.7060     0.7060 H     1 <1>   0.0800 
 48 H       -8.8100     6.8090    -0.9870 H     1 <1>   0.0800 
 49 H       -9.0650     4.7770     1.7790 H     1 <1>   0.3700 
 50 H      -11.0820     6.6350    -1.2750 H     1 <1>   0.0800 
 51 H      -11.3300     6.8860     0.4310 H     1 <1>   0.0800 
 52 H      -12.0870     5.5400    -0.4100 H     1 <1>   0.0800 
 53 H      -12.8830     4.9380     1.5960 H     1 <1>   0.0800 
 54 H      -12.8970     3.5280     2.6300 H     1 <1>   0.0800 
 55 H      -13.8010     2.2380    -0.5420 H     1 <1>   0.0800 
 56 H      -14.3350     3.7940     0.0800 H     1 <1>   0.0800 
 57 H      -14.3160     2.3720     1.1350 H     1 <1>   0.0800 
@<TRIPOS>BOND
  1   1   2  1   
  2   1   3  1   
  3   2   4  2   
  4   2   5  1   
  5   3   6  2   
  6   3  29  1   
  7   4   6  1   
  8   5  30  1   
  9   5  31  1   
 10   5  32  1   
 11   6   7  1   
 12   7   8  1   
 13   7  33  1   
 14   7  34  1   
 15   8   9  2   
 16   8  10  am  
 17  10  11  1   
 18  10  12  1   
 19  11  13  1   
 20  11  35  1   
 21  11  36  1   
 22  12  14  1   
 23  12  37  1   
 24  12  38  1   
 25  13  15  1   
 26  13  39  1   
 27  13  40  1   
 28  14  15  1   
 29  14  41  1   
 30  14  42  1   
 31  15  16  1   
 32  15  17  1   
 33  16  18  1   
 34  17  19  1   
 35  17  20  1   
 36  17  43  1   
 37  18  21  1   
 38  18  44  1   
 39  18  45  1   
 40  19  46  1   
 41  20  21  1   
 42  20  22  1   
 43  20  23  1   
 44  21  47  1   
 45  21  48  1   
 46  22  24  am  
 47  22  49  1   
 48  23  50  1   
 49  23  51  1   
 50  23  52  1   
 51  24  25  2   
 52  24  26  1   
 53  26  27  1   
 54  26  53  1   
 55  26  54  1   
 56  27  28  1   
 57  28  55  1   
 58  28  56  1   
 59  28  57  1   
@<TRIPOS>SUBSTRUCTURE
  1 ****  16 GROUP 4 **** **** 0

# MOE 2024.06 (io_trps.svl 2023.06)
