@<TRIPOS>MOLECULE
NONAME
57 57 1 0 0 
SMALL
USER_CHARGES


@<TRIPOS>ATOM
  1 SI       0.7080    -0.0770    -0.6090 Si    1 <1>   0.5390 
  2 O        0.6340     1.3780     0.1600 O.3   1 <1>  -0.5770 
  3 C       -0.2930    -1.2960     0.3410 C.3   1 <1>  -0.0810 
  4 C        0.0600     0.1220    -2.2840 C.3   1 <1>  -0.3200 
  5 C        2.4350    -0.5970    -0.7030 C.3   1 <1>  -0.3200 
  6 C        0.9250     2.6060    -0.4140 C.3   1 <1>   0.2000 
  7 C       -1.7640    -0.8560     0.4630 C.3   1 <1>  -0.2400 
  8 C       -0.2990    -2.6940    -0.3050 C.3   1 <1>  -0.2400 
  9 C        0.2330    -1.4710     1.7770 C.3   1 <1>  -0.2400 
 10 C        2.4200     2.7950    -0.6640 C.3   1 <1>   0.1400 
 11 C        0.5600     3.7080     0.5730 C.3   1 <1>  -0.1600 
 12 N        2.6410     4.2430    -0.4760 N.am  1 <1>  -0.6600 
 13 C        1.4860     4.8800     0.2210 C.3   1 <1>   0.2810 
 14 C        3.7070     4.9210    -0.9850 C.2   1 <1>   0.7800 
 15 C        1.8490     5.7490     1.4420 C.2   1 <1>   0.6590 
 16 O        4.5990     4.3540    -1.5830 O.2   1 <1>  -0.5700 
 17 O        3.7110     6.2430    -0.8100 O.3   1 <1>  -0.4300 
 18 O        2.4450     5.3190     2.3990 O.2   1 <1>  -0.5700 
 19 O        1.4450     7.0160     1.3870 O.3   1 <1>  -0.4300 
 20 C        4.7140     7.1550    -1.1950 C.3   1 <1>   0.2800 
 21 C        1.7240     7.9280     2.4290 C.3   1 <1>   0.0400 
 22 C        4.8550     7.1750    -2.7210 C.3   1 <1>  -0.2400 
 23 C        4.2150     8.5180    -0.7150 C.3   1 <1>  -0.2400 
 24 C        6.0320     6.8200    -0.4870 C.3   1 <1>  -0.2400 
 25 H        0.0480    -0.8060    -2.8240 H     1 <1>   0.0800 
 26 H        0.6440     0.8080    -2.8680 H     1 <1>   0.0800 
 27 H       -0.9480     0.4930    -2.2840 H     1 <1>   0.0800 
 28 H        2.5400    -1.5780    -1.1280 H     1 <1>   0.0800 
 29 H        2.8960    -0.6290     0.2660 H     1 <1>   0.0800 
 30 H        3.0320     0.0590    -1.3070 H     1 <1>   0.0800 
 31 H        0.3670     2.7170    -1.3280 H     1 <1>   0.0800 
 32 H       -2.3330    -1.5600     1.0440 H     1 <1>   0.0800 
 33 H       -2.2200    -0.7760    -0.5080 H     1 <1>   0.0800 
 34 H       -1.8270     0.1050     0.9440 H     1 <1>   0.0800 
 35 H       -0.8920    -3.3810     0.2740 H     1 <1>   0.0800 
 36 H        0.7000    -3.0880    -0.3680 H     1 <1>   0.0800 
 37 H       -0.7110    -2.6540    -1.2970 H     1 <1>   0.0800 
 38 H       -0.3740    -2.1630     2.3330 H     1 <1>   0.0800 
 39 H        0.2270    -0.5260     2.2950 H     1 <1>   0.0800 
 40 H        1.2430    -1.8410     1.7710 H     1 <1>   0.0800 
 41 H        2.6990     2.4930    -1.6580 H     1 <1>   0.0800 
 42 H        2.9970     2.2590     0.0700 H     1 <1>   0.0800 
 43 H       -0.4740     3.9880     0.5000 H     1 <1>   0.0800 
 44 H        0.7720     3.3750     1.5750 H     1 <1>   0.0800 
 45 H        0.9880     5.5100    -0.4940 H     1 <1>   0.0800 
 46 H        1.3240     8.8880     2.1600 H     1 <1>   0.0800 
 47 H        2.7910     7.9930     2.5570 H     1 <1>   0.0800 
 48 H        1.2640     7.5730     3.3350 H     1 <1>   0.0800 
 49 H        5.5210     7.9650    -3.0170 H     1 <1>   0.0800 
 50 H        3.9000     7.3420    -3.1840 H     1 <1>   0.0800 
 51 H        5.2680     6.2520    -3.0850 H     1 <1>   0.0800 
 52 H        4.9210     9.2870    -0.9720 H     1 <1>   0.0800 
 53 H        4.0930     8.5130     0.3530 H     1 <1>   0.0800 
 54 H        3.2720     8.7530    -1.1740 H     1 <1>   0.0800 
 55 H        6.7540     7.5950    -0.6680 H     1 <1>   0.0800 
 56 H        6.4460     5.8990    -0.8540 H     1 <1>   0.0800 
 57 H        5.8760     6.7390     0.5740 H     1 <1>   0.0800 
@<TRIPOS>BOND
  1   1   2  1   
  2   1   3  1   
  3   1   4  1   
  4   1   5  1   
  5   2   6  1   
  6   3   7  1   
  7   3   8  1   
  8   3   9  1   
  9   4  25  1   
 10   4  26  1   
 11   4  27  1   
 12   5  28  1   
 13   5  29  1   
 14   5  30  1   
 15   6  10  1   
 16   6  11  1   
 17   6  31  1   
 18   7  32  1   
 19   7  33  1   
 20   7  34  1   
 21   8  35  1   
 22   8  36  1   
 23   8  37  1   
 24   9  38  1   
 25   9  39  1   
 26   9  40  1   
 27  10  12  1   
 28  10  41  1   
 29  10  42  1   
 30  11  13  1   
 31  11  43  1   
 32  11  44  1   
 33  12  13  1   
 34  12  14  am  
 35  13  15  1   
 36  13  45  1   
 37  14  16  2   
 38  14  17  1   
 39  15  18  2   
 40  15  19  1   
 41  17  20  1   
 42  19  21  1   
 43  20  22  1   
 44  20  23  1   
 45  20  24  1   
 46  21  46  1   
 47  21  47  1   
 48  21  48  1   
 49  22  49  1   
 50  22  50  1   
 51  22  51  1   
 52  23  52  1   
 53  23  53  1   
 54  23  54  1   
 55  24  55  1   
 56  24  56  1   
 57  24  57  1   
@<TRIPOS>SUBSTRUCTURE
  1 ****  10 GROUP 4 **** **** 0

# MOE 2024.06 (io_trps.svl 2023.06)
