@<TRIPOS>MOLECULE
NONAME
43 45 1 0 0 
SMALL
USER_CHARGES


@<TRIPOS>ATOM
  1 CL       2.8910     1.3530     1.4500 Cl    1 <1>  -0.1770 
  2 C        2.8240    -0.0260     0.3740 C.ar  1 <1>   0.1770 
  3 C        2.8540     0.1950    -1.0010 C.ar  1 <1>   0.0860 
  4 C        2.7540    -1.3020     0.9240 C.ar  1 <1>  -0.1440 
  5 C        2.8240    -0.9410    -1.8020 C.ar  1 <1>   0.1900 
  6 C        2.9110     1.5190    -1.5620 C.2   1 <1>   0.5440 
  7 C        2.7180    -2.4030     0.0790 C.ar  1 <1>  -0.1500 
  8 C        2.7140    -1.5080     2.4320 C.3   1 <1>  -0.0960 
  9 F        2.8770    -0.8080    -3.0990 F     1 <1>  -0.1900 
 10 C        2.7550    -2.2230    -1.2930 C.ar  1 <1>  -0.1500 
 11 O        1.8880     2.0310    -1.9700 O.2   1 <1>  -0.5700 
 12 N        4.0910     2.2250    -1.6520 N.am  1 <1>  -0.6600 
 13 C        4.1080     3.6450    -2.1570 C.3   1 <1>   0.2010 
 14 C        5.4230     1.7170    -1.2270 C.3   1 <1>   0.1400 
 15 C        5.1860     4.5510    -1.5440 C.2   1 <1>   0.5690 
 16 C        6.0320     2.6410    -0.1650 C.3   1 <1>   0.1400 
 17 O        5.2180     5.6990    -1.9270 O.2   1 <1>  -0.5700 
 18 N        6.0780     4.0700    -0.6110 N.am  1 <1>  -0.6600 
 19 C        7.0440     4.9970     0.0620 C.3   1 <1>   0.2200 
 20 C        8.4930     4.5300    -0.1070 C.3   1 <1>  -0.1600 
 21 C        6.8120     5.0590     1.5710 C.3   1 <1>  -0.1600 
 22 C        8.9540     3.9440     1.2360 C.3   1 <1>  -0.1600 
 23 C        7.7730     4.0520     2.2030 C.3   1 <1>  -0.1600 
 24 H        2.6610    -3.4010     0.4810 H     1 <1>   0.1500 
 25 H        1.8580    -1.0070     2.8490 H     1 <1>   0.0800 
 26 H        3.6040    -1.1070     2.8840 H     1 <1>   0.0800 
 27 H        2.6490    -2.5520     2.6800 H     1 <1>   0.0800 
 28 H        2.7300    -3.0660    -1.9620 H     1 <1>   0.1500 
 29 H        3.1560     4.1060    -1.9680 H     1 <1>   0.0800 
 30 H        4.2540     3.6270    -3.2210 H     1 <1>   0.0800 
 31 H        6.0760     1.6820    -2.0830 H     1 <1>   0.0800 
 32 H        5.3490     0.7210    -0.8300 H     1 <1>   0.0800 
 33 H        7.0250     2.2930     0.0500 H     1 <1>   0.0800 
 34 H        5.4510     2.5750     0.7380 H     1 <1>   0.0800 
 35 H        6.9410     5.9870    -0.3490 H     1 <1>   0.0800 
 36 H        9.1030     5.3860    -0.3370 H     1 <1>   0.0800 
 37 H        8.5920     3.8250    -0.9130 H     1 <1>   0.0800 
 38 H        5.7840     4.8790     1.8350 H     1 <1>   0.0800 
 39 H        7.0820     6.0440     1.9090 H     1 <1>   0.0800 
 40 H        9.7850     4.5170     1.6110 H     1 <1>   0.0800 
 41 H        9.2670     2.9190     1.1270 H     1 <1>   0.0800 
 42 H        7.2900     3.0960     2.2980 H     1 <1>   0.0800 
 43 H        8.0900     4.3710     3.1820 H     1 <1>   0.0800 
@<TRIPOS>BOND
  1   1   2  1   
  2   2   3  ar  
  3   2   4  ar  
  4   3   5  ar  
  5   3   6  1   
  6   4   7  ar  
  7   4   8  1   
  8   5   9  1   
  9   5  10  ar  
 10   6  11  2   
 11   6  12  am  
 12   7  10  ar  
 13   7  24  1   
 14   8  25  1   
 15   8  26  1   
 16   8  27  1   
 17  10  28  1   
 18  12  13  1   
 19  12  14  1   
 20  13  15  1   
 21  13  29  1   
 22  13  30  1   
 23  14  16  1   
 24  14  31  1   
 25  14  32  1   
 26  15  17  2   
 27  15  18  am  
 28  16  18  1   
 29  16  33  1   
 30  16  34  1   
 31  18  19  1   
 32  19  20  1   
 33  19  21  1   
 34  19  35  1   
 35  20  22  1   
 36  20  36  1   
 37  20  37  1   
 38  21  23  1   
 39  21  38  1   
 40  21  39  1   
 41  22  23  1   
 42  22  40  1   
 43  22  41  1   
 44  23  42  1   
 45  23  43  1   
@<TRIPOS>SUBSTRUCTURE
  1 ****  14 GROUP 4 **** **** 0

# MOE 2024.06 (io_trps.svl 2023.06)
