@<TRIPOS>MOLECULE
NONAME
59 62 1 0 0 
SMALL
USER_CHARGES


@<TRIPOS>ATOM
  1 O        4.4530    -2.2740    -1.7790 O.2   1 <1>  -0.5700 
  2 C        4.4850    -1.9080    -0.6270 C.2   1 <1>   0.5690 
  3 N        5.6260    -1.2970    -0.1510 N.am  1 <1>  -0.6600 
  4 C        3.2130    -2.1390     0.1980 C.3   1 <1>  -0.0190 
  5 C        6.8710    -1.3790    -0.9710 C.3   1 <1>   0.1400 
  6 C        5.7290    -0.4130     1.0420 C.3   1 <1>   0.1400 
  7 C        2.3510    -0.8690     0.3540 C.3   1 <1>  -0.1600 
  8 C        3.4510    -2.8540     1.5460 C.3   1 <1>  -0.1600 
  9 C        6.8040    -0.3990    -2.1550 C.3   1 <1>   0.3430 
 10 C        6.0710     1.0300     0.6420 C.3   1 <1>  -0.1600 
 11 C        1.1500    -1.1290     1.2680 C.3   1 <1>   0.1200 
 12 C        2.1570    -2.9390     2.3600 C.3   1 <1>   0.1200 
 13 N        6.7860     1.0440    -1.7390 N.4   1 <1>  -0.9590 
 14 C        5.6860     1.4110    -0.7920 C.3   1 <1>   0.3430 
 15 O        1.6090    -1.6630     2.4700 O.3   1 <1>  -0.5600 
 16 C        6.7890     1.9450    -2.9250 C.3   1 <1>   0.4860 
 17 C        7.1640     3.3250    -2.4260 C.ar  1 <1>  -0.1440 
 18 C        8.3470     3.4780    -1.7240 C.ar  1 <1>  -0.1500 
 19 C        6.3300     4.4190    -2.5970 C.ar  1 <1>  -0.1500 
 20 C        8.6670     4.6790    -1.1180 C.ar  1 <1>  -0.1440 
 21 C        6.6680     5.6390    -2.0360 C.ar  1 <1>  -0.1500 
 22 C        7.8260     5.7670    -1.2870 C.ar  1 <1>  -0.1500 
 23 C        9.9190     4.7490    -0.2510 C.3   1 <1>   0.2390 
 24 N        9.7750     3.8790     0.9480 N.pl3 1 <1>   0.3140 
 25 N        9.6950     2.5240     0.8870 N.2   1 <1>  -0.7070 
 26 C        9.7430     4.3030     2.2280 C.2   1 <1>  -0.3020 
 27 C        9.6380     2.1390     2.1270 C.2   1 <1>   0.1390 
 28 C        9.6570     3.2090     3.0120 C.2   1 <1>  -0.1500 
 29 H        2.6140    -2.8230    -0.3800 H     1 <1>   0.0800 
 30 H        6.9640    -2.3810    -1.3580 H     1 <1>   0.0800 
 31 H        7.7390    -1.1840    -0.3670 H     1 <1>   0.0800 
 32 H        6.4820    -0.7980     1.7090 H     1 <1>   0.0800 
 33 H        4.8050    -0.4050     1.5870 H     1 <1>   0.0800 
 34 H        1.9950    -0.5570    -0.6120 H     1 <1>   0.0800 
 35 H        2.9120    -0.0560     0.7680 H     1 <1>   0.0800 
 36 H        4.1820    -2.3490     2.1460 H     1 <1>   0.0800 
 37 H        3.8210    -3.8470     1.3650 H     1 <1>   0.0800 
 38 H        5.9200    -0.6260    -2.7300 H     1 <1>   0.0800 
 39 H        7.6580    -0.5760    -2.7870 H     1 <1>   0.0800 
 40 H        7.1160     1.2220     0.8080 H     1 <1>   0.0800 
 41 H        5.5390     1.6800     1.3140 H     1 <1>   0.0800 
 42 H        0.4540    -1.8210     0.8240 H     1 <1>   0.0800 
 43 H        0.6350    -0.2110     1.4910 H     1 <1>   0.0800 
 44 H        2.3570    -3.2990     3.3540 H     1 <1>   0.0800 
 45 H        1.4360    -3.5880     1.8920 H     1 <1>   0.0800 
 46 H        7.6580     1.2550    -1.2320 H     1 <1>   0.4500 
 47 H        5.5360     2.4790    -0.8180 H     1 <1>   0.0800 
 48 H        4.7620     0.9340    -1.0770 H     1 <1>   0.0800 
 49 H        5.8170     1.9600    -3.3920 H     1 <1>   0.0800 
 50 H        7.5200     1.6170    -3.6460 H     1 <1>   0.0800 
 51 H        9.0280     2.6500    -1.6150 H     1 <1>   0.1500 
 52 H        5.4120     4.3370    -3.1560 H     1 <1>   0.1500 
 53 H        6.0230     6.4910    -2.1710 H     1 <1>   0.1500 
 54 H        8.0600     6.7170    -0.8370 H     1 <1>   0.1500 
 55 H       10.0970     5.7580     0.0720 H     1 <1>   0.0800 
 56 H       10.7730     4.4140    -0.8090 H     1 <1>   0.0800 
 57 H        9.7890     5.3390     2.5100 H     1 <1>   0.1500 
 58 H        9.5840     1.1070     2.4320 H     1 <1>   0.1500 
 59 H        9.6170     3.1480     4.0860 H     1 <1>   0.1500 
@<TRIPOS>BOND
  1   1   2  2   
  2   2   3  am  
  3   2   4  1   
  4   3   5  1   
  5   3   6  1   
  6   4   7  1   
  7   4   8  1   
  8   4  29  1   
  9   5   9  1   
 10   5  30  1   
 11   5  31  1   
 12   6  10  1   
 13   6  32  1   
 14   6  33  1   
 15   7  11  1   
 16   7  34  1   
 17   7  35  1   
 18   8  12  1   
 19   8  36  1   
 20   8  37  1   
 21   9  13  1   
 22   9  38  1   
 23   9  39  1   
 24  10  14  1   
 25  10  40  1   
 26  10  41  1   
 27  11  15  1   
 28  11  42  1   
 29  11  43  1   
 30  12  15  1   
 31  12  44  1   
 32  12  45  1   
 33  13  14  1   
 34  13  16  1   
 35  13  46  1   
 36  14  47  1   
 37  14  48  1   
 38  16  17  1   
 39  16  49  1   
 40  16  50  1   
 41  17  18  ar  
 42  17  19  ar  
 43  18  20  ar  
 44  18  51  1   
 45  19  21  ar  
 46  19  52  1   
 47  20  22  ar  
 48  20  23  1   
 49  21  22  ar  
 50  21  53  1   
 51  22  54  1   
 52  23  24  1   
 53  23  55  1   
 54  23  56  1   
 55  24  25  1   
 56  24  26  1   
 57  25  27  2   
 58  26  28  2   
 59  26  57  1   
 60  27  28  1   
 61  27  58  1   
 62  28  59  1   
@<TRIPOS>SUBSTRUCTURE
  1 ****  10 GROUP 4 **** **** 0

# MOE 2024.06 (io_trps.svl 2023.06)
