@<TRIPOS>MOLECULE
NONAME
51 53 1 0 0 
SMALL
USER_CHARGES


@<TRIPOS>ATOM
  1 O       -1.8070     0.4570    -1.8470 O.2   1 <1>  -0.5700 
  2 C       -1.5510     0.3790    -0.6690 C.2   1 <1>   0.5690 
  3 N       -1.8020    -0.7620     0.0200 N.am  1 <1>  -0.7300 
  4 C       -0.9380     1.6140     0.0320 C.3   1 <1>   0.0610 
  5 C       -2.3850    -1.9960    -0.5530 C.3   1 <1>   0.2200 
  6 C       -1.9040     2.8110    -0.1360 C.3   1 <1>  -0.1600 
  7 C        0.4080     1.9520    -0.6520 C.3   1 <1>  -0.1600 
  8 C       -0.6940     1.3660     1.5430 C.3   1 <1>  -0.2400 
  9 C       -3.8300    -2.1170    -0.0950 C.3   1 <1>  -0.0800 
 10 C       -1.7510    -3.2070     0.1150 C.3   1 <1>   0.1200 
 11 C       -1.2880     4.1490     0.2660 C.3   1 <1>   0.3430 
 12 C        0.9740     3.3090    -0.2400 C.3   1 <1>   0.3430 
 13 C       -3.6980    -2.8220     1.2640 C.3   1 <1>   0.1200 
 14 C       -4.6730    -2.9300    -1.0960 C.3   1 <1>  -0.0170 
 15 O       -2.3940    -3.3220     1.3450 O.3   1 <1>  -0.5600 
 16 N       -0.0360     4.3710    -0.5100 N.4   1 <1>  -0.9590 
 17 C       -6.1250    -3.0160    -0.6540 C.ar  1 <1>  -0.1440 
 18 C        0.5270     5.7300    -0.2480 C.3   1 <1>   0.2630 
 19 C       -6.6660    -4.1690    -0.1200 C.ar  1 <1>  -0.1500 
 20 C       -6.9800    -1.9380    -0.7660 C.ar  1 <1>  -0.1500 
 21 C       -7.9950    -4.1840     0.2700 C.ar  1 <1>   0.1600 
 22 C       -8.2940    -2.0580    -0.3450 C.ar  1 <1>   0.1600 
 23 N       -8.8210    -3.1560     0.1730 N.ar  1 <1>  -0.6200 
 24 H       -1.6070    -0.8340     1.0220 H     1 <1>   0.3700 
 25 H       -2.2710    -2.0080    -1.6250 H     1 <1>   0.0800 
 26 H       -2.7920     2.6410     0.4480 H     1 <1>   0.0800 
 27 H       -2.2210     2.8850    -1.1620 H     1 <1>   0.0800 
 28 H        0.2840     1.9530    -1.7220 H     1 <1>   0.0800 
 29 H        1.1280     1.1860    -0.4260 H     1 <1>   0.0800 
 30 H       -0.2710     2.2230     2.0330 H     1 <1>   0.0800 
 31 H       -0.0170     0.5400     1.6850 H     1 <1>   0.0800 
 32 H       -1.6200     1.1290     2.0400 H     1 <1>   0.0800 
 33 H       -4.2810    -1.1470     0.0200 H     1 <1>   0.0800 
 34 H       -0.6920    -3.0950     0.2660 H     1 <1>   0.0800 
 35 H       -1.9470    -4.1040    -0.4470 H     1 <1>   0.0800 
 36 H       -1.0720     4.1500     1.3220 H     1 <1>   0.0800 
 37 H       -1.9930     4.9410     0.0630 H     1 <1>   0.0800 
 38 H        1.8750     3.5050    -0.8000 H     1 <1>   0.0800 
 39 H        1.2240     3.2980     0.8090 H     1 <1>   0.0800 
 40 H       -4.3860    -3.6410     1.3770 H     1 <1>   0.0800 
 41 H       -3.8350    -2.1280     2.0750 H     1 <1>   0.0800 
 42 H       -4.2690    -3.9210    -1.2080 H     1 <1>   0.0800 
 43 H       -4.6360    -2.4540    -2.0610 H     1 <1>   0.0800 
 44 H       -0.2830     4.3040    -1.5090 H     1 <1>   0.4500 
 45 H        0.7970     5.8310     0.7900 H     1 <1>   0.0800 
 46 H       -0.1990     6.4890    -0.4920 H     1 <1>   0.0800 
 47 H        1.4070     5.8930    -0.8510 H     1 <1>   0.0800 
 48 H       -6.0700    -5.0550    -0.0030 H     1 <1>   0.1500 
 49 H       -6.6380    -1.0060    -1.1770 H     1 <1>   0.1500 
 50 H       -8.3990    -5.0920     0.6850 H     1 <1>   0.1500 
 51 H       -8.9460    -1.2070    -0.4390 H     1 <1>   0.1500 
@<TRIPOS>BOND
  1   1   2  2   
  2   2   3  am  
  3   2   4  1   
  4   3   5  1   
  5   3  24  1   
  6   4   6  1   
  7   4   7  1   
  8   4   8  1   
  9   5   9  1   
 10   5  10  1   
 11   5  25  1   
 12   6  11  1   
 13   6  26  1   
 14   6  27  1   
 15   7  12  1   
 16   7  28  1   
 17   7  29  1   
 18   8  30  1   
 19   8  31  1   
 20   8  32  1   
 21   9  13  1   
 22   9  14  1   
 23   9  33  1   
 24  10  15  1   
 25  10  34  1   
 26  10  35  1   
 27  11  16  1   
 28  11  36  1   
 29  11  37  1   
 30  12  16  1   
 31  12  38  1   
 32  12  39  1   
 33  13  15  1   
 34  13  40  1   
 35  13  41  1   
 36  14  17  1   
 37  14  42  1   
 38  14  43  1   
 39  16  18  1   
 40  16  44  1   
 41  17  19  ar  
 42  17  20  ar  
 43  18  45  1   
 44  18  46  1   
 45  18  47  1   
 46  19  21  ar  
 47  19  48  1   
 48  20  22  ar  
 49  20  49  1   
 50  21  23  ar  
 51  21  50  1   
 52  22  23  ar  
 53  22  51  1   
@<TRIPOS>SUBSTRUCTURE
  1 ****   3 GROUP 4 **** **** 0

# MOE 2024.06 (io_trps.svl 2023.06)
