@<TRIPOS>MOLECULE
NONAME
39 41 1 0 0 
SMALL
USER_CHARGES


@<TRIPOS>ATOM
  1 O       -1.8390     0.8750    -1.5770 O.2   1 <1>  -0.5700 
  2 C       -1.8180     0.9350    -0.3590 C.2   1 <1>   0.7150 
  3 N       -2.0600    -0.2060     0.3460 N.am  1 <1>  -0.7300 
  4 C       -1.5570     2.1630     0.3680 C.2   1 <1>   0.1010 
  5 C       -2.3880    -1.5390    -0.2030 C.3   1 <1>   0.2200 
  6 N       -1.5910     2.2680     1.6830 N.2   1 <1>  -0.5650 
  7 N       -1.2460     3.3580    -0.2230 N.pl3 1 <1>   0.0480 
  8 C       -3.8430    -1.8530     0.0940 C.3   1 <1>  -0.0800 
  9 C       -1.6500    -2.6240     0.5820 C.3   1 <1>   0.1200 
 10 C       -1.2960     3.5490     1.9280 C.2   1 <1>   0.0770 
 11 C       -1.0830     4.2290     0.7820 C.2   1 <1>  -0.3020 
 12 C       -1.1000     3.6810    -1.6570 C.3   1 <1>   0.0160 
 13 C       -3.7500    -2.4140     1.5140 C.3   1 <1>   0.1200 
 14 C       -4.4140    -2.8810    -0.9010 C.3   1 <1>  -0.0160 
 15 O       -2.5070    -3.0420     1.6070 O.3   1 <1>  -0.5600 
 16 C       -5.8740    -3.1880    -0.6060 C.ar  1 <1>  -0.1430 
 17 C       -6.2680    -4.3660    -0.0020 C.ar  1 <1>  -0.1500 
 18 C       -6.8820    -2.3010    -0.9250 C.ar  1 <1>  -0.1500 
 19 C       -7.6110    -4.5910     0.2490 C.ar  1 <1>   0.1600 
 20 C       -8.1960    -2.6230    -0.6310 C.ar  1 <1>   0.1600 
 21 N       -8.5850    -3.7460    -0.0500 N.ar  1 <1>  -0.6200 
 22 H       -2.0410    -0.1140     1.3660 H     1 <1>   0.3700 
 23 H       -2.1530    -1.5750    -1.2540 H     1 <1>   0.0800 
 24 H       -4.4510    -0.9660     0.0670 H     1 <1>   0.0800 
 25 H       -0.7280    -2.2690     1.0070 H     1 <1>   0.0800 
 26 H       -1.4570    -3.4770    -0.0430 H     1 <1>   0.0800 
 27 H       -1.2490     3.9340     2.9340 H     1 <1>   0.1500 
 28 H       -0.8300     5.2640     0.6420 H     1 <1>   0.1500 
 29 H       -0.8220     4.7120    -1.7720 H     1 <1>   0.0800 
 30 H       -2.0340     3.5020    -2.1590 H     1 <1>   0.0800 
 31 H       -0.3390     3.0550    -2.0870 H     1 <1>   0.0800 
 32 H       -4.5240    -3.1220     1.7490 H     1 <1>   0.0800 
 33 H       -3.7650    -1.6160     2.2370 H     1 <1>   0.0800 
 34 H       -3.8400    -3.7910    -0.8670 H     1 <1>   0.0800 
 35 H       -4.3410    -2.4890    -1.9010 H     1 <1>   0.0800 
 36 H       -5.5430    -5.1090     0.2770 H     1 <1>   0.1500 
 37 H       -6.6580    -1.3630    -1.4000 H     1 <1>   0.1500 
 38 H       -7.9000    -5.5150     0.7200 H     1 <1>   0.1500 
 39 H       -8.9690    -1.9180    -0.8870 H     1 <1>   0.1500 
@<TRIPOS>BOND
  1   1   2  2   
  2   2   3  am  
  3   2   4  1   
  4   3   5  1   
  5   3  22  1   
  6   4   6  2   
  7   4   7  1   
  8   5   8  1   
  9   5   9  1   
 10   5  23  1   
 11   6  10  1   
 12   7  11  1   
 13   7  12  1   
 14   8  13  1   
 15   8  14  1   
 16   8  24  1   
 17   9  15  1   
 18   9  25  1   
 19   9  26  1   
 20  10  11  2   
 21  10  27  1   
 22  11  28  1   
 23  12  29  1   
 24  12  30  1   
 25  12  31  1   
 26  13  15  1   
 27  13  32  1   
 28  13  33  1   
 29  14  16  1   
 30  14  34  1   
 31  14  35  1   
 32  16  17  ar  
 33  16  18  ar  
 34  17  19  ar  
 35  17  36  1   
 36  18  20  ar  
 37  18  37  1   
 38  19  21  ar  
 39  19  38  1   
 40  20  21  ar  
 41  20  39  1   
@<TRIPOS>SUBSTRUCTURE
  1 ****   8 GROUP 4 **** **** 0

# MOE 2024.06 (io_trps.svl 2023.06)
