@<TRIPOS>MOLECULE
NONAME
49 52 1 0 0 
SMALL
USER_CHARGES


@<TRIPOS>ATOM
  1 S        2.8050    -1.0740    -1.7000 S.3   1 <1>  -0.0800 
  2 C        1.2270    -0.7980    -0.9770 C.2   1 <1>   0.3250 
  3 C        2.4210    -2.7480    -1.9010 C.2   1 <1>  -0.1100 
  4 N        0.5320    -1.8770    -0.9170 N.2   1 <1>  -0.5650 
  5 C        0.8540     0.5310    -0.5370 C.ar  1 <1>   0.0530 
  6 C        1.1810    -3.0080    -1.4330 C.2   1 <1>   0.1410 
  7 C       -0.4500     0.7760    -0.1000 C.ar  1 <1>  -0.1500 
  8 C        1.7400     1.6130    -0.5170 C.ar  1 <1>  -0.1500 
  9 C        0.5710    -4.3430    -1.4690 C.2   1 <1>   0.7160 
 10 C       -0.8530     2.0260     0.3310 C.ar  1 <1>  -0.1500 
 11 C        1.3440     2.8660    -0.0870 C.ar  1 <1>  -0.1500 
 12 O        1.1590    -5.2290    -2.0680 O.2   1 <1>  -0.5700 
 13 N       -0.6250    -4.6830    -0.8640 N.am  1 <1>  -0.6600 
 14 C        0.0460     3.0770     0.3390 C.ar  1 <1>  -0.1500 
 15 C       -1.4670    -3.8090    -0.0150 C.3   1 <1>   0.1400 
 16 C       -1.2460    -6.0150    -1.0200 C.3   1 <1>   0.1400 
 17 C       -2.5010    -4.7380     0.6370 C.3   1 <1>  -0.0800 
 18 C       -2.6110    -5.9320    -0.3300 C.3   1 <1>  -0.0800 
 19 C       -3.8600    -4.0840     1.0380 C.3   1 <1>   0.2800 
 20 C       -3.7640    -5.7280    -1.3250 C.3   1 <1>  -0.1600 
 21 O       -4.1410    -3.0090     0.2150 O.3   1 <1>  -0.6800 
 22 C       -5.0080    -5.0910     0.8420 C.3   1 <1>  -0.1600 
 23 C       -3.8640    -3.5520     2.4880 C.3   1 <1>  -0.1600 
 24 C       -5.1210    -5.6240    -0.6040 C.3   1 <1>  -0.1600 
 25 C       -2.8200    -2.4640     2.8020 C.3   1 <1>  -0.2400 
 26 H        3.1520    -3.3930    -2.3520 H     1 <1>   0.1500 
 27 H       -1.1620    -0.0320    -0.1010 H     1 <1>   0.1500 
 28 H        2.7580     1.4850    -0.8380 H     1 <1>   0.1500 
 29 H       -1.8660     2.1810     0.6600 H     1 <1>   0.1500 
 30 H        2.0470     3.6820    -0.0820 H     1 <1>   0.1500 
 31 H       -0.2640     4.0520     0.6740 H     1 <1>   0.1500 
 32 H       -0.8730    -3.3110     0.7290 H     1 <1>   0.0800 
 33 H       -1.9300    -3.0760    -0.6520 H     1 <1>   0.0800 
 34 H       -1.3370    -6.2690    -2.0620 H     1 <1>   0.0800 
 35 H       -0.6240    -6.7450    -0.5320 H     1 <1>   0.0800 
 36 H       -2.0470    -5.1260     1.5310 H     1 <1>   0.0800 
 37 H       -2.7880    -6.8440     0.2120 H     1 <1>   0.0800 
 38 H       -3.5880    -4.8160    -1.8730 H     1 <1>   0.0800 
 39 H       -3.7930    -6.5330    -2.0380 H     1 <1>   0.0800 
 40 H       -5.0240    -2.6620     0.4300 H     1 <1>   0.4000 
 41 H       -4.8270    -5.9280     1.4940 H     1 <1>   0.0800 
 42 H       -5.9460    -4.6610     1.1420 H     1 <1>   0.0800 
 43 H       -4.8410    -3.1610     2.7130 H     1 <1>   0.0800 
 44 H       -3.7000    -4.3770     3.1580 H     1 <1>   0.0800 
 45 H       -5.5900    -6.5930    -0.5780 H     1 <1>   0.0800 
 46 H       -5.7580    -4.9730    -1.1770 H     1 <1>   0.0800 
 47 H       -2.9060    -1.6410     2.1140 H     1 <1>   0.0800 
 48 H       -1.8230    -2.8610     2.7440 H     1 <1>   0.0800 
 49 H       -2.9720    -2.0900     3.7980 H     1 <1>   0.0800 
@<TRIPOS>BOND
  1   1   2  1   
  2   1   3  1   
  3   2   4  2   
  4   2   5  1   
  5   3   6  2   
  6   3  26  1   
  7   4   6  1   
  8   5   7  ar  
  9   5   8  ar  
 10   6   9  1   
 11   7  10  ar  
 12   7  27  1   
 13   8  11  ar  
 14   8  28  1   
 15   9  12  2   
 16   9  13  am  
 17  10  14  ar  
 18  10  29  1   
 19  11  14  ar  
 20  11  30  1   
 21  13  15  1   
 22  13  16  1   
 23  14  31  1   
 24  15  17  1   
 25  15  32  1   
 26  15  33  1   
 27  16  18  1   
 28  16  34  1   
 29  16  35  1   
 30  17  18  1   
 31  17  19  1   
 32  17  36  1   
 33  18  20  1   
 34  18  37  1   
 35  19  21  1   
 36  19  22  1   
 37  19  23  1   
 38  20  24  1   
 39  20  38  1   
 40  20  39  1   
 41  21  40  1   
 42  22  24  1   
 43  22  41  1   
 44  22  42  1   
 45  23  25  1   
 46  23  43  1   
 47  23  44  1   
 48  24  45  1   
 49  24  46  1   
 50  25  47  1   
 51  25  48  1   
 52  25  49  1   
@<TRIPOS>SUBSTRUCTURE
  1 ****  15 GROUP 4 **** **** 0

# MOE 2024.06 (io_trps.svl 2023.06)
