@<TRIPOS>MOLECULE
NONAME
50 51 1 0 0 
SMALL
USER_CHARGES


@<TRIPOS>ATOM
  1 F       -0.2990     1.0940    -0.4190 F     1 <1>  -0.1900 
  2 C       -1.6050     1.1740    -0.3730 C.ar  1 <1>   0.1900 
  3 C       -2.2640     2.0930     0.4510 C.ar  1 <1>   0.0830 
  4 C       -2.3020     0.3030    -1.1880 C.ar  1 <1>  -0.1500 
  5 O       -1.6910     3.0000     1.2940 O.3   1 <1>  -0.3630 
  6 C       -3.6490     2.1010     0.4250 C.ar  1 <1>  -0.1500 
  7 C       -3.6840     0.3390    -1.1900 C.ar  1 <1>  -0.1500 
  8 C       -0.2960     3.1000     1.4830 C.3   1 <1>   0.0400 
  9 C       -4.3880     1.2330    -0.3820 C.ar  1 <1>   0.0530 
 10 C       -5.8290     1.2850    -0.3800 C.2   1 <1>   0.0870 
 11 O       -6.4260     2.4490    -0.3290 O.3   1 <1>  -0.0190 
 12 C       -6.8090     0.3390    -0.4330 C.2   1 <1>  -0.0860 
 13 N       -7.7280     2.3590    -0.3510 N.2   1 <1>  -0.4100 
 14 C       -7.9870     1.1000    -0.4140 C.2   1 <1>   0.3720 
 15 C       -6.7340    -1.0910    -0.4790 C.2   1 <1>   0.7160 
 16 N       -9.2970     0.5900    -0.4320 N.pl3 1 <1>  -0.8210 
 17 O       -5.7080    -1.6880    -0.2120 O.2   1 <1>  -0.5700 
 18 N       -7.8330    -1.8150    -0.8210 N.am  1 <1>  -0.7300 
 19 C       -9.8210     0.3140     0.9340 C.3   1 <1>   0.1290 
 20 C      -10.2600     1.4020    -1.2300 C.3   1 <1>   0.1290 
 21 C       -8.0080    -3.2720    -0.6960 C.3   1 <1>   0.1400 
 22 C       -9.3910    -3.5420    -0.1070 C.3   1 <1>  -0.1600 
 23 C       -9.6330    -5.0440     0.1090 C.3   1 <1>  -0.0990 
 24 C      -11.0090    -5.3040     0.6890 C.2   1 <1>   0.5690 
 25 O      -11.1980    -5.0830     1.8590 O.2   1 <1>  -0.5700 
 26 N      -11.9860    -5.7690    -0.1330 N.am  1 <1>  -0.7300 
 27 C      -13.3760    -6.0790     0.2870 C.3   1 <1>   0.0600 
 28 H       -1.7700    -0.3930    -1.8100 H     1 <1>   0.1500 
 29 H       -4.1680     2.8020     1.0540 H     1 <1>   0.1500 
 30 H       -4.2260    -0.3390    -1.8270 H     1 <1>   0.1500 
 31 H       -0.1120     3.8690     2.2120 H     1 <1>   0.0800 
 32 H        0.1660     3.3660     0.5490 H     1 <1>   0.0800 
 33 H        0.0770     2.1580     1.8440 H     1 <1>   0.0800 
 34 H       -8.6880    -1.2510    -0.9370 H     1 <1>   0.3700 
 35 H       -9.1180    -0.2870     1.4850 H     1 <1>   0.0800 
 36 H      -10.7540    -0.2190     0.8720 H     1 <1>   0.0800 
 37 H       -9.9750     1.2390     1.4640 H     1 <1>   0.0800 
 38 H       -9.8290     1.6440    -2.1870 H     1 <1>   0.0800 
 39 H      -10.4900     2.3200    -0.7150 H     1 <1>   0.0800 
 40 H      -11.1670     0.8460    -1.3900 H     1 <1>   0.0800 
 41 H       -7.2420    -3.6780    -0.0540 H     1 <1>   0.0800 
 42 H       -7.9170    -3.7240    -1.6690 H     1 <1>   0.0800 
 43 H      -10.1450    -3.1530    -0.7690 H     1 <1>   0.0800 
 44 H       -9.4760    -3.0410     0.8430 H     1 <1>   0.0800 
 45 H       -8.9040    -5.4320     0.7970 H     1 <1>   0.0800 
 46 H       -9.5280    -5.5730    -0.8200 H     1 <1>   0.0800 
 47 H      -11.7730    -5.9390    -1.1170 H     1 <1>   0.3700 
 48 H      -13.5060    -5.8730     1.3370 H     1 <1>   0.0800 
 49 H      -13.5860    -7.1200     0.1120 H     1 <1>   0.0800 
 50 H      -14.0700    -5.4770    -0.2720 H     1 <1>   0.0800 
@<TRIPOS>BOND
  1   1   2  1   
  2   2   3  ar  
  3   2   4  ar  
  4   3   5  1   
  5   3   6  ar  
  6   4   7  ar  
  7   4  28  1   
  8   5   8  1   
  9   6   9  ar  
 10   6  29  1   
 11   7   9  ar  
 12   7  30  1   
 13   8  31  1   
 14   8  32  1   
 15   8  33  1   
 16   9  10  1   
 17  10  11  1   
 18  10  12  2   
 19  11  13  1   
 20  12  14  1   
 21  12  15  1   
 22  13  14  2   
 23  14  16  1   
 24  15  17  2   
 25  15  18  am  
 26  16  19  1   
 27  16  20  1   
 28  18  21  1   
 29  18  34  1   
 30  19  35  1   
 31  19  36  1   
 32  19  37  1   
 33  20  38  1   
 34  20  39  1   
 35  20  40  1   
 36  21  22  1   
 37  21  41  1   
 38  21  42  1   
 39  22  23  1   
 40  22  43  1   
 41  22  44  1   
 42  23  24  1   
 43  23  45  1   
 44  23  46  1   
 45  24  25  2   
 46  24  26  am  
 47  26  27  1   
 48  26  47  1   
 49  27  48  1   
 50  27  49  1   
 51  27  50  1   
@<TRIPOS>SUBSTRUCTURE
  1 ****  15 GROUP 4 **** **** 0

# MOE 2024.06 (io_trps.svl 2023.06)
