@<TRIPOS>MOLECULE
NONAME
46 49 1 0 0 
SMALL
USER_CHARGES


@<TRIPOS>ATOM
  1 S       -1.8420    -0.8240     3.0600 S.3   1 <1>  -0.4600 
  2 C       -2.2220     0.3200     1.6930 C.3   1 <1>   0.2510 
  3 C       -2.5410    -2.3470     2.3560 C.3   1 <1>   0.2510 
  4 C       -2.9320    -0.5640     0.6950 C.2   1 <1>   0.1080 
  5 C       -3.0930    -1.8930     1.0260 C.2   1 <1>  -0.1810 
  6 N       -3.4320    -0.2660    -0.4600 N.2   1 <1>  -0.7070 
  7 C       -3.7420    -2.4540    -0.0200 C.2   1 <1>  -0.0880 
  8 N       -3.9370    -1.4400    -0.9190 N.pl3 1 <1>   0.3140 
  9 N       -4.1300    -3.8150    -0.1050 N.am  1 <1>  -0.4940 
 10 C       -4.6460    -1.4590    -2.2050 C.3   1 <1>   0.0160 
 11 C       -4.3730    -4.6670    -1.1500 C.2   1 <1>   0.5690 
 12 O       -4.3810    -4.3260    -2.3110 O.2   1 <1>  -0.5700 
 13 C       -4.6670    -6.1390    -0.8000 C.3   1 <1>   0.3940 
 14 N       -5.4360    -6.3010     0.4810 N.3   1 <1>  -0.8100 
 15 C       -3.3410    -6.8990    -0.7410 C.ar  1 <1>  -0.1430 
 16 C       -5.6340    -7.7350     0.8200 C.3   1 <1>   0.1100 
 17 C       -6.7740    -5.6620     0.3800 C.3   1 <1>   0.1100 
 18 C       -2.9750    -7.7200    -1.7990 C.ar  1 <1>   0.1600 
 19 C       -2.4800    -6.7900     0.3370 C.ar  1 <1>  -0.1500 
 20 C       -6.5050    -7.9050     2.0770 C.3   1 <1>   0.1200 
 21 C       -7.6070    -5.8900     1.6540 C.3   1 <1>   0.1200 
 22 N       -1.8610    -8.4310    -1.8590 N.ar  1 <1>  -0.6200 
 23 C       -1.3110    -7.5180     0.2860 C.ar  1 <1>  -0.1500 
 24 O       -7.7320    -7.2570     1.9110 O.3   1 <1>  -0.5600 
 25 C       -1.0540    -8.3110    -0.8180 C.ar  1 <1>   0.1600 
 26 H       -1.2990     0.7070     1.3030 H     1 <1>   0.0800 
 27 H       -2.8580     1.1010     2.0660 H     1 <1>   0.0800 
 28 H       -3.3070    -2.7010     3.0210 H     1 <1>   0.0800 
 29 H       -1.7440    -3.0600     2.2460 H     1 <1>   0.0800 
 30 H       -4.2230    -4.2980     0.7930 H     1 <1>   0.3700 
 31 H       -4.8960    -0.4530    -2.4860 H     1 <1>   0.0800 
 32 H       -5.5440    -2.0390    -2.1090 H     1 <1>   0.0800 
 33 H       -4.0070    -1.8910    -2.9510 H     1 <1>   0.0800 
 34 H       -5.2590    -6.5440    -1.6030 H     1 <1>   0.0800 
 35 H       -4.6870    -8.2100     1.0060 H     1 <1>   0.0800 
 36 H       -6.1070    -8.2490     0.0000 H     1 <1>   0.0800 
 37 H       -7.3160    -6.0660    -0.4590 H     1 <1>   0.0800 
 38 H       -6.6720    -4.6020     0.2290 H     1 <1>   0.0800 
 39 H       -3.6330    -7.8010    -2.6480 H     1 <1>   0.1500 
 40 H       -2.7120    -6.1700     1.1850 H     1 <1>   0.1500 
 41 H       -6.0110    -7.4950     2.9400 H     1 <1>   0.0800 
 42 H       -6.7070    -8.9470     2.2540 H     1 <1>   0.0800 
 43 H       -8.5970    -5.4880     1.5300 H     1 <1>   0.0800 
 44 H       -7.1430    -5.4180     2.5030 H     1 <1>   0.0800 
 45 H       -0.6030    -7.4740     1.0930 H     1 <1>   0.1500 
 46 H       -0.1380    -8.8770    -0.8470 H     1 <1>   0.1500 
@<TRIPOS>BOND
  1   1   2  1   
  2   1   3  1   
  3   2   4  1   
  4   2  26  1   
  5   2  27  1   
  6   3   5  1   
  7   3  28  1   
  8   3  29  1   
  9   4   5  1   
 10   4   6  2   
 11   5   7  2   
 12   6   8  1   
 13   7   8  1   
 14   7   9  1   
 15   8  10  1   
 16   9  11  am  
 17   9  30  1   
 18  10  31  1   
 19  10  32  1   
 20  10  33  1   
 21  11  12  2   
 22  11  13  1   
 23  13  14  1   
 24  13  15  1   
 25  13  34  1   
 26  14  16  1   
 27  14  17  1   
 28  15  18  ar  
 29  15  19  ar  
 30  16  20  1   
 31  16  35  1   
 32  16  36  1   
 33  17  21  1   
 34  17  37  1   
 35  17  38  1   
 36  18  22  ar  
 37  18  39  1   
 38  19  23  ar  
 39  19  40  1   
 40  20  24  1   
 41  20  41  1   
 42  20  42  1   
 43  21  24  1   
 44  21  43  1   
 45  21  44  1   
 46  22  25  ar  
 47  23  25  ar  
 48  23  45  1   
 49  25  46  1   
@<TRIPOS>SUBSTRUCTURE
  1 ****   9 GROUP 4 **** **** 0

# MOE 2024.06 (io_trps.svl 2023.06)
