@<TRIPOS>MOLECULE
NONAME
31 31 1 0 0 
SMALL
USER_CHARGES


@<TRIPOS>ATOM
  1 O        1.2580     1.6960    -2.5320 O.co2 1 <1>  -0.9000 
  2 C        0.5180     1.6660    -1.5370 C.2   1 <1>   0.9060 
  3 O       -0.6090     1.1550    -1.5840 O.co2 1 <1>  -0.9000 
  4 C        1.0180     2.2130    -0.1900 C.3   1 <1>  -0.0430 
  5 C        1.0090     3.7440    -0.0930 C.ar  1 <1>  -0.1440 
  6 C        2.4180     1.6880     0.1820 C.3   1 <1>  -0.2400 
  7 C        0.4490     4.3730     1.0090 C.ar  1 <1>  -0.1500 
  8 C        1.5660     4.5230    -1.0950 C.ar  1 <1>  -0.1500 
  9 C        0.4480     5.7550     1.1060 C.ar  1 <1>  -0.1500 
 10 C        1.5650     5.9040    -0.9980 C.ar  1 <1>  -0.1500 
 11 C        1.0070     6.5300     0.1030 C.ar  1 <1>  -0.1440 
 12 C        1.0090     8.0510     0.2000 C.3   1 <1>  -0.0170 
 13 C       -0.0170     8.7100    -0.7400 C.3   1 <1>  -0.1860 
 14 C        0.1630    10.2240    -0.7080 C.2   1 <1>   0.9060 
 15 C       -1.4640     8.2890    -0.4020 C.3   1 <1>  -0.2400 
 16 O        0.4320    10.8090    -1.7630 O.co2 1 <1>  -0.9000 
 17 O        0.0520    10.8210     0.3690 O.co2 1 <1>  -0.9000 
 18 H        0.3300     1.8310     0.5400 H     1 <1>   0.0800 
 19 H        3.1370     2.0280    -0.5420 H     1 <1>   0.0800 
 20 H        2.4140     0.6130     0.1780 H     1 <1>   0.0800 
 21 H        2.7040     2.0400     1.1560 H     1 <1>   0.0800 
 22 H        0.0090     3.7860     1.7930 H     1 <1>   0.1500 
 23 H        1.9980     4.0480    -1.9610 H     1 <1>   0.1500 
 24 H        0.0050     6.2290     1.9630 H     1 <1>   0.1500 
 25 H        1.9960     6.4910    -1.7890 H     1 <1>   0.1500 
 26 H        1.9900     8.4150    -0.0500 H     1 <1>   0.0800 
 27 H        0.8070     8.3590     1.2120 H     1 <1>   0.0800 
 28 H        0.1960     8.3970    -1.7440 H     1 <1>   0.0800 
 29 H       -1.7030     8.5760     0.6060 H     1 <1>   0.0800 
 30 H       -1.5860     7.2260    -0.5080 H     1 <1>   0.0800 
 31 H       -2.1470     8.7830    -1.0700 H     1 <1>   0.0800 
@<TRIPOS>BOND
  1   1   2  ar  
  2   2   3  ar  
  3   2   4  1   
  4   4   5  1   
  5   4   6  1   
  6   4  18  1   
  7   5   7  ar  
  8   5   8  ar  
  9   6  19  1   
 10   6  20  1   
 11   6  21  1   
 12   7   9  ar  
 13   7  22  1   
 14   8  10  ar  
 15   8  23  1   
 16   9  11  ar  
 17   9  24  1   
 18  10  11  ar  
 19  10  25  1   
 20  11  12  1   
 21  12  13  1   
 22  12  26  1   
 23  12  27  1   
 24  13  14  1   
 25  13  15  1   
 26  13  28  1   
 27  14  16  ar  
 28  14  17  ar  
 29  15  29  1   
 30  15  30  1   
 31  15  31  1   
@<TRIPOS>SUBSTRUCTURE
  1 ****  10 GROUP 4 **** **** 0

# MOE 2024.06 (io_trps.svl 2023.06)
