@<TRIPOS>MOLECULE
NONAME
58 62 1 0 0 
SMALL
USER_CHARGES


@<TRIPOS>ATOM
  1 CL      -0.9160    -0.0980    -3.1910 Cl    1 <1>  -0.1770 
  2 C       -1.5470    -1.6320    -2.6350 C.ar  1 <1>   0.1770 
  3 C       -2.7460    -2.1130    -3.1260 C.ar  1 <1>   0.1600 
  4 C       -0.8400    -2.3610    -1.7050 C.ar  1 <1>  -0.1500 
  5 N       -3.2970    -3.2610    -2.7600 N.ar  1 <1>  -0.6200 
  6 C       -1.4050    -3.5560    -1.3200 C.ar  1 <1>  -0.1500 
  7 C       -2.6280    -3.9740    -1.8550 C.ar  1 <1>   0.4100 
  8 N       -3.1940    -5.1800    -1.4700 N.pl3 1 <1>  -0.8380 
  9 C       -3.1040    -5.7380    -0.1110 C.3   1 <1>   0.2890 
 10 C       -4.5990    -5.5070    -1.7150 C.3   1 <1>   0.2890 
 11 C       -3.4540    -7.2210    -0.4050 C.3   1 <1>   0.0610 
 12 C       -4.2480    -4.9620     0.5780 C.3   1 <1>  -0.1600 
 13 C       -4.6010    -7.0190    -1.4440 C.3   1 <1>  -0.1600 
 14 C       -5.2850    -4.8040    -0.5420 C.3   1 <1>  -0.1600 
 15 C       -3.8580    -7.9950     0.8690 C.2   1 <1>   0.5690 
 16 C       -2.2410    -7.9260    -1.0820 C.3   1 <1>  -0.0160 
 17 O       -3.4680    -7.5620     1.9300 O.2   1 <1>  -0.5700 
 18 N       -4.6070    -9.1590     0.8450 N.am  1 <1>  -0.6600 
 19 C       -0.9050    -7.7360    -0.3690 C.ar  1 <1>  -0.1430 
 20 C       -5.0850    -9.7680     2.1240 C.3   1 <1>   0.1400 
 21 C       -4.9050   -10.0080    -0.3460 C.3   1 <1>   0.1400 
 22 C       -0.6090    -8.4220     0.7990 C.ar  1 <1>  -0.1500 
 23 C        0.0370    -6.8680    -0.9000 C.ar  1 <1>  -0.1500 
 24 C       -6.5970    -9.9970     2.0540 C.3   1 <1>  -0.1600 
 25 C       -6.4140   -10.2390    -0.4560 C.3   1 <1>  -0.1600 
 26 C        0.6080    -8.2350     1.4320 C.ar  1 <1>  -0.1500 
 27 C        1.2550    -6.6800    -0.2710 C.ar  1 <1>  -0.1500 
 28 C       -6.9510   -10.8500     0.8370 C.3   1 <1>   0.2000 
 29 C        1.5410    -7.3640     0.8970 C.ar  1 <1>  -0.1500 
 30 O       -8.3220   -10.9320     0.7440 O.3   1 <1>  -0.6800 
 31 H       -3.2730    -1.5230    -3.8540 H     1 <1>   0.1500 
 32 H        0.0960    -2.0100    -1.3110 H     1 <1>   0.1500 
 33 H       -0.8990    -4.1750    -0.6060 H     1 <1>   0.1500 
 34 H       -2.1560    -5.6050     0.3780 H     1 <1>   0.0800 
 35 H       -4.9620    -5.2240    -2.6890 H     1 <1>   0.0800 
 36 H       -4.6530    -5.4630     1.4370 H     1 <1>   0.0800 
 37 H       -3.8850    -3.9990     0.8880 H     1 <1>   0.0800 
 38 H       -5.5580    -7.3240    -1.0650 H     1 <1>   0.0800 
 39 H       -4.4130    -7.5410    -2.3640 H     1 <1>   0.0800 
 40 H       -5.4320    -3.7650    -0.7800 H     1 <1>   0.0800 
 41 H       -6.2320    -5.2490    -0.2970 H     1 <1>   0.0800 
 42 H       -2.4230    -8.9800    -1.1680 H     1 <1>   0.0800 
 43 H       -2.1300    -7.5550    -2.0860 H     1 <1>   0.0800 
 44 H       -4.5760   -10.7040     2.2800 H     1 <1>   0.0800 
 45 H       -4.8670    -9.1320     2.9650 H     1 <1>   0.0800 
 46 H       -4.5440    -9.5680    -1.2540 H     1 <1>   0.0800 
 47 H       -4.4050   -10.9550    -0.2270 H     1 <1>   0.0800 
 48 H       -1.3240    -9.1010     1.2290 H     1 <1>   0.1500 
 49 H       -0.1780    -6.3300    -1.8080 H     1 <1>   0.1500 
 50 H       -7.0830    -9.0400     2.0000 H     1 <1>   0.0800 
 51 H       -6.9180   -10.4980     2.9500 H     1 <1>   0.0800 
 52 H       -6.6100   -10.9080    -1.2750 H     1 <1>   0.0800 
 53 H       -6.8980    -9.3000    -0.6540 H     1 <1>   0.0800 
 54 H        0.8260    -8.7660     2.3410 H     1 <1>   0.1500 
 55 H        1.9790    -6.0040    -0.6900 H     1 <1>   0.1500 
 56 H       -6.5720   -11.8510     0.9610 H     1 <1>   0.0800 
 57 H        2.4870    -7.2200     1.3900 H     1 <1>   0.1500 
 58 H       -8.7100   -10.0390     0.6920 H     1 <1>   0.4000 
@<TRIPOS>BOND
  1   1   2  1   
  2   2   3  ar  
  3   2   4  ar  
  4   3   5  ar  
  5   3  31  1   
  6   4   6  ar  
  7   4  32  1   
  8   5   7  ar  
  9   6   7  ar  
 10   6  33  1   
 11   7   8  1   
 12   8   9  1   
 13   8  10  1   
 14   9  11  1   
 15   9  12  1   
 16   9  34  1   
 17  10  13  1   
 18  10  14  1   
 19  10  35  1   
 20  11  13  1   
 21  11  15  1   
 22  11  16  1   
 23  12  14  1   
 24  12  36  1   
 25  12  37  1   
 26  13  38  1   
 27  13  39  1   
 28  14  40  1   
 29  14  41  1   
 30  15  17  2   
 31  15  18  am  
 32  16  19  1   
 33  16  42  1   
 34  16  43  1   
 35  18  20  1   
 36  18  21  1   
 37  19  22  ar  
 38  19  23  ar  
 39  20  24  1   
 40  20  44  1   
 41  20  45  1   
 42  21  25  1   
 43  21  46  1   
 44  21  47  1   
 45  22  26  ar  
 46  22  48  1   
 47  23  27  ar  
 48  23  49  1   
 49  24  28  1   
 50  24  50  1   
 51  24  51  1   
 52  25  28  1   
 53  25  52  1   
 54  25  53  1   
 55  26  29  ar  
 56  26  54  1   
 57  27  29  ar  
 58  27  55  1   
 59  28  30  1   
 60  28  56  1   
 61  29  57  1   
 62  30  58  1   
@<TRIPOS>SUBSTRUCTURE
  1 ****  11 GROUP 4 **** **** 0

# MOE 2024.06 (io_trps.svl 2023.06)
