@<TRIPOS>MOLECULE
NONAME
62 66 1 0 0 
SMALL
USER_CHARGES


@<TRIPOS>ATOM
  1 F       -1.8420    -0.0890     0.3640 F     1 <1>  -0.1900 
  2 C       -3.0760     0.1480    -0.0020 C.ar  1 <1>   0.1900 
  3 C       -3.9670    -0.8940    -0.2870 C.ar  1 <1>   0.0820 
  4 C       -3.4510     1.4760    -0.0690 C.ar  1 <1>  -0.1500 
  5 O       -3.6600    -2.2280    -0.2600 O.3   1 <1>  -0.3630 
  6 C       -5.2780    -0.5560    -0.6220 C.ar  1 <1>  -0.1440 
  7 C       -4.7500     1.7910    -0.4240 C.ar  1 <1>  -0.1500 
  8 C       -2.3370    -2.6910    -0.4520 C.3   1 <1>   0.0400 
  9 C       -5.6540     0.7790    -0.6990 C.ar  1 <1>  -0.1500 
 10 C       -6.3130    -1.6270    -0.9190 C.3   1 <1>   0.4870 
 11 N       -6.3930    -2.5710     0.2360 N.4   1 <1>  -0.9590 
 12 C       -7.3210    -3.7010    -0.0620 C.3   1 <1>   0.3430 
 13 C       -6.9280    -1.8990     1.4620 C.3   1 <1>   0.3430 
 14 C       -8.6830    -3.1870     0.3950 C.3   1 <1>   0.2800 
 15 C       -8.4150    -2.2920     1.6040 C.3   1 <1>  -0.0800 
 16 O       -9.1820    -2.2730    -0.5100 O.3   1 <1>  -0.5600 
 17 C       -9.8950    -4.0910     0.6050 C.3   1 <1>  -0.1600 
 18 C       -9.5250    -1.2220     1.4410 C.3   1 <1>  -0.0800 
 19 C      -10.2460    -1.7660     0.1930 C.3   1 <1>   0.2000 
 20 C      -11.0230    -3.0550     0.5070 C.3   1 <1>  -0.1600 
 21 C       -8.9930     0.2090     1.2560 C.3   1 <1>   0.1400 
 22 N      -10.0530     1.1300     0.8000 N.am  1 <1>  -0.7300 
 23 C      -10.0600     1.7360    -0.4180 C.2   1 <1>   0.5690 
 24 O       -9.1800     1.5430    -1.2230 O.2   1 <1>  -0.5700 
 25 C      -11.2100     2.6700    -0.7810 C.3   1 <1>  -0.0190 
 26 C      -11.3040     3.8750     0.1750 C.3   1 <1>  -0.1600 
 27 C      -12.5600     1.9310    -0.8290 C.3   1 <1>  -0.1600 
 28 C      -12.5400     4.7230    -0.1410 C.3   1 <1>   0.1200 
 29 C      -13.7090     2.9130    -1.0750 C.3   1 <1>   0.1200 
 30 O      -13.6710     3.9090    -0.1010 O.3   1 <1>  -0.5600 
 31 H       -2.7370     2.2500     0.1530 H     1 <1>   0.1500 
 32 H       -5.0570     2.8220    -0.4900 H     1 <1>   0.1500 
 33 H       -2.3740    -3.7430    -0.6730 H     1 <1>   0.0800 
 34 H       -1.7730    -2.5330     0.4510 H     1 <1>   0.0800 
 35 H       -1.8910    -2.1620    -1.2760 H     1 <1>   0.0800 
 36 H       -6.6590     1.0540    -0.9830 H     1 <1>   0.1500 
 37 H       -6.0200    -2.1600    -1.8090 H     1 <1>   0.0800 
 38 H       -7.2730    -1.1690    -1.1000 H     1 <1>   0.0800 
 39 H       -5.4160    -2.8790     0.3810 H     1 <1>   0.4500 
 40 H       -7.3320    -3.9630    -1.1070 H     1 <1>   0.0800 
 41 H       -7.0500    -4.5620     0.5250 H     1 <1>   0.0800 
 42 H       -6.3900    -2.2580     2.3250 H     1 <1>   0.0800 
 43 H       -6.7870    -0.8330     1.4070 H     1 <1>   0.0800 
 44 H       -8.5430    -2.8370     2.5230 H     1 <1>   0.0800 
 45 H       -9.9690    -4.8140    -0.1900 H     1 <1>   0.0800 
 46 H       -9.8750    -4.5970     1.5550 H     1 <1>   0.0800 
 47 H      -10.1930    -1.2320     2.2840 H     1 <1>   0.0800 
 48 H      -10.7940    -1.0460    -0.3910 H     1 <1>   0.0800 
 49 H      -11.5940    -2.9700     1.4150 H     1 <1>   0.0800 
 50 H      -11.6890    -3.2880    -0.3070 H     1 <1>   0.0800 
 51 H       -8.2100     0.2090     0.5200 H     1 <1>   0.0800 
 52 H       -8.5830     0.5760     2.1820 H     1 <1>   0.0800 
 53 H      -10.8050     1.3420     1.4600 H     1 <1>   0.3700 
 54 H      -11.0120     3.0520    -1.7680 H     1 <1>   0.0800 
 55 H      -10.4200     4.4810     0.0840 H     1 <1>   0.0800 
 56 H      -11.3750     3.5450     1.1950 H     1 <1>   0.0800 
 57 H      -12.7450     1.4210     0.1000 H     1 <1>   0.0800 
 58 H      -12.5430     1.1950    -1.6130 H     1 <1>   0.0800 
 59 H      -12.4710     5.1730    -1.1170 H     1 <1>   0.0800 
 60 H      -12.6660     5.4980     0.5950 H     1 <1>   0.0800 
 61 H      -14.6590     2.4130    -0.9960 H     1 <1>   0.0800 
 62 H      -13.6350     3.3740    -2.0450 H     1 <1>   0.0800 
@<TRIPOS>BOND
  1   1   2  1   
  2   2   3  ar  
  3   2   4  ar  
  4   3   5  1   
  5   3   6  ar  
  6   4   7  ar  
  7   4  31  1   
  8   5   8  1   
  9   6   9  ar  
 10   6  10  1   
 11   7   9  ar  
 12   7  32  1   
 13   8  33  1   
 14   8  34  1   
 15   8  35  1   
 16   9  36  1   
 17  10  11  1   
 18  10  37  1   
 19  10  38  1   
 20  11  12  1   
 21  11  13  1   
 22  11  39  1   
 23  12  14  1   
 24  12  40  1   
 25  12  41  1   
 26  13  15  1   
 27  13  42  1   
 28  13  43  1   
 29  14  15  1   
 30  14  16  1   
 31  14  17  1   
 32  15  18  1   
 33  15  44  1   
 34  16  19  1   
 35  17  20  1   
 36  17  45  1   
 37  17  46  1   
 38  18  19  1   
 39  18  21  1   
 40  18  47  1   
 41  19  20  1   
 42  19  48  1   
 43  20  49  1   
 44  20  50  1   
 45  21  22  1   
 46  21  51  1   
 47  21  52  1   
 48  22  23  am  
 49  22  53  1   
 50  23  24  2   
 51  23  25  1   
 52  25  26  1   
 53  25  27  1   
 54  25  54  1   
 55  26  28  1   
 56  26  55  1   
 57  26  56  1   
 58  27  29  1   
 59  27  57  1   
 60  27  58  1   
 61  28  30  1   
 62  28  59  1   
 63  28  60  1   
 64  29  30  1   
 65  29  61  1   
 66  29  62  1   
@<TRIPOS>SUBSTRUCTURE
  1 ****  21 GROUP 4 **** **** 0

# MOE 2024.06 (io_trps.svl 2023.06)
