@<TRIPOS>MOLECULE
NONAME
47 50 1 0 0 
SMALL
USER_CHARGES


@<TRIPOS>ATOM
  1 S       -1.3100     0.5280    -1.9550 S.3   1 <1>  -0.0800 
  2 C       -1.4560     1.5780    -0.5540 C.2   1 <1>  -0.1400 
  3 C       -2.8420    -0.2470    -1.5750 C.2   1 <1>  -0.1100 
  4 C       -2.5960     1.3300     0.1060 C.2   1 <1>  -0.1810 
  5 C       -0.4010     2.6140    -0.1830 C.3   1 <1>   0.4600 
  6 C       -3.3900     0.2860    -0.4660 C.2   1 <1>  -0.1500 
  7 C       -2.9330     2.1340     1.3400 C.3   1 <1>   0.0210 
  8 O       -0.7400     3.1680     1.0750 O.3   1 <1>  -0.5600 
  9 C       -0.3250     3.7380    -1.2250 C.3   1 <1>  -0.1600 
 10 C        0.9690     1.9520    -0.0040 C.3   1 <1>  -0.1600 
 11 C       -2.0980     3.4300     1.3410 C.3   1 <1>   0.1200 
 12 C        0.7730     4.7420    -0.8830 C.3   1 <1>   0.2090 
 13 C        2.0440     2.9850     0.3270 C.3   1 <1>   0.2090 
 14 N        2.0630     4.0140    -0.7430 N.pl3 1 <1>  -0.8380 
 15 C        3.2540     4.6750    -1.0030 C.ar  1 <1>   0.4100 
 16 N        3.2800     5.9740    -0.7590 N.ar  1 <1>  -0.6200 
 17 C        4.3690     3.9770    -1.4910 C.ar  1 <1>   0.1600 
 18 C        4.4660     6.5540    -1.0100 C.ar  1 <1>   0.3960 
 19 N        5.5460     4.5100    -1.7470 N.ar  1 <1>  -0.6200 
 20 C        4.6690     7.9890    -0.7930 C.2   1 <1>   0.5440 
 21 C        5.5480     5.8130    -1.4960 C.ar  1 <1>   0.1600 
 22 O        5.4370     8.5860    -1.5300 O.2   1 <1>  -0.5700 
 23 N        4.0600     8.7180     0.2230 N.am  1 <1>  -0.6600 
 24 C        4.1180    10.2060     0.2710 C.3   1 <1>   0.0600 
 25 C        3.3200     8.0950     1.3560 C.3   1 <1>   0.0600 
 26 H       -3.1750    -1.0320    -2.2320 H     1 <1>   0.1500 
 27 H       -4.3240    -0.0120    -0.0230 H     1 <1>   0.1500 
 28 H       -2.7160     1.5580     2.2210 H     1 <1>   0.0800 
 29 H       -3.9790     2.3850     1.3450 H     1 <1>   0.0800 
 30 H       -1.2710     4.2360    -1.3070 H     1 <1>   0.0800 
 31 H       -0.1040     3.3130    -2.1870 H     1 <1>   0.0800 
 32 H        1.2500     1.4470    -0.9090 H     1 <1>   0.0800 
 33 H        0.9090     1.2180     0.7770 H     1 <1>   0.0800 
 34 H       -2.1580     3.9080     2.3030 H     1 <1>   0.0800 
 35 H       -2.4660     4.1120     0.5950 H     1 <1>   0.0800 
 36 H        0.5460     5.2480     0.0410 H     1 <1>   0.0800 
 37 H        0.8500     5.4780    -1.6660 H     1 <1>   0.0800 
 38 H        3.0030     2.5030     0.4040 H     1 <1>   0.0800 
 39 H        1.8250     3.4560     1.2710 H     1 <1>   0.0800 
 40 H        4.2480     2.9260    -1.6730 H     1 <1>   0.1500 
 41 H        6.4690     6.3360    -1.6860 H     1 <1>   0.1500 
 42 H        4.4710    10.6070    -0.6630 H     1 <1>   0.0800 
 43 H        4.7870    10.5160     1.0550 H     1 <1>   0.0800 
 44 H        3.1370    10.6040     0.4610 H     1 <1>   0.0800 
 45 H        3.7190     7.1210     1.5770 H     1 <1>   0.0800 
 46 H        2.2800     7.9960     1.0940 H     1 <1>   0.0800 
 47 H        3.4070     8.7060     2.2370 H     1 <1>   0.0800 
@<TRIPOS>BOND
  1   1   2  1   
  2   1   3  1   
  3   2   4  2   
  4   2   5  1   
  5   3   6  2   
  6   3  26  1   
  7   4   6  1   
  8   4   7  1   
  9   5   8  1   
 10   5   9  1   
 11   5  10  1   
 12   6  27  1   
 13   7  11  1   
 14   7  28  1   
 15   7  29  1   
 16   8  11  1   
 17   9  12  1   
 18   9  30  1   
 19   9  31  1   
 20  10  13  1   
 21  10  32  1   
 22  10  33  1   
 23  11  34  1   
 24  11  35  1   
 25  12  14  1   
 26  12  36  1   
 27  12  37  1   
 28  13  14  1   
 29  13  38  1   
 30  13  39  1   
 31  14  15  1   
 32  15  16  ar  
 33  15  17  ar  
 34  16  18  ar  
 35  17  19  ar  
 36  17  40  1   
 37  18  20  1   
 38  18  21  ar  
 39  19  21  ar  
 40  20  22  2   
 41  20  23  am  
 42  21  41  1   
 43  23  24  1   
 44  23  25  1   
 45  24  42  1   
 46  24  43  1   
 47  24  44  1   
 48  25  45  1   
 49  25  46  1   
 50  25  47  1   
@<TRIPOS>SUBSTRUCTURE
  1 ****  14 GROUP 4 **** **** 0

# MOE 2024.06 (io_trps.svl 2023.06)
