@<TRIPOS>MOLECULE
NONAME
51 52 1 0 0 
SMALL
USER_CHARGES


@<TRIPOS>ATOM
  1 S        0.2820     0.1000    -0.8480 S.o2  1 <1>   1.3330 
  2 O       -0.0850    -0.7710     0.2460 O.2   1 <1>  -0.6500 
  3 O       -0.2230    -0.1690    -2.1750 O.2   1 <1>  -0.6500 
  4 N       -0.1900     1.6770    -0.4330 N.am  1 <1>  -0.8490 
  5 C        2.0730     0.1810    -0.9110 C.3   1 <1>  -0.0550 
  6 C       -1.5860     1.7220     0.0080 C.3   1 <1>   0.1160 
  7 C        0.0270     2.6540    -1.5080 C.3   1 <1>   0.1160 
  8 C        2.7210     0.6920     0.3880 C.3   1 <1>  -0.0800 
  9 C        4.2050     0.9880     0.1950 C.3   1 <1>   0.2200 
 10 C        2.6860    -0.3100     1.5440 C.3   1 <1>   0.1200 
 11 N        4.4530     2.4160     0.4870 N.am  1 <1>  -0.7300 
 12 C        4.8890     0.0800     1.2140 C.3   1 <1>   0.1200 
 13 O        3.9220    -0.1910     2.1730 O.3   1 <1>  -0.5600 
 14 C        4.1780     3.4160    -0.3850 C.2   1 <1>   0.5690 
 15 O        3.7560     3.1940    -1.4940 O.2   1 <1>  -0.5700 
 16 C        4.3940     4.8470     0.0530 C.3   1 <1>  -0.0990 
 17 C        5.7330     5.3850    -0.4600 C.3   1 <1>  -0.0170 
 18 C        5.9560     6.8030     0.0370 C.ar  1 <1>  -0.1440 
 19 C        5.4620     7.8800    -0.6820 C.ar  1 <1>  -0.1500 
 20 C        6.6490     7.0350     1.2150 C.ar  1 <1>  -0.1500 
 21 C        5.6500     9.1790    -0.2370 C.ar  1 <1>   0.0820 
 22 C        6.8440     8.3290     1.6670 C.ar  1 <1>  -0.1500 
 23 O        5.1290    10.1700    -1.0040 O.3   1 <1>  -0.3620 
 24 C        6.3480     9.4010     0.9470 C.ar  1 <1>  -0.1500 
 25 C        5.2770    11.5260    -0.6480 C.3   1 <1>   0.0400 
 26 H        2.4630    -0.7900    -1.1490 H     1 <1>   0.0800 
 27 H        2.3510     0.8410    -1.7100 H     1 <1>   0.0800 
 28 H       -1.8530     2.7240     0.2980 H     1 <1>   0.0800 
 29 H       -1.7230     1.0770     0.8590 H     1 <1>   0.0800 
 30 H       -2.2390     1.3940    -0.7840 H     1 <1>   0.0800 
 31 H       -0.2590     3.6370    -1.1770 H     1 <1>   0.0800 
 32 H       -0.5550     2.3940    -2.3780 H     1 <1>   0.0800 
 33 H        1.0670     2.6860    -1.7830 H     1 <1>   0.0800 
 34 H        2.2060     1.5820     0.7070 H     1 <1>   0.0800 
 35 H        4.5510     0.7630    -0.8010 H     1 <1>   0.0800 
 36 H        2.5860    -1.3250     1.1950 H     1 <1>   0.0800 
 37 H        1.9050    -0.0920     2.2520 H     1 <1>   0.0800 
 38 H        4.6600     2.6250     1.4660 H     1 <1>   0.3700 
 39 H        5.7440     0.5360     1.6810 H     1 <1>   0.0800 
 40 H        5.1700    -0.8540     0.7610 H     1 <1>   0.0800 
 41 H        3.5930     5.4500    -0.3350 H     1 <1>   0.0800 
 42 H        4.3640     4.9060     1.1250 H     1 <1>   0.0800 
 43 H        5.7380     5.3720    -1.5370 H     1 <1>   0.0800 
 44 H        6.5350     4.7510    -0.1230 H     1 <1>   0.0800 
 45 H        4.9210     7.7250    -1.5980 H     1 <1>   0.1500 
 46 H        7.0400     6.2110     1.7850 H     1 <1>   0.1500 
 47 H        7.3840     8.5010     2.5820 H     1 <1>   0.1500 
 48 H        6.5120    10.3930     1.3200 H     1 <1>   0.1500 
 49 H        4.7920    12.1220    -1.4000 H     1 <1>   0.0800 
 50 H        6.3250    11.7650    -0.6110 H     1 <1>   0.0800 
 51 H        4.8080    11.6890     0.3060 H     1 <1>   0.0800 
@<TRIPOS>BOND
  1   1   2  2   
  2   1   3  2   
  3   1   4  am  
  4   1   5  1   
  5   4   6  1   
  6   4   7  1   
  7   5   8  1   
  8   5  26  1   
  9   5  27  1   
 10   6  28  1   
 11   6  29  1   
 12   6  30  1   
 13   7  31  1   
 14   7  32  1   
 15   7  33  1   
 16   8   9  1   
 17   8  10  1   
 18   8  34  1   
 19   9  11  1   
 20   9  12  1   
 21   9  35  1   
 22  10  13  1   
 23  10  36  1   
 24  10  37  1   
 25  11  14  am  
 26  11  38  1   
 27  12  13  1   
 28  12  39  1   
 29  12  40  1   
 30  14  15  2   
 31  14  16  1   
 32  16  17  1   
 33  16  41  1   
 34  16  42  1   
 35  17  18  1   
 36  17  43  1   
 37  17  44  1   
 38  18  19  ar  
 39  18  20  ar  
 40  19  21  ar  
 41  19  45  1   
 42  20  22  ar  
 43  20  46  1   
 44  21  23  1   
 45  21  24  ar  
 46  22  24  ar  
 47  22  47  1   
 48  23  25  1   
 49  24  48  1   
 50  25  49  1   
 51  25  50  1   
 52  25  51  1   
@<TRIPOS>SUBSTRUCTURE
  1 ****  14 GROUP 4 **** **** 0

# MOE 2024.06 (io_trps.svl 2023.06)
