@<TRIPOS>MOLECULE
NONAME
53 56 1 0 0 
SMALL
USER_CHARGES


@<TRIPOS>ATOM
  1 F       -1.2060     1.1800     0.3630 F     1 <1>  -0.1900 
  2 C       -2.5110     1.1200     0.3470 C.ar  1 <1>   0.1900 
  3 C       -3.1180     0.0180    -0.2160 C.ar  1 <1>  -0.1500 
  4 C       -3.2280     2.1650     0.8990 C.ar  1 <1>  -0.1500 
  5 C       -4.5100    -0.0710    -0.2440 C.ar  1 <1>   0.0860 
  6 C       -4.6080     2.0910     0.8770 C.ar  1 <1>  -0.1500 
  7 C       -5.1400    -1.2380    -0.8180 C.2   1 <1>   0.5440 
  8 C       -5.2420     0.9930     0.3080 C.ar  1 <1>   0.0830 
  9 O       -5.8520    -1.1490    -1.7990 O.2   1 <1>  -0.5700 
 10 N       -4.9260    -2.4720    -0.2670 N.am  1 <1>  -0.7300 
 11 O       -6.5900     0.9760     0.3360 O.3   1 <1>  -0.3630 
 12 C       -5.6010    -3.7260    -0.6870 C.3   1 <1>   0.2200 
 13 C       -7.2740     1.3970    -0.8290 C.3   1 <1>   0.1200 
 14 C       -7.1230    -3.5810    -0.6740 C.3   1 <1>   0.1400 
 15 C       -5.3150    -4.8440     0.3090 C.3   1 <1>  -0.1600 
 16 C       -8.1090     2.6440    -0.5030 C.3   1 <1>  -0.1600 
 17 N       -7.6700    -4.8310    -0.0930 N.am  1 <1>  -0.6600 
 18 C       -6.5590    -5.7290     0.2890 C.3   1 <1>   0.1400 
 19 C       -9.0680     2.4710     0.6920 C.3   1 <1>   0.0960 
 20 C       -8.9830    -5.1430     0.1640 C.2   1 <1>   0.5690 
 21 N      -10.0560     1.4020     0.4520 N.pl3 1 <1>   0.3140 
 22 O       -9.2680    -6.1680     0.7350 O.2   1 <1>  -0.5700 
 23 C      -10.1520    -4.2510    -0.2610 C.3   1 <1>  -0.0990 
 24 N      -11.2660     1.6120    -0.0770 N.2   1 <1>  -0.4180 
 25 C       -9.8780     0.0970     0.6370 C.2   1 <1>  -0.3020 
 26 C      -10.0260    -2.7740     0.1490 C.3   1 <1>  -0.1600 
 27 N      -11.8450     0.4710    -0.2360 N.2   1 <1>  -0.2270 
 28 C      -11.0010    -0.4780     0.1820 C.2   1 <1>   0.0460 
 29 C      -11.3250    -1.9610     0.0720 C.3   1 <1>   0.0210 
 30 H       -2.5150    -0.7670    -0.6360 H     1 <1>   0.1500 
 31 H       -2.7150     3.0060     1.3310 H     1 <1>   0.1500 
 32 H       -5.2000     2.8830     1.3020 H     1 <1>   0.1500 
 33 H       -4.3690    -2.5440     0.5850 H     1 <1>   0.3700 
 34 H       -5.2780    -4.0030    -1.6770 H     1 <1>   0.0800 
 35 H       -7.8990     0.5830    -1.1560 H     1 <1>   0.0800 
 36 H       -6.5600     1.6080    -1.6080 H     1 <1>   0.0800 
 37 H       -7.5040    -3.4170    -1.6670 H     1 <1>   0.0800 
 38 H       -7.3730    -2.7570    -0.0310 H     1 <1>   0.0800 
 39 H       -5.2060    -4.4470     1.3030 H     1 <1>   0.0800 
 40 H       -4.4360    -5.4040     0.0470 H     1 <1>   0.0800 
 41 H       -8.6820     2.9170    -1.3720 H     1 <1>   0.0800 
 42 H       -7.4380     3.4590    -0.2980 H     1 <1>   0.0800 
 43 H       -6.7420    -6.1800     1.2510 H     1 <1>   0.0800 
 44 H       -6.4650    -6.5020    -0.4550 H     1 <1>   0.0800 
 45 H       -9.6040     3.3870     0.8620 H     1 <1>   0.0800 
 46 H       -8.5160     2.2310     1.5820 H     1 <1>   0.0800 
 47 H      -11.0430    -4.6560     0.1840 H     1 <1>   0.0800 
 48 H      -10.2630    -4.3240    -1.3270 H     1 <1>   0.0800 
 49 H       -8.9790    -0.3220     1.0480 H     1 <1>   0.1500 
 50 H       -9.3430    -2.2980    -0.5270 H     1 <1>   0.0800 
 51 H       -9.6310    -2.7120     1.1490 H     1 <1>   0.0800 
 52 H      -12.0040    -2.2450     0.8560 H     1 <1>   0.0800 
 53 H      -11.8030    -2.1340    -0.8760 H     1 <1>   0.0800 
@<TRIPOS>BOND
  1   1   2  1   
  2   2   3  ar  
  3   2   4  ar  
  4   3   5  ar  
  5   3  30  1   
  6   4   6  ar  
  7   4  31  1   
  8   5   7  1   
  9   5   8  ar  
 10   6   8  ar  
 11   6  32  1   
 12   7   9  2   
 13   7  10  am  
 14   8  11  1   
 15  10  12  1   
 16  10  33  1   
 17  11  13  1   
 18  12  14  1   
 19  12  15  1   
 20  12  34  1   
 21  13  16  1   
 22  13  35  1   
 23  13  36  1   
 24  14  17  1   
 25  14  37  1   
 26  14  38  1   
 27  15  18  1   
 28  15  39  1   
 29  15  40  1   
 30  16  19  1   
 31  16  41  1   
 32  16  42  1   
 33  17  18  1   
 34  17  20  am  
 35  18  43  1   
 36  18  44  1   
 37  19  21  1   
 38  19  45  1   
 39  19  46  1   
 40  20  22  2   
 41  20  23  1   
 42  21  24  1   
 43  21  25  1   
 44  23  26  1   
 45  23  47  1   
 46  23  48  1   
 47  24  27  2   
 48  25  28  2   
 49  25  49  1   
 50  26  29  1   
 51  26  50  1   
 52  26  51  1   
 53  27  28  1   
 54  28  29  1   
 55  29  52  1   
 56  29  53  1   
@<TRIPOS>SUBSTRUCTURE
  1 ****  11 GROUP 4 **** **** 0

# MOE 2024.06 (io_trps.svl 2023.06)
