@<TRIPOS>MOLECULE
NONAME
58 62 1 0 0 
SMALL
USER_CHARGES


@<TRIPOS>ATOM
  1 S        0.9680     0.9660     2.4430 S.3   1 <1>  -0.0800 
  2 C        1.4970    -0.3910     1.4510 C.ar  1 <1>   0.2970 
  3 C        1.9060     2.0890     1.4650 C.2   1 <1>  -0.1400 
  4 N        1.1010    -1.6280     1.6750 N.ar  1 <1>  -0.5670 
  5 C        2.3370     0.0280     0.4460 C.ar  1 <1>   0.0000 
  6 C        2.5680     1.4560     0.4840 C.2   1 <1>  -0.1810 
  7 C        1.8880     3.5670     1.7890 C.3   1 <1>   0.0200 
  8 C        1.6000    -2.4860     0.8120 C.ar  1 <1>   0.4770 
  9 C        2.7770    -0.9990    -0.3940 C.ar  1 <1>   0.4100 
 10 C        3.4630     2.2290    -0.4750 C.3   1 <1>   0.0210 
 11 C        2.4910     4.3440     0.6060 C.3   1 <1>  -0.1600 
 12 N        2.4140    -2.2520    -0.2150 N.ar  1 <1>  -0.6200 
 13 C        1.1490    -3.9400     0.9780 C.3   1 <1>   0.4870 
 14 N        3.5960    -0.8030    -1.4560 N.pl3 1 <1>  -0.9000 
 15 C        3.7510     3.6520     0.0470 C.3   1 <1>  -0.1600 
 16 N        0.9780    -4.6350    -0.3580 N.4   1 <1>  -0.9590 
 17 C       -0.3710    -4.5440    -0.9920 C.3   1 <1>   0.4230 
 18 C        1.4780    -6.0410    -0.3090 C.3   1 <1>   0.2630 
 19 C       -1.4970    -5.1780    -0.1780 C.3   1 <1>  -0.1600 
 20 C       -0.8560    -3.1210    -1.2450 C.3   1 <1>  -0.1600 
 21 C       -2.7800    -4.5940    -0.7880 C.3   1 <1>  -0.0800 
 22 C       -2.3610    -3.2790    -1.4890 C.3   1 <1>  -0.0800 
 23 C       -3.9270    -4.4460     0.2330 C.3   1 <1>   0.1400 
 24 C       -3.1800    -2.0490    -1.0520 C.3   1 <1>  -0.0990 
 25 N       -4.9810    -3.5660    -0.3240 N.am  1 <1>  -0.6600 
 26 C       -4.6510    -2.3980    -0.9560 C.2   1 <1>   0.5690 
 27 C       -6.3930    -3.9930    -0.1200 C.3   1 <1>   0.0600 
 28 O       -5.4650    -1.6450    -1.4310 O.2   1 <1>  -0.5700 
 29 H        0.8800     3.8970     1.9680 H     1 <1>   0.0800 
 30 H        2.4680     3.7350     2.6790 H     1 <1>   0.0800 
 31 H        4.4010     1.7170    -0.5960 H     1 <1>   0.0800 
 32 H        2.9750     2.2860    -1.4330 H     1 <1>   0.0800 
 33 H        1.7560     4.4110    -0.1770 H     1 <1>   0.0800 
 34 H        2.7290     5.3450     0.9200 H     1 <1>   0.0800 
 35 H        0.2330    -3.9600     1.5410 H     1 <1>   0.0800 
 36 H        1.9060    -4.4430     1.5550 H     1 <1>   0.0800 
 37 H        4.0440    -1.6080    -1.8970 H     1 <1>   0.4000 
 38 H        4.0700     0.0880    -1.5990 H     1 <1>   0.4000 
 39 H        4.4860     3.5920     0.8310 H     1 <1>   0.0800 
 40 H        4.1690     4.2460    -0.7480 H     1 <1>   0.0800 
 41 H        1.6150    -4.0860    -0.9670 H     1 <1>   0.4500 
 42 H       -0.3390    -5.0430    -1.9480 H     1 <1>   0.0800 
 43 H        0.8680    -6.6350     0.3530 H     1 <1>   0.0800 
 44 H        2.4970    -6.0650     0.0430 H     1 <1>   0.0800 
 45 H        1.4480    -6.4820    -1.2930 H     1 <1>   0.0800 
 46 H       -1.4920    -6.2510    -0.2550 H     1 <1>   0.0800 
 47 H       -1.4320    -4.8900     0.8550 H     1 <1>   0.0800 
 48 H       -0.7190    -2.5010    -0.3800 H     1 <1>   0.0800 
 49 H       -0.3670    -2.6720    -2.0920 H     1 <1>   0.0800 
 50 H       -3.1260    -5.2700    -1.5530 H     1 <1>   0.0800 
 51 H       -2.5250    -3.4160    -2.5470 H     1 <1>   0.0800 
 52 H       -3.5670    -4.0020     1.1460 H     1 <1>   0.0800 
 53 H       -4.3370    -5.4150     0.4650 H     1 <1>   0.0800 
 54 H       -3.0480    -1.2460    -1.7550 H     1 <1>   0.0800 
 55 H       -2.8690    -1.7010    -0.0850 H     1 <1>   0.0800 
 56 H       -6.5620    -4.9370    -0.6070 H     1 <1>   0.0800 
 57 H       -7.0710    -3.2670    -0.5360 H     1 <1>   0.0800 
 58 H       -6.5970    -4.0900     0.9320 H     1 <1>   0.0800 
@<TRIPOS>BOND
  1   1   2  1   
  2   1   3  1   
  3   2   4  ar  
  4   2   5  ar  
  5   3   6  2   
  6   3   7  1   
  7   4   8  ar  
  8   5   6  1   
  9   5   9  ar  
 10   6  10  1   
 11   7  11  1   
 12   7  29  1   
 13   7  30  1   
 14   8  12  ar  
 15   8  13  1   
 16   9  12  ar  
 17   9  14  1   
 18  10  15  1   
 19  10  31  1   
 20  10  32  1   
 21  11  15  1   
 22  11  33  1   
 23  11  34  1   
 24  13  16  1   
 25  13  35  1   
 26  13  36  1   
 27  14  37  1   
 28  14  38  1   
 29  15  39  1   
 30  15  40  1   
 31  16  17  1   
 32  16  18  1   
 33  16  41  1   
 34  17  19  1   
 35  17  20  1   
 36  17  42  1   
 37  18  43  1   
 38  18  44  1   
 39  18  45  1   
 40  19  21  1   
 41  19  46  1   
 42  19  47  1   
 43  20  22  1   
 44  20  48  1   
 45  20  49  1   
 46  21  22  1   
 47  21  23  1   
 48  21  50  1   
 49  22  24  1   
 50  22  51  1   
 51  23  25  1   
 52  23  52  1   
 53  23  53  1   
 54  24  26  1   
 55  24  54  1   
 56  24  55  1   
 57  25  26  am  
 58  25  27  1   
 59  26  28  2   
 60  27  56  1   
 61  27  57  1   
 62  27  58  1   
@<TRIPOS>SUBSTRUCTURE
  1 ****   4 GROUP 4 **** **** 0

# MOE 2024.06 (io_trps.svl 2023.06)
