@<TRIPOS>MOLECULE
NONAME
47 50 1 0 0 
SMALL
USER_CHARGES


@<TRIPOS>ATOM
  1 O       -2.7990     0.7450    -3.3480 O.2   1 <1>  -0.5700 
  2 C       -3.0080     1.2660    -2.2660 C.2   1 <1>   0.5440 
  3 N       -3.5250     0.4810    -1.2660 N.am  1 <1>  -0.6600 
  4 C       -2.6970     2.6730    -2.0560 C.ar  1 <1>   0.0860 
  5 C       -4.5950     0.9960    -0.3560 C.3   1 <1>   0.2350 
  6 C       -2.5550    -0.3500    -0.5030 C.3   1 <1>   0.2350 
  7 C       -2.3440     3.1590    -0.7980 C.ar  1 <1>  -0.1500 
  8 C       -2.7480     3.6000    -3.0980 C.ar  1 <1>  -0.1500 
  9 C       -4.1380     0.6930     1.0570 C.3   1 <1>  -0.2420 
 10 C       -2.8680    -0.1250     0.9660 C.3   1 <1>  -0.2420 
 11 C       -2.1150     4.4990    -0.5580 C.ar  1 <1>  -0.1430 
 12 C       -2.4920     4.9440    -2.8830 C.ar  1 <1>  -0.1500 
 13 C       -4.5320     1.8160     2.0170 C.2   1 <1>   0.9470 
 14 C       -4.1090    -0.7210     1.5700 C.3   1 <1>  -0.2000 
 15 C       -1.5930     0.0160     1.7960 C.2   1 <1>   0.9470 
 16 C       -2.1830     5.3960    -1.6120 C.ar  1 <1>  -0.1500 
 17 C       -1.8230     4.9430     0.8730 C.3   1 <1>   0.2390 
 18 O       -5.4630     1.6200     2.8090 O.co2 1 <1>  -0.9000 
 19 O       -4.0270     2.9390     1.8850 O.co2 1 <1>  -0.9000 
 20 O       -1.3550    -0.8070     2.6890 O.co2 1 <1>  -0.9000 
 21 O       -0.7530     0.8620     1.4600 O.co2 1 <1>  -0.9000 
 22 N       -0.5090     5.6250     0.9680 N.pl3 1 <1>   0.3140 
 23 N       -0.3770     6.9710     0.8670 N.2   1 <1>  -0.7070 
 24 C        0.6970     5.0370     1.1570 C.2   1 <1>  -0.3320 
 25 C        0.8920     7.1920     0.9920 C.2   1 <1>   0.1080 
 26 C        1.6180     6.0220     1.1760 C.2   1 <1>  -0.1500 
 27 C        0.8940     3.5360     1.3120 C.3   1 <1>  -0.0600 
 28 C        1.4770     8.5820     0.9370 C.3   1 <1>  -0.0590 
 29 H       -4.7420     2.0540    -0.4900 H     1 <1>   0.0800 
 30 H       -5.5220     0.4900    -0.5570 H     1 <1>   0.0800 
 31 H       -2.6730    -1.3870    -0.7590 H     1 <1>   0.0800 
 32 H       -1.5470    -0.0430    -0.7320 H     1 <1>   0.0800 
 33 H       -2.2600     2.4720     0.0280 H     1 <1>   0.1500 
 34 H       -2.9950     3.2510    -4.0850 H     1 <1>   0.1500 
 35 H       -2.5350     5.6400    -3.7010 H     1 <1>   0.1500 
 36 H       -4.6480    -1.4840     1.0410 H     1 <1>   0.1000 
 37 H       -4.1250    -0.8680     2.6370 H     1 <1>   0.1000 
 38 H       -1.9920     6.4420    -1.4350 H     1 <1>   0.1500 
 39 H       -1.8210     4.0980     1.5380 H     1 <1>   0.0800 
 40 H       -2.5880     5.6180     1.2060 H     1 <1>   0.0800 
 41 H        2.6810     5.9420     1.3040 H     1 <1>   0.1500 
 42 H        1.9340     3.2970     1.4320 H     1 <1>   0.0800 
 43 H        0.5220     3.0160     0.4460 H     1 <1>   0.0800 
 44 H        0.3600     3.1710     2.1720 H     1 <1>   0.0800 
 45 H        2.5430     8.5440     1.0580 H     1 <1>   0.0800 
 46 H        1.0500     9.1770     1.7220 H     1 <1>   0.0800 
 47 H        1.2410     9.0290    -0.0100 H     1 <1>   0.0800 
@<TRIPOS>BOND
  1   1   2  2   
  2   2   3  am  
  3   2   4  1   
  4   3   5  1   
  5   3   6  1   
  6   4   7  ar  
  7   4   8  ar  
  8   5   9  1   
  9   5  29  1   
 10   5  30  1   
 11   6  10  1   
 12   6  31  1   
 13   6  32  1   
 14   7  11  ar  
 15   7  33  1   
 16   8  12  ar  
 17   8  34  1   
 18   9  10  1   
 19   9  13  1   
 20   9  14  1   
 21  10  14  1   
 22  10  15  1   
 23  11  16  ar  
 24  11  17  1   
 25  12  16  ar  
 26  12  35  1   
 27  13  18  ar  
 28  13  19  ar  
 29  14  36  1   
 30  14  37  1   
 31  15  20  ar  
 32  15  21  ar  
 33  16  38  1   
 34  17  22  1   
 35  17  39  1   
 36  17  40  1   
 37  22  23  1   
 38  22  24  1   
 39  23  25  2   
 40  24  26  2   
 41  24  27  1   
 42  25  26  1   
 43  25  28  1   
 44  26  41  1   
 45  27  42  1   
 46  27  43  1   
 47  27  44  1   
 48  28  45  1   
 49  28  46  1   
 50  28  47  1   
@<TRIPOS>SUBSTRUCTURE
  1 ****   7 GROUP 4 **** **** 0

# MOE 2024.06 (io_trps.svl 2023.06)
