@<TRIPOS>MOLECULE
NONAME
44 45 1 0 0 
SMALL
USER_CHARGES


@<TRIPOS>ATOM
  1 S        0.6630     0.6210    -1.0740 S.o2  1 <1>   1.3330 
  2 O        0.2680     0.4270    -2.4500 O.2   1 <1>  -0.6500 
  3 O        1.9910     0.2420    -0.6500 O.2   1 <1>  -0.6500 
  4 N       -0.4520    -0.2120    -0.1000 N.am  1 <1>  -0.8490 
  5 C        0.3890     2.3420    -0.6340 C.3   1 <1>  -0.0550 
  6 C       -0.0170    -1.5810     0.1930 C.3   1 <1>   0.1160 
  7 C       -1.8110    -0.2320    -0.6530 C.3   1 <1>   0.1160 
  8 C        0.6150     2.6660     0.8590 C.3   1 <1>  -0.0800 
  9 C        0.0220     4.0350     1.2020 C.3   1 <1>   0.2000 
 10 C        2.1090     2.8260     1.1840 C.3   1 <1>   0.1400 
 11 O       -0.1770     4.0890     2.5710 O.3   1 <1>  -0.6800 
 12 C        1.1210     5.0280     0.8330 C.3   1 <1>   0.1400 
 13 N        2.3880     4.2780     1.0410 N.am  1 <1>  -0.6600 
 14 C        3.6650     4.7760     0.9840 C.2   1 <1>   0.5690 
 15 O        4.6210     4.0600     1.1630 O.2   1 <1>  -0.5700 
 16 C        3.9410     6.2480     0.7220 C.3   1 <1>   0.1570 
 17 N        3.3460     6.6930    -0.5560 N.pl3 1 <1>   0.0480 
 18 C        2.5300     7.7520    -0.7900 C.2   1 <1>   0.0060 
 19 C        3.4530     6.0760    -1.7480 C.2   1 <1>  -0.3020 
 20 N        2.1190     7.8280    -2.0120 N.2   1 <1>  -0.5650 
 21 C        2.1260     8.7640     0.2640 C.3   1 <1>  -0.0600 
 22 C        2.7010     6.7790    -2.6190 C.2   1 <1>   0.0770 
 23 H        1.0270     2.9620    -1.2340 H     1 <1>   0.0800 
 24 H       -0.6240     2.5870    -0.8890 H     1 <1>   0.0800 
 25 H       -0.7380    -2.0760     0.8210 H     1 <1>   0.0800 
 26 H        0.9260    -1.5650     0.7140 H     1 <1>   0.0800 
 27 H        0.1020    -2.1390    -0.7200 H     1 <1>   0.0800 
 28 H       -2.4870    -0.6940     0.0460 H     1 <1>   0.0800 
 29 H       -1.8330    -0.7830    -1.5790 H     1 <1>   0.0800 
 30 H       -2.1520     0.7720    -0.8400 H     1 <1>   0.0800 
 31 H        0.1630     1.8960     1.4610 H     1 <1>   0.0800 
 32 H       -0.9170     4.2440     0.7180 H     1 <1>   0.0800 
 33 H        2.7460     2.2540     0.5320 H     1 <1>   0.0800 
 34 H        2.3050     2.5310     2.2010 H     1 <1>   0.0800 
 35 H        0.6790     3.9610     3.0270 H     1 <1>   0.4000 
 36 H        1.0720     5.9160     1.4390 H     1 <1>   0.0800 
 37 H        1.0320     5.2940    -0.2070 H     1 <1>   0.0800 
 38 H        5.0020     6.4040     0.6750 H     1 <1>   0.0800 
 39 H        3.5430     6.8260     1.5320 H     1 <1>   0.0800 
 40 H        4.0420     5.1900    -1.9080 H     1 <1>   0.1500 
 41 H        1.5180     9.5300    -0.1840 H     1 <1>   0.0800 
 42 H        2.9990     9.2290     0.6850 H     1 <1>   0.0800 
 43 H        1.5580     8.2910     1.0430 H     1 <1>   0.0800 
 44 H        2.5470     6.5840    -3.6680 H     1 <1>   0.1500 
@<TRIPOS>BOND
  1   1   2  2   
  2   1   3  2   
  3   1   4  am  
  4   1   5  1   
  5   4   6  1   
  6   4   7  1   
  7   5   8  1   
  8   5  23  1   
  9   5  24  1   
 10   6  25  1   
 11   6  26  1   
 12   6  27  1   
 13   7  28  1   
 14   7  29  1   
 15   7  30  1   
 16   8   9  1   
 17   8  10  1   
 18   8  31  1   
 19   9  11  1   
 20   9  12  1   
 21   9  32  1   
 22  10  13  1   
 23  10  33  1   
 24  10  34  1   
 25  11  35  1   
 26  12  13  1   
 27  12  36  1   
 28  12  37  1   
 29  13  14  am  
 30  14  15  2   
 31  14  16  1   
 32  16  17  1   
 33  16  38  1   
 34  16  39  1   
 35  17  18  1   
 36  17  19  1   
 37  18  20  2   
 38  18  21  1   
 39  19  22  2   
 40  19  40  1   
 41  20  22  1   
 42  21  41  1   
 43  21  42  1   
 44  21  43  1   
 45  22  44  1   
@<TRIPOS>SUBSTRUCTURE
  1 ****  13 GROUP 4 **** **** 0

# MOE 2024.06 (io_trps.svl 2023.06)
