@<TRIPOS>MOLECULE
NONAME
43 44 1 0 0 
SMALL
USER_CHARGES


@<TRIPOS>ATOM
  1 O       -0.4030     1.5720    -0.3230 O.3   1 <1>  -0.5600 
  2 C       -1.0310     2.0130    -1.4930 C.3   1 <1>   0.2000 
  3 C       -0.8230     0.3320     0.1560 C.3   1 <1>   0.1200 
  4 C       -0.0290     2.9680    -2.1640 C.3   1 <1>   0.3430 
  5 C       -2.3220     2.7670    -1.1020 C.3   1 <1>  -0.1600 
  6 C       -0.0790     0.0640     1.4620 C.3   1 <1>  -0.1600 
  7 N        0.3340     4.0120    -1.1560 N.4   1 <1>  -0.9590 
  8 C       -2.1720     4.3040    -1.1570 C.3   1 <1>  -0.1600 
  9 C       -0.4800    -1.2870     2.0650 C.3   1 <1>  -0.2400 
 10 C       -0.8190     4.8230    -0.6440 C.3   1 <1>   0.3430 
 11 C        1.5480     4.8130    -1.4720 C.3   1 <1>   0.5230 
 12 C        2.0930     5.4680    -0.2100 C.2   1 <1>   0.0060 
 13 N        1.7750     5.1120     0.9880 N.2   1 <1>  -0.3380 
 14 N        2.9650     6.4820    -0.1950 N.pl3 1 <1>   0.0330 
 15 N        2.4360     5.9100     1.8220 N.2   1 <1>  -0.3380 
 16 C        3.1390     6.7150     1.1050 C.2   1 <1>   0.0060 
 17 C        4.0550     7.7930     1.6620 C.3   1 <1>   0.0200 
 18 C        3.5850     9.1950     1.2620 C.3   1 <1>  -0.2400 
 19 H       -1.2380     1.1690    -2.1300 H     1 <1>   0.0800 
 20 H       -0.5850    -0.4230    -0.5750 H     1 <1>   0.0800 
 21 H       -1.8860     0.3550     0.3270 H     1 <1>   0.0800 
 22 H       -0.4700     3.4170    -3.0370 H     1 <1>   0.0800 
 23 H        0.8420     2.4080    -2.4590 H     1 <1>   0.0800 
 24 H       -2.6320     2.4760    -0.1130 H     1 <1>   0.0800 
 25 H       -3.1100     2.4820    -1.7780 H     1 <1>   0.0800 
 26 H       -0.3060     0.8460     2.1670 H     1 <1>   0.0800 
 27 H        0.9810     0.0670     1.2760 H     1 <1>   0.0800 
 28 H        0.5980     3.4450    -0.3250 H     1 <1>   0.4500 
 29 H       -2.9620     4.7610    -0.5850 H     1 <1>   0.0800 
 30 H       -2.2970     4.6370    -2.1730 H     1 <1>   0.0800 
 31 H       -1.5340    -1.3070     2.2790 H     1 <1>   0.0800 
 32 H        0.0570    -1.4510     2.9830 H     1 <1>   0.0800 
 33 H       -0.2460    -2.0880     1.3860 H     1 <1>   0.0800 
 34 H       -0.7050     5.8560    -0.9310 H     1 <1>   0.0800 
 35 H       -0.8120     4.7850     0.4350 H     1 <1>   0.0800 
 36 H        1.3060     5.5670    -2.2020 H     1 <1>   0.0800 
 37 H        2.3090     4.1690    -1.8800 H     1 <1>   0.0800 
 38 H        3.4120     6.9850    -0.9640 H     1 <1>   0.2700 
 39 H        5.0590     7.6270     1.3140 H     1 <1>   0.0800 
 40 H        4.0650     7.7170     2.7360 H     1 <1>   0.0800 
 41 H        3.6120     9.3210     0.1950 H     1 <1>   0.0800 
 42 H        4.2230     9.9360     1.7100 H     1 <1>   0.0800 
 43 H        2.5790     9.3580     1.6080 H     1 <1>   0.0800 
@<TRIPOS>BOND
  1   1   2  1   
  2   1   3  1   
  3   2   4  1   
  4   2   5  1   
  5   2  19  1   
  6   3   6  1   
  7   3  20  1   
  8   3  21  1   
  9   4   7  1   
 10   4  22  1   
 11   4  23  1   
 12   5   8  1   
 13   5  24  1   
 14   5  25  1   
 15   6   9  1   
 16   6  26  1   
 17   6  27  1   
 18   7  10  1   
 19   7  11  1   
 20   7  28  1   
 21   8  10  1   
 22   8  29  1   
 23   8  30  1   
 24   9  31  1   
 25   9  32  1   
 26   9  33  1   
 27  10  34  1   
 28  10  35  1   
 29  11  12  1   
 30  11  36  1   
 31  11  37  1   
 32  12  13  2   
 33  12  14  1   
 34  13  15  1   
 35  14  16  1   
 36  14  38  1   
 37  15  16  2   
 38  16  17  1   
 39  17  18  1   
 40  17  39  1   
 41  17  40  1   
 42  18  41  1   
 43  18  42  1   
 44  18  43  1   
@<TRIPOS>SUBSTRUCTURE
  1 ****   7 GROUP 4 **** **** 0

# MOE 2024.06 (io_trps.svl 2023.06)
