@<TRIPOS>MOLECULE
NONAME
57 61 1 0 0 
SMALL
USER_CHARGES


@<TRIPOS>ATOM
  1 O       -0.1230     0.9640     2.6140 O.2   1 <1>  -0.5700 
  2 C        0.2190     1.6390     1.6710 C.2   1 <1>   0.5690 
  3 N       -0.6840     1.9950     0.6940 N.am  1 <1>  -0.6600 
  4 C        1.6790     2.0830     1.6520 C.3   1 <1>  -0.0990 
  5 C       -2.0980     1.5020     0.8140 C.3   1 <1>   0.1400 
  6 C       -0.3860     2.8130    -0.5140 C.3   1 <1>   0.1400 
  7 C        2.6700     1.0920     0.9940 C.3   1 <1>   0.0000 
  8 C       -3.1490     2.3160     0.0120 C.3   1 <1>   0.0000 
  9 C       -1.3230     4.0240    -0.6100 C.3   1 <1>  -0.1600 
 10 C        4.0970     1.6870     1.0710 C.3   1 <1>  -0.1600 
 11 C        2.6730    -0.2660     1.7380 C.3   1 <1>  -0.1600 
 12 C        2.3370     0.8300    -0.4940 C.3   1 <1>  -0.1600 
 13 C       -4.5310     2.0890     0.6650 C.3   1 <1>   0.2000 
 14 C       -2.7210     3.8020    -0.0020 C.3   1 <1>  -0.1600 
 15 C       -3.3380     1.7230    -1.4030 C.3   1 <1>  -0.1600 
 16 C        5.1300     0.7320     0.4460 C.3   1 <1>  -0.0800 
 17 C        3.6990    -1.2320     1.1180 C.3   1 <1>  -0.0800 
 18 C        3.3600    -0.1330    -1.1260 C.3   1 <1>  -0.0800 
 19 O       -5.4440     3.0330     0.2240 O.3   1 <1>  -0.6800 
 20 C       -4.9970     0.7410     0.1270 C.3   1 <1>  -0.1600 
 21 C       -4.4300     0.6460    -1.2940 C.3   1 <1>  -0.1600 
 22 C        5.1030    -0.6070     1.2060 C.3   1 <1>  -0.1600 
 23 C        4.7660     0.4860    -1.0290 C.3   1 <1>  -0.1600 
 24 C        3.3390    -1.4680    -0.3600 C.3   1 <1>  -0.1600 
 25 H        1.7650     3.0510     1.2010 H     1 <1>   0.0800 
 26 H        1.9720     2.2150     2.6770 H     1 <1>   0.0800 
 27 H       -2.1280     0.4660     0.5240 H     1 <1>   0.0800 
 28 H       -2.3660     1.5440     1.8570 H     1 <1>   0.0800 
 29 H        0.6280     3.1610    -0.5240 H     1 <1>   0.0800 
 30 H       -0.5080     2.1910    -1.3810 H     1 <1>   0.0800 
 31 H       -0.8630     4.8630    -0.1200 H     1 <1>   0.0800 
 32 H       -1.4230     4.2840    -1.6490 H     1 <1>   0.0800 
 33 H        4.1290     2.6310     0.5550 H     1 <1>   0.0800 
 34 H        4.3610     1.8700     2.0990 H     1 <1>   0.0800 
 35 H        2.9040    -0.1140     2.7780 H     1 <1>   0.0800 
 36 H        1.6970    -0.7180     1.6880 H     1 <1>   0.0800 
 37 H        1.3540     0.4010    -0.5810 H     1 <1>   0.0800 
 38 H        2.3470     1.7550    -1.0410 H     1 <1>   0.0800 
 39 H       -4.5080     2.1280     1.7410 H     1 <1>   0.0800 
 40 H       -3.4340     4.4100    -0.5310 H     1 <1>   0.0800 
 41 H       -2.7050     4.1480     1.0170 H     1 <1>   0.0800 
 42 H       -3.6720     2.4920    -2.0780 H     1 <1>   0.0800 
 43 H       -2.4330     1.3000    -1.7970 H     1 <1>   0.0800 
 44 H        6.1140     1.1660     0.5110 H     1 <1>   0.0800 
 45 H        3.6830    -2.1680     1.6500 H     1 <1>   0.0800 
 46 H        3.1090    -0.3040    -2.1590 H     1 <1>   0.0800 
 47 H       -5.5100     2.9760    -0.7470 H     1 <1>   0.4000 
 48 H       -4.5670    -0.0390     0.7300 H     1 <1>   0.0800 
 49 H       -6.0690     0.6380     0.1560 H     1 <1>   0.0800 
 50 H       -4.0220    -0.3360    -1.4680 H     1 <1>   0.0800 
 51 H       -5.2030     0.8310    -2.0200 H     1 <1>   0.0800 
 52 H        5.3660    -0.4470     2.2370 H     1 <1>   0.0800 
 53 H        5.8290    -1.2800     0.7850 H     1 <1>   0.0800 
 54 H        5.4870    -0.1760    -1.4760 H     1 <1>   0.0800 
 55 H        4.7950     1.4150    -1.5710 H     1 <1>   0.0800 
 56 H        2.3620    -1.9140    -0.4290 H     1 <1>   0.0800 
 57 H        4.0430    -2.1530    -0.8010 H     1 <1>   0.0800 
@<TRIPOS>BOND
  1   1   2  2   
  2   2   3  am  
  3   2   4  1   
  4   3   5  1   
  5   3   6  1   
  6   4   7  1   
  7   4  25  1   
  8   4  26  1   
  9   5   8  1   
 10   5  27  1   
 11   5  28  1   
 12   6   9  1   
 13   6  29  1   
 14   6  30  1   
 15   7  10  1   
 16   7  11  1   
 17   7  12  1   
 18   8  13  1   
 19   8  14  1   
 20   8  15  1   
 21   9  14  1   
 22   9  31  1   
 23   9  32  1   
 24  10  16  1   
 25  10  33  1   
 26  10  34  1   
 27  11  17  1   
 28  11  35  1   
 29  11  36  1   
 30  12  18  1   
 31  12  37  1   
 32  12  38  1   
 33  13  19  1   
 34  13  20  1   
 35  13  39  1   
 36  14  40  1   
 37  14  41  1   
 38  15  21  1   
 39  15  42  1   
 40  15  43  1   
 41  16  22  1   
 42  16  23  1   
 43  16  44  1   
 44  17  22  1   
 45  17  24  1   
 46  17  45  1   
 47  18  23  1   
 48  18  24  1   
 49  18  46  1   
 50  19  47  1   
 51  20  21  1   
 52  20  48  1   
 53  20  49  1   
 54  21  50  1   
 55  21  51  1   
 56  22  52  1   
 57  22  53  1   
 58  23  54  1   
 59  23  55  1   
 60  24  56  1   
 61  24  57  1   
@<TRIPOS>SUBSTRUCTURE
  1 ****   3 GROUP 4 **** **** 0

# MOE 2024.06 (io_trps.svl 2023.06)
