@<TRIPOS>MOLECULE
NONAME
46 48 1 0 0 
SMALL
USER_CHARGES


@<TRIPOS>ATOM
  1 O       -0.6470     0.6630    -0.4320 O.co2 1 <1>  -0.9000 
  2 C       -1.4430     1.3990     0.1590 C.2   1 <1>   0.9060 
  3 O       -2.4980     0.9750     0.6490 O.co2 1 <1>  -0.9000 
  4 C       -1.1760     2.8850     0.2470 C.3   1 <1>  -0.1860 
  5 C       -2.2900     3.6310    -0.4880 C.3   1 <1>   0.2000 
  6 C        0.1990     3.2430    -0.3310 C.3   1 <1>   0.1400 
  7 O       -3.4740     3.4130     0.1780 O.3   1 <1>  -0.6800 
  8 C       -2.0470     5.1380    -0.5420 C.3   1 <1>  -0.1600 
  9 N        0.3740     4.7310    -0.3650 N.am  1 <1>  -0.6600 
 10 C       -0.6800     5.4280    -1.1560 C.3   1 <1>   0.1400 
 11 C        1.3940     5.3460     0.3160 C.2   1 <1>   0.5690 
 12 O        2.2540     4.7220     0.8930 O.2   1 <1>  -0.5700 
 13 C        1.4670     6.8640     0.3660 C.3   1 <1>  -0.0990 
 14 C        2.6140     7.3960     1.2400 C.3   1 <1>   0.0200 
 15 C        2.6200     8.9110     1.2620 C.2   1 <1>   0.2980 
 16 O        1.6790     9.5340     1.9220 O.3   1 <1>  -0.0190 
 17 N        3.4640     9.6570     0.6820 N.2   1 <1>  -0.5650 
 18 N        1.9470    10.7880     1.7450 N.2   1 <1>  -0.4100 
 19 C        3.0040    10.8680     1.0150 C.2   1 <1>   0.4620 
 20 C        3.6450    12.1000     0.5820 C.ar  1 <1>   0.0540 
 21 C        4.7970    12.0910    -0.2090 C.ar  1 <1>  -0.1500 
 22 C        3.1320    13.3470     0.9410 C.ar  1 <1>  -0.1500 
 23 C        5.4110    13.2600    -0.6240 C.ar  1 <1>  -0.1430 
 24 C        3.7340    14.5220     0.5310 C.ar  1 <1>  -0.1500 
 25 C        4.8730    14.4800    -0.2510 C.ar  1 <1>  -0.1500 
 26 C        6.6610    13.2140    -1.4840 C.3   1 <1>  -0.0970 
 27 H       -1.1820     3.1560     1.2850 H     1 <1>   0.0800 
 28 H       -2.3950     3.2310    -1.4830 H     1 <1>   0.0800 
 29 H        0.2860     2.8550    -1.3320 H     1 <1>   0.0800 
 30 H        0.9660     2.7760     0.2640 H     1 <1>   0.0800 
 31 H       -3.4540     2.4510     0.4600 H     1 <1>   0.4000 
 32 H       -2.8150     5.5990    -1.1350 H     1 <1>   0.0800 
 33 H       -2.0830     5.5470     0.4520 H     1 <1>   0.0800 
 34 H       -0.5180     6.4890    -1.1880 H     1 <1>   0.0800 
 35 H       -0.6530     5.0590    -2.1680 H     1 <1>   0.0800 
 36 H        1.5970     7.2320    -0.6350 H     1 <1>   0.0800 
 37 H        0.5340     7.2330     0.7520 H     1 <1>   0.0800 
 38 H        3.5540     7.0480     0.8510 H     1 <1>   0.0800 
 39 H        2.5130     7.0300     2.2460 H     1 <1>   0.0800 
 40 H        5.2170    11.1450    -0.5020 H     1 <1>   0.1500 
 41 H        2.2460    13.3980     1.5500 H     1 <1>   0.1500 
 42 H        3.3170    15.4710     0.8210 H     1 <1>   0.1500 
 43 H        5.3380    15.3970    -0.5680 H     1 <1>   0.1500 
 44 H        7.3600    13.9660    -1.1630 H     1 <1>   0.0800 
 45 H        6.4020    13.3950    -2.5110 H     1 <1>   0.0800 
 46 H        7.1390    12.2540    -1.4100 H     1 <1>   0.0800 
@<TRIPOS>BOND
  1   1   2  ar  
  2   2   3  ar  
  3   2   4  1   
  4   4   5  1   
  5   4   6  1   
  6   4  27  1   
  7   5   7  1   
  8   5   8  1   
  9   5  28  1   
 10   6   9  1   
 11   6  29  1   
 12   6  30  1   
 13   7  31  1   
 14   8  10  1   
 15   8  32  1   
 16   8  33  1   
 17   9  10  1   
 18   9  11  am  
 19  10  34  1   
 20  10  35  1   
 21  11  12  2   
 22  11  13  1   
 23  13  14  1   
 24  13  36  1   
 25  13  37  1   
 26  14  15  1   
 27  14  38  1   
 28  14  39  1   
 29  15  16  1   
 30  15  17  2   
 31  16  18  1   
 32  17  19  1   
 33  18  19  2   
 34  19  20  1   
 35  20  21  ar  
 36  20  22  ar  
 37  21  23  ar  
 38  21  40  1   
 39  22  24  ar  
 40  22  41  1   
 41  23  25  ar  
 42  23  26  1   
 43  24  25  ar  
 44  24  42  1   
 45  25  43  1   
 46  26  44  1   
 47  26  45  1   
 48  26  46  1   
@<TRIPOS>SUBSTRUCTURE
  1 ****  13 GROUP 4 **** **** 0

# MOE 2024.06 (io_trps.svl 2023.06)
