@<TRIPOS>MOLECULE
NONAME
40 42 1 0 0 
SMALL
USER_CHARGES


@<TRIPOS>ATOM
  1 S       -4.1250    -0.3310     2.9910 S.3   1 <1>  -0.0800 
  2 C       -3.8890    -1.3730     1.6000 C.2   1 <1>  -0.1100 
  3 C       -3.9900     1.1020     1.9900 C.2   1 <1>  -0.1100 
  4 C       -3.7340    -0.6480     0.4750 C.2   1 <1>  -0.1810 
  5 C       -3.7850     0.7660     0.7030 C.2   1 <1>  -0.1500 
  6 C       -3.5350    -1.2000    -0.9350 C.3   1 <1>   0.0820 
  7 C       -3.8410    -2.6890    -1.0810 C.2   1 <1>   0.5690 
  8 O       -2.8970    -3.4200    -1.2770 O.2   1 <1>  -0.5700 
  9 N       -5.1280    -3.1830    -1.0180 N.am  1 <1>  -0.6600 
 10 C       -6.3080    -2.3460    -0.6390 C.3   1 <1>   0.2200 
 11 C       -5.3630    -4.6430    -1.2480 C.3   1 <1>   0.0600 
 12 C       -7.1600    -2.9240     0.4870 C.3   1 <1>  -0.1600 
 13 C       -7.2930    -2.1240    -1.7800 C.3   1 <1>  -0.1600 
 14 C       -8.4850    -2.1600     0.3760 C.3   1 <1>  -0.0800 
 15 C       -8.5690    -1.6450    -1.0740 C.3   1 <1>  -0.0800 
 16 C       -8.5450    -0.9220     1.2840 C.3   1 <1>  -0.1600 
 17 C       -8.6710    -0.1140    -0.9840 C.3   1 <1>  -0.1600 
 18 C       -9.1780     0.1590     0.4230 C.3   1 <1>   0.2000 
 19 O       -8.7600     1.4020     0.8440 O.3   1 <1>  -0.6800 
 20 H       -3.8960    -2.4360     1.7730 H     1 <1>   0.1500 
 21 H       -4.0750     2.0560     2.4790 H     1 <1>   0.1500 
 22 H       -3.6640     1.4660    -0.1060 H     1 <1>   0.1500 
 23 H       -2.5150    -1.0290    -1.2280 H     1 <1>   0.0800 
 24 H       -4.1600    -0.6630    -1.6230 H     1 <1>   0.0800 
 25 H       -5.9890    -1.3740    -0.3130 H     1 <1>   0.0800 
 26 H       -6.3070    -4.8080    -1.7340 H     1 <1>   0.0800 
 27 H       -5.3540    -5.1610    -0.3050 H     1 <1>   0.0800 
 28 H       -4.5890    -5.0560    -1.8710 H     1 <1>   0.0800 
 29 H       -7.3610    -3.9660     0.3200 H     1 <1>   0.0800 
 30 H       -6.6910    -2.8010     1.4470 H     1 <1>   0.0800 
 31 H       -6.9240    -1.4120    -2.4960 H     1 <1>   0.0800 
 32 H       -7.5020    -3.0520    -2.2800 H     1 <1>   0.0800 
 33 H       -9.3190    -2.8080     0.5910 H     1 <1>   0.0800 
 34 H       -9.4460    -2.0400    -1.5610 H     1 <1>   0.0800 
 35 H       -7.5510    -0.6230     1.5720 H     1 <1>   0.0800 
 36 H       -9.1320    -1.1100     2.1650 H     1 <1>   0.0800 
 37 H       -9.3470     0.2780    -1.7220 H     1 <1>   0.0800 
 38 H       -7.7010     0.3330    -1.1110 H     1 <1>   0.0800 
 39 H      -10.2540     0.1140     0.4650 H     1 <1>   0.0800 
 40 H       -7.7870     1.4250     0.8900 H     1 <1>   0.4000 
@<TRIPOS>BOND
  1   1   2  1   
  2   1   3  1   
  3   2   4  2   
  4   2  20  1   
  5   3   5  2   
  6   3  21  1   
  7   4   5  1   
  8   4   6  1   
  9   5  22  1   
 10   6   7  1   
 11   6  23  1   
 12   6  24  1   
 13   7   8  2   
 14   7   9  am  
 15   9  10  1   
 16   9  11  1   
 17  10  12  1   
 18  10  13  1   
 19  10  25  1   
 20  11  26  1   
 21  11  27  1   
 22  11  28  1   
 23  12  14  1   
 24  12  29  1   
 25  12  30  1   
 26  13  15  1   
 27  13  31  1   
 28  13  32  1   
 29  14  15  1   
 30  14  16  1   
 31  14  33  1   
 32  15  17  1   
 33  15  34  1   
 34  16  18  1   
 35  16  35  1   
 36  16  36  1   
 37  17  18  1   
 38  17  37  1   
 39  17  38  1   
 40  18  19  1   
 41  18  39  1   
 42  19  40  1   
@<TRIPOS>SUBSTRUCTURE
  1 ****  10 GROUP 4 **** **** 0

# MOE 2024.06 (io_trps.svl 2023.06)
