@<TRIPOS>MOLECULE
NONAME
48 51 1 0 0 
SMALL
USER_CHARGES


@<TRIPOS>ATOM
  1 O       -0.7980     0.4470     2.7010 O.2   1 <1>  -0.5700 
  2 C       -1.5440     1.0030     1.9290 C.2   1 <1>   0.5690 
  3 N       -2.3890     0.2890     1.1130 N.am  1 <1>  -0.6600 
  4 C       -1.5090     2.5250     1.9310 C.3   1 <1>   0.0810 
  5 C       -3.3460     0.8630     0.1130 C.3   1 <1>   0.1400 
  6 C       -2.3480    -1.2070     1.0780 C.3   1 <1>   0.1400 
  7 C       -0.7710     3.0890     0.7300 C.2   1 <1>  -0.0400 
  8 C       -4.7370     0.2090     0.2270 C.3   1 <1>   0.1900 
  9 C       -3.7610    -1.8070     1.1640 C.3   1 <1>   0.1100 
 10 O       -1.3530     3.1460    -0.4380 O.3   1 <1>  -0.0190 
 11 C        0.4640     3.5950     0.5980 C.2   1 <1>  -0.1500 
 12 N       -4.6440    -1.2660     0.1080 N.3   1 <1>  -0.8100 
 13 C       -5.6860     0.7790    -0.8460 C.3   1 <1>   0.1200 
 14 N       -0.5760     3.6610    -1.3440 N.2   1 <1>  -0.4100 
 15 C        0.5280     3.9400    -0.7500 C.2   1 <1>   0.1080 
 16 C       -5.9990    -1.8650     0.1550 C.3   1 <1>   0.3330 
 17 O       -6.9510     0.1920    -0.7400 O.3   1 <1>  -0.5600 
 18 C        1.7300     4.5580    -1.4300 C.3   1 <1>  -0.0590 
 19 C       -5.9450    -3.3710    -0.1020 C.ar  1 <1>  -0.1430 
 20 C       -6.9250    -1.2030    -0.8880 C.3   1 <1>   0.1200 
 21 C       -5.2020    -3.8870    -1.1560 C.ar  1 <1>  -0.1500 
 22 C       -6.6470    -4.2430     0.7180 C.ar  1 <1>  -0.1500 
 23 C       -5.1630    -5.2510    -1.3880 C.ar  1 <1>  -0.1500 
 24 C       -6.6080    -5.6070     0.4880 C.ar  1 <1>  -0.1500 
 25 C       -5.8660    -6.1120    -0.5650 C.ar  1 <1>  -0.1500 
 26 H       -2.5040     2.9200     1.9770 H     1 <1>   0.0800 
 27 H       -0.9990     2.8440     2.8220 H     1 <1>   0.0800 
 28 H       -3.4560     1.9210     0.2520 H     1 <1>   0.0800 
 29 H       -2.9560     0.6970    -0.8760 H     1 <1>   0.0800 
 30 H       -1.8890    -1.5230     0.1580 H     1 <1>   0.0800 
 31 H       -1.7560    -1.5900     1.8900 H     1 <1>   0.0800 
 32 H       -5.1430     0.4650     1.1910 H     1 <1>   0.0800 
 33 H       -4.1740    -1.5980     2.1360 H     1 <1>   0.0800 
 34 H       -3.6790    -2.8750     1.0600 H     1 <1>   0.0800 
 35 H        1.2420     3.7160     1.3290 H     1 <1>   0.1500 
 36 H       -5.3000     0.5900    -1.8330 H     1 <1>   0.0800 
 37 H       -5.8070     1.8390    -0.7160 H     1 <1>   0.0800 
 38 H       -6.4230    -1.6920     1.1290 H     1 <1>   0.0800 
 39 H        2.5780     3.9060    -1.3330 H     1 <1>   0.0800 
 40 H        1.9570     5.5070    -0.9790 H     1 <1>   0.0800 
 41 H        1.5240     4.7090    -2.4740 H     1 <1>   0.0800 
 42 H       -7.9300    -1.5660    -0.7680 H     1 <1>   0.0800 
 43 H       -6.5920    -1.4360    -1.8830 H     1 <1>   0.0800 
 44 H       -4.6480    -3.2200    -1.7940 H     1 <1>   0.1500 
 45 H       -7.2290    -3.8650     1.5400 H     1 <1>   0.1500 
 46 H       -4.5830    -5.6400    -2.2070 H     1 <1>   0.1500 
 47 H       -7.1550    -6.2770     1.1280 H     1 <1>   0.1500 
 48 H       -5.8360    -7.1730    -0.7440 H     1 <1>   0.1500 
@<TRIPOS>BOND
  1   1   2  2   
  2   2   3  am  
  3   2   4  1   
  4   3   5  1   
  5   3   6  1   
  6   4   7  1   
  7   4  26  1   
  8   4  27  1   
  9   5   8  1   
 10   5  28  1   
 11   5  29  1   
 12   6   9  1   
 13   6  30  1   
 14   6  31  1   
 15   7  10  1   
 16   7  11  2   
 17   8  12  1   
 18   8  13  1   
 19   8  32  1   
 20   9  12  1   
 21   9  33  1   
 22   9  34  1   
 23  10  14  1   
 24  11  15  1   
 25  11  35  1   
 26  12  16  1   
 27  13  17  1   
 28  13  36  1   
 29  13  37  1   
 30  14  15  2   
 31  15  18  1   
 32  16  19  1   
 33  16  20  1   
 34  16  38  1   
 35  17  20  1   
 36  18  39  1   
 37  18  40  1   
 38  18  41  1   
 39  19  21  ar  
 40  19  22  ar  
 41  20  42  1   
 42  20  43  1   
 43  21  23  ar  
 44  21  44  1   
 45  22  24  ar  
 46  22  45  1   
 47  23  25  ar  
 48  23  46  1   
 49  24  25  ar  
 50  24  47  1   
 51  25  48  1   
@<TRIPOS>SUBSTRUCTURE
  1 ****   5 GROUP 4 **** **** 0

# MOE 2024.06 (io_trps.svl 2023.06)
