@<TRIPOS>MOLECULE
NONAME
50 52 1 0 0 
SMALL
USER_CHARGES


@<TRIPOS>ATOM
  1 O       -1.0410     0.1160     0.5890 O.3   1 <1>  -0.3630 
  2 C       -2.1810    -0.2750     1.2110 C.ar  1 <1>   0.0830 
  3 C       -0.7340     1.4770     0.4120 C.3   1 <1>   0.1200 
  4 C       -2.3500    -1.6370     1.3970 C.ar  1 <1>  -0.1500 
  5 C       -3.1650     0.6030     1.6570 C.ar  1 <1>  -0.1500 
  6 C        0.6270     1.5650    -0.2750 C.3   1 <1>  -0.1600 
  7 C       -3.4860    -2.1370     2.0140 C.ar  1 <1>  -0.1440 
  8 C       -4.2980     0.1100     2.2780 C.ar  1 <1>  -0.1500 
  9 C        1.0310     3.0250    -0.5090 C.3   1 <1>   0.0960 
 10 C       -4.4590    -1.2540     2.4560 C.ar  1 <1>  -0.1500 
 11 C       -3.6580    -3.6390     2.1930 C.3   1 <1>   0.2530 
 12 N        2.3470     3.0950    -1.1700 N.pl3 1 <1>   0.0480 
 13 N       -3.5440    -4.3390     0.8960 N.3   1 <1>  -0.8100 
 14 C        2.6080     3.1800    -2.4940 C.2   1 <1>   0.0360 
 15 C        3.5580     3.0920    -0.5840 C.2   1 <1>  -0.3020 
 16 C       -3.5530    -5.8050     1.0590 C.3   1 <1>   0.1100 
 17 C       -4.5540    -3.8850    -0.0840 C.3   1 <1>   0.1100 
 18 N        3.8680     3.2320    -2.7810 N.2   1 <1>  -0.5650 
 19 C        4.4690     3.1760    -1.5780 C.2   1 <1>   0.0770 
 20 C       -3.3360    -6.5190    -0.2970 C.3   1 <1>   0.4230 
 21 C       -4.3400    -4.5700    -1.4460 C.3   1 <1>   0.3430 
 22 N       -4.3210    -6.0640    -1.3150 N.4   1 <1>  -0.9060 
 23 C       -3.4710    -8.0310    -0.1650 C.3   1 <1>  -0.2400 
 24 H       -1.5030     1.9200    -0.1970 H     1 <1>   0.0800 
 25 H       -0.7070     1.9460     1.3820 H     1 <1>   0.0800 
 26 H       -1.5830    -2.3060     1.0500 H     1 <1>   0.1500 
 27 H       -3.0680     1.6640     1.5310 H     1 <1>   0.1500 
 28 H        1.3640     1.0860     0.3470 H     1 <1>   0.0800 
 29 H        0.5760     1.0520    -1.2200 H     1 <1>   0.0800 
 30 H       -5.0580     0.7880     2.6260 H     1 <1>   0.1500 
 31 H        1.0910     3.5500     0.4280 H     1 <1>   0.0800 
 32 H        0.3060     3.5170    -1.1330 H     1 <1>   0.0800 
 33 H       -5.3470    -1.6180     2.9430 H     1 <1>   0.1500 
 34 H       -4.6130    -3.8510     2.6430 H     1 <1>   0.0800 
 35 H       -2.8880    -3.9900     2.8590 H     1 <1>   0.0800 
 36 H        1.8230     3.2010    -3.2300 H     1 <1>   0.1500 
 37 H        3.7060     3.0320     0.4780 H     1 <1>   0.1500 
 38 H       -2.7590    -6.0890     1.7290 H     1 <1>   0.0800 
 39 H       -4.4850    -6.1200     1.4970 H     1 <1>   0.0800 
 40 H       -5.5460    -4.0880     0.2830 H     1 <1>   0.0800 
 41 H       -4.4680    -2.8210    -0.2300 H     1 <1>   0.0800 
 42 H        5.5430     3.1990    -1.4910 H     1 <1>   0.1500 
 43 H       -2.3390    -6.2840    -0.6370 H     1 <1>   0.0800 
 44 H       -3.4000    -4.2280    -1.8480 H     1 <1>   0.0800 
 45 H       -5.1210    -4.2660    -2.1250 H     1 <1>   0.0800 
 46 H       -4.1010    -6.4970    -2.2180 H     1 <1>   0.4500 
 47 H       -5.2500    -6.3880    -1.0280 H     1 <1>   0.4500 
 48 H       -4.4500    -8.3070     0.1850 H     1 <1>   0.0800 
 49 H       -2.7490    -8.3950     0.5460 H     1 <1>   0.0800 
 50 H       -3.2740    -8.5150    -1.1050 H     1 <1>   0.0800 
@<TRIPOS>BOND
  1   1   2  1   
  2   1   3  1   
  3   2   4  ar  
  4   2   5  ar  
  5   3   6  1   
  6   3  24  1   
  7   3  25  1   
  8   4   7  ar  
  9   4  26  1   
 10   5   8  ar  
 11   5  27  1   
 12   6   9  1   
 13   6  28  1   
 14   6  29  1   
 15   7  10  ar  
 16   7  11  1   
 17   8  10  ar  
 18   8  30  1   
 19   9  12  1   
 20   9  31  1   
 21   9  32  1   
 22  10  33  1   
 23  11  13  1   
 24  11  34  1   
 25  11  35  1   
 26  12  14  1   
 27  12  15  1   
 28  13  16  1   
 29  13  17  1   
 30  14  18  2   
 31  14  36  1   
 32  15  19  2   
 33  15  37  1   
 34  16  20  1   
 35  16  38  1   
 36  16  39  1   
 37  17  21  1   
 38  17  40  1   
 39  17  41  1   
 40  18  19  1   
 41  19  42  1   
 42  20  22  1   
 43  20  23  1   
 44  20  43  1   
 45  21  22  1   
 46  21  44  1   
 47  21  45  1   
 48  22  46  1   
 49  22  47  1   
 50  23  48  1   
 51  23  49  1   
 52  23  50  1   
@<TRIPOS>SUBSTRUCTURE
  1 ****   1 GROUP 4 **** **** 0

# MOE 2024.06 (io_trps.svl 2023.06)
