@<TRIPOS>MOLECULE
NONAME
56 59 1 0 0 
SMALL
USER_CHARGES


@<TRIPOS>ATOM
  1 O        1.2790    -0.6850    -2.3040 O.2   1 <1>  -0.5700 
  2 C        1.7630    -1.6310    -1.7410 C.2   1 <1>   0.5690 
  3 N        1.0050    -2.4980    -1.0410 N.am  1 <1>  -0.7300 
  4 C        3.2540    -1.8690    -1.7820 C.3   1 <1>  -0.0990 
  5 C        1.5450    -3.5980    -0.2180 C.3   1 <1>   0.1400 
  6 C        3.5590    -3.3740    -1.9030 C.3   1 <1>  -0.0800 
  7 C        2.7870    -4.2410    -0.8790 C.3   1 <1>  -0.0800 
  8 C        5.0540    -3.6780    -1.7110 C.3   1 <1>  -0.1600 
  9 C        3.8350    -4.6870     0.1460 C.3   1 <1>  -0.1600 
 10 C        5.1310    -4.7790    -0.6560 C.3   1 <1>   0.4230 
 11 N        6.3950    -4.7600     0.1470 N.4   1 <1>  -0.9590 
 12 C        6.4960    -3.7850     1.2890 C.3   1 <1>   0.4860 
 13 C        6.7150    -6.1360     0.6280 C.3   1 <1>   0.2630 
 14 C        6.7880    -2.3890     0.7760 C.ar  1 <1>  -0.1430 
 15 C        5.8590    -1.3970     0.9780 C.ar  1 <1>   0.0830 
 16 C        7.9960    -2.1310     0.0810 C.ar  1 <1>   0.0000 
 17 O        4.7410    -1.6960     1.6890 O.3   1 <1>  -0.3630 
 18 C        6.0750    -0.1160     0.4370 C.ar  1 <1>  -0.1500 
 19 C        8.1810    -0.8530    -0.4940 C.ar  1 <1>   0.0000 
 20 C        9.0360    -3.0750    -0.0800 C.ar  1 <1>  -0.1500 
 21 C        3.8270    -0.6980     2.0990 C.3   1 <1>   0.0400 
 22 C        7.2040     0.1370    -0.2870 C.ar  1 <1>  -0.1500 
 23 C        9.3400    -0.6020    -1.2550 C.ar  1 <1>  -0.1500 
 24 C       10.1530    -2.8140    -0.8230 C.ar  1 <1>   0.0830 
 25 C       10.3040    -1.5550    -1.4280 C.ar  1 <1>  -0.1500 
 26 O       11.0670    -3.8070    -0.9320 O.3   1 <1>  -0.3630 
 27 C       12.3170    -3.5940    -1.5530 C.3   1 <1>   0.0400 
 28 H        0.0010    -2.3050    -1.0020 H     1 <1>   0.3700 
 29 H        3.6740    -1.3370    -2.6170 H     1 <1>   0.0800 
 30 H        3.6730    -1.4680    -0.8810 H     1 <1>   0.0800 
 31 H        1.7970    -3.1920     0.7470 H     1 <1>   0.0800 
 32 H        0.7820    -4.3450    -0.0740 H     1 <1>   0.0800 
 33 H        3.2560    -3.6820    -2.8910 H     1 <1>   0.0800 
 34 H        2.4490    -5.1200    -1.4030 H     1 <1>   0.0800 
 35 H        5.5730    -2.7890    -1.4130 H     1 <1>   0.0800 
 36 H        5.4820    -4.0230    -2.6360 H     1 <1>   0.0800 
 37 H        3.5700    -5.6310     0.5870 H     1 <1>   0.0800 
 38 H        3.8980    -3.9370     0.9070 H     1 <1>   0.0800 
 39 H        5.0910    -5.7100    -1.2010 H     1 <1>   0.0800 
 40 H        7.1310    -4.4640    -0.5110 H     1 <1>   0.4500 
 41 H        5.5990    -3.7940     1.8820 H     1 <1>   0.0800 
 42 H        7.3090    -4.0710     1.9360 H     1 <1>   0.0800 
 43 H        5.9640    -6.4720     1.3260 H     1 <1>   0.0800 
 44 H        7.6740    -6.1490     1.1200 H     1 <1>   0.0800 
 45 H        6.7480    -6.8240    -0.2010 H     1 <1>   0.0800 
 46 H        5.3580     0.6710     0.5770 H     1 <1>   0.1500 
 47 H        8.9850    -4.0320     0.3990 H     1 <1>   0.1500 
 48 H        3.0770    -1.1600     2.7170 H     1 <1>   0.0800 
 49 H        3.3630    -0.2640     1.2310 H     1 <1>   0.0800 
 50 H        4.3530     0.0500     2.6660 H     1 <1>   0.0800 
 51 H        7.3660     1.1130    -0.7120 H     1 <1>   0.1500 
 52 H        9.4550     0.3690    -1.7050 H     1 <1>   0.1500 
 53 H       11.1710    -1.3310    -2.0200 H     1 <1>   0.1500 
 54 H       12.8920    -4.4990    -1.4670 H     1 <1>   0.0800 
 55 H       12.8250    -2.7910    -1.0500 H     1 <1>   0.0800 
 56 H       12.1580    -3.3600    -2.5910 H     1 <1>   0.0800 
@<TRIPOS>BOND
  1   1   2  2   
  2   2   3  am  
  3   2   4  1   
  4   3   5  1   
  5   3  28  1   
  6   4   6  1   
  7   4  29  1   
  8   4  30  1   
  9   5   7  1   
 10   5  31  1   
 11   5  32  1   
 12   6   7  1   
 13   6   8  1   
 14   6  33  1   
 15   7   9  1   
 16   7  34  1   
 17   8  10  1   
 18   8  35  1   
 19   8  36  1   
 20   9  10  1   
 21   9  37  1   
 22   9  38  1   
 23  10  11  1   
 24  10  39  1   
 25  11  12  1   
 26  11  13  1   
 27  11  40  1   
 28  12  14  1   
 29  12  41  1   
 30  12  42  1   
 31  13  43  1   
 32  13  44  1   
 33  13  45  1   
 34  14  15  ar  
 35  14  16  ar  
 36  15  17  1   
 37  15  18  ar  
 38  16  19  ar  
 39  16  20  ar  
 40  17  21  1   
 41  18  22  ar  
 42  18  46  1   
 43  19  22  ar  
 44  19  23  ar  
 45  20  24  ar  
 46  20  47  1   
 47  21  48  1   
 48  21  49  1   
 49  21  50  1   
 50  22  51  1   
 51  23  25  ar  
 52  23  52  1   
 53  24  25  ar  
 54  24  26  1   
 55  25  53  1   
 56  26  27  1   
 57  27  54  1   
 58  27  55  1   
 59  27  56  1   
@<TRIPOS>SUBSTRUCTURE
  1 ****  14 GROUP 4 **** **** 0

# MOE 2024.06 (io_trps.svl 2023.06)
