@<TRIPOS>MOLECULE
NONAME
39 41 1 0 0 
SMALL
USER_CHARGES


@<TRIPOS>ATOM
  1 S        0.8810    -0.5140     3.2860 S.3   1 <1>  -0.0800 
  2 C        1.0340    -1.0700     1.6360 C.2   1 <1>  -0.0450 
  3 C        1.1260     1.1250     2.7460 C.2   1 <1>   0.2280 
  4 C        1.2660     0.0190     0.8660 C.2   1 <1>   0.0460 
  5 C        0.8860    -2.4740     1.3630 C.2   1 <1>   0.7150 
  6 N        1.3020     1.2470     1.4910 N.2   1 <1>  -0.5650 
  7 C        1.5040     0.0220    -0.6290 C.3   1 <1>  -0.0590 
  8 O        1.6930    -3.2580     1.8290 O.2   1 <1>  -0.5700 
  9 N       -0.1520    -2.9600     0.5880 N.am  1 <1>  -0.6600 
 10 C       -1.3460    -2.1200     0.2690 C.3   1 <1>   0.2200 
 11 C       -0.2040    -4.4200     0.2620 C.3   1 <1>   0.0600 
 12 C       -2.6570    -2.6750     0.8200 C.3   1 <1>  -0.1600 
 13 C       -1.6040    -1.9610    -1.2270 C.3   1 <1>  -0.1600 
 14 C       -3.7400    -1.9640     0.0000 C.3   1 <1>  -0.0800 
 15 C       -3.0700    -1.5160    -1.3130 C.3   1 <1>  -0.0800 
 16 C       -4.2730    -0.6890     0.6710 C.3   1 <1>  -0.1600 
 17 C       -3.2370     0.0100    -1.3870 C.3   1 <1>  -0.1600 
 18 C       -4.4050     0.3140    -0.4630 C.3   1 <1>   0.2000 
 19 O       -4.3040     1.5980     0.0240 O.3   1 <1>  -0.6800 
 20 H        1.1100     1.8980     3.4940 H     1 <1>   0.1500 
 21 H        1.4910    -0.9780    -1.0220 H     1 <1>   0.0800 
 22 H        2.4630     0.4610    -0.8380 H     1 <1>   0.0800 
 23 H        0.7450     0.6050    -1.1170 H     1 <1>   0.0800 
 24 H       -1.2300    -1.1330     0.6800 H     1 <1>   0.0800 
 25 H       -0.7870    -4.6030    -0.6210 H     1 <1>   0.0800 
 26 H       -0.6360    -4.9560     1.0880 H     1 <1>   0.0800 
 27 H        0.7910    -4.7960     0.0930 H     1 <1>   0.0800 
 28 H       -2.7320    -3.7300     0.6320 H     1 <1>   0.0800 
 29 H       -2.7530    -2.4970     1.8760 H     1 <1>   0.0800 
 30 H       -0.9360    -1.2520    -1.6800 H     1 <1>   0.0800 
 31 H       -1.5060    -2.9040    -1.7310 H     1 <1>   0.0800 
 32 H       -4.5600    -2.6320    -0.2100 H     1 <1>   0.0800 
 33 H       -3.5590    -1.9760    -2.1560 H     1 <1>   0.0800 
 34 H       -3.5660    -0.3260     1.3970 H     1 <1>   0.0800 
 35 H       -5.2210    -0.8640     1.1490 H     1 <1>   0.0800 
 36 H       -3.4430     0.3340    -2.3920 H     1 <1>   0.0800 
 37 H       -2.3510     0.5010    -1.0240 H     1 <1>   0.0800 
 38 H       -5.3470     0.2030    -0.9740 H     1 <1>   0.0800 
 39 H       -3.4460     1.7190     0.4710 H     1 <1>   0.4000 
@<TRIPOS>BOND
  1   1   2  1   
  2   1   3  1   
  3   2   4  2   
  4   2   5  1   
  5   3   6  2   
  6   3  20  1   
  7   4   6  1   
  8   4   7  1   
  9   5   8  2   
 10   5   9  am  
 11   7  21  1   
 12   7  22  1   
 13   7  23  1   
 14   9  10  1   
 15   9  11  1   
 16  10  12  1   
 17  10  13  1   
 18  10  24  1   
 19  11  25  1   
 20  11  26  1   
 21  11  27  1   
 22  12  14  1   
 23  12  28  1   
 24  12  29  1   
 25  13  15  1   
 26  13  30  1   
 27  13  31  1   
 28  14  15  1   
 29  14  16  1   
 30  14  32  1   
 31  15  17  1   
 32  15  33  1   
 33  16  18  1   
 34  16  34  1   
 35  16  35  1   
 36  17  18  1   
 37  17  36  1   
 38  17  37  1   
 39  18  19  1   
 40  18  38  1   
 41  19  39  1   
@<TRIPOS>SUBSTRUCTURE
  1 ****  10 GROUP 4 **** **** 0

# MOE 2024.06 (io_trps.svl 2023.06)
