@<TRIPOS>MOLECULE
NONAME
52 55 1 0 0 
SMALL
USER_CHARGES


@<TRIPOS>ATOM
  1 O       -0.8590     0.4920     2.3680 O.2   1 <1>  -0.5700 
  2 C       -1.5090     1.1160     1.5510 C.2   1 <1>   0.7160 
  3 N       -2.4930     0.4630     0.8500 N.am  1 <1>  -0.6600 
  4 C       -1.2490     2.5110     1.3060 C.2   1 <1>  -0.0860 
  5 C       -3.2150     1.0430    -0.3130 C.3   1 <1>   0.1400 
  6 C       -2.6620    -1.0090     0.8850 C.3   1 <1>   0.1400 
  7 C       -0.2460     3.1560     0.6400 C.2   1 <1>  -0.3320 
  8 C       -2.0730     3.5500     1.7410 C.2   1 <1>   0.1390 
  9 C       -4.1350    -0.0800    -0.7890 C.3   1 <1>   0.2000 
 10 C       -3.3650    -1.3570    -0.4320 C.3   1 <1>  -0.0800 
 11 N       -0.5100     4.4720     0.7120 N.pl3 1 <1>   0.3000 
 12 C        0.9810     2.6030    -0.0740 C.3   1 <1>   0.1000 
 13 N       -1.6480     4.7190     1.3830 N.2   1 <1>  -0.7070 
 14 O       -5.3060    -0.0230    -0.0490 O.3   1 <1>  -0.6800 
 15 C       -4.2200    -2.6360    -0.3630 C.3   1 <1>   0.0200 
 16 C        0.5940     1.5390    -1.1130 C.3   1 <1>  -0.1600 
 17 C        1.9850     2.0370     0.9400 C.3   1 <1>  -0.1600 
 18 C       -3.3930    -3.8920    -0.1400 C.2   1 <1>  -0.0400 
 19 C        1.8330     0.9740    -1.8210 C.3   1 <1>  -0.1600 
 20 C        3.2260     1.4640     0.2410 C.3   1 <1>  -0.1600 
 21 O       -4.0150    -5.0180     0.0860 O.3   1 <1>  -0.0190 
 22 C       -2.0740    -4.1440    -0.1200 C.2   1 <1>  -0.1500 
 23 C        2.8370     0.4110    -0.8050 C.3   1 <1>  -0.1600 
 24 N       -3.1860    -6.0070     0.2600 N.2   1 <1>  -0.4100 
 25 C       -2.0080    -5.5090     0.1410 C.2   1 <1>   0.1080 
 26 C       -0.7310    -6.3080     0.2710 C.3   1 <1>  -0.0590 
 27 H       -3.7680     1.9260    -0.0420 H     1 <1>   0.0800 
 28 H       -2.5030     1.2870    -1.0820 H     1 <1>   0.0800 
 29 H       -1.7090    -1.5030     0.9720 H     1 <1>   0.0800 
 30 H       -3.2740    -1.2710     1.7320 H     1 <1>   0.0800 
 31 H       -2.9710     3.3980     2.3160 H     1 <1>   0.1500 
 32 H       -4.3860    -0.0080    -1.8340 H     1 <1>   0.0800 
 33 H       -2.6070    -1.4960    -1.1820 H     1 <1>   0.0800 
 34 H        0.0620     5.2300     0.3180 H     1 <1>   0.2700 
 35 H        1.4630     3.4100    -0.6000 H     1 <1>   0.0800 
 36 H       -5.0820     0.0800     0.8970 H     1 <1>   0.4000 
 37 H       -4.7690    -2.7490    -1.2810 H     1 <1>   0.0800 
 38 H       -4.9370    -2.5570     0.4360 H     1 <1>   0.0800 
 39 H        0.0790     0.7300    -0.6270 H     1 <1>   0.0800 
 40 H       -0.0720     1.9710    -1.8390 H     1 <1>   0.0800 
 41 H        2.2810     2.8120     1.6250 H     1 <1>   0.0800 
 42 H        1.5150     1.2580     1.5140 H     1 <1>   0.0800 
 43 H        1.5370     0.1950    -2.5020 H     1 <1>   0.0800 
 44 H        2.3060     1.7520    -2.3950 H     1 <1>   0.0800 
 45 H        3.7680     2.2610    -0.2390 H     1 <1>   0.0800 
 46 H        3.8770     1.0200     0.9740 H     1 <1>   0.0800 
 47 H       -1.2340    -3.4910    -0.2660 H     1 <1>   0.1500 
 48 H        3.7190     0.0700    -1.3190 H     1 <1>   0.0800 
 49 H        2.4000    -0.4370    -0.3050 H     1 <1>   0.0800 
 50 H       -0.1380    -5.9200     1.0790 H     1 <1>   0.0800 
 51 H       -0.1690    -6.2500    -0.6430 H     1 <1>   0.0800 
 52 H       -0.9610    -7.3390     0.4730 H     1 <1>   0.0800 
@<TRIPOS>BOND
  1   1   2  2   
  2   2   3  am  
  3   2   4  1   
  4   3   5  1   
  5   3   6  1   
  6   4   7  2   
  7   4   8  1   
  8   5   9  1   
  9   5  27  1   
 10   5  28  1   
 11   6  10  1   
 12   6  29  1   
 13   6  30  1   
 14   7  11  1   
 15   7  12  1   
 16   8  13  2   
 17   8  31  1   
 18   9  10  1   
 19   9  14  1   
 20   9  32  1   
 21  10  15  1   
 22  10  33  1   
 23  11  13  1   
 24  11  34  1   
 25  12  16  1   
 26  12  17  1   
 27  12  35  1   
 28  14  36  1   
 29  15  18  1   
 30  15  37  1   
 31  15  38  1   
 32  16  19  1   
 33  16  39  1   
 34  16  40  1   
 35  17  20  1   
 36  17  41  1   
 37  17  42  1   
 38  18  21  1   
 39  18  22  2   
 40  19  23  1   
 41  19  43  1   
 42  19  44  1   
 43  20  23  1   
 44  20  45  1   
 45  20  46  1   
 46  21  24  1   
 47  22  25  1   
 48  22  47  1   
 49  23  48  1   
 50  23  49  1   
 51  24  25  2   
 52  25  26  1   
 53  26  50  1   
 54  26  51  1   
 55  26  52  1   
@<TRIPOS>SUBSTRUCTURE
  1 ****   3 GROUP 4 **** **** 0

# MOE 2024.06 (io_trps.svl 2023.06)
