@<TRIPOS>MOLECULE
NONAME
52 55 1 0 0 
SMALL
USER_CHARGES


@<TRIPOS>ATOM
  1 O       -0.8080    -1.6160    -2.0430 O.2   1 <1>  -0.5700 
  2 C       -0.7450    -2.3550    -1.0720 C.2   1 <1>   0.5440 
  3 N       -1.6660    -2.1350    -0.0510 N.am  1 <1>  -0.6600 
  4 C        0.2770    -3.4140    -1.0580 C.ar  1 <1>   0.3960 
  5 C       -2.8440    -1.2420    -0.2370 C.3   1 <1>   0.0600 
  6 C       -1.5360    -2.6840     1.3260 C.3   1 <1>   0.0600 
  7 N        0.0660    -4.5470    -0.3650 N.ar  1 <1>  -0.6200 
  8 C        1.4460    -3.2380    -1.8030 C.ar  1 <1>  -0.1500 
  9 C        0.9790    -5.4880    -0.4440 C.ar  1 <1>   0.4100 
 10 C        2.4100    -4.2230    -1.8670 C.ar  1 <1>  -0.1500 
 11 N        0.6780    -6.6210     0.2500 N.pl3 1 <1>  -0.8690 
 12 C        2.1570    -5.3770    -1.1680 C.ar  1 <1>  -0.1500 
 13 C       -0.1910    -7.6000    -0.4440 C.3   1 <1>   0.2890 
 14 C       -1.5070    -7.8010     0.2890 C.3   1 <1>  -0.0800 
 15 C        0.3920    -9.0080    -0.4650 C.3   1 <1>   0.1200 
 16 C       -1.8910    -9.2030    -0.1790 C.3   1 <1>   0.1200 
 17 C       -2.5410    -6.7060    -0.0390 C.3   1 <1>  -0.0170 
 18 O       -0.6910    -9.8910    -0.3640 O.3   1 <1>  -0.5600 
 19 C       -3.8660    -6.7280     0.7270 C.ar  1 <1>  -0.1430 
 20 C       -4.8420    -5.7410     0.4410 C.ar  1 <1>   0.0000 
 21 C       -4.1710    -7.6400     1.6970 C.ar  1 <1>  -0.1500 
 22 C       -6.0650    -5.7900     1.1530 C.ar  1 <1>   0.3100 
 23 C       -4.6710    -4.7000    -0.5050 C.ar  1 <1>  -0.1500 
 24 C       -5.4110    -7.5960     2.3470 C.ar  1 <1>   0.1600 
 25 N       -6.3340    -6.7220     2.1000 N.ar  1 <1>  -0.6200 
 26 C       -7.0530    -4.8300     0.8790 C.ar  1 <1>  -0.1500 
 27 C       -5.6540    -3.7790    -0.7470 C.ar  1 <1>  -0.1500 
 28 C       -6.8620    -3.8430    -0.0490 C.ar  1 <1>  -0.1500 
 29 H       -3.7150    -1.6880     0.2100 H     1 <1>   0.0800 
 30 H       -3.0410    -1.0820    -1.2830 H     1 <1>   0.0800 
 31 H       -2.6530    -0.2910     0.2290 H     1 <1>   0.0800 
 32 H       -1.8940    -1.9680     2.0450 H     1 <1>   0.0800 
 33 H       -0.5060    -2.9000     1.5520 H     1 <1>   0.0800 
 34 H       -2.1150    -3.5870     1.4110 H     1 <1>   0.0800 
 35 H        1.5890    -2.3180    -2.3420 H     1 <1>   0.1500 
 36 H        3.3130    -4.0920    -2.4390 H     1 <1>   0.1500 
 37 H        0.2330    -6.3590     1.1320 H     1 <1>   0.4000 
 38 H        2.8510    -6.1960    -1.1660 H     1 <1>   0.1500 
 39 H       -0.3710    -7.2880    -1.4610 H     1 <1>   0.0800 
 40 H       -1.3200    -7.8340     1.3480 H     1 <1>   0.0800 
 41 H        1.0300    -9.1740     0.3850 H     1 <1>   0.0800 
 42 H        0.9210    -9.2090    -1.3790 H     1 <1>   0.0800 
 43 H       -2.3980    -9.1720    -1.1280 H     1 <1>   0.0800 
 44 H       -2.4900    -9.7380     0.5350 H     1 <1>   0.0800 
 45 H       -2.7510    -6.7380    -1.0940 H     1 <1>   0.0800 
 46 H       -2.0920    -5.7550     0.1690 H     1 <1>   0.0800 
 47 H       -3.4940    -8.4120     2.0050 H     1 <1>   0.1500 
 48 H       -3.7490    -4.6190    -1.0500 H     1 <1>   0.1500 
 49 H       -5.6100    -8.3380     3.1010 H     1 <1>   0.1500 
 50 H       -7.9730    -4.8980     1.4300 H     1 <1>   0.1500 
 51 H       -5.5080    -2.9980    -1.4740 H     1 <1>   0.1500 
 52 H       -7.6290    -3.1140    -0.2500 H     1 <1>   0.1500 
@<TRIPOS>BOND
  1   1   2  2   
  2   2   3  am  
  3   2   4  1   
  4   3   5  1   
  5   3   6  1   
  6   4   7  ar  
  7   4   8  ar  
  8   5  29  1   
  9   5  30  1   
 10   5  31  1   
 11   6  32  1   
 12   6  33  1   
 13   6  34  1   
 14   7   9  ar  
 15   8  10  ar  
 16   8  35  1   
 17   9  11  1   
 18   9  12  ar  
 19  10  12  ar  
 20  10  36  1   
 21  11  13  1   
 22  11  37  1   
 23  12  38  1   
 24  13  14  1   
 25  13  15  1   
 26  13  39  1   
 27  14  16  1   
 28  14  17  1   
 29  14  40  1   
 30  15  18  1   
 31  15  41  1   
 32  15  42  1   
 33  16  18  1   
 34  16  43  1   
 35  16  44  1   
 36  17  19  1   
 37  17  45  1   
 38  17  46  1   
 39  19  20  ar  
 40  19  21  ar  
 41  20  22  ar  
 42  20  23  ar  
 43  21  24  ar  
 44  21  47  1   
 45  22  25  ar  
 46  22  26  ar  
 47  23  27  ar  
 48  23  48  1   
 49  24  25  ar  
 50  24  49  1   
 51  26  28  ar  
 52  26  50  1   
 53  27  28  ar  
 54  27  51  1   
 55  28  52  1   
@<TRIPOS>SUBSTRUCTURE
  1 ****  17 GROUP 4 **** **** 0

# MOE 2024.06 (io_trps.svl 2023.06)
