@<TRIPOS>MOLECULE
NONAME
57 60 1 0 0 
SMALL
USER_CHARGES


@<TRIPOS>ATOM
  1 S       -0.4090    -0.3730    -0.5890 S.3   1 <1>  -0.0800 
  2 C        0.1740     1.1590     0.0390 C.2   1 <1>  -0.1400 
  3 C       -2.0840     0.1390    -0.4720 C.2   1 <1>  -0.1400 
  4 C       -0.8660     1.9700     0.3080 C.2   1 <1>  -0.1500 
  5 C        1.6820     1.3160     0.1800 C.3   1 <1>   0.1000 
  6 C       -2.1440     1.3960     0.0190 C.2   1 <1>  -0.1500 
  7 C       -3.0780    -0.9160    -0.9360 C.3   1 <1>   0.5230 
  8 C        2.1180     2.6560     0.7660 C.3   1 <1>  -0.1600 
  9 C        2.4150     1.2640    -1.1590 C.3   1 <1>  -0.1600 
 10 N       -4.5060    -0.4850    -0.8450 N.4   1 <1>  -0.9590 
 11 C        3.5880     2.7900     0.3670 C.3   1 <1>  -0.1600 
 12 C        3.7460     1.9900    -0.9310 C.3   1 <1>  -0.1600 
 13 C       -4.7740     0.6850    -1.7340 C.3   1 <1>   0.3430 
 14 C       -4.9000    -0.2190     0.5700 C.3   1 <1>   0.3430 
 15 C       -6.2510     1.0550    -1.6820 C.3   1 <1>  -0.1600 
 16 C       -6.3790     0.1420     0.6390 C.3   1 <1>  -0.1600 
 17 C       -6.7000     1.3570    -0.2430 C.3   1 <1>   0.2800 
 18 O       -5.8580     2.3940     0.2090 O.3   1 <1>  -0.5600 
 19 C       -8.2130     1.7130    -0.1310 C.3   1 <1>   0.2000 
 20 C       -6.4280     3.6030     0.6320 C.3   1 <1>   0.1200 
 21 O       -9.0040     0.7320    -0.7380 O.3   1 <1>  -0.6800 
 22 C       -8.5700     3.1470    -0.6310 C.3   1 <1>   0.2800 
 23 C       -7.3870     4.1110    -0.4470 C.3   1 <1>  -0.1600 
 24 O       -9.5920     3.5950     0.1820 O.3   1 <1>  -0.6800 
 25 C       -9.1260     3.2390    -2.0600 C.3   1 <1>  -0.2400 
 26 H       -0.7920     2.9670     0.7070 H     1 <1>   0.1500 
 27 H        2.0600     0.5290     0.8120 H     1 <1>   0.0800 
 28 H       -3.0260     1.9840     0.2060 H     1 <1>   0.1500 
 29 H       -2.9340    -1.8020    -0.3400 H     1 <1>   0.0800 
 30 H       -2.8470    -1.1720    -1.9580 H     1 <1>   0.0800 
 31 H        1.5600     3.4530     0.3050 H     1 <1>   0.0800 
 32 H        1.9810     2.6940     1.8320 H     1 <1>   0.0800 
 33 H        2.5600     0.2520    -1.4930 H     1 <1>   0.0800 
 34 H        1.8420     1.7980    -1.8970 H     1 <1>   0.0800 
 35 H       -5.0890    -1.2600    -1.1810 H     1 <1>   0.4500 
 36 H        3.8670     3.8220     0.2360 H     1 <1>   0.0800 
 37 H        4.2100     2.3560     1.1320 H     1 <1>   0.0800 
 38 H        4.5480     1.2780    -0.8270 H     1 <1>   0.0800 
 39 H        3.9650     2.6390    -1.7610 H     1 <1>   0.0800 
 40 H       -4.1930     1.5340    -1.4140 H     1 <1>   0.0800 
 41 H       -4.4950     0.4520    -2.7490 H     1 <1>   0.0800 
 42 H       -4.7120    -1.0890     1.1790 H     1 <1>   0.0800 
 43 H       -4.3250     0.6000     0.9690 H     1 <1>   0.0800 
 44 H       -6.8360     0.2550    -2.0990 H     1 <1>   0.0800 
 45 H       -6.4070     1.9190    -2.2990 H     1 <1>   0.0800 
 46 H       -6.6380     0.3640     1.6590 H     1 <1>   0.0800 
 47 H       -6.9710    -0.7030     0.3370 H     1 <1>   0.0800 
 48 H       -8.4560     1.6740     0.9170 H     1 <1>   0.0800 
 49 H       -6.9380     3.4430     1.5680 H     1 <1>   0.0800 
 50 H       -5.6290     4.3060     0.7880 H     1 <1>   0.0800 
 51 H       -9.9460     0.9730    -0.6130 H     1 <1>   0.4000 
 52 H       -6.8280     4.1960    -1.3620 H     1 <1>   0.0800 
 53 H       -7.7340     5.0970    -0.1950 H     1 <1>   0.0800 
 54 H       -9.9290     4.4490    -0.1500 H     1 <1>   0.4000 
 55 H       -8.4270     2.8330    -2.7650 H     1 <1>   0.0800 
 56 H       -9.3110     4.2630    -2.3300 H     1 <1>   0.0800 
 57 H      -10.0450     2.6870    -2.1510 H     1 <1>   0.0800 
@<TRIPOS>BOND
  1   1   2  1   
  2   1   3  1   
  3   2   4  2   
  4   2   5  1   
  5   3   6  2   
  6   3   7  1   
  7   4   6  1   
  8   4  26  1   
  9   5   8  1   
 10   5   9  1   
 11   5  27  1   
 12   6  28  1   
 13   7  10  1   
 14   7  29  1   
 15   7  30  1   
 16   8  11  1   
 17   8  31  1   
 18   8  32  1   
 19   9  12  1   
 20   9  33  1   
 21   9  34  1   
 22  10  13  1   
 23  10  14  1   
 24  10  35  1   
 25  11  12  1   
 26  11  36  1   
 27  11  37  1   
 28  12  38  1   
 29  12  39  1   
 30  13  15  1   
 31  13  40  1   
 32  13  41  1   
 33  14  16  1   
 34  14  42  1   
 35  14  43  1   
 36  15  17  1   
 37  15  44  1   
 38  15  45  1   
 39  16  17  1   
 40  16  46  1   
 41  16  47  1   
 42  17  18  1   
 43  17  19  1   
 44  18  20  1   
 45  19  21  1   
 46  19  22  1   
 47  19  48  1   
 48  20  23  1   
 49  20  49  1   
 50  20  50  1   
 51  21  51  1   
 52  22  23  1   
 53  22  24  1   
 54  22  25  1   
 55  23  52  1   
 56  23  53  1   
 57  24  54  1   
 58  25  55  1   
 59  25  56  1   
 60  25  57  1   
@<TRIPOS>SUBSTRUCTURE
  1 ****   6 GROUP 4 **** **** 0

# MOE 2024.06 (io_trps.svl 2023.06)
