@<TRIPOS>MOLECULE
NONAME
49 51 1 0 0 
SMALL
USER_CHARGES


@<TRIPOS>ATOM
  1 S       -0.1510    -0.5460     1.2610 S.3   1 <1>  -0.2860 
  2 C        0.9160     0.6650     0.4950 C.2   1 <1>   0.5340 
  3 C       -1.7750     0.3250     1.3720 C.3   1 <1>   0.0700 
  4 O        2.1560     0.3430     0.3060 O.3   1 <1>  -0.2800 
  5 N        0.5530     1.8230     0.1120 N.2   1 <1>  -0.3380 
  6 C       -2.8320    -0.6840     1.8160 C.3   1 <1>  -0.0990 
  7 C        2.5730     1.4550    -0.2580 C.2   1 <1>   0.4250 
  8 N        1.6480     2.3510    -0.3880 N.2   1 <1>  -0.3380 
  9 C       -4.1990    -0.0320     1.8290 C.2   1 <1>   0.5690 
 10 C        3.9550     1.5780    -0.6650 C.ar  1 <1>   0.0530 
 11 O       -4.5450     0.4820     2.8650 O.2   1 <1>  -0.5700 
 12 N       -4.9890    -0.0130     0.7090 N.am  1 <1>  -0.6600 
 13 C        4.8910     0.5660    -0.4900 C.ar  1 <1>  -0.1500 
 14 C        4.4540     2.7270    -1.2660 C.ar  1 <1>  -0.1500 
 15 C       -6.3800     0.5240     0.7940 C.3   1 <1>   0.3210 
 16 C       -4.5900    -0.5200    -0.6390 C.3   1 <1>   0.0600 
 17 C        6.1990     0.7420    -0.9000 C.ar  1 <1>   0.1600 
 18 C        5.7810     2.8050    -1.6400 C.ar  1 <1>   0.1600 
 19 C       -7.3630    -0.4360     0.1450 C.2   1 <1>  -0.1810 
 20 N        6.6670     1.8380    -1.4710 N.ar  1 <1>  -0.6200 
 21 C       -8.0980    -0.2400    -1.0210 C.2   1 <1>   0.1080 
 22 C       -7.7150    -1.6710     0.5620 C.2   1 <1>  -0.3020 
 23 N       -8.8370    -1.2640    -1.3090 N.2   1 <1>  -0.7070 
 24 C       -8.0800     0.9990    -1.8870 C.3   1 <1>  -0.0590 
 25 N       -8.6020    -2.1530    -0.3280 N.pl3 1 <1>   0.3140 
 26 C       -9.2670    -3.4700    -0.2880 C.3   1 <1>   0.0960 
 27 C       -8.3260    -4.5800    -0.7710 C.3   1 <1>  -0.2400 
 28 H       -1.9910     0.7280     0.3990 H     1 <1>   0.0800 
 29 H       -1.6680     1.1250     2.0840 H     1 <1>   0.0800 
 30 H       -2.6030    -1.0200     2.8110 H     1 <1>   0.0800 
 31 H       -2.8350    -1.5430     1.1730 H     1 <1>   0.0800 
 32 H        4.6050    -0.3640    -0.0340 H     1 <1>   0.1500 
 33 H        3.8040     3.5660    -1.4430 H     1 <1>   0.1500 
 34 H       -6.4160     1.4820     0.3060 H     1 <1>   0.0800 
 35 H       -6.6710     0.6660     1.8200 H     1 <1>   0.0800 
 36 H       -3.5220    -0.5800    -0.7400 H     1 <1>   0.0800 
 37 H       -4.9610     0.1410    -1.4020 H     1 <1>   0.0800 
 38 H       -5.0120    -1.4980    -0.7970 H     1 <1>   0.0800 
 39 H        6.9010    -0.0620    -0.7510 H     1 <1>   0.1500 
 40 H        6.1360     3.7100    -2.1040 H     1 <1>   0.1500 
 41 H       -7.3840    -2.2200     1.4240 H     1 <1>   0.1500 
 42 H       -7.0730     1.2410    -2.1660 H     1 <1>   0.0800 
 43 H       -8.5130     1.8220    -1.3500 H     1 <1>   0.0800 
 44 H       -8.6560     0.8270    -2.7780 H     1 <1>   0.0800 
 45 H      -10.1370    -3.4240    -0.9180 H     1 <1>   0.0800 
 46 H       -9.5840    -3.6600     0.7210 H     1 <1>   0.0800 
 47 H       -8.0160    -4.3830    -1.7820 H     1 <1>   0.0800 
 48 H       -8.8350    -5.5270    -0.7470 H     1 <1>   0.0800 
 49 H       -7.4590    -4.6400    -0.1370 H     1 <1>   0.0800 
@<TRIPOS>BOND
  1   1   2  1   
  2   1   3  1   
  3   2   4  1   
  4   2   5  2   
  5   3   6  1   
  6   3  28  1   
  7   3  29  1   
  8   4   7  1   
  9   5   8  1   
 10   6   9  1   
 11   6  30  1   
 12   6  31  1   
 13   7   8  2   
 14   7  10  1   
 15   9  11  2   
 16   9  12  am  
 17  10  13  ar  
 18  10  14  ar  
 19  12  15  1   
 20  12  16  1   
 21  13  17  ar  
 22  13  32  1   
 23  14  18  ar  
 24  14  33  1   
 25  15  19  1   
 26  15  34  1   
 27  15  35  1   
 28  16  36  1   
 29  16  37  1   
 30  16  38  1   
 31  17  20  ar  
 32  17  39  1   
 33  18  20  ar  
 34  18  40  1   
 35  19  21  1   
 36  19  22  2   
 37  21  23  2   
 38  21  24  1   
 39  22  25  1   
 40  22  41  1   
 41  23  25  1   
 42  24  42  1   
 43  24  43  1   
 44  24  44  1   
 45  25  26  1   
 46  26  27  1   
 47  26  45  1   
 48  26  46  1   
 49  27  47  1   
 50  27  48  1   
 51  27  49  1   
@<TRIPOS>SUBSTRUCTURE
  1 ****   3 GROUP 4 **** **** 0

# MOE 2024.06 (io_trps.svl 2023.06)
