@<TRIPOS>MOLECULE
NONAME
48 50 1 0 0 
SMALL
USER_CHARGES


@<TRIPOS>ATOM
  1 O       -1.3080     0.1370    -1.9210 O.2   1 <1>  -0.5700 
  2 C       -1.2200     0.2140    -0.7110 C.2   1 <1>   0.7160 
  3 N       -1.4440    -0.9140     0.0200 N.am  1 <1>  -0.7300 
  4 C       -0.9210     1.4570    -0.0410 C.2   1 <1>  -0.0860 
  5 C       -1.8670    -2.2260    -0.5200 C.3   1 <1>   0.2200 
  6 C       -0.3450     2.6230    -0.4640 C.2   1 <1>  -0.3320 
  7 C       -1.2130     1.7220     1.3000 C.2   1 <1>   0.1390 
  8 C       -3.3550    -2.4570    -0.2890 C.3   1 <1>  -0.0800 
  9 C       -1.2780    -3.3240     0.3540 C.3   1 <1>   0.1200 
 10 N       -0.3270     3.4720     0.5830 N.pl3 1 <1>   0.3140 
 11 C        0.1960     2.9690    -1.8460 C.3   1 <1>  -0.0600 
 12 N       -0.8650     2.9080     1.6770 N.2   1 <1>  -0.7070 
 13 C       -3.4020    -2.9930     1.1470 C.3   1 <1>   0.1200 
 14 C       -4.2760    -1.2490    -0.5460 C.3   1 <1>  -0.0170 
 15 O       -2.0940    -3.3570     1.4850 O.3   1 <1>  -0.5600 
 16 C        0.1870     4.8580     0.6250 C.3   1 <1>   0.0960 
 17 C       -5.7330    -1.6140    -0.3160 C.ar  1 <1>  -0.1430 
 18 C       -0.9090     5.8610     0.2360 C.3   1 <1>  -0.1600 
 19 C       -6.4650    -2.3140    -1.2530 C.ar  1 <1>  -0.1500 
 20 C       -6.4000    -1.2650     0.8410 C.ar  1 <1>  -0.1500 
 21 C       -0.3830     7.3010     0.2630 C.3   1 <1>  -0.2400 
 22 C       -7.7890    -2.6280    -0.9930 C.ar  1 <1>   0.1600 
 23 C       -7.7270    -1.6280     1.0030 C.ar  1 <1>   0.1600 
 24 N       -8.4360    -2.3040     0.1140 N.ar  1 <1>  -0.6200 
 25 H       -1.3220    -0.9000     1.0330 H     1 <1>   0.3700 
 26 H       -1.5830    -2.3270    -1.5540 H     1 <1>   0.0800 
 27 H       -1.6880     1.0230     1.9660 H     1 <1>   0.1500 
 28 H       -3.6670    -3.2570    -0.9370 H     1 <1>   0.0800 
 29 H       -0.2600    -3.1300     0.6430 H     1 <1>   0.0800 
 30 H       -1.3470    -4.2810    -0.1330 H     1 <1>   0.0800 
 31 H        0.1150     2.1310    -2.5140 H     1 <1>   0.0800 
 32 H        1.2330     3.2440    -1.7820 H     1 <1>   0.0800 
 33 H       -0.3590     3.7880    -2.2680 H     1 <1>   0.0800 
 34 H       -4.0390    -3.8570     1.2300 H     1 <1>   0.0800 
 35 H       -3.7200    -2.2390     1.8450 H     1 <1>   0.0800 
 36 H       -4.1480    -0.9110    -1.5610 H     1 <1>   0.0800 
 37 H       -4.0150    -0.4290     0.1000 H     1 <1>   0.0800 
 38 H        0.5280     5.0560     1.6240 H     1 <1>   0.0800 
 39 H        1.0240     4.9380    -0.0430 H     1 <1>   0.0800 
 40 H       -1.2720     5.6350    -0.7510 H     1 <1>   0.0800 
 41 H       -1.7290     5.7700     0.9290 H     1 <1>   0.0800 
 42 H       -6.0190    -2.6170    -2.1830 H     1 <1>   0.1500 
 43 H       -5.9040    -0.7140     1.6190 H     1 <1>   0.1500 
 44 H        0.4270     7.4220    -0.4350 H     1 <1>   0.0800 
 45 H       -0.0350     7.5560     1.2490 H     1 <1>   0.0800 
 46 H       -1.1710     7.9840    -0.0060 H     1 <1>   0.0800 
 47 H       -8.3440    -3.1750    -1.7360 H     1 <1>   0.1500 
 48 H       -8.2310    -1.3470     1.9120 H     1 <1>   0.1500 
@<TRIPOS>BOND
  1   1   2  2   
  2   2   3  am  
  3   2   4  1   
  4   3   5  1   
  5   3  25  1   
  6   4   6  2   
  7   4   7  1   
  8   5   8  1   
  9   5   9  1   
 10   5  26  1   
 11   6  10  1   
 12   6  11  1   
 13   7  12  2   
 14   7  27  1   
 15   8  13  1   
 16   8  14  1   
 17   8  28  1   
 18   9  15  1   
 19   9  29  1   
 20   9  30  1   
 21  10  12  1   
 22  10  16  1   
 23  11  31  1   
 24  11  32  1   
 25  11  33  1   
 26  13  15  1   
 27  13  34  1   
 28  13  35  1   
 29  14  17  1   
 30  14  36  1   
 31  14  37  1   
 32  16  18  1   
 33  16  38  1   
 34  16  39  1   
 35  17  19  ar  
 36  17  20  ar  
 37  18  21  1   
 38  18  40  1   
 39  18  41  1   
 40  19  22  ar  
 41  19  42  1   
 42  20  23  ar  
 43  20  43  1   
 44  21  44  1   
 45  21  45  1   
 46  21  46  1   
 47  22  24  ar  
 48  22  47  1   
 49  23  24  ar  
 50  23  48  1   
@<TRIPOS>SUBSTRUCTURE
  1 ****   2 GROUP 4 **** **** 0

# MOE 2024.06 (io_trps.svl 2023.06)
