@<TRIPOS>MOLECULE
NONAME
45 47 1 0 0 
SMALL
USER_CHARGES


@<TRIPOS>ATOM
  1 S       -0.0230    -0.9690     1.1570 S.o2  1 <1>   1.3330 
  2 O       -0.8520    -0.3830     2.1810 O.2   1 <1>  -0.6500 
  3 O        0.3360    -2.3640     1.2300 O.2   1 <1>  -0.6500 
  4 N       -0.8900    -0.6830    -0.2520 N.am  1 <1>  -0.9140 
  5 C        1.4720     0.0040     0.9420 C.3   1 <1>  -0.0550 
  6 C       -1.6670    -1.7720    -0.8600 C.3   1 <1>   0.2760 
  7 C        1.2320     1.5110     0.7350 C.3   1 <1>  -0.1600 
  8 C       -2.5890    -2.5450     0.0950 C.3   1 <1>  -0.0800 
  9 C       -0.8270    -2.8550    -1.5450 C.3   1 <1>   0.1200 
 10 C        2.5560     2.2670     0.5920 C.3   1 <1>  -0.2400 
 11 C       -2.1190    -3.9930    -0.0880 C.3   1 <1>   0.1200 
 12 C       -4.0720    -2.3800    -0.3000 C.3   1 <1>  -0.0160 
 13 O       -1.5360    -4.0350    -1.3490 O.3   1 <1>  -0.5600 
 14 C       -5.0990    -3.0860     0.5960 C.ar  1 <1>  -0.1440 
 15 C       -6.4460    -3.2040     0.1710 C.ar  1 <1>   0.0000 
 16 C       -4.7890    -3.6160     1.8180 C.ar  1 <1>  -0.1500 
 17 C       -7.3560    -3.8790     1.0220 C.ar  1 <1>   0.3100 
 18 C       -6.9480    -2.6870    -1.0470 C.ar  1 <1>  -0.1500 
 19 C       -5.7690    -4.2570     2.5860 C.ar  1 <1>   0.1600 
 20 N       -7.0030    -4.3990     2.2230 N.ar  1 <1>  -0.6200 
 21 C       -8.6930    -4.0210     0.6180 C.ar  1 <1>  -0.1500 
 22 C       -8.2580    -2.8390    -1.4110 C.ar  1 <1>  -0.1500 
 23 C       -9.1450    -3.5170    -0.5710 C.ar  1 <1>  -0.1500 
 24 H       -1.5600     0.0250     0.0460 H     1 <1>   0.4200 
 25 H        2.0900    -0.1280     1.8090 H     1 <1>   0.0800 
 26 H        2.0150    -0.3800     0.1000 H     1 <1>   0.0800 
 27 H       -2.2650    -1.3300    -1.6380 H     1 <1>   0.0800 
 28 H        0.6400     1.6650    -0.1510 H     1 <1>   0.0800 
 29 H        0.6860     1.9050     1.5760 H     1 <1>   0.0800 
 30 H       -2.4600    -2.2410     1.1150 H     1 <1>   0.0800 
 31 H        0.1430    -2.9740    -1.1000 H     1 <1>   0.0800 
 32 H       -0.7320    -2.6830    -2.6020 H     1 <1>   0.0800 
 33 H        3.1110     1.9040    -0.2550 H     1 <1>   0.0800 
 34 H        3.1570     2.1500     1.4770 H     1 <1>   0.0800 
 35 H        2.3660     3.3170     0.4490 H     1 <1>   0.0800 
 36 H       -2.9190    -4.7120    -0.0470 H     1 <1>   0.0800 
 37 H       -1.3620    -4.2480     0.6350 H     1 <1>   0.0800 
 38 H       -4.1800    -2.7550    -1.3030 H     1 <1>   0.0800 
 39 H       -4.3130    -1.3310    -0.3110 H     1 <1>   0.0800 
 40 H       -3.8040    -3.5690     2.2420 H     1 <1>   0.1500 
 41 H       -6.2910    -2.1570    -1.7100 H     1 <1>   0.1500 
 42 H       -5.4740    -4.6590     3.5400 H     1 <1>   0.1500 
 43 H       -9.3570    -4.5440     1.2820 H     1 <1>   0.1500 
 44 H       -8.6230    -2.4420    -2.3430 H     1 <1>   0.1500 
 45 H      -10.1730    -3.6330    -0.8680 H     1 <1>   0.1500 
@<TRIPOS>BOND
  1   1   2  2   
  2   1   3  2   
  3   1   4  am  
  4   1   5  1   
  5   4   6  1   
  6   4  24  1   
  7   5   7  1   
  8   5  25  1   
  9   5  26  1   
 10   6   8  1   
 11   6   9  1   
 12   6  27  1   
 13   7  10  1   
 14   7  28  1   
 15   7  29  1   
 16   8  11  1   
 17   8  12  1   
 18   8  30  1   
 19   9  13  1   
 20   9  31  1   
 21   9  32  1   
 22  10  33  1   
 23  10  34  1   
 24  10  35  1   
 25  11  13  1   
 26  11  36  1   
 27  11  37  1   
 28  12  14  1   
 29  12  38  1   
 30  12  39  1   
 31  14  15  ar  
 32  14  16  ar  
 33  15  17  ar  
 34  15  18  ar  
 35  16  19  ar  
 36  16  40  1   
 37  17  20  ar  
 38  17  21  ar  
 39  18  22  ar  
 40  18  41  1   
 41  19  20  ar  
 42  19  42  1   
 43  21  23  ar  
 44  21  43  1   
 45  22  23  ar  
 46  22  44  1   
 47  23  45  1   
@<TRIPOS>SUBSTRUCTURE
  1 ****   8 GROUP 4 **** **** 0

# MOE 2024.06 (io_trps.svl 2023.06)
