@<TRIPOS>MOLECULE
NONAME
54 56 1 0 0 
SMALL
USER_CHARGES


@<TRIPOS>ATOM
  1 S       -0.2080     1.4080    -0.8020 S.o2  1 <1>   1.2040 
  2 O       -0.9830     2.1930     0.1320 O.2   1 <1>  -0.6500 
  3 O       -0.5100     1.4580    -2.2150 O.2   1 <1>  -0.6500 
  4 C        1.5520     1.7450    -0.5520 C.ar  1 <1>  -0.0090 
  5 C       -0.3370    -0.2960    -0.2950 C.3   1 <1>  -0.1350 
  6 C        2.0370     2.1610     0.6800 C.ar  1 <1>  -0.1500 
  7 C        2.4730     1.5740    -1.5760 C.ar  1 <1>  -0.1500 
  8 C        3.3870     2.3920     0.8800 C.ar  1 <1>  -0.1500 
  9 C        3.8240     1.8050    -1.3830 C.ar  1 <1>  -0.1500 
 10 C        4.3090     2.2180    -0.1460 C.ar  1 <1>  -0.1430 
 11 C        5.8020     2.5110     0.1500 C.3   1 <1>   0.2040 
 12 C        5.8860     3.9680     0.6750 C.2   1 <1>   0.5690 
 13 C        6.6870     2.3840    -1.1210 C.3   1 <1>  -0.1600 
 14 C        6.2960     1.4520     1.1760 C.3   1 <1>  -0.1600 
 15 O        6.4560     4.2300     1.7100 O.2   1 <1>  -0.5700 
 16 N        5.2630     4.9410    -0.0650 N.am  1 <1>  -0.4940 
 17 C        8.1870     2.5180    -0.8220 C.3   1 <1>  -0.1600 
 18 C        7.8140     1.4680     1.4460 C.3   1 <1>  -0.1600 
 19 C        5.1760     6.3390     0.1440 C.2   1 <1>  -0.0880 
 20 C        8.6310     1.4220     0.1510 C.3   1 <1>  -0.1600 
 21 N        6.1520     7.1820     0.5940 N.pl3 1 <1>   0.3140 
 22 C        4.0840     7.1040    -0.0810 C.2   1 <1>  -0.1500 
 23 N        5.6910     8.4580     0.6660 N.2   1 <1>  -0.7070 
 24 C        7.5600     6.8430     0.9230 C.3   1 <1>   0.0960 
 25 C        4.4610     8.3940     0.2630 C.2   1 <1>   0.1390 
 26 C        8.5580     7.9270     0.4810 C.3   1 <1>  -0.1600 
 27 C       10.0040     7.4950     0.7480 C.3   1 <1>  -0.2400 
 28 H       -1.3510    -0.6320    -0.3960 H     1 <1>   0.0800 
 29 H       -0.0430    -0.4040     0.7310 H     1 <1>   0.0800 
 30 H        0.2910    -0.9160    -0.9040 H     1 <1>   0.0800 
 31 H        1.3500     2.3120     1.4960 H     1 <1>   0.1500 
 32 H        2.1260     1.2560    -2.5460 H     1 <1>   0.1500 
 33 H        3.7110     2.7180     1.8550 H     1 <1>   0.1500 
 34 H        4.4720     1.6520    -2.2260 H     1 <1>   0.1500 
 35 H        6.4050     3.1270    -1.8460 H     1 <1>   0.0800 
 36 H        6.5390     1.4150    -1.5630 H     1 <1>   0.0800 
 37 H        6.0330     0.4760     0.8070 H     1 <1>   0.0800 
 38 H        5.7840     1.5870     2.1120 H     1 <1>   0.0800 
 39 H        4.6250     4.5730    -0.7740 H     1 <1>   0.3700 
 40 H        8.4020     3.4860    -0.4010 H     1 <1>   0.0800 
 41 H        8.7470     2.4280    -1.7370 H     1 <1>   0.0800 
 42 H        8.0750     0.6250     2.0620 H     1 <1>   0.0800 
 43 H        8.0790     2.3530     1.9960 H     1 <1>   0.0800 
 44 H        9.6760     1.5450     0.3830 H     1 <1>   0.0800 
 45 H        8.5100     0.4590    -0.3130 H     1 <1>   0.0800 
 46 H        3.1160     6.8060    -0.4400 H     1 <1>   0.1500 
 47 H        7.8100     5.9240     0.4300 H     1 <1>   0.0800 
 48 H        7.6240     6.6890     1.9840 H     1 <1>   0.0800 
 49 H        3.8150     9.2540     0.2060 H     1 <1>   0.1500 
 50 H        8.3570     8.8380     1.0210 H     1 <1>   0.0800 
 51 H        8.4310     8.1200    -0.5700 H     1 <1>   0.0800 
 52 H       10.1540     7.3130     1.7980 H     1 <1>   0.0800 
 53 H       10.6820     8.2700     0.4360 H     1 <1>   0.0800 
 54 H       10.2370     6.5970     0.2020 H     1 <1>   0.0800 
@<TRIPOS>BOND
  1   1   2  2   
  2   1   3  2   
  3   1   4  1   
  4   1   5  1   
  5   4   6  ar  
  6   4   7  ar  
  7   5  28  1   
  8   5  29  1   
  9   5  30  1   
 10   6   8  ar  
 11   6  31  1   
 12   7   9  ar  
 13   7  32  1   
 14   8  10  ar  
 15   8  33  1   
 16   9  10  ar  
 17   9  34  1   
 18  10  11  1   
 19  11  12  1   
 20  11  13  1   
 21  11  14  1   
 22  12  15  2   
 23  12  16  am  
 24  13  17  1   
 25  13  35  1   
 26  13  36  1   
 27  14  18  1   
 28  14  37  1   
 29  14  38  1   
 30  16  19  1   
 31  16  39  1   
 32  17  20  1   
 33  17  40  1   
 34  17  41  1   
 35  18  20  1   
 36  18  42  1   
 37  18  43  1   
 38  19  21  1   
 39  19  22  2   
 40  20  44  1   
 41  20  45  1   
 42  21  23  1   
 43  21  24  1   
 44  22  25  1   
 45  22  46  1   
 46  23  25  2   
 47  24  26  1   
 48  24  47  1   
 49  24  48  1   
 50  25  49  1   
 51  26  27  1   
 52  26  50  1   
 53  26  51  1   
 54  27  52  1   
 55  27  53  1   
 56  27  54  1   
@<TRIPOS>SUBSTRUCTURE
  1 ****  16 GROUP 4 **** **** 0

# MOE 2024.06 (io_trps.svl 2023.06)
