@<TRIPOS>MOLECULE
NONAME
56 59 1 0 0 
SMALL
USER_CHARGES


@<TRIPOS>ATOM
  1 O        1.3300    -0.7460    -2.2380 O.2   1 <1>  -0.5700 
  2 C        1.7310    -0.9990    -1.1120 C.2   1 <1>   0.5440 
  3 N        1.1320    -2.0540    -0.4350 N.am  1 <1>  -0.6600 
  4 C        2.8310    -0.1970    -0.5660 C.ar  1 <1>   0.3960 
  5 C       -0.1380    -2.6700    -0.9140 C.3   1 <1>   0.1400 
  6 C        1.6870    -2.6570     0.8100 C.3   1 <1>   0.1400 
  7 N        2.7860     0.2610     0.7010 N.ar  1 <1>  -0.6200 
  8 C        3.9160     0.0890    -1.3960 C.ar  1 <1>  -0.1500 
  9 C        0.0550    -4.1750    -1.1160 C.3   1 <1>  -0.1600 
 10 C        1.8700    -4.1660     0.6240 C.3   1 <1>  -0.1600 
 11 C        3.8080     0.9860     1.1150 C.ar  1 <1>   0.1600 
 12 C        4.9790     0.8430    -0.9510 C.ar  1 <1>  -0.1500 
 13 C        0.5680    -4.8530     0.1670 C.3   1 <1>  -0.0190 
 14 C        4.9140     1.3010     0.3450 C.ar  1 <1>  -0.1500 
 15 C        0.7400    -6.3620    -0.0420 C.2   1 <1>   0.5690 
 16 O        1.7910    -6.7760    -0.4750 O.2   1 <1>  -0.5700 
 17 N       -0.2850    -7.2230     0.2450 N.am  1 <1>  -0.6600 
 18 C       -1.6610    -6.8720     0.6800 C.3   1 <1>   0.1400 
 19 C       -0.1560    -8.6900     0.0590 C.3   1 <1>   0.1400 
 20 C       -2.4620    -8.1620     0.5170 C.3   1 <1>   0.2000 
 21 C       -1.4380    -9.2870     0.6400 C.3   1 <1>  -0.0800 
 22 O       -3.4350    -8.2830     1.4940 O.3   1 <1>  -0.6800 
 23 C       -1.8780   -10.5880    -0.0480 C.3   1 <1>   0.0210 
 24 C       -0.7860   -11.6360     0.0260 C.2   1 <1>   0.1080 
 25 N       -0.3500   -12.1170     1.1490 N.2   1 <1>  -0.7070 
 26 C       -0.1280   -12.1820    -1.0710 C.2   1 <1>  -0.1500 
 27 N        0.6080   -12.9940     0.7930 N.pl3 1 <1>   0.3000 
 28 C        0.7620   -13.0500    -0.5470 C.2   1 <1>  -0.3320 
 29 C        1.7660   -13.9410    -1.2530 C.3   1 <1>  -0.0600 
 30 H       -0.9060    -2.4920    -0.1820 H     1 <1>   0.0800 
 31 H       -0.4580    -2.2230    -1.8400 H     1 <1>   0.0800 
 32 H        2.6400    -2.2270     1.0570 H     1 <1>   0.0800 
 33 H        1.0100    -2.4610     1.6240 H     1 <1>   0.0800 
 34 H        3.9090    -0.2890    -2.4030 H     1 <1>   0.1500 
 35 H       -0.8800    -4.6120    -1.4160 H     1 <1>   0.0800 
 36 H        0.7590    -4.3310    -1.9160 H     1 <1>   0.0800 
 37 H        2.6440    -4.3300    -0.1060 H     1 <1>   0.0800 
 38 H        2.2010    -4.6020     1.5500 H     1 <1>   0.0800 
 39 H        3.7660     1.3540     2.1270 H     1 <1>   0.1500 
 40 H        5.8190     1.0660    -1.5870 H     1 <1>   0.1500 
 41 H       -0.1560    -4.7000     0.9450 H     1 <1>   0.0800 
 42 H        5.7080     1.8970     0.7570 H     1 <1>   0.1500 
 43 H       -1.6370    -6.5680     1.7120 H     1 <1>   0.0800 
 44 H       -2.0710    -6.0910     0.0660 H     1 <1>   0.0800 
 45 H       -0.0700    -8.9010    -0.9930 H     1 <1>   0.0800 
 46 H        0.7170    -9.0660     0.5670 H     1 <1>   0.0800 
 47 H       -2.9430    -8.1700    -0.4460 H     1 <1>   0.0800 
 48 H       -1.2460    -9.4890     1.6800 H     1 <1>   0.0800 
 49 H       -3.0250    -8.4990     2.3550 H     1 <1>   0.4000 
 50 H       -2.1220   -10.3990    -1.0780 H     1 <1>   0.0800 
 51 H       -2.7570   -10.9720     0.4390 H     1 <1>   0.0800 
 52 H       -0.3090   -11.9440    -2.1040 H     1 <1>   0.1500 
 53 H        1.1370   -13.5360     1.4870 H     1 <1>   0.2700 
 54 H        1.6950   -13.8050    -2.3180 H     1 <1>   0.0800 
 55 H        1.5710   -14.9740    -1.0270 H     1 <1>   0.0800 
 56 H        2.7650   -13.6950    -0.9430 H     1 <1>   0.0800 
@<TRIPOS>BOND
  1   1   2  2   
  2   2   3  am  
  3   2   4  1   
  4   3   5  1   
  5   3   6  1   
  6   4   7  ar  
  7   4   8  ar  
  8   5   9  1   
  9   5  30  1   
 10   5  31  1   
 11   6  10  1   
 12   6  32  1   
 13   6  33  1   
 14   7  11  ar  
 15   8  12  ar  
 16   8  34  1   
 17   9  13  1   
 18   9  35  1   
 19   9  36  1   
 20  10  13  1   
 21  10  37  1   
 22  10  38  1   
 23  11  14  ar  
 24  11  39  1   
 25  12  14  ar  
 26  12  40  1   
 27  13  15  1   
 28  13  41  1   
 29  14  42  1   
 30  15  16  2   
 31  15  17  am  
 32  17  18  1   
 33  17  19  1   
 34  18  20  1   
 35  18  43  1   
 36  18  44  1   
 37  19  21  1   
 38  19  45  1   
 39  19  46  1   
 40  20  21  1   
 41  20  22  1   
 42  20  47  1   
 43  21  23  1   
 44  21  48  1   
 45  22  49  1   
 46  23  24  1   
 47  23  50  1   
 48  23  51  1   
 49  24  25  2   
 50  24  26  1   
 51  25  27  1   
 52  26  28  2   
 53  26  52  1   
 54  27  28  1   
 55  27  53  1   
 56  28  29  1   
 57  29  54  1   
 58  29  55  1   
 59  29  56  1   
@<TRIPOS>SUBSTRUCTURE
  1 ****  15 GROUP 4 **** **** 0

# MOE 2024.06 (io_trps.svl 2023.06)
