@<TRIPOS>MOLECULE
NONAME
31 32 1 0 0 
SMALL
USER_CHARGES


@<TRIPOS>ATOM
  1 O       -0.1120     0.9280     0.5320 O.3   1 <1>  -0.6800 
  2 C        0.8600    -0.0590     0.4650 C.3   1 <1>   0.1200 
  3 C        2.0650     0.4910    -0.3090 C.3   1 <1>   0.1100 
  4 N        3.2590    -0.4040    -0.2850 N.3   1 <1>  -0.8100 
  5 C        2.9900    -1.6780    -1.0040 C.3   1 <1>   0.2900 
  6 C        4.3990     0.2790    -0.9220 C.3   1 <1>   0.2900 
  7 C        2.3370    -2.7050    -0.0940 C.2   1 <1>   0.0060 
  8 C        4.8620     1.4350    -0.0640 C.2   1 <1>  -0.3320 
  9 N        1.3770    -3.5000    -0.4460 N.2   1 <1>  -0.5650 
 10 N        2.7230    -2.8630     1.1890 N.pl3 1 <1>   0.0330 
 11 N        4.9180     1.3640     1.2800 N.pl3 1 <1>   0.3000 
 12 C        5.2800     2.6730    -0.4030 C.2   1 <1>  -0.1500 
 13 C        1.1260    -4.2150     0.6680 C.2   1 <1>   0.0770 
 14 C        1.9380    -3.8380     1.6790 C.2   1 <1>  -0.3020 
 15 N        5.3690     2.5110     1.8230 N.2   1 <1>  -0.7070 
 16 C        5.5810     3.2900     0.8070 C.2   1 <1>   0.1390 
 17 H       -0.9070     0.5910     0.9890 H     1 <1>   0.4000 
 18 H        0.4310    -0.9090    -0.0360 H     1 <1>   0.0800 
 19 H        1.1430    -0.3200     1.4700 H     1 <1>   0.0800 
 20 H        2.3210     1.4370     0.1380 H     1 <1>   0.0800 
 21 H        1.7680     0.6770    -1.3270 H     1 <1>   0.0800 
 22 H        3.9110    -2.1110    -1.3520 H     1 <1>   0.0800 
 23 H        2.3640    -1.5040    -1.8640 H     1 <1>   0.0800 
 24 H        4.1290     0.6290    -1.9050 H     1 <1>   0.0800 
 25 H        5.2230    -0.4080    -1.0220 H     1 <1>   0.0800 
 26 H        3.4480    -2.3160     1.6610 H     1 <1>   0.2700 
 27 H        4.6250     0.5540     1.8380 H     1 <1>   0.2700 
 28 H        5.3750     3.1180    -1.3770 H     1 <1>   0.1500 
 29 H        0.3620    -4.9750     0.6820 H     1 <1>   0.1500 
 30 H        1.9980    -4.2010     2.6890 H     1 <1>   0.1500 
 31 H        5.9480     4.2990     0.9020 H     1 <1>   0.1500 
@<TRIPOS>BOND
  1   1   2  1   
  2   1  17  1   
  3   2   3  1   
  4   2  18  1   
  5   2  19  1   
  6   3   4  1   
  7   3  20  1   
  8   3  21  1   
  9   4   5  1   
 10   4   6  1   
 11   5   7  1   
 12   5  22  1   
 13   5  23  1   
 14   6   8  1   
 15   6  24  1   
 16   6  25  1   
 17   7   9  2   
 18   7  10  1   
 19   8  11  1   
 20   8  12  2   
 21   9  13  1   
 22  10  14  1   
 23  10  26  1   
 24  11  15  1   
 25  11  27  1   
 26  12  16  1   
 27  12  28  1   
 28  13  14  2   
 29  13  29  1   
 30  14  30  1   
 31  15  16  2   
 32  16  31  1   
@<TRIPOS>SUBSTRUCTURE
  1 ****   4 GROUP 4 **** **** 0

# MOE 2024.06 (io_trps.svl 2023.06)
