@<TRIPOS>MOLECULE
NONAME
46 48 1 0 0 
SMALL
USER_CHARGES


@<TRIPOS>ATOM
  1 O       -2.6210     0.4090     1.0000 O.3   1 <1>  -0.0190 
  2 N       -1.7650     1.0370     1.7480 N.2   1 <1>  -0.4100 
  3 C       -2.0870     0.4510    -0.1950 C.2   1 <1>   0.2980 
  4 C       -0.8070     1.4030     0.9940 C.2   1 <1>   0.3350 
  5 N       -0.9670     1.0530    -0.2750 N.2   1 <1>  -0.5650 
  6 C       -2.8340    -0.1990    -1.3570 C.3   1 <1>   0.2900 
  7 C        0.4180     2.1700     1.4560 C.3   1 <1>   0.0210 
  8 N       -2.9960    -1.6680    -1.2160 N.3   1 <1>  -0.8100 
  9 C        1.6760     1.2880     1.4470 C.3   1 <1>  -0.1600 
 10 C       -3.8170    -2.2160    -2.3140 C.3   1 <1>   0.2900 
 11 C       -1.6870    -2.3430    -1.1380 C.3   1 <1>   0.0300 
 12 C        2.9120     2.0580     1.9270 C.3   1 <1>  -0.2400 
 13 C       -4.3820    -3.5800    -1.9560 C.2   1 <1>  -0.0400 
 14 O       -4.9420    -4.3030    -2.8840 O.3   1 <1>  -0.0190 
 15 C       -4.4490    -4.2680    -0.8100 C.2   1 <1>  -0.1500 
 16 N       -5.3740    -5.4390    -2.4240 N.2   1 <1>  -0.4100 
 17 C       -5.0970    -5.4610    -1.1550 C.2   1 <1>   0.2350 
 18 C       -5.4070    -6.5510    -0.2480 C.ar  1 <1>   0.0540 
 19 C       -5.6650    -7.8330    -0.7310 C.ar  1 <1>  -0.1500 
 20 C       -5.4590    -6.3690     1.1340 C.ar  1 <1>  -0.1500 
 21 C       -5.9540    -8.8840     0.1210 C.ar  1 <1>  -0.1500 
 22 C       -5.7470    -7.4160     1.9900 C.ar  1 <1>  -0.1500 
 23 C       -5.9940    -8.6830     1.4900 C.ar  1 <1>  -0.1440 
 24 C       -6.3110    -9.8340     2.4270 C.3   1 <1>  -0.0970 
 25 H       -2.3050     0.0200    -2.2680 H     1 <1>   0.0800 
 26 H       -3.8050     0.2610    -1.4150 H     1 <1>   0.0800 
 27 H        0.2410     2.5370     2.4520 H     1 <1>   0.0800 
 28 H        0.5580     3.0150     0.8080 H     1 <1>   0.0800 
 29 H        1.8470     0.9240     0.4480 H     1 <1>   0.0800 
 30 H        1.5150     0.4360     2.0860 H     1 <1>   0.0800 
 31 H       -3.2260    -2.2940    -3.2110 H     1 <1>   0.0800 
 32 H       -4.6480    -1.5620    -2.5130 H     1 <1>   0.0800 
 33 H       -1.1490    -2.0130    -0.2650 H     1 <1>   0.0800 
 34 H       -1.0960    -2.1300    -2.0120 H     1 <1>   0.0800 
 35 H       -1.8180    -3.4090    -1.0600 H     1 <1>   0.0800 
 36 H        3.1030     2.9010     1.2860 H     1 <1>   0.0800 
 37 H        3.7740     1.4140     1.9080 H     1 <1>   0.0800 
 38 H        2.7700     2.4100     2.9330 H     1 <1>   0.0800 
 39 H       -4.0890    -3.9830     0.1600 H     1 <1>   0.1500 
 40 H       -5.6390    -8.0080    -1.7920 H     1 <1>   0.1500 
 41 H       -5.2800    -5.3960     1.5510 H     1 <1>   0.1500 
 42 H       -6.1480    -9.8600    -0.2890 H     1 <1>   0.1500 
 43 H       -5.7800    -7.2410     3.0520 H     1 <1>   0.1500 
 44 H       -5.9660   -10.7630     2.0100 H     1 <1>   0.0800 
 45 H       -7.3730    -9.8950     2.5800 H     1 <1>   0.0800 
 46 H       -5.8300    -9.6900     3.3770 H     1 <1>   0.0800 
@<TRIPOS>BOND
  1   1   2  1   
  2   1   3  1   
  3   2   4  2   
  4   3   5  2   
  5   3   6  1   
  6   4   5  1   
  7   4   7  1   
  8   6   8  1   
  9   6  25  1   
 10   6  26  1   
 11   7   9  1   
 12   7  27  1   
 13   7  28  1   
 14   8  10  1   
 15   8  11  1   
 16   9  12  1   
 17   9  29  1   
 18   9  30  1   
 19  10  13  1   
 20  10  31  1   
 21  10  32  1   
 22  11  33  1   
 23  11  34  1   
 24  11  35  1   
 25  12  36  1   
 26  12  37  1   
 27  12  38  1   
 28  13  14  1   
 29  13  15  2   
 30  14  16  1   
 31  15  17  1   
 32  15  39  1   
 33  16  17  2   
 34  17  18  1   
 35  18  19  ar  
 36  18  20  ar  
 37  19  21  ar  
 38  19  40  1   
 39  20  22  ar  
 40  20  41  1   
 41  21  23  ar  
 42  21  42  1   
 43  22  23  ar  
 44  22  43  1   
 45  23  24  1   
 46  24  44  1   
 47  24  45  1   
 48  24  46  1   
@<TRIPOS>SUBSTRUCTURE
  1 ****  15 GROUP 4 **** **** 0

# MOE 2024.06 (io_trps.svl 2023.06)
