@<TRIPOS>MOLECULE
NONAME
46 48 1 0 0 
SMALL
USER_CHARGES


@<TRIPOS>ATOM
  1 O        2.0950     1.9630     0.7320 O.3   1 <1>  -0.0190 
  2 N        2.7620     0.8510     0.6830 N.2   1 <1>  -0.4100 
  3 C        0.9670     1.8850     0.0780 C.2   1 <1>  -0.0400 
  4 C        2.0430     0.0320     0.0030 C.2   1 <1>   0.1080 
  5 C        0.8650     0.6440    -0.4190 C.2   1 <1>  -0.1500 
  6 C        0.0580     3.0970    -0.0040 C.3   1 <1>   0.0200 
  7 C        2.4320    -1.3990    -0.2940 C.3   1 <1>  -0.0590 
  8 C        0.7120     4.2160    -0.8390 C.3   1 <1>  -0.0800 
  9 C       -0.1060     5.5010    -0.9720 C.3   1 <1>   0.2000 
 10 C        2.0600     4.6820    -0.2740 C.3   1 <1>   0.3430 
 11 O       -0.6170     5.8560     0.2830 O.3   1 <1>  -0.5600 
 12 C        0.9660     6.5240    -1.3440 C.3   1 <1>   0.3430 
 13 N        2.1750     6.1470    -0.5430 N.4   1 <1>  -0.9590 
 14 C       -2.0100     5.8400     0.3840 C.3   1 <1>   0.0400 
 15 C        2.2240     6.9000     0.7450 C.3   1 <1>   0.4860 
 16 C        2.4390     8.3710     0.4550 C.ar  1 <1>  -0.1440 
 17 C        3.6760     8.8870     0.0710 C.ar  1 <1>   0.1670 
 18 C        1.3610     9.2290     0.5710 C.ar  1 <1>  -0.1500 
 19 N        3.8770    10.1560    -0.2260 N.ar  1 <1>  -0.6200 
 20 C        4.9330     8.0380    -0.0480 C.3   1 <1>  -0.0970 
 21 C        1.5750    10.5570     0.2760 C.ar  1 <1>  -0.1500 
 22 C        2.8360    10.9630    -0.1160 C.ar  1 <1>   0.1600 
 23 H        0.0870     0.1890    -1.0050 H     1 <1>   0.1500 
 24 H       -0.8740     2.8070    -0.4560 H     1 <1>   0.0800 
 25 H       -0.1500     3.4350     0.9970 H     1 <1>   0.0800 
 26 H        1.6950    -2.0690     0.1100 H     1 <1>   0.0800 
 27 H        3.3850    -1.6220     0.1540 H     1 <1>   0.0800 
 28 H        2.5040    -1.5480    -1.3550 H     1 <1>   0.0800 
 29 H        0.8950     3.8300    -1.8260 H     1 <1>   0.0800 
 30 H       -0.8930     5.4420    -1.7060 H     1 <1>   0.0800 
 31 H        2.8680     4.1330    -0.7330 H     1 <1>   0.0800 
 32 H        2.0840     4.4980     0.7890 H     1 <1>   0.0800 
 33 H        0.6340     7.5300    -1.1470 H     1 <1>   0.0800 
 34 H        1.1900     6.4300    -2.3940 H     1 <1>   0.0800 
 35 H        3.0260     6.3720    -1.0730 H     1 <1>   0.4500 
 36 H       -2.2790     6.0990     1.3940 H     1 <1>   0.0800 
 37 H       -2.3780     4.8530     0.1580 H     1 <1>   0.0800 
 38 H       -2.4280     6.5630    -0.2950 H     1 <1>   0.0800 
 39 H        1.3010     6.7670     1.2860 H     1 <1>   0.0800 
 40 H        3.0280     6.5340     1.3620 H     1 <1>   0.0800 
 41 H        0.3850     8.8900     0.8800 H     1 <1>   0.1500 
 42 H        4.8390     7.0730     0.4090 H     1 <1>   0.0800 
 43 H        5.7470     8.5500     0.4340 H     1 <1>   0.0800 
 44 H        5.1870     7.9190    -1.0850 H     1 <1>   0.0800 
 45 H        0.7780    11.2760     0.3490 H     1 <1>   0.1500 
 46 H        2.9990    12.0030    -0.3490 H     1 <1>   0.1500 
@<TRIPOS>BOND
  1   1   2  1   
  2   1   3  1   
  3   2   4  2   
  4   3   5  2   
  5   3   6  1   
  6   4   5  1   
  7   4   7  1   
  8   5  23  1   
  9   6   8  1   
 10   6  24  1   
 11   6  25  1   
 12   7  26  1   
 13   7  27  1   
 14   7  28  1   
 15   8   9  1   
 16   8  10  1   
 17   8  29  1   
 18   9  11  1   
 19   9  12  1   
 20   9  30  1   
 21  10  13  1   
 22  10  31  1   
 23  10  32  1   
 24  11  14  1   
 25  12  13  1   
 26  12  33  1   
 27  12  34  1   
 28  13  15  1   
 29  13  35  1   
 30  14  36  1   
 31  14  37  1   
 32  14  38  1   
 33  15  16  1   
 34  15  39  1   
 35  15  40  1   
 36  16  17  ar  
 37  16  18  ar  
 38  17  19  ar  
 39  17  20  1   
 40  18  21  ar  
 41  18  41  1   
 42  19  22  ar  
 43  20  42  1   
 44  20  43  1   
 45  20  44  1   
 46  21  22  ar  
 47  21  45  1   
 48  22  46  1   
@<TRIPOS>SUBSTRUCTURE
  1 ****  10 GROUP 4 **** **** 0

# MOE 2024.06 (io_trps.svl 2023.06)
