@<TRIPOS>MOLECULE
NONAME
44 47 1 0 0 
SMALL
USER_CHARGES


@<TRIPOS>ATOM
  1 S        0.8890     0.7430    -0.0290 S.3   1 <1>  -0.0800 
  2 C        0.9010    -1.0040    -0.2680 C.2   1 <1>   0.0410 
  3 C        1.5100     1.0510    -1.6420 C.2   1 <1>  -0.1400 
  4 C        0.4870    -1.8490     0.8230 C.2   1 <1>   0.2880 
  5 C        1.3330    -1.2630    -1.5270 C.2   1 <1>  -0.1500 
  6 C        1.6760    -0.1120    -2.2990 C.2   1 <1>  -0.1500 
  7 C        1.7570     2.4950    -2.0450 C.3   1 <1>   0.5230 
  8 N        0.2830    -1.4290     2.0490 N.2   1 <1>  -0.7070 
  9 C        0.2570    -3.2250     0.7300 C.2   1 <1>  -0.1500 
 10 N        2.8730     3.0970    -1.2480 N.4   1 <1>  -0.9590 
 11 N       -0.0830    -2.5210     2.7410 N.pl3 1 <1>   0.3000 
 12 C       -0.1040    -3.6200     1.9660 C.2   1 <1>  -0.3020 
 13 C        2.4280     3.5540     0.1180 C.3   1 <1>   0.3430 
 14 C        4.0880     2.2070    -1.2210 C.3   1 <1>   0.3430 
 15 C        3.3400     4.6430     0.7450 C.3   1 <1>   0.2200 
 16 C        5.2630     2.7860    -0.4300 C.3   1 <1>  -0.0190 
 17 N        4.3940     5.1290    -0.2120 N.am  1 <1>  -0.6600 
 18 C        3.9650     4.1490     2.0680 C.3   1 <1>   0.1200 
 19 C        5.3470     4.2760    -0.7180 C.2   1 <1>   0.5690 
 20 C        5.2230     2.3810     1.0580 C.3   1 <1>   0.1200 
 21 C        4.5350     6.6100    -0.3380 C.3   1 <1>   0.0600 
 22 O        5.1850     3.4890     1.8960 O.3   1 <1>  -0.5600 
 23 O        6.1870     4.6420    -1.4990 O.2   1 <1>  -0.5700 
 24 H        1.4280    -2.2520    -1.9430 H     1 <1>   0.1500 
 25 H        2.0320    -0.2280    -3.3100 H     1 <1>   0.1500 
 26 H        0.8530     3.0670    -1.9150 H     1 <1>   0.0800 
 27 H        2.0160     2.5160    -3.0910 H     1 <1>   0.0800 
 28 H        0.3530    -3.8180    -0.1620 H     1 <1>   0.1500 
 29 H        3.1720     3.9670    -1.7210 H     1 <1>   0.4500 
 30 H       -0.3120    -2.4860     3.7430 H     1 <1>   0.2700 
 31 H       -0.3700    -4.5960     2.3310 H     1 <1>   0.1500 
 32 H        1.4330     3.9610     0.0490 H     1 <1>   0.0800 
 33 H        2.3740     2.7110     0.7870 H     1 <1>   0.0800 
 34 H        3.8330     1.2430    -0.8120 H     1 <1>   0.0800 
 35 H        4.4180     2.0510    -2.2350 H     1 <1>   0.0800 
 36 H        2.6970     5.4670     1.0000 H     1 <1>   0.0800 
 37 H        6.1490     2.3300    -0.8340 H     1 <1>   0.0800 
 38 H        3.2960     3.4990     2.6060 H     1 <1>   0.0800 
 39 H        4.1670     4.9990     2.6960 H     1 <1>   0.0800 
 40 H        6.1300     1.8530     1.3020 H     1 <1>   0.0800 
 41 H        4.3940     1.7360     1.2940 H     1 <1>   0.0800 
 42 H        3.6200     7.0430    -0.7030 H     1 <1>   0.0800 
 43 H        5.3290     6.8630    -1.0210 H     1 <1>   0.0800 
 44 H        4.7710     7.0360     0.6230 H     1 <1>   0.0800 
@<TRIPOS>BOND
  1   1   2  1   
  2   1   3  1   
  3   2   4  1   
  4   2   5  2   
  5   3   6  2   
  6   3   7  1   
  7   4   8  2   
  8   4   9  1   
  9   5   6  1   
 10   5  24  1   
 11   6  25  1   
 12   7  10  1   
 13   7  26  1   
 14   7  27  1   
 15   8  11  1   
 16   9  12  2   
 17   9  28  1   
 18  10  13  1   
 19  10  14  1   
 20  10  29  1   
 21  11  12  1   
 22  11  30  1   
 23  12  31  1   
 24  13  15  1   
 25  13  32  1   
 26  13  33  1   
 27  14  16  1   
 28  14  34  1   
 29  14  35  1   
 30  15  17  1   
 31  15  18  1   
 32  15  36  1   
 33  16  19  1   
 34  16  20  1   
 35  16  37  1   
 36  17  19  am  
 37  17  21  1   
 38  18  22  1   
 39  18  38  1   
 40  18  39  1   
 41  19  23  2   
 42  20  22  1   
 43  20  40  1   
 44  20  41  1   
 45  21  42  1   
 46  21  43  1   
 47  21  44  1   
@<TRIPOS>SUBSTRUCTURE
  1 ****   1 GROUP 4 **** **** 0

# MOE 2024.06 (io_trps.svl 2023.06)
