@<TRIPOS>MOLECULE
NONAME
47 49 1 0 0 
SMALL
USER_CHARGES


@<TRIPOS>ATOM
  1 F        0.2600    -0.9510    -0.7540 F     1 <1>  -0.1900 
  2 C       -0.4880    -1.9710    -0.4140 C.ar  1 <1>   0.1900 
  3 C       -0.3610    -2.6020     0.8280 C.ar  1 <1>   0.0820 
  4 C       -1.4090    -2.3970    -1.3510 C.ar  1 <1>  -0.1500 
  5 O        0.5060    -2.2750     1.8300 O.3   1 <1>  -0.3630 
  6 C       -1.1940    -3.6780     1.0890 C.ar  1 <1>  -0.1500 
  7 C       -2.2220    -3.4750    -1.0570 C.ar  1 <1>  -0.1500 
  8 C        1.3540    -1.1490     1.7760 C.3   1 <1>   0.0400 
  9 C       -2.1380    -4.1400     0.1680 C.ar  1 <1>   0.0530 
 10 C       -2.9710    -5.2770     0.4810 C.2   1 <1>   0.0870 
 11 O       -2.4680    -6.2460     1.2140 O.3   1 <1>  -0.0190 
 12 C       -4.2450    -5.6420     0.1720 C.2   1 <1>  -0.2330 
 13 N       -3.3060    -7.2290     1.4100 N.2   1 <1>  -0.4100 
 14 C       -4.3800    -6.8780     0.8000 C.2   1 <1>   0.3720 
 15 C       -5.2830    -5.0200    -0.5970 C.2   1 <1>   1.0330 
 16 N       -5.5300    -7.6480     0.7560 N.pl3 1 <1>  -0.8520 
 17 O       -5.2140    -3.8280    -0.9310 O.co2 1 <1>  -0.9000 
 18 O       -6.2770    -5.6790    -0.9630 O.co2 1 <1>  -0.9000 
 19 C       -5.3720    -8.8830    -0.0360 C.3   1 <1>   0.2090 
 20 C       -6.7140    -9.6320    -0.2400 C.3   1 <1>   0.0000 
 21 C       -7.2930   -10.0980     1.1160 C.3   1 <1>  -0.1600 
 22 C       -6.4440   -10.8980    -1.0920 C.3   1 <1>  -0.1600 
 23 C       -7.7040    -8.6740    -0.9540 C.3   1 <1>   0.1200 
 24 C       -6.4390   -11.1970     1.7610 C.3   1 <1>   0.1200 
 25 C       -5.6370   -11.9530    -0.3200 C.3   1 <1>   0.1200 
 26 O       -8.8960    -9.3190    -1.2790 O.3   1 <1>  -0.6800 
 27 O       -6.2950   -12.2620     0.8680 O.3   1 <1>  -0.5600 
 28 H       -1.4930    -1.8930    -2.2960 H     1 <1>   0.1500 
 29 H       -1.1100    -4.1710     2.0400 H     1 <1>   0.1500 
 30 H       -2.9410    -3.8060    -1.7870 H     1 <1>   0.1500 
 31 H        1.8870    -1.0870     2.7070 H     1 <1>   0.0800 
 32 H        0.7550    -0.2660     1.6390 H     1 <1>   0.0800 
 33 H        2.0500    -1.2740     0.9650 H     1 <1>   0.0800 
 34 H       -6.2180    -7.0480     0.2510 H     1 <1>   0.4000 
 35 H       -4.6530    -9.5090     0.4610 H     1 <1>   0.0800 
 36 H       -4.9640    -8.6180    -0.9980 H     1 <1>   0.0800 
 37 H       -8.2860   -10.4870     0.9800 H     1 <1>   0.0800 
 38 H       -7.3700    -9.2650     1.7920 H     1 <1>   0.0800 
 39 H       -5.9220   -10.6350    -1.9940 H     1 <1>   0.0800 
 40 H       -7.3700   -11.3640    -1.3760 H     1 <1>   0.0800 
 41 H       -7.2760    -8.2830    -1.8610 H     1 <1>   0.0800 
 42 H       -7.9530    -7.8400    -0.3190 H     1 <1>   0.0800 
 43 H       -6.9250   -11.5740     2.6440 H     1 <1>   0.0800 
 44 H       -5.4630   -10.8340     2.0330 H     1 <1>   0.0800 
 45 H       -4.6430   -11.6130    -0.0850 H     1 <1>   0.0800 
 46 H       -5.5630   -12.8600    -0.8940 H     1 <1>   0.0800 
 47 H       -8.7150   -10.0800    -1.8590 H     1 <1>   0.4000 
@<TRIPOS>BOND
  1   1   2  1   
  2   2   3  ar  
  3   2   4  ar  
  4   3   5  1   
  5   3   6  ar  
  6   4   7  ar  
  7   4  28  1   
  8   5   8  1   
  9   6   9  ar  
 10   6  29  1   
 11   7   9  ar  
 12   7  30  1   
 13   8  31  1   
 14   8  32  1   
 15   8  33  1   
 16   9  10  1   
 17  10  11  1   
 18  10  12  2   
 19  11  13  1   
 20  12  14  1   
 21  12  15  1   
 22  13  14  2   
 23  14  16  1   
 24  15  17  ar  
 25  15  18  ar  
 26  16  19  1   
 27  16  34  1   
 28  19  20  1   
 29  19  35  1   
 30  19  36  1   
 31  20  21  1   
 32  20  22  1   
 33  20  23  1   
 34  21  24  1   
 35  21  37  1   
 36  21  38  1   
 37  22  25  1   
 38  22  39  1   
 39  22  40  1   
 40  23  26  1   
 41  23  41  1   
 42  23  42  1   
 43  24  27  1   
 44  24  43  1   
 45  24  44  1   
 46  25  27  1   
 47  25  45  1   
 48  25  46  1   
 49  26  47  1   
@<TRIPOS>SUBSTRUCTURE
  1 ****  12 GROUP 4 **** **** 0

# MOE 2024.06 (io_trps.svl 2023.06)
