@<TRIPOS>MOLECULE
NONAME
44 46 1 0 0 
SMALL
USER_CHARGES


@<TRIPOS>ATOM
  1 CL      -5.5200    -0.1860    -1.3730 Cl    1 <1>  -0.1770 
  2 C       -4.1680     0.6450    -0.6360 C.ar  1 <1>   0.1770 
  3 C       -3.1070    -0.0720    -0.0960 C.ar  1 <1>  -0.1440 
  4 C       -4.1960     2.0270    -0.6060 C.ar  1 <1>  -0.1500 
  5 C       -2.0640     0.6340     0.4870 C.ar  1 <1>  -0.1500 
  6 C       -3.0650    -1.5940    -0.1230 C.3   1 <1>  -0.0160 
  7 C       -3.1480     2.7180    -0.0230 C.ar  1 <1>  -0.1500 
  8 C       -2.0840     2.0190     0.5230 C.ar  1 <1>  -0.1500 
  9 C       -3.8760    -2.1770     1.0390 C.3   1 <1>  -0.0990 
 10 C       -3.9140    -3.6910     0.9700 C.2   1 <1>   0.5690 
 11 O       -3.0640    -4.3010     1.5720 O.2   1 <1>  -0.5700 
 12 N       -4.8740    -4.3300     0.2350 N.am  1 <1>  -0.6600 
 13 C       -5.9740    -3.7000    -0.5400 C.3   1 <1>   0.1400 
 14 C       -4.9540    -5.8070     0.1460 C.3   1 <1>   0.1400 
 15 C       -6.7620    -4.8680    -1.1360 C.3   1 <1>   0.2000 
 16 C       -6.3850    -6.0960    -0.3100 C.3   1 <1>  -0.0800 
 17 O       -8.1300    -4.6540    -1.0600 O.3   1 <1>  -0.6800 
 18 C       -6.5460    -7.4080    -1.0970 C.3   1 <1>  -0.0170 
 19 C       -6.2030    -8.6230    -0.2500 C.ar  1 <1>   0.1670 
 20 N       -4.9200    -8.9380    -0.1610 N.ar  1 <1>  -0.6200 
 21 C       -7.2160    -9.3390     0.3850 C.ar  1 <1>   0.1600 
 22 C       -4.7210   -10.0020     0.6000 C.ar  1 <1>   0.1600 
 23 N       -7.0190   -10.4030     1.1460 N.ar  1 <1>  -0.6200 
 24 C       -5.7360   -10.7100     1.2320 C.ar  1 <1>   0.1600 
 25 H       -5.0300     2.5530    -1.0330 H     1 <1>   0.1500 
 26 H       -1.2290     0.1080     0.9180 H     1 <1>   0.1500 
 27 H       -3.4480    -1.9530    -1.0620 H     1 <1>   0.0800 
 28 H       -2.0470    -1.9350    -0.0480 H     1 <1>   0.0800 
 29 H       -3.1590     3.7940     0.0060 H     1 <1>   0.1500 
 30 H       -1.2680     2.5540     0.9770 H     1 <1>   0.1500 
 31 H       -4.8740    -1.7840     1.0360 H     1 <1>   0.0800 
 32 H       -3.4190    -1.8890     1.9680 H     1 <1>   0.0800 
 33 H       -6.5910    -3.1150     0.1190 H     1 <1>   0.0800 
 34 H       -5.5720    -3.0810    -1.3230 H     1 <1>   0.0800 
 35 H       -4.2390    -6.1540    -0.5810 H     1 <1>   0.0800 
 36 H       -4.7390    -6.2670     1.0980 H     1 <1>   0.0800 
 37 H       -6.4960    -4.9940    -2.1720 H     1 <1>   0.0800 
 38 H       -6.9950    -6.1340     0.5760 H     1 <1>   0.0800 
 39 H       -8.4010    -4.5120    -0.1320 H     1 <1>   0.4000 
 40 H       -5.9110    -7.3970    -1.9650 H     1 <1>   0.0800 
 41 H       -7.5620    -7.4890    -1.4430 H     1 <1>   0.0800 
 42 H       -8.2350    -9.0180     0.2600 H     1 <1>   0.1500 
 43 H       -3.7050   -10.3290     0.7300 H     1 <1>   0.1500 
 44 H       -5.4740   -11.5630     1.8320 H     1 <1>   0.1500 
@<TRIPOS>BOND
  1   1   2  1   
  2   2   3  ar  
  3   2   4  ar  
  4   3   5  ar  
  5   3   6  1   
  6   4   7  ar  
  7   4  25  1   
  8   5   8  ar  
  9   5  26  1   
 10   6   9  1   
 11   6  27  1   
 12   6  28  1   
 13   7   8  ar  
 14   7  29  1   
 15   8  30  1   
 16   9  10  1   
 17   9  31  1   
 18   9  32  1   
 19  10  11  2   
 20  10  12  am  
 21  12  13  1   
 22  12  14  1   
 23  13  15  1   
 24  13  33  1   
 25  13  34  1   
 26  14  16  1   
 27  14  35  1   
 28  14  36  1   
 29  15  16  1   
 30  15  17  1   
 31  15  37  1   
 32  16  18  1   
 33  16  38  1   
 34  17  39  1   
 35  18  19  1   
 36  18  40  1   
 37  18  41  1   
 38  19  20  ar  
 39  19  21  ar  
 40  20  22  ar  
 41  21  23  ar  
 42  21  42  1   
 43  22  24  ar  
 44  22  43  1   
 45  23  24  ar  
 46  24  44  1   
@<TRIPOS>SUBSTRUCTURE
  1 ****  12 GROUP 4 **** **** 0

# MOE 2024.06 (io_trps.svl 2023.06)
