@<TRIPOS>MOLECULE
NONAME
37 38 1 0 0 
SMALL
USER_CHARGES


@<TRIPOS>ATOM
  1 CL      -0.4400     1.3350     1.9910 Cl    1 <1>  -0.1770 
  2 C       -1.5990     1.5870     0.6930 C.ar  1 <1>   0.1770 
  3 C       -1.6550     2.8590     0.0700 C.ar  1 <1>   0.4100 
  4 C       -2.4360     0.5970     0.2790 C.ar  1 <1>   0.2170 
  5 N       -2.5060     3.1110    -0.9100 N.ar  1 <1>  -0.6200 
  6 N       -0.8340     3.8600     0.4690 N.pl3 1 <1>  -0.8690 
  7 N       -3.2910     0.9070    -0.7320 N.ar  1 <1>  -0.1790 
  8 C       -2.4900    -0.8150     0.8520 C.3   1 <1>  -0.0970 
  9 C       -3.3040     2.1330    -1.2890 C.ar  1 <1>   0.7710 
 10 C       -0.7530     5.2320    -0.0820 C.3   1 <1>   0.2090 
 11 N       -4.1510     2.4110    -2.2750 N.pl3 1 <1>  -0.9000 
 12 C        0.7110     5.6640    -0.1030 C.3   1 <1>  -0.1600 
 13 C        0.8590     7.0760    -0.6850 C.3   1 <1>   0.0960 
 14 N        2.2790     7.4860    -0.6860 N.pl3 1 <1>   0.0480 
 15 C        2.9630     8.2110     0.2340 C.2   1 <1>   0.0060 
 16 C        3.1850     7.2000    -1.6380 C.2   1 <1>  -0.3020 
 17 N        4.2060     8.3960    -0.0700 N.2   1 <1>  -0.5650 
 18 C        2.3460     8.7610     1.5040 C.3   1 <1>  -0.0600 
 19 C        4.3490     7.7620    -1.2470 C.2   1 <1>   0.0770 
 20 H       -0.1880     3.6890     1.2500 H     1 <1>   0.4000 
 21 H       -3.9500     0.2270    -1.1010 H     1 <1>   0.4570 
 22 H       -1.7720    -0.9470     1.6420 H     1 <1>   0.0800 
 23 H       -2.2710    -1.5390     0.0870 H     1 <1>   0.0800 
 24 H       -3.4650    -1.0180     1.2580 H     1 <1>   0.0800 
 25 H       -1.3290     5.8970     0.5390 H     1 <1>   0.0800 
 26 H       -1.1570     5.2580    -1.0810 H     1 <1>   0.0800 
 27 H       -4.8490     1.8110    -2.7180 H     1 <1>   0.4000 
 28 H       -4.1250     3.3600    -2.6660 H     1 <1>   0.4000 
 29 H        1.2730     4.9740    -0.7080 H     1 <1>   0.0800 
 30 H        1.1010     5.6540     0.9000 H     1 <1>   0.0800 
 31 H        0.2930     7.7830    -0.1060 H     1 <1>   0.0800 
 32 H        0.4990     7.1000    -1.6980 H     1 <1>   0.0800 
 33 H        2.9630     6.6290    -2.5200 H     1 <1>   0.1500 
 34 H        1.9450     7.9610     2.0990 H     1 <1>   0.0800 
 35 H        1.5660     9.4590     1.2650 H     1 <1>   0.0800 
 36 H        3.0970     9.2710     2.0800 H     1 <1>   0.0800 
 37 H        5.2970     7.7420    -1.7570 H     1 <1>   0.1500 
@<TRIPOS>BOND
  1   1   2  1   
  2   2   3  ar  
  3   2   4  ar  
  4   3   5  ar  
  5   3   6  1   
  6   4   7  ar  
  7   4   8  1   
  8   5   9  ar  
  9   6  10  1   
 10   6  20  1   
 11   7   9  ar  
 12   7  21  1   
 13   8  22  1   
 14   8  23  1   
 15   8  24  1   
 16   9  11  1   
 17  10  12  1   
 18  10  25  1   
 19  10  26  1   
 20  11  27  1   
 21  11  28  1   
 22  12  13  1   
 23  12  29  1   
 24  12  30  1   
 25  13  14  1   
 26  13  31  1   
 27  13  32  1   
 28  14  15  1   
 29  14  16  1   
 30  15  17  2   
 31  15  18  1   
 32  16  19  2   
 33  16  33  1   
 34  17  19  1   
 35  18  34  1   
 36  18  35  1   
 37  18  36  1   
 38  19  37  1   
@<TRIPOS>SUBSTRUCTURE
  1 ****  10 GROUP 4 **** **** 0

# MOE 2024.06 (io_trps.svl 2023.06)
