@<TRIPOS>MOLECULE
NONAME
38 39 1 0 0 
SMALL
USER_CHARGES


@<TRIPOS>ATOM
  1 S       -0.3310     0.7640     1.9110 S.3   1 <1>  -0.0800 
  2 C       -1.3300    -0.0470     0.7100 C.2   1 <1>  -0.1400 
  3 C       -0.6390     2.3310     1.1960 C.2   1 <1>  -0.1100 
  4 C       -1.8330     0.8590    -0.1620 C.2   1 <1>  -0.1810 
  5 C       -1.4100    -1.5550     0.9240 C.3   1 <1>   0.3890 
  6 C       -1.4390     2.2070     0.1250 C.2   1 <1>  -0.1500 
  7 C       -2.7330     0.6320    -1.3660 C.3   1 <1>  -0.0590 
  8 N       -2.4720    -2.2060     0.1090 N.pl3 1 <1>  -0.8380 
  9 C       -3.7200    -2.4010     0.6900 C.ar  1 <1>   0.4100 
 10 C       -1.9660    -3.1420    -0.9360 C.3   1 <1>   0.1290 
 11 N       -4.2370    -3.6140     0.5810 N.ar  1 <1>  -0.6200 
 12 C       -4.3870    -1.3590     1.3580 C.ar  1 <1>   0.1600 
 13 C       -5.4360    -3.7560     1.1720 C.ar  1 <1>   0.3960 
 14 N       -5.5580    -1.4640     1.9510 N.ar  1 <1>  -0.6200 
 15 C       -6.1450    -5.0370     1.1500 C.2   1 <1>   0.5440 
 16 C       -6.0470    -2.6910     1.8390 C.ar  1 <1>   0.1600 
 17 O       -6.8090    -5.3510     2.1260 O.2   1 <1>  -0.5700 
 18 N       -6.1360    -5.9130     0.0710 N.am  1 <1>  -0.6600 
 19 C       -6.6910    -7.2930     0.1700 C.3   1 <1>   0.0600 
 20 C       -5.6050    -5.5590    -1.2740 C.3   1 <1>   0.0600 
 21 H       -0.1820     3.1870     1.6600 H     1 <1>   0.1500 
 22 H       -1.6070    -1.7460     1.9650 H     1 <1>   0.0800 
 23 H       -0.4520    -1.9890     0.6960 H     1 <1>   0.0800 
 24 H       -1.7760     3.0240    -0.4880 H     1 <1>   0.1500 
 25 H       -2.8120    -0.4060    -1.6180 H     1 <1>   0.0800 
 26 H       -2.3350     1.1490    -2.2200 H     1 <1>   0.0800 
 27 H       -3.7180     1.0120    -1.1600 H     1 <1>   0.0800 
 28 H       -1.2050    -2.6610    -1.5250 H     1 <1>   0.0800 
 29 H       -2.7710    -3.4330    -1.5890 H     1 <1>   0.0800 
 30 H       -1.5580    -4.0230    -0.4720 H     1 <1>   0.0800 
 31 H       -3.9090    -0.3980     1.3850 H     1 <1>   0.1500 
 32 H       -7.0010    -2.8720     2.3050 H     1 <1>   0.1500 
 33 H       -6.8630    -7.5660     1.1970 H     1 <1>   0.0800 
 34 H       -5.9960    -7.9970    -0.2550 H     1 <1>   0.0800 
 35 H       -7.6240    -7.3480    -0.3630 H     1 <1>   0.0800 
 36 H       -5.6900    -4.5000    -1.4470 H     1 <1>   0.0800 
 37 H       -6.1610    -6.0720    -2.0390 H     1 <1>   0.0800 
 38 H       -4.5690    -5.8430    -1.3360 H     1 <1>   0.0800 
@<TRIPOS>BOND
  1   1   2  1   
  2   1   3  1   
  3   2   4  2   
  4   2   5  1   
  5   3   6  2   
  6   3  21  1   
  7   4   6  1   
  8   4   7  1   
  9   5   8  1   
 10   5  22  1   
 11   5  23  1   
 12   6  24  1   
 13   7  25  1   
 14   7  26  1   
 15   7  27  1   
 16   8   9  1   
 17   8  10  1   
 18   9  11  ar  
 19   9  12  ar  
 20  10  28  1   
 21  10  29  1   
 22  10  30  1   
 23  11  13  ar  
 24  12  14  ar  
 25  12  31  1   
 26  13  15  1   
 27  13  16  ar  
 28  14  16  ar  
 29  15  17  2   
 30  15  18  am  
 31  16  32  1   
 32  18  19  1   
 33  18  20  1   
 34  19  33  1   
 35  19  34  1   
 36  19  35  1   
 37  20  36  1   
 38  20  37  1   
 39  20  38  1   
@<TRIPOS>SUBSTRUCTURE
  1 ****   9 GROUP 4 **** **** 0

# MOE 2024.06 (io_trps.svl 2023.06)
