@<TRIPOS>MOLECULE
NONAME
47 50 1 0 0 
SMALL
USER_CHARGES


@<TRIPOS>ATOM
  1 S       -0.7530     0.1010    -1.1760 S.3   1 <1>  -0.0800 
  2 C        0.3800    -1.2210    -0.9290 C.2   1 <1>  -0.1400 
  3 C        0.4910     1.2910    -0.8420 C.2   1 <1>  -0.1100 
  4 C        1.6020    -0.7410    -0.6260 C.2   1 <1>  -0.1500 
  5 C       -0.1430    -2.6300    -1.1030 C.3   1 <1>   0.5230 
  6 C        1.6630     0.6880    -0.5730 C.2   1 <1>  -0.1500 
  7 N       -0.6230    -3.1380     0.2110 N.4   1 <1>  -0.9590 
  8 C       -0.7540    -4.6360     0.1640 C.3   1 <1>   0.3430 
  9 C       -1.9090    -2.4900     0.6100 C.3   1 <1>   0.3430 
 10 C       -1.2870    -5.2500     1.4860 C.3   1 <1>   0.2890 
 11 C       -2.3500    -3.0050     1.9820 C.3   1 <1>  -0.1600 
 12 N       -1.5660    -6.7050     1.3650 N.pl3 1 <1>  -0.8690 
 13 C       -2.5460    -4.5300     1.9850 C.3   1 <1>  -0.1600 
 14 C       -2.3660    -7.3350     0.4240 C.ar  1 <1>   0.4100 
 15 N       -2.8550    -6.6020    -0.5540 N.ar  1 <1>  -0.3100 
 16 C       -2.6340    -8.7220     0.5470 C.ar  1 <1>   0.0000 
 17 N       -3.6410    -7.1390    -1.4740 N.ar  1 <1>  -0.3100 
 18 C       -3.4800    -9.2830    -0.4220 C.ar  1 <1>   0.0000 
 19 C       -2.1130    -9.5620     1.5570 C.ar  1 <1>  -0.1500 
 20 C       -3.9490    -8.4050    -1.4190 C.ar  1 <1>   0.1670 
 21 C       -3.7930   -10.6600    -0.3340 C.ar  1 <1>  -0.1500 
 22 C       -2.4290   -10.8910     1.6160 C.ar  1 <1>  -0.1500 
 23 C       -4.8660    -8.9200    -2.5160 C.3   1 <1>  -0.0970 
 24 C       -3.2820   -11.4470     0.6600 C.ar  1 <1>  -0.1500 
 25 H        0.2120     2.3310    -0.8860 H     1 <1>   0.1500 
 26 H        2.4890    -1.3220    -0.4360 H     1 <1>   0.1500 
 27 H        0.6630    -3.2520    -1.4570 H     1 <1>   0.0800 
 28 H       -0.9340    -2.6500    -1.8360 H     1 <1>   0.0800 
 29 H        2.5830     1.1970    -0.3380 H     1 <1>   0.1500 
 30 H        0.0880    -2.8740     0.9030 H     1 <1>   0.4500 
 31 H        0.2000    -5.0830    -0.0590 H     1 <1>   0.0800 
 32 H       -1.4300    -4.8850    -0.6340 H     1 <1>   0.0800 
 33 H       -2.6730    -2.7110    -0.1190 H     1 <1>   0.0800 
 34 H       -1.7860    -1.4200     0.6590 H     1 <1>   0.0800 
 35 H       -0.5150    -5.1310     2.2260 H     1 <1>   0.0800 
 36 H       -3.2820    -2.5330     2.2450 H     1 <1>   0.0800 
 37 H       -1.6260    -2.7190     2.7250 H     1 <1>   0.0800 
 38 H       -1.4030    -7.2350     2.2260 H     1 <1>   0.4000 
 39 H       -2.7820    -4.8630     2.9810 H     1 <1>   0.0800 
 40 H       -3.3800    -4.7700     1.3480 H     1 <1>   0.0800 
 41 H       -1.4500    -9.1540     2.2960 H     1 <1>   0.1500 
 42 H       -4.4460   -11.1010    -1.0640 H     1 <1>   0.1500 
 43 H       -2.0280   -11.5230     2.3910 H     1 <1>   0.1500 
 44 H       -5.1250    -8.1280    -3.1960 H     1 <1>   0.0800 
 45 H       -5.7720    -9.3060    -2.0860 H     1 <1>   0.0800 
 46 H       -4.3740    -9.6960    -3.0730 H     1 <1>   0.0800 
 47 H       -3.5240   -12.4940     0.7200 H     1 <1>   0.1500 
@<TRIPOS>BOND
  1   1   2  1   
  2   1   3  1   
  3   2   4  2   
  4   2   5  1   
  5   3   6  2   
  6   3  25  1   
  7   4   6  1   
  8   4  26  1   
  9   5   7  1   
 10   5  27  1   
 11   5  28  1   
 12   6  29  1   
 13   7   8  1   
 14   7   9  1   
 15   7  30  1   
 16   8  10  1   
 17   8  31  1   
 18   8  32  1   
 19   9  11  1   
 20   9  33  1   
 21   9  34  1   
 22  10  12  1   
 23  10  13  1   
 24  10  35  1   
 25  11  13  1   
 26  11  36  1   
 27  11  37  1   
 28  12  14  1   
 29  12  38  1   
 30  13  39  1   
 31  13  40  1   
 32  14  15  ar  
 33  14  16  ar  
 34  15  17  ar  
 35  16  18  ar  
 36  16  19  ar  
 37  17  20  ar  
 38  18  20  ar  
 39  18  21  ar  
 40  19  22  ar  
 41  19  41  1   
 42  20  23  1   
 43  21  24  ar  
 44  21  42  1   
 45  22  24  ar  
 46  22  43  1   
 47  23  44  1   
 48  23  45  1   
 49  23  46  1   
 50  24  47  1   
@<TRIPOS>SUBSTRUCTURE
  1 ****   8 GROUP 4 **** **** 0

# MOE 2024.06 (io_trps.svl 2023.06)
