@<TRIPOS>MOLECULE
NONAME
43 45 1 0 0 
SMALL
USER_CHARGES


@<TRIPOS>ATOM
  1 O       -1.1880    -0.3910     0.4670 O.2   1 <1>  -0.5700 
  2 C       -1.7960     0.4600    -0.1610 C.2   1 <1>   0.7160 
  3 N       -2.9950     0.0910    -0.7310 N.am  1 <1>  -0.6600 
  4 C       -1.2900     1.8070    -0.2530 C.2   1 <1>  -0.0860 
  5 C       -3.2500    -1.3440    -1.0020 C.3   1 <1>   0.1400 
  6 C       -4.2390     0.8480    -0.4070 C.3   1 <1>   0.1400 
  7 C       -0.3290     2.3970     0.5060 C.2   1 <1>  -0.0100 
  8 C       -1.6710     2.8160    -1.1650 C.2   1 <1>  -0.1500 
  9 C       -4.0240    -1.8380     0.2280 C.3   1 <1>   0.4230 
 10 C       -5.1130     0.0720     0.6190 C.3   1 <1>  -0.1600 
 11 O       -0.1220     3.6390     0.1390 O.3   1 <1>  -0.2800 
 12 C       -0.9250     3.9000    -0.8690 C.2   1 <1>  -0.0100 
 13 N       -3.6830    -3.2110     0.7480 N.4   1 <1>  -0.9590 
 14 C       -5.5590    -1.4060     0.1150 C.3   1 <1>   0.0000 
 15 C       -3.8970    -4.2840    -0.2330 C.3   1 <1>   0.3430 
 16 C       -2.2940    -3.2390     1.3110 C.3   1 <1>   0.2630 
 17 C       -6.0240    -2.8440    -0.4600 C.3   1 <1>  -0.1600 
 18 C       -7.0910    -0.9320     0.0910 C.3   1 <1>   0.1200 
 19 C       -5.0800    -3.8980    -1.0960 C.3   1 <1>  -0.1600 
 20 O       -7.5520    -0.9270     1.4060 O.3   1 <1>  -0.6800 
 21 H       -3.8330    -1.4390    -1.9010 H     1 <1>   0.0800 
 22 H       -2.3200    -1.8710    -1.1250 H     1 <1>   0.0800 
 23 H       -3.9880     1.8130     0.0030 H     1 <1>   0.0800 
 24 H       -4.7970     1.0120    -1.3140 H     1 <1>   0.0800 
 25 H        0.2460     1.9880     1.3190 H     1 <1>   0.1500 
 26 H       -2.4090     2.7090    -1.9390 H     1 <1>   0.1500 
 27 H       -3.5690    -1.2550     1.0070 H     1 <1>   0.0800 
 28 H       -4.6180     0.0440     1.5770 H     1 <1>   0.0800 
 29 H       -5.8820     0.7900     0.8610 H     1 <1>   0.0800 
 30 H       -0.8960     4.8790    -1.3150 H     1 <1>   0.1500 
 31 H       -4.3480    -3.3690     1.5190 H     1 <1>   0.4500 
 32 H       -3.0240    -4.4140    -0.8540 H     1 <1>   0.0800 
 33 H       -4.0960    -5.2120     0.2800 H     1 <1>   0.0800 
 34 H       -1.5680    -3.0570     0.5360 H     1 <1>   0.0800 
 35 H       -2.0880    -4.1960     1.7620 H     1 <1>   0.0800 
 36 H       -2.1790    -2.4720     2.0610 H     1 <1>   0.0800 
 37 H       -6.5790    -3.3510     0.3160 H     1 <1>   0.0800 
 38 H       -6.6850    -2.7250    -1.3050 H     1 <1>   0.0800 
 39 H       -7.8320    -1.5130    -0.4310 H     1 <1>   0.0800 
 40 H       -7.2350     0.0460    -0.3400 H     1 <1>   0.0800 
 41 H       -4.7130    -3.5340    -2.0400 H     1 <1>   0.0800 
 42 H       -5.6390    -4.7900    -1.3220 H     1 <1>   0.0800 
 43 H       -8.4860    -0.6330     1.4550 H     1 <1>   0.4000 
@<TRIPOS>BOND
  1   1   2  2   
  2   2   3  am  
  3   2   4  1   
  4   3   5  1   
  5   3   6  1   
  6   4   7  2   
  7   4   8  1   
  8   5   9  1   
  9   5  21  1   
 10   5  22  1   
 11   6  10  1   
 12   6  23  1   
 13   6  24  1   
 14   7  11  1   
 15   7  25  1   
 16   8  12  2   
 17   8  26  1   
 18   9  13  1   
 19   9  14  1   
 20   9  27  1   
 21  10  14  1   
 22  10  28  1   
 23  10  29  1   
 24  11  12  1   
 25  12  30  1   
 26  13  15  1   
 27  13  16  1   
 28  13  31  1   
 29  14  17  1   
 30  14  18  1   
 31  15  19  1   
 32  15  32  1   
 33  15  33  1   
 34  16  34  1   
 35  16  35  1   
 36  16  36  1   
 37  17  19  1   
 38  17  37  1   
 39  17  38  1   
 40  18  20  1   
 41  18  39  1   
 42  18  40  1   
 43  19  41  1   
 44  19  42  1   
 45  20  43  1   
@<TRIPOS>SUBSTRUCTURE
  1 ****   3 GROUP 4 **** **** 0

# MOE 2024.06 (io_trps.svl 2023.06)
