@<TRIPOS>MOLECULE
NONAME
48 50 1 0 0 
SMALL
USER_CHARGES


@<TRIPOS>ATOM
  1 O       -0.4710     0.4780     1.1420 O.2   1 <1>  -0.5700 
  2 C       -1.3890     0.9710     0.5300 C.2   1 <1>   0.5690 
  3 N       -2.4660     0.2230     0.1490 N.am  1 <1>  -0.6600 
  4 C       -1.3240     2.4420     0.1650 C.3   1 <1>  -0.0990 
  5 C       -3.6350     0.6740    -0.6520 C.3   1 <1>   0.1400 
  6 C       -2.5720    -1.2270     0.4460 C.3   1 <1>   0.1400 
  7 C       -0.2340     3.1890     0.9440 C.3   1 <1>   0.0960 
  8 C       -4.6620    -0.4460    -0.4860 C.3   1 <1>   0.2000 
  9 C       -3.8050    -1.7070    -0.3290 C.3   1 <1>  -0.0800 
 10 N       -0.1850     4.6000     0.5190 N.pl3 1 <1>   0.3140 
 11 O       -5.3650    -0.2140     0.6870 O.3   1 <1>  -0.6800 
 12 C       -4.5250    -2.9040     0.3200 C.3   1 <1>   0.0200 
 13 N       -1.1820     5.4490     0.8300 N.2   1 <1>  -0.7070 
 14 C        0.7690     5.2130    -0.2210 C.2   1 <1>  -0.3320 
 15 C       -3.6910    -4.1750     0.3250 C.2   1 <1>  -0.0400 
 16 C       -0.8400     6.5770     0.2930 C.2   1 <1>   0.1080 
 17 C        0.3710     6.4930    -0.3800 C.2   1 <1>  -0.1500 
 18 C        2.0300     4.5510    -0.7520 C.3   1 <1>  -0.0600 
 19 O       -4.1420    -5.2160     0.9720 O.3   1 <1>  -0.0190 
 20 C       -2.5110    -4.5150    -0.2210 C.2   1 <1>  -0.1500 
 21 C       -1.6930     7.8180     0.4090 C.3   1 <1>  -0.0590 
 22 N       -3.3300    -6.2300     0.8930 N.2   1 <1>  -0.4100 
 23 C       -2.3370    -5.8360     0.1800 C.2   1 <1>   0.1080 
 24 C       -1.1450    -6.6990    -0.1690 C.3   1 <1>  -0.0590 
 25 H       -1.1300     2.5220    -0.8880 H     1 <1>   0.0800 
 26 H       -2.2700     2.9010     0.3850 H     1 <1>   0.0800 
 27 H       -4.0250     1.6180    -0.3120 H     1 <1>   0.0800 
 28 H       -3.3420     0.7520    -1.6840 H     1 <1>   0.0800 
 29 H       -1.6780    -1.7420     0.1390 H     1 <1>   0.0800 
 30 H       -2.7060    -1.3570     1.5070 H     1 <1>   0.0800 
 31 H        0.7250     2.7350     0.7790 H     1 <1>   0.0800 
 32 H       -0.4480     3.1610     1.9970 H     1 <1>   0.0800 
 33 H       -5.3640    -0.5020    -1.3000 H     1 <1>   0.0800 
 34 H       -3.4800    -1.9990    -1.3120 H     1 <1>   0.0800 
 35 H       -4.7310     0.0010     1.4010 H     1 <1>   0.4000 
 36 H       -5.4390    -3.1020    -0.2110 H     1 <1>   0.0800 
 37 H       -4.7870    -2.6690     1.3370 H     1 <1>   0.0800 
 38 H        0.8610     7.2920    -0.9050 H     1 <1>   0.1500 
 39 H        2.6050     5.2580    -1.3230 H     1 <1>   0.0800 
 40 H        1.7760     3.7230    -1.3880 H     1 <1>   0.0800 
 41 H        2.6350     4.1980     0.0630 H     1 <1>   0.0800 
 42 H       -1.8310    -3.9480    -0.8270 H     1 <1>   0.1500 
 43 H       -1.2430     8.6340    -0.1240 H     1 <1>   0.0800 
 44 H       -1.7950     8.0850     1.4450 H     1 <1>   0.0800 
 45 H       -2.6670     7.6220     0.0010 H     1 <1>   0.0800 
 46 H       -0.2460    -6.2490     0.2080 H     1 <1>   0.0800 
 47 H       -1.0710    -6.8040    -1.2360 H     1 <1>   0.0800 
 48 H       -1.2570    -7.6740     0.2700 H     1 <1>   0.0800 
@<TRIPOS>BOND
  1   1   2  2   
  2   2   3  am  
  3   2   4  1   
  4   3   5  1   
  5   3   6  1   
  6   4   7  1   
  7   4  25  1   
  8   4  26  1   
  9   5   8  1   
 10   5  27  1   
 11   5  28  1   
 12   6   9  1   
 13   6  29  1   
 14   6  30  1   
 15   7  10  1   
 16   7  31  1   
 17   7  32  1   
 18   8   9  1   
 19   8  11  1   
 20   8  33  1   
 21   9  12  1   
 22   9  34  1   
 23  10  13  1   
 24  10  14  1   
 25  11  35  1   
 26  12  15  1   
 27  12  36  1   
 28  12  37  1   
 29  13  16  2   
 30  14  17  2   
 31  14  18  1   
 32  15  19  1   
 33  15  20  2   
 34  16  17  1   
 35  16  21  1   
 36  17  38  1   
 37  18  39  1   
 38  18  40  1   
 39  18  41  1   
 40  19  22  1   
 41  20  23  1   
 42  20  42  1   
 43  21  43  1   
 44  21  44  1   
 45  21  45  1   
 46  22  23  2   
 47  23  24  1   
 48  24  46  1   
 49  24  47  1   
 50  24  48  1   
@<TRIPOS>SUBSTRUCTURE
  1 ****   3 GROUP 4 **** **** 0

# MOE 2024.06 (io_trps.svl 2023.06)
