@<TRIPOS>MOLECULE
NONAME
41 41 1 0 0 
SMALL
USER_CHARGES


@<TRIPOS>ATOM
  1 O        0.3780    -0.4280     1.9470 O.2   1 <1>  -0.5700 
  2 C        1.2610    -0.8820     1.2630 C.2   1 <1>   0.5690 
  3 N        2.1510    -0.1240     0.5550 N.am  1 <1>  -0.4940 
  4 C        1.4000    -2.3900     1.1860 C.3   1 <1>  -0.0990 
  5 C        2.3240     1.2800     0.4540 C.2   1 <1>  -0.0880 
  6 C        0.7530    -2.9640    -0.0860 C.3   1 <1>  -0.1600 
  7 N        1.3700     2.2530     0.5180 N.pl3 1 <1>   0.3140 
  8 C        3.5000     1.9190     0.2410 C.2   1 <1>  -0.1810 
  9 C        0.8430    -4.4890    -0.1170 C.3   1 <1>   0.1400 
 10 N        1.9080     3.4800     0.3470 N.2   1 <1>  -0.7070 
 11 C       -0.0860     2.1200     0.6480 C.3   1 <1>   0.0160 
 12 C        3.1750     3.2730     0.1870 C.2   1 <1>   0.1080 
 13 C        4.8920     1.3290     0.0920 C.3   1 <1>  -0.0590 
 14 N        0.2280    -4.9790    -1.3670 N.am  1 <1>  -0.7300 
 15 C        4.1500     4.4160    -0.0340 C.3   1 <1>   0.0210 
 16 C       -0.8900    -5.7210    -1.5390 C.2   1 <1>   0.5690 
 17 C        4.3370     4.7040    -1.5270 C.3   1 <1>  -0.2400 
 18 O       -1.2330    -6.0370    -2.6470 O.2   1 <1>  -0.5700 
 19 C       -1.7230    -6.1580    -0.3600 C.3   1 <1>  -0.1790 
 20 H        2.8770    -0.6530     0.0780 H     1 <1>   0.3700 
 21 H        0.9240    -2.8140     2.0530 H     1 <1>   0.0800 
 22 H        2.4420    -2.6510     1.2250 H     1 <1>   0.0800 
 23 H        1.2430    -2.5570    -0.9540 H     1 <1>   0.0800 
 24 H       -0.2840    -2.6730    -0.1130 H     1 <1>   0.0800 
 25 H        0.3390    -4.9050     0.7380 H     1 <1>   0.0800 
 26 H        1.8730    -4.8040    -0.0890 H     1 <1>   0.0800 
 27 H       -0.4160     1.2550     0.1050 H     1 <1>   0.0800 
 28 H       -0.5580     2.9980     0.2510 H     1 <1>   0.0800 
 29 H       -0.3350     2.0180     1.6880 H     1 <1>   0.0800 
 30 H        4.8730     0.2620     0.2130 H     1 <1>   0.0800 
 31 H        5.5440     1.7430     0.8400 H     1 <1>   0.0800 
 32 H        5.2850     1.5610    -0.8810 H     1 <1>   0.0800 
 33 H        0.7070    -4.7310    -2.2350 H     1 <1>   0.3700 
 34 H        5.0960     4.1780     0.4160 H     1 <1>   0.0800 
 35 H        3.7640     5.2930     0.4540 H     1 <1>   0.0800 
 36 H        4.7300     3.8380    -2.0280 H     1 <1>   0.0800 
 37 H        5.0140     5.5270    -1.6650 H     1 <1>   0.0800 
 38 H        3.3880     4.9550    -1.9680 H     1 <1>   0.0800 
 39 H       -2.0470    -5.2990     0.1960 H     1 <1>   0.0800 
 40 H       -1.1460    -6.8060     0.2720 H     1 <1>   0.0800 
 41 H       -2.5870    -6.6920    -0.7080 H     1 <1>   0.0800 
@<TRIPOS>BOND
  1   1   2  2   
  2   2   3  am  
  3   2   4  1   
  4   3   5  1   
  5   3  20  1   
  6   4   6  1   
  7   4  21  1   
  8   4  22  1   
  9   5   7  1   
 10   5   8  2   
 11   6   9  1   
 12   6  23  1   
 13   6  24  1   
 14   7  10  1   
 15   7  11  1   
 16   8  12  1   
 17   8  13  1   
 18   9  14  1   
 19   9  25  1   
 20   9  26  1   
 21  10  12  2   
 22  11  27  1   
 23  11  28  1   
 24  11  29  1   
 25  12  15  1   
 26  13  30  1   
 27  13  31  1   
 28  13  32  1   
 29  14  16  am  
 30  14  33  1   
 31  15  17  1   
 32  15  34  1   
 33  15  35  1   
 34  16  18  2   
 35  16  19  1   
 36  17  36  1   
 37  17  37  1   
 38  17  38  1   
 39  19  39  1   
 40  19  40  1   
 41  19  41  1   
@<TRIPOS>SUBSTRUCTURE
  1 ****   3 GROUP 4 **** **** 0

# MOE 2024.06 (io_trps.svl 2023.06)
