@<TRIPOS>MOLECULE
NONAME
46 48 1 0 0 
SMALL
USER_CHARGES


@<TRIPOS>ATOM
  1 S        0.1540     0.0050     0.6800 S.o2  1 <1>   1.3330 
  2 O        0.6540    -0.6480     1.8690 O.2   1 <1>  -0.6500 
  3 O       -0.6290     1.2130     0.8080 O.2   1 <1>  -0.6500 
  4 N       -0.7690    -1.1330    -0.1770 N.am  1 <1>  -0.8490 
  5 C        1.5010     0.3430    -0.4550 C.3   1 <1>  -0.0550 
  6 C       -0.2740    -2.5070    -0.0380 C.3   1 <1>   0.1160 
  7 C       -2.1900    -1.0770     0.1790 C.3   1 <1>   0.1160 
  8 C        2.4750     1.4320     0.0370 C.3   1 <1>  -0.0800 
  9 C        3.4550     1.8150    -1.0600 C.3   1 <1>   0.2200 
 10 C        3.4250     0.9050     1.1120 C.3   1 <1>   0.1200 
 11 N        3.9590     3.1830    -0.8080 N.am  1 <1>  -0.7300 
 12 C        4.5810     0.7970    -0.8760 C.3   1 <1>   0.1200 
 13 O        4.4680     0.2900     0.4230 O.3   1 <1>  -0.5600 
 14 C        3.7770     4.2770    -1.6110 C.2   1 <1>   0.5440 
 15 O        3.1370     4.1280    -2.6380 O.2   1 <1>  -0.5700 
 16 C        4.3420     5.5750    -1.2330 C.ar  1 <1>   0.3960 
 17 N        5.0420     5.6840    -0.1210 N.ar  1 <1>  -0.6200 
 18 C        4.1310     6.6950    -2.0690 C.ar  1 <1>  -0.1500 
 19 C        5.5640     6.8920     0.2210 C.ar  1 <1>   0.3100 
 20 C        4.6390     7.9170    -1.7560 C.ar  1 <1>  -0.1500 
 21 C        6.3190     7.0570     1.4050 C.ar  1 <1>   0.1900 
 22 C        5.3850     8.0460    -0.5750 C.ar  1 <1>   0.0000 
 23 F        6.5120     6.0180     2.1760 F     1 <1>  -0.1900 
 24 C        6.8670     8.2490     1.7950 C.ar  1 <1>  -0.1500 
 25 C        5.9520     9.2720    -0.1670 C.ar  1 <1>  -0.1500 
 26 C        6.6770     9.3760     0.9910 C.ar  1 <1>  -0.1500 
 27 H        2.0430    -0.5620    -0.6470 H     1 <1>   0.0800 
 28 H        1.0700     0.6690    -1.3830 H     1 <1>   0.0800 
 29 H       -0.8370    -3.1690    -0.6740 H     1 <1>   0.0800 
 30 H       -0.3670    -2.8390     0.9840 H     1 <1>   0.0800 
 31 H        0.7620    -2.5600    -0.3240 H     1 <1>   0.0800 
 32 H       -2.7470    -1.7990    -0.3920 H     1 <1>   0.0800 
 33 H       -2.5870    -0.0990    -0.0400 H     1 <1>   0.0800 
 34 H       -2.3200    -1.2750     1.2300 H     1 <1>   0.0800 
 35 H        1.9140     2.2850     0.3800 H     1 <1>   0.0800 
 36 H        3.0250     1.7560    -2.0460 H     1 <1>   0.0800 
 37 H        2.9780     0.1940     1.7830 H     1 <1>   0.0800 
 38 H        3.8430     1.7170     1.6820 H     1 <1>   0.0800 
 39 H        4.5170     3.3170     0.0420 H     1 <1>   0.3700 
 40 H        5.5550     1.2380    -1.0040 H     1 <1>   0.0800 
 41 H        4.4630    -0.0270    -1.5560 H     1 <1>   0.0800 
 42 H        3.5530     6.5580    -2.9660 H     1 <1>   0.1500 
 43 H        4.4830     8.7750    -2.3870 H     1 <1>   0.1500 
 44 H        7.4340     8.3230     2.7060 H     1 <1>   0.1500 
 45 H        5.8040    10.1380    -0.7890 H     1 <1>   0.1500 
 46 H        7.1060    10.3170     1.2940 H     1 <1>   0.1500 
@<TRIPOS>BOND
  1   1   2  2   
  2   1   3  2   
  3   1   4  am  
  4   1   5  1   
  5   4   6  1   
  6   4   7  1   
  7   5   8  1   
  8   5  27  1   
  9   5  28  1   
 10   6  29  1   
 11   6  30  1   
 12   6  31  1   
 13   7  32  1   
 14   7  33  1   
 15   7  34  1   
 16   8   9  1   
 17   8  10  1   
 18   8  35  1   
 19   9  11  1   
 20   9  12  1   
 21   9  36  1   
 22  10  13  1   
 23  10  37  1   
 24  10  38  1   
 25  11  14  am  
 26  11  39  1   
 27  12  13  1   
 28  12  40  1   
 29  12  41  1   
 30  14  15  2   
 31  14  16  1   
 32  16  17  ar  
 33  16  18  ar  
 34  17  19  ar  
 35  18  20  ar  
 36  18  42  1   
 37  19  21  ar  
 38  19  22  ar  
 39  20  22  ar  
 40  20  43  1   
 41  21  23  1   
 42  21  24  ar  
 43  22  25  ar  
 44  24  26  ar  
 45  24  44  1   
 46  25  26  ar  
 47  25  45  1   
 48  26  46  1   
@<TRIPOS>SUBSTRUCTURE
  1 ****  11 GROUP 4 **** **** 0

# MOE 2024.06 (io_trps.svl 2023.06)
