@<TRIPOS>MOLECULE
NONAME
65 69 1 0 0 
SMALL
USER_CHARGES


@<TRIPOS>ATOM
  1 O       -0.3030    -1.4180    -1.8810 O.2   1 <1>  -0.5700 
  2 C        0.1140    -2.0710    -0.9390 C.2   1 <1>   0.5440 
  3 N       -0.2000    -1.6220     0.3320 N.am  1 <1>  -0.6600 
  4 C        0.9340    -3.2530    -1.2110 C.ar  1 <1>   0.3960 
  5 C        0.3250    -2.1760     1.6010 C.3   1 <1>   0.1400 
  6 C       -0.9490    -0.3700     0.5760 C.3   1 <1>   0.1400 
  7 N        0.8600    -4.3520    -0.4360 N.ar  1 <1>  -0.6200 
  8 C        1.7880    -3.2020    -2.3190 C.ar  1 <1>   0.1600 
  9 C       -0.2370    -1.2730     2.6950 C.3   1 <1>  -0.1600 
 10 C       -0.5640     0.0410     1.9920 C.3   1 <1>  -0.1600 
 11 C        1.6600    -5.3200    -0.8220 C.ar  1 <1>   0.4100 
 12 N        2.6080    -4.1690    -2.7100 N.ar  1 <1>  -0.6200 
 13 N        1.5550    -6.4450    -0.0480 N.pl3 1 <1>  -0.8690 
 14 C        2.5230    -5.2190    -1.9230 C.ar  1 <1>   0.1600 
 15 C        1.0830    -7.6930    -0.6510 C.3   1 <1>   0.2890 
 16 C       -0.4370    -7.7580    -0.5270 C.3   1 <1>  -0.1600 
 17 C        1.7410    -8.8610     0.0770 C.3   1 <1>  -0.1600 
 18 C       -0.9610    -9.1000    -1.0290 C.3   1 <1>   0.3430 
 19 C        1.1930   -10.1930    -0.4270 C.3   1 <1>   0.3430 
 20 N       -0.2920   -10.2140    -0.2900 N.4   1 <1>  -0.9590 
 21 C       -0.8530   -11.5390    -0.6770 C.3   1 <1>   0.4860 
 22 C       -2.3180   -11.5760    -0.2870 C.ar  1 <1>  -0.1440 
 23 C       -2.6880   -11.6930     1.0450 C.ar  1 <1>  -0.1500 
 24 C       -3.3050   -11.4860    -1.2580 C.ar  1 <1>  -0.1500 
 25 C       -4.0260   -11.7050     1.3960 C.ar  1 <1>  -0.1500 
 26 C       -4.6390   -11.5000    -0.8970 C.ar  1 <1>  -0.1500 
 27 C       -5.0250   -11.6060     0.4350 C.ar  1 <1>   0.0000 
 28 C       -6.4220   -11.6200     0.8080 C.ar  1 <1>   0.0000 
 29 C       -7.2630   -10.5610     0.4790 C.ar  1 <1>  -0.1500 
 30 C       -6.9650   -12.6940     1.5080 C.ar  1 <1>  -0.1500 
 31 C       -8.6000   -10.5720     0.8360 C.ar  1 <1>  -0.1500 
 32 C       -8.3000   -12.7100     1.8680 C.ar  1 <1>  -0.1500 
 33 C       -9.1210   -11.6480     1.5320 C.ar  1 <1>  -0.1500 
 34 H        1.4010    -2.1350     1.5910 H     1 <1>   0.0800 
 35 H       -0.0010    -3.1930     1.7410 H     1 <1>   0.0800 
 36 H       -2.0040    -0.5770     0.5140 H     1 <1>   0.0800 
 37 H       -0.6880     0.3900    -0.1420 H     1 <1>   0.0800 
 38 H        1.7890    -2.3020    -2.9100 H     1 <1>   0.1500 
 39 H        0.4600    -1.1440     3.5040 H     1 <1>   0.0800 
 40 H       -1.1410    -1.7140     3.0790 H     1 <1>   0.0800 
 41 H       -1.3540     0.5840     2.4790 H     1 <1>   0.0800 
 42 H        0.3140     0.6610     1.9470 H     1 <1>   0.0800 
 43 H        1.0500    -6.2100     0.8120 H     1 <1>   0.4000 
 44 H        3.1610    -6.0550    -2.1390 H     1 <1>   0.1500 
 45 H        1.3600    -7.7190    -1.6940 H     1 <1>   0.0800 
 46 H       -0.8760    -6.9710    -1.1140 H     1 <1>   0.0800 
 47 H       -0.7390    -7.6190     0.4960 H     1 <1>   0.0800 
 48 H        1.5730    -8.7820     1.1370 H     1 <1>   0.0800 
 49 H        2.8020    -8.8300    -0.0950 H     1 <1>   0.0800 
 50 H       -0.7680    -9.1910    -2.0860 H     1 <1>   0.0800 
 51 H       -2.0290    -9.1410    -0.8760 H     1 <1>   0.0800 
 52 H        1.6310   -10.9970     0.1430 H     1 <1>   0.0800 
 53 H        1.4670   -10.3250    -1.4620 H     1 <1>   0.0800 
 54 H       -0.5310   -10.0910     0.7030 H     1 <1>   0.4500 
 55 H       -0.3320   -12.3300    -0.1630 H     1 <1>   0.0800 
 56 H       -0.7510   -11.6960    -1.7390 H     1 <1>   0.0800 
 57 H       -1.9510   -11.7810     1.8250 H     1 <1>   0.1500 
 58 H       -3.0530   -11.4090    -2.3020 H     1 <1>   0.1500 
 59 H       -4.3100   -11.7920     2.4320 H     1 <1>   0.1500 
 60 H       -5.4030   -11.4360    -1.6540 H     1 <1>   0.1500 
 61 H       -6.8660    -9.7190    -0.0590 H     1 <1>   0.1500 
 62 H       -6.3350   -13.5250     1.7680 H     1 <1>   0.1500 
 63 H       -9.2360    -9.7450     0.5730 H     1 <1>   0.1500 
 64 H       -8.7030   -13.5490     2.4090 H     1 <1>   0.1500 
 65 H      -10.1600   -11.6590     1.8110 H     1 <1>   0.1500 
@<TRIPOS>BOND
  1   1   2  2   
  2   2   3  am  
  3   2   4  1   
  4   3   5  1   
  5   3   6  1   
  6   4   7  ar  
  7   4   8  ar  
  8   5   9  1   
  9   5  34  1   
 10   5  35  1   
 11   6  10  1   
 12   6  36  1   
 13   6  37  1   
 14   7  11  ar  
 15   8  12  ar  
 16   8  38  1   
 17   9  10  1   
 18   9  39  1   
 19   9  40  1   
 20  10  41  1   
 21  10  42  1   
 22  11  13  1   
 23  11  14  ar  
 24  12  14  ar  
 25  13  15  1   
 26  13  43  1   
 27  14  44  1   
 28  15  16  1   
 29  15  17  1   
 30  15  45  1   
 31  16  18  1   
 32  16  46  1   
 33  16  47  1   
 34  17  19  1   
 35  17  48  1   
 36  17  49  1   
 37  18  20  1   
 38  18  50  1   
 39  18  51  1   
 40  19  20  1   
 41  19  52  1   
 42  19  53  1   
 43  20  21  1   
 44  20  54  1   
 45  21  22  1   
 46  21  55  1   
 47  21  56  1   
 48  22  23  ar  
 49  22  24  ar  
 50  23  25  ar  
 51  23  57  1   
 52  24  26  ar  
 53  24  58  1   
 54  25  27  ar  
 55  25  59  1   
 56  26  27  ar  
 57  26  60  1   
 58  27  28  1   
 59  28  29  ar  
 60  28  30  ar  
 61  29  31  ar  
 62  29  61  1   
 63  30  32  ar  
 64  30  62  1   
 65  31  33  ar  
 66  31  63  1   
 67  32  33  ar  
 68  32  64  1   
 69  33  65  1   
@<TRIPOS>SUBSTRUCTURE
  1 ****  16 GROUP 4 **** **** 0

# MOE 2024.06 (io_trps.svl 2023.06)
