@<TRIPOS>MOLECULE
NONAME
46 49 1 0 0 
SMALL
USER_CHARGES


@<TRIPOS>ATOM
  1 S        2.7100     0.8130    -1.3830 S.3   1 <1>  -0.0800 
  2 C        1.7290     2.1730    -0.8810 C.2   1 <1>  -0.1400 
  3 C        4.1710     1.6640    -0.8990 C.2   1 <1>  -0.1100 
  4 C        2.4720     3.1670    -0.3780 C.2   1 <1>  -0.1810 
  5 C        0.2310     2.1930    -1.0210 C.3   1 <1>   0.0200 
  6 C        3.8780     2.8790    -0.3960 C.2   1 <1>  -0.1500 
  7 C        1.8240     4.4520     0.1420 C.3   1 <1>   0.4610 
  8 C       -0.2120     3.6620    -0.9230 C.3   1 <1>   0.1200 
  9 O        0.4140     4.3130     0.1580 O.3   1 <1>  -0.5600 
 10 C        2.2330     4.7010     1.6000 C.3   1 <1>  -0.1600 
 11 C        2.1990     5.6500    -0.7430 C.3   1 <1>  -0.1600 
 12 C        1.6940     6.0340     2.1240 C.3   1 <1>   0.1400 
 13 C        1.6620     6.9620    -0.1710 C.3   1 <1>   0.1400 
 14 N        2.1680     7.1140     1.2200 N.am  1 <1>  -0.6600 
 15 C        3.1060     8.0320     1.6310 C.2   1 <1>   0.5690 
 16 O        3.4110     8.1370     2.7980 O.2   1 <1>  -0.5700 
 17 C        3.8240     8.9470     0.6540 C.3   1 <1>   0.0440 
 18 C        4.6750     8.1830    -0.3550 C.ar  1 <1>   0.1670 
 19 N        4.3310     8.3770    -1.6230 N.ar  1 <1>  -0.6200 
 20 C        5.7270     7.3530     0.0420 C.ar  1 <1>  -0.1430 
 21 C        5.0360     7.7240    -2.5290 C.ar  1 <1>   0.1600 
 22 C        6.4430     6.6760    -0.9260 C.ar  1 <1>  -0.1500 
 23 C        6.1330     7.1510     1.4980 C.3   1 <1>  -0.0970 
 24 C        6.0830     6.8710    -2.2390 C.ar  1 <1>  -0.1500 
 25 H        5.1070     1.1560    -1.0470 H     1 <1>   0.1500 
 26 H       -0.2200     1.6130    -0.2370 H     1 <1>   0.0800 
 27 H       -0.0640     1.7860    -1.9710 H     1 <1>   0.0800 
 28 H        4.5980     3.5920    -0.0350 H     1 <1>   0.1500 
 29 H       -1.2760     3.7190    -0.7700 H     1 <1>   0.0800 
 30 H        0.0340     4.1890    -1.8270 H     1 <1>   0.0800 
 31 H        3.3040     4.7170     1.6800 H     1 <1>   0.0800 
 32 H        1.8740     3.8930     2.2110 H     1 <1>   0.0800 
 33 H        1.8360     5.5050    -1.7420 H     1 <1>   0.0800 
 34 H        3.2690     5.7180    -0.8060 H     1 <1>   0.0800 
 35 H        2.0360     6.1960     3.1310 H     1 <1>   0.0800 
 36 H        0.6170     6.0230     2.1340 H     1 <1>   0.0800 
 37 H        0.5850     6.9360    -0.1500 H     1 <1>   0.0800 
 38 H        1.9550     7.7880    -0.7910 H     1 <1>   0.0800 
 39 H        4.4580     9.6200     1.1990 H     1 <1>   0.0800 
 40 H        3.0920     9.5480     0.1480 H     1 <1>   0.0800 
 41 H        4.7650     7.8760    -3.5600 H     1 <1>   0.1500 
 42 H        7.2580     6.0200    -0.6720 H     1 <1>   0.1500 
 43 H        6.1200     8.0830     2.0330 H     1 <1>   0.0800 
 44 H        7.1260     6.7470     1.5670 H     1 <1>   0.0800 
 45 H        5.4560     6.4660     1.9770 H     1 <1>   0.0800 
 46 H        6.6080     6.3700    -3.0320 H     1 <1>   0.1500 
@<TRIPOS>BOND
  1   1   2  1   
  2   1   3  1   
  3   2   4  2   
  4   2   5  1   
  5   3   6  2   
  6   3  25  1   
  7   4   6  1   
  8   4   7  1   
  9   5   8  1   
 10   5  26  1   
 11   5  27  1   
 12   6  28  1   
 13   7   9  1   
 14   7  10  1   
 15   7  11  1   
 16   8   9  1   
 17   8  29  1   
 18   8  30  1   
 19  10  12  1   
 20  10  31  1   
 21  10  32  1   
 22  11  13  1   
 23  11  33  1   
 24  11  34  1   
 25  12  14  1   
 26  12  35  1   
 27  12  36  1   
 28  13  14  1   
 29  13  37  1   
 30  13  38  1   
 31  14  15  am  
 32  15  16  2   
 33  15  17  1   
 34  17  18  1   
 35  17  39  1   
 36  17  40  1   
 37  18  19  ar  
 38  18  20  ar  
 39  19  21  ar  
 40  20  22  ar  
 41  20  23  1   
 42  21  24  ar  
 43  21  41  1   
 44  22  24  ar  
 45  22  42  1   
 46  23  43  1   
 47  23  44  1   
 48  23  45  1   
 49  24  46  1   
@<TRIPOS>SUBSTRUCTURE
  1 ****  11 GROUP 4 **** **** 0

# MOE 2024.06 (io_trps.svl 2023.06)
