@<TRIPOS>MOLECULE
NONAME
50 54 1 0 0 
SMALL
USER_CHARGES


@<TRIPOS>ATOM
  1 O       -0.4620     0.7800    -0.0270 O.2   1 <1>  -0.5700 
  2 C       -1.5730     1.2680     0.1090 C.2   1 <1>   0.7160 
  3 N       -2.6550     0.5360    -0.3580 N.am  1 <1>  -0.6600 
  4 C       -1.6900     2.5700     0.7690 C.2   1 <1>   0.2030 
  5 C       -2.4910    -0.5860    -1.3240 C.3   1 <1>   0.1400 
  6 C       -4.0620     0.7390     0.0860 C.3   1 <1>   0.1400 
  7 N       -2.6510     3.4750     0.6030 N.2   1 <1>  -0.7070 
  8 C       -0.7390     3.0310     1.6820 C.2   1 <1>  -0.1500 
  9 C       -2.9840    -1.8840    -0.6840 C.3   1 <1>  -0.1600 
 10 C       -4.5750    -0.5480     0.7350 C.3   1 <1>  -0.1600 
 11 N       -2.3110     4.4980     1.4010 N.pl3 1 <1>   0.6010 
 12 C       -1.1460     4.2550     2.0850 C.2   1 <1>  -0.0260 
 13 C       -4.4350    -1.7650    -0.1960 C.3   1 <1>   0.4240 
 14 C       -2.9740     5.6930     1.6000 C.2   1 <1>  -0.1810 
 15 N       -0.5880     5.1470     2.9790 N.2   1 <1>  -0.5760 
 16 O       -5.1960    -1.5180    -1.3550 O.3   1 <1>  -0.5600 
 17 C       -4.8740    -3.0650     0.5130 C.ar  1 <1>  -0.1430 
 18 C       -2.4370     6.5820     2.4760 C.2   1 <1>  -0.1360 
 19 C       -1.2240     6.2590     3.1520 C.2   1 <1>   0.3760 
 20 C       -6.5590    -1.8070    -1.3060 C.3   1 <1>   0.1200 
 21 C       -5.9640    -3.8010     0.0590 C.ar  1 <1>  -0.1430 
 22 C       -4.1860    -3.5230     1.6320 C.ar  1 <1>  -0.1500 
 23 C       -6.7370    -3.3140    -1.1510 C.3   1 <1>  -0.0170 
 24 C       -6.3470    -4.9680     0.6990 C.ar  1 <1>  -0.1500 
 25 C       -4.5690    -4.6860     2.2740 C.ar  1 <1>  -0.1500 
 26 C       -5.6490    -5.4180     1.8150 C.ar  1 <1>   0.0830 
 27 O       -5.9590    -6.5480     2.4990 O.3   1 <1>  -0.3630 
 28 C       -7.0270    -7.3770     2.1000 C.3   1 <1>   0.0400 
 29 H       -1.4610    -0.6940    -1.6180 H     1 <1>   0.0800 
 30 H       -3.0640    -0.3720    -2.2100 H     1 <1>   0.0800 
 31 H       -4.6670     0.9960    -0.7670 H     1 <1>   0.0800 
 32 H       -4.1360     1.5350     0.8030 H     1 <1>   0.0800 
 33 H        0.1450     2.5040     1.9930 H     1 <1>   0.1500 
 34 H       -2.3310    -2.1190     0.1350 H     1 <1>   0.0800 
 35 H       -2.9170    -2.6890    -1.3920 H     1 <1>   0.0800 
 36 H       -5.5990    -0.4270     1.0320 H     1 <1>   0.0800 
 37 H       -4.0080    -0.7170     1.6310 H     1 <1>   0.0800 
 38 H       -3.8790     5.8360     1.0410 H     1 <1>   0.1500 
 39 H       -2.8920     7.5320     2.6850 H     1 <1>   0.1500 
 40 H       -0.8280     6.9860     3.8380 H     1 <1>   0.0600 
 41 H       -7.0010    -1.4680    -2.2260 H     1 <1>   0.0800 
 42 H       -7.0060    -1.2770    -0.4830 H     1 <1>   0.0800 
 43 H       -3.3420    -2.9780     2.0170 H     1 <1>   0.1500 
 44 H       -6.3760    -3.8090    -2.0350 H     1 <1>   0.0800 
 45 H       -7.7820    -3.5360    -1.0400 H     1 <1>   0.0800 
 46 H       -7.1890    -5.5160     0.3210 H     1 <1>   0.1500 
 47 H       -4.0320    -5.0350     3.1370 H     1 <1>   0.1500 
 48 H       -7.0750    -8.2090     2.7790 H     1 <1>   0.0800 
 49 H       -6.8400    -7.7310     1.1010 H     1 <1>   0.0800 
 50 H       -7.9420    -6.8140     2.1460 H     1 <1>   0.0800 
@<TRIPOS>BOND
  1   1   2  2   
  2   2   3  am  
  3   2   4  1   
  4   3   5  1   
  5   3   6  1   
  6   4   7  2   
  7   4   8  1   
  8   5   9  1   
  9   5  29  1   
 10   5  30  1   
 11   6  10  1   
 12   6  31  1   
 13   6  32  1   
 14   7  11  1   
 15   8  12  2   
 16   8  33  1   
 17   9  13  1   
 18   9  34  1   
 19   9  35  1   
 20  10  13  1   
 21  10  36  1   
 22  10  37  1   
 23  11  12  1   
 24  11  14  1   
 25  12  15  1   
 26  13  16  1   
 27  13  17  1   
 28  14  18  2   
 29  14  38  1   
 30  15  19  2   
 31  16  20  1   
 32  17  21  ar  
 33  17  22  ar  
 34  18  19  1   
 35  18  39  1   
 36  19  40  1   
 37  20  23  1   
 38  20  41  1   
 39  20  42  1   
 40  21  23  1   
 41  21  24  ar  
 42  22  25  ar  
 43  22  43  1   
 44  23  44  1   
 45  23  45  1   
 46  24  26  ar  
 47  24  46  1   
 48  25  26  ar  
 49  25  47  1   
 50  26  27  1   
 51  27  28  1   
 52  28  48  1   
 53  28  49  1   
 54  28  50  1   
@<TRIPOS>SUBSTRUCTURE
  1 ****  10 GROUP 4 **** **** 0

# MOE 2024.06 (io_trps.svl 2023.06)
