@<TRIPOS>MOLECULE
Untitled Document
59 62 1 0 0 
SMALL
USER_CHARGES


@<TRIPOS>ATOM
  1 O        2.1470     2.1880    -1.7000 O.2   1 <1>  -0.5700 
  2 C        2.4190     2.8240    -0.7250 C.2   1 <1>   0.4480 
  3 C        1.4460     3.0520     0.4280 C.3   1 <1>  -0.0190 
  4 C        3.7830     3.4540    -0.5580 C.3   1 <1>  -0.0990 
  5 C        1.2840     4.5660     0.7520 C.3   1 <1>   0.0000 
  6 C        0.0910     2.3350     0.2030 C.3   1 <1>  -0.0990 
  7 C        3.6600     4.9540    -0.2450 C.3   1 <1>  -0.0800 
  8 C        2.7040     5.1950     0.9640 C.3   1 <1>  -0.0800 
  9 C        0.4410     4.7120     2.0560 C.3   1 <1>  -0.1600 
 10 C        0.5310     5.2750    -0.4060 C.3   1 <1>  -0.2400 
 11 C       -1.0200     2.8510     1.1020 C.2   1 <1>   0.3280 
 12 C        5.0340     5.5630     0.0860 C.3   1 <1>  -0.0800 
 13 C        2.6880     6.6900     1.4050 C.3   1 <1>  -0.1600 
 14 C       -0.5140     3.5390     2.3650 C.3   1 <1>  -0.0990 
 15 N       -2.2330     2.7050     0.7700 N.2   1 <1>  -0.5130 
 16 C        4.9690     7.0770     0.3340 C.3   1 <1>   0.0610 
 17 C        6.2230     5.3720    -0.8620 C.3   1 <1>  -0.1600 
 18 C        4.0970     7.3010     1.5830 C.3   1 <1>  -0.1600 
 19 O       -3.1820     3.1700     1.5530 O.3   1 <1>  -0.2170 
 20 C        6.4520     7.3960     0.4710 C.2   1 <1>   0.4480 
 21 C        4.4240     7.9040    -0.8600 C.3   1 <1>  -0.2400 
 22 C        7.2540     6.3940    -0.3420 C.3   1 <1>  -0.0990 
 23 C       -4.4870     2.8250     1.1730 C.3   1 <1>   0.1200 
 24 O        6.9270     8.2740     1.1270 O.2   1 <1>  -0.5700 
 25 C       -4.7590     3.4230    -0.2130 C.3   1 <1>   0.3430 
 26 N       -6.0850     3.0010    -0.7540 N.4   1 <1>  -0.8530 
 27 H        1.9000     2.5910     1.2860 H     1 <1>   0.0800 
 28 H        4.2990     2.9470     0.2360 H     1 <1>   0.0800 
 29 H        4.3420     3.3120    -1.4660 H     1 <1>   0.0800 
 30 H        0.2170     1.2800     0.3680 H     1 <1>   0.0800 
 31 H       -0.2270     2.4620    -0.8170 H     1 <1>   0.0800 
 32 H        3.2660     5.4350    -1.1220 H     1 <1>   0.0800 
 33 H        3.1430     4.6650     1.7930 H     1 <1>   0.0800 
 34 H        1.0920     4.8060     2.9080 H     1 <1>   0.0800 
 35 H       -0.1320     5.6220     2.0090 H     1 <1>   0.0800 
 36 H        0.4330     6.3280    -0.2250 H     1 <1>   0.0800 
 37 H       -0.4650     4.8930    -0.5230 H     1 <1>   0.0800 
 38 H        1.0370     5.1440    -1.3450 H     1 <1>   0.0800 
 39 H        5.3460     5.1060     1.0130 H     1 <1>   0.0800 
 40 H        2.1520     7.2840     0.6900 H     1 <1>   0.0800 
 41 H        2.1670     6.7930     2.3410 H     1 <1>   0.0800 
 42 H       -1.3250     3.8960     2.9740 H     1 <1>   0.0800 
 43 H        0.0100     2.8020     2.9470 H     1 <1>   0.0800 
 44 H        6.6120     4.3690    -0.8290 H     1 <1>   0.0800 
 45 H        5.9380     5.6060    -1.8730 H     1 <1>   0.0800 
 46 H        4.5740     6.8500     2.4360 H     1 <1>   0.0800 
 47 H        4.0180     8.3550     1.7850 H     1 <1>   0.0800 
 48 H        3.4080     7.6630    -1.1030 H     1 <1>   0.0800 
 49 H        5.0200     7.7560    -1.7420 H     1 <1>   0.0800 
 50 H        4.4640     8.9510    -0.6150 H     1 <1>   0.0800 
 51 H        7.7660     6.8860    -1.1490 H     1 <1>   0.0800 
 52 H        7.9710     5.9210     0.3040 H     1 <1>   0.0800 
 53 H       -4.5440     1.7510     1.1610 H     1 <1>   0.0800 
 54 H       -5.1530     3.2270     1.9150 H     1 <1>   0.0800 
 55 H       -3.9800     3.0970    -0.8850 H     1 <1>   0.0800 
 56 H       -4.7160     4.4980    -0.1420 H     1 <1>   0.0800 
 57 H       -6.1270     1.9790    -0.8510 H     1 <1>   0.4500 
 58 H       -6.2350     3.4070    -1.6860 H     1 <1>   0.4500 
 59 H       -6.8550     3.3050    -0.1470 H     1 <1>   0.4500 
@<TRIPOS>BOND
  1   1   2  2   
  2   2   3  1   
  3   2   4  1   
  4   3   5  1   
  5   3   6  1   
  6   3  27  1   
  7   4   7  1   
  8   4  28  1   
  9   4  29  1   
 10   5   8  1   
 11   5   9  1   
 12   5  10  1   
 13   6  11  1   
 14   6  30  1   
 15   6  31  1   
 16   7   8  1   
 17   7  12  1   
 18   7  32  1   
 19   8  13  1   
 20   8  33  1   
 21   9  14  1   
 22   9  34  1   
 23   9  35  1   
 24  10  36  1   
 25  10  37  1   
 26  10  38  1   
 27  11  14  1   
 28  11  15  2   
 29  12  16  1   
 30  12  17  1   
 31  12  39  1   
 32  13  18  1   
 33  13  40  1   
 34  13  41  1   
 35  14  42  1   
 36  14  43  1   
 37  15  19  1   
 38  16  18  1   
 39  16  20  1   
 40  16  21  1   
 41  17  22  1   
 42  17  44  1   
 43  17  45  1   
 44  18  46  1   
 45  18  47  1   
 46  19  23  1   
 47  20  22  1   
 48  20  24  2   
 49  21  48  1   
 50  21  49  1   
 51  21  50  1   
 52  22  51  1   
 53  22  52  1   
 54  23  25  1   
 55  23  53  1   
 56  23  54  1   
 57  25  26  1   
 58  25  55  1   
 59  25  56  1   
 60  26  57  1   
 61  26  58  1   
 62  26  59  1   
@<TRIPOS>SUBSTRUCTURE
  1 ****   5 GROUP 4 **** **** 0

# MOE 2024.06 (io_trps.svl 2023.06)
