@<TRIPOS>MOLECULE
NONAME
54 56 1 0 0 
SMALL
USER_CHARGES


@<TRIPOS>ATOM
  1 O       -0.3330    -0.1570    -0.9650 O.2   1 <1>  -0.5700 
  2 C       -1.2690     0.5190    -0.6150 C.2   1 <1>   0.5690 
  3 N       -2.4600    -0.0580    -0.2320 N.am  1 <1>  -0.6600 
  4 C       -1.1000     2.0300    -0.6360 C.3   1 <1>  -0.0990 
  5 C       -3.7310     0.6910     0.0300 C.3   1 <1>   0.1400 
  6 C       -2.5370    -1.5370    -0.0180 C.3   1 <1>   0.1400 
  7 C        0.3690     2.4540    -0.5910 C.3   1 <1>   0.1200 
  8 C       -4.8790     0.0800    -0.8090 C.3   1 <1>   0.4230 
  9 C       -3.7320    -2.1370    -0.7750 C.3   1 <1>  -0.1600 
 10 O        0.4250     3.8370    -0.6450 O.3   1 <1>  -0.6800 
 11 N       -6.2110     0.7650    -0.7080 N.4   1 <1>  -0.9590 
 12 C       -5.0740    -1.4280    -0.4750 C.3   1 <1>   0.0000 
 13 C       -7.1960     0.2800    -1.7300 C.3   1 <1>   0.3430 
 14 C       -6.2100     2.2490    -0.6050 C.3   1 <1>   0.4860 
 15 C       -6.1900    -2.0470    -1.3710 C.3   1 <1>  -0.1600 
 16 C       -5.4340    -1.6680     1.0230 C.3   1 <1>   0.1200 
 17 C       -6.7730    -1.0450    -2.3820 C.3   1 <1>  -0.1600 
 18 C       -7.5210     2.7050     0.0200 C.ar  1 <1>  -0.1440 
 19 O       -6.5990    -0.9940     1.3820 O.3   1 <1>  -0.6800 
 20 C       -7.6950     2.6570     1.4060 C.ar  1 <1>   0.0730 
 21 C       -8.5420     3.1760    -0.7930 C.ar  1 <1>  -0.1500 
 22 C       -6.6450     2.1830     2.2630 C.1   1 <1>   0.4840 
 23 C       -8.9060     3.0760     1.9440 C.ar  1 <1>  -0.1500 
 24 C       -9.7400     3.5890    -0.2390 C.ar  1 <1>  -0.1500 
 25 N       -5.7360     1.7650     2.8090 N.1   1 <1>  -0.5570 
 26 C       -9.9230     3.5370     1.1290 C.ar  1 <1>  -0.1500 
 27 H       -1.5520     2.4090    -1.5330 H     1 <1>   0.0800 
 28 H       -1.5830     2.4520     0.2240 H     1 <1>   0.0800 
 29 H       -3.9550     0.6450     1.0810 H     1 <1>   0.0800 
 30 H       -3.6050     1.7190    -0.2470 H     1 <1>   0.0800 
 31 H       -1.6350    -2.0200    -0.3590 H     1 <1>   0.0800 
 32 H       -2.6150    -1.7330     1.0370 H     1 <1>   0.0800 
 33 H        0.9290     2.0520    -1.4200 H     1 <1>   0.0800 
 34 H        0.8250     2.1360     0.3310 H     1 <1>   0.0800 
 35 H       -4.5570     0.1470    -1.8350 H     1 <1>   0.0800 
 36 H       -3.5160    -2.0800    -1.8280 H     1 <1>   0.0800 
 37 H       -3.8030    -3.1820    -0.5260 H     1 <1>   0.0800 
 38 H        0.4830     4.1460    -1.5710 H     1 <1>   0.4000 
 39 H       -6.5710     0.3850     0.1920 H     1 <1>   0.4500 
 40 H       -8.1530     0.1460    -1.2500 H     1 <1>   0.0800 
 41 H       -7.3200     1.0190    -2.5050 H     1 <1>   0.0800 
 42 H       -5.3980     2.5840     0.0180 H     1 <1>   0.0800 
 43 H       -6.0890     2.6890    -1.5820 H     1 <1>   0.0800 
 44 H       -5.8210    -2.9050    -1.9080 H     1 <1>   0.0800 
 45 H       -7.0030    -2.4070    -0.7620 H     1 <1>   0.0800 
 46 H       -4.6540    -1.3360     1.6870 H     1 <1>   0.0800 
 47 H       -5.5960    -2.7190     1.1990 H     1 <1>   0.0800 
 48 H       -7.6270    -1.4820    -2.8690 H     1 <1>   0.0800 
 49 H       -6.0480    -0.8440    -3.1520 H     1 <1>   0.0800 
 50 H       -6.8350    -1.2110     2.3130 H     1 <1>   0.4000 
 51 H       -8.4230     3.2350    -1.8620 H     1 <1>   0.1500 
 52 H       -9.0610     3.0450     3.0110 H     1 <1>   0.1500 
 53 H      -10.5330     3.9550    -0.8710 H     1 <1>   0.1500 
 54 H      -10.8570     3.8600     1.5600 H     1 <1>   0.1500 
@<TRIPOS>BOND
  1   1   2  2   
  2   2   3  am  
  3   2   4  1   
  4   3   5  1   
  5   3   6  1   
  6   4   7  1   
  7   4  27  1   
  8   4  28  1   
  9   5   8  1   
 10   5  29  1   
 11   5  30  1   
 12   6   9  1   
 13   6  31  1   
 14   6  32  1   
 15   7  10  1   
 16   7  33  1   
 17   7  34  1   
 18   8  11  1   
 19   8  12  1   
 20   8  35  1   
 21   9  12  1   
 22   9  36  1   
 23   9  37  1   
 24  10  38  1   
 25  11  13  1   
 26  11  14  1   
 27  11  39  1   
 28  12  15  1   
 29  12  16  1   
 30  13  17  1   
 31  13  40  1   
 32  13  41  1   
 33  14  18  1   
 34  14  42  1   
 35  14  43  1   
 36  15  17  1   
 37  15  44  1   
 38  15  45  1   
 39  16  19  1   
 40  16  46  1   
 41  16  47  1   
 42  17  48  1   
 43  17  49  1   
 44  18  20  ar  
 45  18  21  ar  
 46  19  50  1   
 47  20  22  1   
 48  20  23  ar  
 49  21  24  ar  
 50  21  51  1   
 51  22  25  3   
 52  23  26  ar  
 53  23  52  1   
 54  24  26  ar  
 55  24  53  1   
 56  26  54  1   
@<TRIPOS>SUBSTRUCTURE
  1 ****   8 GROUP 4 **** **** 0

# MOE 2024.06 (io_trps.svl 2023.06)
