@<TRIPOS>MOLECULE
Untitled Document
49 52 1 0 0 
SMALL
USER_CHARGES


@<TRIPOS>ATOM
  1 S       -0.3400     0.6500    -0.0560 S.3   1 <1>  -0.0800 
  2 C       -0.4860    -1.0360     0.3030 C.2   1 <1>   0.1980 
  3 C        1.3020     0.3260    -0.4870 C.2   1 <1>   0.1980 
  4 N        0.5940    -1.6800     0.1040 N.2   1 <1>  -0.3380 
  5 C       -1.8240    -1.5560     0.8040 C.3   1 <1>   0.2900 
  6 N        1.6210    -0.8960    -0.3500 N.2   1 <1>  -0.3380 
  7 C        2.1530     1.4810    -0.9620 C.3   1 <1>  -0.0600 
  8 N       -2.8710    -1.4340    -0.2210 N.3   1 <1>  -0.9000 
  9 C       -4.1300    -2.0510     0.2060 C.3   1 <1>   0.1100 
 10 C       -5.2260    -1.7860    -0.8300 C.3   1 <1>   0.1400 
 11 N       -6.4800    -2.5130    -0.4560 N.am  1 <1>  -0.4200 
 12 C       -6.6630    -3.8130    -0.8920 C.2   1 <1>   0.5440 
 13 C       -7.4230    -1.8830     0.3340 C.2   1 <1>   0.5440 
 14 O       -5.7570    -4.3690    -1.4890 O.2   1 <1>  -0.5700 
 15 C       -7.9040    -4.4970    -0.6300 C.ar  1 <1>   0.0860 
 16 O       -7.1800    -0.7780     0.7820 O.2   1 <1>  -0.5700 
 17 C       -8.6760    -2.5410     0.6340 C.ar  1 <1>   0.0860 
 18 C       -8.9060    -3.8480     0.1320 C.ar  1 <1>   0.0000 
 19 C       -8.1500    -5.7760    -1.0980 C.ar  1 <1>  -0.1500 
 20 C       -9.6530    -1.9350     1.4010 C.ar  1 <1>  -0.1500 
 21 C      -10.1310    -4.5050     0.4020 C.ar  1 <1>   0.0000 
 22 C       -9.3530    -6.4160    -0.8500 C.ar  1 <1>  -0.1500 
 23 C      -10.8490    -2.5820     1.6920 C.ar  1 <1>  -0.1500 
 24 C      -10.3540    -5.8080    -0.1250 C.ar  1 <1>   0.1000 
 25 C      -11.0760    -3.8390     1.2050 C.ar  1 <1>  -0.1500 
 26 N      -11.5550    -6.4690     0.0620 N.pl3 1 <1>  -0.8380 
 27 C      -11.5940    -7.8540     0.5980 C.3   1 <1>   0.1290 
 28 C      -12.7690    -6.0190    -0.6680 C.3   1 <1>   0.1290 
 29 H       -2.1100    -1.0000     1.6800 H     1 <1>   0.0800 
 30 H       -1.7050    -2.5900     1.0800 H     1 <1>   0.0800 
 31 H        1.7200     1.9160    -1.8430 H     1 <1>   0.0800 
 32 H        3.1430     1.1310    -1.1940 H     1 <1>   0.0800 
 33 H        2.2180     2.2270    -0.1920 H     1 <1>   0.0800 
 34 H       -2.5320    -1.9160    -1.0650 H     1 <1>   0.3600 
 35 H       -4.4380    -1.6290     1.1490 H     1 <1>   0.0800 
 36 H       -3.9910    -3.1130     0.3180 H     1 <1>   0.0800 
 37 H       -4.8940    -2.1150    -1.8000 H     1 <1>   0.0800 
 38 H       -5.4150    -0.7280    -0.8880 H     1 <1>   0.0800 
 39 H       -7.3970    -6.2890    -1.6730 H     1 <1>   0.1500 
 40 H       -9.4930    -0.9430     1.7910 H     1 <1>   0.1500 
 41 H       -9.5130    -7.4030    -1.2440 H     1 <1>   0.1500 
 42 H      -11.5850    -2.0860     2.3020 H     1 <1>   0.1500 
 43 H      -11.9950    -4.3440     1.4420 H     1 <1>   0.1500 
 44 H      -10.6620    -8.0870     1.0840 H     1 <1>   0.0800 
 45 H      -11.7590    -8.5540    -0.2020 H     1 <1>   0.0800 
 46 H      -12.3890    -7.9420     1.3180 H     1 <1>   0.0800 
 47 H      -12.5950    -5.0560    -1.1170 H     1 <1>   0.0800 
 48 H      -13.5970    -5.9410     0.0150 H     1 <1>   0.0800 
 49 H      -13.0130    -6.7230    -1.4440 H     1 <1>   0.0800 
@<TRIPOS>BOND
  1   1   2  1   
  2   1   3  1   
  3   2   4  2   
  4   2   5  1   
  5   3   6  2   
  6   3   7  1   
  7   4   6  1   
  8   5   8  1   
  9   5  29  1   
 10   5  30  1   
 11   7  31  1   
 12   7  32  1   
 13   7  33  1   
 14   8   9  1   
 15   8  34  1   
 16   9  10  1   
 17   9  35  1   
 18   9  36  1   
 19  10  11  1   
 20  10  37  1   
 21  10  38  1   
 22  11  12  am  
 23  11  13  am  
 24  12  14  2   
 25  12  15  1   
 26  13  16  2   
 27  13  17  1   
 28  15  18  ar  
 29  15  19  ar  
 30  17  18  ar  
 31  17  20  ar  
 32  18  21  ar  
 33  19  22  ar  
 34  19  39  1   
 35  20  23  ar  
 36  20  40  1   
 37  21  24  ar  
 38  21  25  ar  
 39  22  24  ar  
 40  22  41  1   
 41  23  25  ar  
 42  23  42  1   
 43  24  26  1   
 44  25  43  1   
 45  26  27  1   
 46  26  28  1   
 47  27  44  1   
 48  27  45  1   
 49  27  46  1   
 50  28  47  1   
 51  28  48  1   
 52  28  49  1   
@<TRIPOS>SUBSTRUCTURE
  1 ****  11 GROUP 4 **** **** 0

# MOE 2024.06 (io_trps.svl 2023.06)
