@<TRIPOS>MOLECULE
NONAME
47 49 1 0 0 
SMALL
USER_CHARGES


@<TRIPOS>ATOM
  1 O       -0.3130     0.9880     1.8590 O.2   1 <1>  -0.5700 
  2 C       -0.1940     2.1190     1.4630 C.2   1 <1>   0.5690 
  3 N       -1.2100     3.0010     1.5830 N.am  1 <1>  -0.7300 
  4 C        1.1060     2.5640     0.7860 C.3   1 <1>   0.1810 
  5 C       -1.1170     4.4220     1.1660 C.3   1 <1>   0.3640 
  6 O        1.2580     3.9670     0.7460 O.3   1 <1>  -0.5600 
  7 C       -2.3980     4.8020     0.4320 C.ar  1 <1>  -0.1440 
  8 C        0.1250     4.6790     0.2710 C.3   1 <1>   0.2610 
  9 C       -2.9600     3.9620    -0.5210 C.ar  1 <1>   0.1600 
 10 C       -3.0190     6.0080     0.6940 C.ar  1 <1>  -0.1500 
 11 C        0.4350     6.1820     0.1480 C.2   1 <1>   0.5690 
 12 N       -4.0540     4.2260    -1.2170 N.ar  1 <1>  -0.6200 
 13 C       -4.1630     6.2970    -0.0170 C.ar  1 <1>  -0.1500 
 14 O        0.0080     6.9340     0.9990 O.2   1 <1>  -0.5700 
 15 N        1.1670     6.6650    -0.9150 N.am  1 <1>  -0.6600 
 16 C       -4.6310     5.3850    -0.9470 C.ar  1 <1>   0.1600 
 17 C        1.3970     8.1310    -1.0710 C.3   1 <1>   0.1400 
 18 C        1.7680     5.8090    -1.9770 C.3   1 <1>   0.0600 
 19 C        2.5090     8.6380    -0.1350 C.3   1 <1>  -0.0800 
 20 C        2.6790    10.1580    -0.2810 C.3   1 <1>  -0.1600 
 21 C        3.8660     7.9550    -0.3780 C.3   1 <1>  -0.1600 
 22 C        3.8510    10.6620     0.5680 C.3   1 <1>   0.1200 
 23 C        4.9640     8.6000     0.4740 C.3   1 <1>   0.1200 
 24 O        5.0070     9.9690     0.2140 O.3   1 <1>  -0.5600 
 25 H       -2.0570     2.7070     2.0730 H     1 <1>   0.3700 
 26 H        1.1310     2.1900    -0.2210 H     1 <1>   0.0800 
 27 H        1.9430     2.1600     1.3270 H     1 <1>   0.0800 
 28 H       -1.0330     5.0150     2.0610 H     1 <1>   0.0800 
 29 H       -0.0920     4.3100    -0.7140 H     1 <1>   0.0800 
 30 H       -2.4870     3.0180    -0.7290 H     1 <1>   0.1500 
 31 H       -2.6280     6.7050     1.4190 H     1 <1>   0.1500 
 32 H       -4.6880     7.2210     0.1440 H     1 <1>   0.1500 
 33 H       -5.5260     5.6220    -1.4980 H     1 <1>   0.1500 
 34 H        1.6480     8.3540    -2.0940 H     1 <1>   0.0800 
 35 H        0.4810     8.6510    -0.8410 H     1 <1>   0.0800 
 36 H        2.6500     6.2780    -2.3780 H     1 <1>   0.0800 
 37 H        1.0580     5.6670    -2.7730 H     1 <1>   0.0800 
 38 H        2.0550     4.8520    -1.5780 H     1 <1>   0.0800 
 39 H        2.2070     8.4400     0.8800 H     1 <1>   0.0800 
 40 H        1.7780    10.6590     0.0290 H     1 <1>   0.0800 
 41 H        2.8670    10.4160    -1.3080 H     1 <1>   0.0800 
 42 H        4.1440     8.0360    -1.4140 H     1 <1>   0.0800 
 43 H        3.8020     6.9110    -0.1270 H     1 <1>   0.0800 
 44 H        3.6670    10.5130     1.6190 H     1 <1>   0.0800 
 45 H        4.0270    11.7080     0.3870 H     1 <1>   0.0800 
 46 H        5.9270     8.1890     0.2260 H     1 <1>   0.0800 
 47 H        4.7800     8.4540     1.5250 H     1 <1>   0.0800 
@<TRIPOS>BOND
  1   1   2  2   
  2   2   3  am  
  3   2   4  1   
  4   3   5  1   
  5   3  25  1   
  6   4   6  1   
  7   4  26  1   
  8   4  27  1   
  9   5   7  1   
 10   5   8  1   
 11   5  28  1   
 12   6   8  1   
 13   7   9  ar  
 14   7  10  ar  
 15   8  11  1   
 16   8  29  1   
 17   9  12  ar  
 18   9  30  1   
 19  10  13  ar  
 20  10  31  1   
 21  11  14  2   
 22  11  15  am  
 23  12  16  ar  
 24  13  16  ar  
 25  13  32  1   
 26  15  17  1   
 27  15  18  1   
 28  16  33  1   
 29  17  19  1   
 30  17  34  1   
 31  17  35  1   
 32  18  36  1   
 33  18  37  1   
 34  18  38  1   
 35  19  20  1   
 36  19  21  1   
 37  19  39  1   
 38  20  22  1   
 39  20  40  1   
 40  20  41  1   
 41  21  23  1   
 42  21  42  1   
 43  21  43  1   
 44  22  24  1   
 45  22  44  1   
 46  22  45  1   
 47  23  24  1   
 48  23  46  1   
 49  23  47  1   
@<TRIPOS>SUBSTRUCTURE
  1 ****  11 GROUP 4 **** **** 0

# MOE 2024.06 (io_trps.svl 2023.06)
