@<TRIPOS>MOLECULE
NONAME
34 35 1 0 0 
SMALL
USER_CHARGES


@<TRIPOS>ATOM
  1 S       -0.4470     0.5550    -0.3970 S.3   1 <1>  -0.0800 
  2 C        0.5130    -0.7890     0.2340 C.2   1 <1>   0.4420 
  3 C        0.7330     1.6850     0.2260 C.ar  1 <1>   0.0400 
  4 N        1.5820    -0.4290     0.8350 N.2   1 <1>  -0.5650 
  5 N        0.1070    -2.0890     0.0700 N.am  1 <1>  -0.4940 
  6 C        1.7320     0.9570     0.8460 C.ar  1 <1>   0.2270 
  7 C        0.7150     3.0660     0.1390 C.ar  1 <1>  -0.1500 
  8 C       -0.9760    -2.6730    -0.5260 C.2   1 <1>   0.5690 
  9 C        2.7690     1.7030     1.4070 C.ar  1 <1>   0.1900 
 10 C        1.7640     3.7700     0.7100 C.ar  1 <1>  -0.1500 
 11 O       -1.8510    -2.0380    -1.0680 O.2   1 <1>  -0.5700 
 12 C       -1.0550    -4.2250    -0.4870 C.3   1 <1>   0.3410 
 13 F        3.7530     1.0890     2.0120 F     1 <1>  -0.1900 
 14 C        2.7970     3.0860     1.3470 C.ar  1 <1>  -0.1500 
 15 O        0.0900    -4.7000     0.2030 O.3   1 <1>  -0.5600 
 16 C       -2.3200    -4.6660     0.2700 C.3   1 <1>  -0.2400 
 17 C       -1.0490    -4.7860    -1.9200 C.3   1 <1>  -0.2400 
 18 C        0.2860    -6.0690     0.3920 C.3   1 <1>   0.1200 
 19 C        1.5920    -6.2310     1.1590 C.3   1 <1>  -0.2400 
 20 H        0.7430    -2.7780     0.4770 H     1 <1>   0.3700 
 21 H       -0.0960     3.5700    -0.3590 H     1 <1>   0.1500 
 22 H        1.7830     4.8460     0.6610 H     1 <1>   0.1500 
 23 H        3.6160     3.6230     1.7930 H     1 <1>   0.1500 
 24 H       -2.2610    -4.3570     1.2980 H     1 <1>   0.0800 
 25 H       -2.4650    -5.7290     0.2170 H     1 <1>   0.0800 
 26 H       -3.1830    -4.2000    -0.1700 H     1 <1>   0.0800 
 27 H       -0.1140    -4.5590    -2.4010 H     1 <1>   0.0800 
 28 H       -1.8380    -4.3260    -2.4890 H     1 <1>   0.0800 
 29 H       -1.2180    -5.8460    -1.9330 H     1 <1>   0.0800 
 30 H        0.3570    -6.5610    -0.5630 H     1 <1>   0.0800 
 31 H       -0.5290    -6.4780     0.9630 H     1 <1>   0.0800 
 32 H        2.4070    -5.8170     0.5930 H     1 <1>   0.0800 
 33 H        1.7880    -7.2740     1.3290 H     1 <1>   0.0800 
 34 H        1.5260    -5.7340     2.1100 H     1 <1>   0.0800 
@<TRIPOS>BOND
  1   1   2  1   
  2   1   3  1   
  3   2   4  2   
  4   2   5  1   
  5   3   6  ar  
  6   3   7  ar  
  7   4   6  1   
  8   5   8  am  
  9   5  20  1   
 10   6   9  ar  
 11   7  10  ar  
 12   7  21  1   
 13   8  11  2   
 14   8  12  1   
 15   9  13  1   
 16   9  14  ar  
 17  10  14  ar  
 18  10  22  1   
 19  12  15  1   
 20  12  16  1   
 21  12  17  1   
 22  14  23  1   
 23  15  18  1   
 24  16  24  1   
 25  16  25  1   
 26  16  26  1   
 27  17  27  1   
 28  17  28  1   
 29  17  29  1   
 30  18  19  1   
 31  18  30  1   
 32  18  31  1   
 33  19  32  1   
 34  19  33  1   
 35  19  34  1   
@<TRIPOS>SUBSTRUCTURE
  1 ****   2 GROUP 4 **** **** 0

# MOE 2024.06 (io_trps.svl 2023.06)
