@<TRIPOS>MOLECULE
NONAME
68 71 1 0 0 
SMALL
USER_CHARGES


@<TRIPOS>ATOM
  1 O       -0.9160     0.7070     0.7630 O.3   1 <1>  -0.3630 
  2 C       -1.8260     1.5730     1.2950 C.ar  1 <1>   0.0820 
  3 C        0.2960     1.2030     0.2280 C.3   1 <1>   0.1200 
  4 C       -2.8340     1.0600     2.1110 C.ar  1 <1>  -0.1440 
  5 C       -1.7780     2.9450     1.0540 C.ar  1 <1>  -0.1500 
  6 C        1.2270     0.0270    -0.0760 C.3   1 <1>  -0.1600 
  7 C       -3.7540     1.9200     2.6940 C.ar  1 <1>  -0.1500 
  8 C       -2.9530    -0.4260     2.3910 C.3   1 <1>   0.4870 
  9 C       -2.7070     3.7910     1.6320 C.ar  1 <1>  -0.1500 
 10 C        2.5760     0.5450    -0.5820 C.3   1 <1>   0.3430 
 11 C       -3.6920     3.2800     2.4550 C.ar  1 <1>  -0.1500 
 12 N       -3.0280    -1.2000     1.1180 N.4   1 <1>  -0.9590 
 13 N        3.5310    -0.5780    -0.7980 N.4   1 <1>  -0.9590 
 14 C       -4.3920    -1.2410     0.5050 C.3   1 <1>   0.4230 
 15 C       -2.4570    -2.5630     1.3410 C.3   1 <1>   0.2630 
 16 C        4.9300    -0.0610    -0.8760 C.3   1 <1>   0.3430 
 17 C        3.1970    -1.3930    -2.0070 C.3   1 <1>   0.3430 
 18 C       -4.4210    -2.1040    -0.7570 C.3   1 <1>  -0.1600 
 19 C       -4.8780     0.1210     0.0110 C.3   1 <1>  -0.1600 
 20 C        5.9110    -1.2330    -0.9350 C.3   1 <1>  -0.1600 
 21 C        4.1360    -2.5980    -2.0920 C.3   1 <1>  -0.1600 
 22 C       -5.6280    -1.6110    -1.5620 C.3   1 <1>  -0.0800 
 23 C       -5.9120    -0.1810    -1.0790 C.3   1 <1>  -0.0800 
 24 C        5.6080    -2.1690    -2.1120 C.3   1 <1>  -0.1600 
 25 C       -6.9120    -2.4160    -1.3110 C.3   1 <1>  -0.1600 
 26 C       -7.3640    -0.1720    -0.5770 C.3   1 <1>  -0.1600 
 27 C       -8.0110    -1.3670    -1.2580 C.3   1 <1>   0.2000 
 28 O       -9.0750    -1.8260    -0.5150 O.3   1 <1>  -0.6800 
 29 H        0.0690     1.7540    -0.6700 H     1 <1>   0.0800 
 30 H        0.7390     1.8590     0.9600 H     1 <1>   0.0800 
 31 H       -1.0340     3.3890     0.4200 H     1 <1>   0.1500 
 32 H        1.3770    -0.5350     0.8290 H     1 <1>   0.0800 
 33 H        0.7630    -0.5930    -0.8210 H     1 <1>   0.0800 
 34 H       -4.5310     1.5480     3.3400 H     1 <1>   0.1500 
 35 H       -3.8210    -0.6230     2.9970 H     1 <1>   0.0800 
 36 H       -2.0800    -0.7260     2.9470 H     1 <1>   0.0800 
 37 H       -2.6630     4.8510     1.4440 H     1 <1>   0.1500 
 38 H        2.9830     1.2200     0.1550 H     1 <1>   0.0800 
 39 H        2.4420     1.0950    -1.5000 H     1 <1>   0.0800 
 40 H       -4.4090     3.9440     2.9080 H     1 <1>   0.1500 
 41 H       -2.4140    -0.6700     0.4780 H     1 <1>   0.4500 
 42 H        3.4980    -1.2060     0.0160 H     1 <1>   0.4500 
 43 H       -5.1090    -1.6340     1.2080 H     1 <1>   0.0800 
 44 H       -3.0900    -3.1300     2.0050 H     1 <1>   0.0800 
 45 H       -1.4750    -2.4900     1.7780 H     1 <1>   0.0800 
 46 H       -2.3750    -3.0950     0.4080 H     1 <1>   0.0800 
 47 H        5.0470     0.5490    -1.7580 H     1 <1>   0.0800 
 48 H        5.1520     0.5450    -0.0120 H     1 <1>   0.0800 
 49 H        2.1790    -1.7420    -1.9560 H     1 <1>   0.0800 
 50 H        3.3060    -0.7910    -2.8950 H     1 <1>   0.0800 
 51 H       -3.5360    -1.9250    -1.3420 H     1 <1>   0.0800 
 52 H       -4.5000    -3.1540    -0.5360 H     1 <1>   0.0800 
 53 H       -5.3070     0.7130     0.7970 H     1 <1>   0.0800 
 54 H       -4.0630     0.6610    -0.4390 H     1 <1>   0.0800 
 55 H        6.9120    -0.8490    -1.0370 H     1 <1>   0.0800 
 56 H        5.8720    -1.7810    -0.0090 H     1 <1>   0.0800 
 57 H        3.9550    -3.2540    -1.2590 H     1 <1>   0.0800 
 58 H        3.9170    -3.1520    -2.9890 H     1 <1>   0.0800 
 59 H       -5.4090    -1.6080    -2.6180 H     1 <1>   0.0800 
 60 H       -5.8140     0.5130    -1.8990 H     1 <1>   0.0800 
 61 H        6.2440    -3.0380    -2.0620 H     1 <1>   0.0800 
 62 H        5.8220    -1.6610    -3.0380 H     1 <1>   0.0800 
 63 H       -6.8580    -2.9330    -0.3690 H     1 <1>   0.0800 
 64 H       -7.0920    -3.1240    -2.1010 H     1 <1>   0.0800 
 65 H       -7.8660     0.7420    -0.8440 H     1 <1>   0.0800 
 66 H       -7.3970    -0.3000     0.4910 H     1 <1>   0.0800 
 67 H       -8.3560    -1.1140    -2.2480 H     1 <1>   0.0800 
 68 H       -8.7980    -2.0410     0.3930 H     1 <1>   0.4000 
@<TRIPOS>BOND
  1   1   2  1   
  2   1   3  1   
  3   2   4  ar  
  4   2   5  ar  
  5   3   6  1   
  6   3  29  1   
  7   3  30  1   
  8   4   7  ar  
  9   4   8  1   
 10   5   9  ar  
 11   5  31  1   
 12   6  10  1   
 13   6  32  1   
 14   6  33  1   
 15   7  11  ar  
 16   7  34  1   
 17   8  12  1   
 18   8  35  1   
 19   8  36  1   
 20   9  11  ar  
 21   9  37  1   
 22  10  13  1   
 23  10  38  1   
 24  10  39  1   
 25  11  40  1   
 26  12  14  1   
 27  12  15  1   
 28  12  41  1   
 29  13  16  1   
 30  13  17  1   
 31  13  42  1   
 32  14  18  1   
 33  14  19  1   
 34  14  43  1   
 35  15  44  1   
 36  15  45  1   
 37  15  46  1   
 38  16  20  1   
 39  16  47  1   
 40  16  48  1   
 41  17  21  1   
 42  17  49  1   
 43  17  50  1   
 44  18  22  1   
 45  18  51  1   
 46  18  52  1   
 47  19  23  1   
 48  19  53  1   
 49  19  54  1   
 50  20  24  1   
 51  20  55  1   
 52  20  56  1   
 53  21  24  1   
 54  21  57  1   
 55  21  58  1   
 56  22  23  1   
 57  22  25  1   
 58  22  59  1   
 59  23  26  1   
 60  23  60  1   
 61  24  61  1   
 62  24  62  1   
 63  25  27  1   
 64  25  63  1   
 65  25  64  1   
 66  26  27  1   
 67  26  65  1   
 68  26  66  1   
 69  27  28  1   
 70  27  67  1   
 71  28  68  1   
@<TRIPOS>SUBSTRUCTURE
  1 ****   1 GROUP 4 **** **** 0

# MOE 2024.06 (io_trps.svl 2023.06)
