@<TRIPOS>MOLECULE
NONAME
48 51 1 0 0 
SMALL
USER_CHARGES


@<TRIPOS>ATOM
  1 N        2.8150     3.1100     1.1740 N.2   1 <1>  -0.5650 
  2 C        1.8130     2.3430     0.8720 C.2   1 <1>   0.0060 
  3 C        3.3900     2.4950     2.2260 C.2   1 <1>   0.0770 
  4 N        1.7050     1.2590     1.6760 N.pl3 1 <1>   0.0330 
  5 C        0.8370     2.6320    -0.2660 C.3   1 <1>   0.1000 
  6 C        2.7250     1.3640     2.5450 C.2   1 <1>  -0.3020 
  7 C        1.5790     3.3910    -1.3850 C.3   1 <1>   0.3430 
  8 C       -0.3700     3.4380     0.2770 C.3   1 <1>  -0.1600 
  9 N        1.8120     4.7890    -0.9290 N.4   1 <1>  -0.9590 
 10 C       -0.6700     4.6980    -0.5580 C.3   1 <1>  -0.1600 
 11 C        0.5640     5.5950    -0.7570 C.3   1 <1>   0.3430 
 12 C        2.8870     5.4930    -1.6690 C.3   1 <1>   0.4860 
 13 C        3.1590     6.8150    -0.9820 C.ar  1 <1>  -0.1430 
 14 C        3.7260     6.8450     0.2750 C.ar  1 <1>  -0.1500 
 15 C        2.8180     8.0150    -1.6270 C.ar  1 <1>  -0.1500 
 16 C        3.9460     8.0720     0.9050 C.ar  1 <1>   0.0000 
 17 C        3.0330     9.2270    -1.0150 C.ar  1 <1>  -0.1500 
 18 C        3.5980     9.2550     0.2630 C.ar  1 <1>  -0.1520 
 19 C        4.4860     8.4370     2.1540 C.2   1 <1>  -0.1500 
 20 N        3.9150    10.3080     1.0910 N.pl3 1 <1>   0.0480 
 21 C        4.4530     9.7880     2.2350 C.2   1 <1>  -0.3020 
 22 C        3.7180    11.7450     0.8090 C.3   1 <1>   0.0960 
 23 C        4.8970    12.3030     0.0080 C.3   1 <1>  -0.2400 
 24 H        4.2650     2.9000     2.7110 H     1 <1>   0.1500 
 25 H        0.9990     0.5160     1.6470 H     1 <1>   0.2700 
 26 H        0.4940     1.6980    -0.6760 H     1 <1>   0.0800 
 27 H        2.9200     0.6490     3.3240 H     1 <1>   0.1500 
 28 H        0.9930     3.3910    -2.2880 H     1 <1>   0.0800 
 29 H        2.5190     2.9000    -1.5760 H     1 <1>   0.0800 
 30 H       -0.1680     3.7500     1.2890 H     1 <1>   0.0800 
 31 H       -1.2430     2.8080     0.3100 H     1 <1>   0.0800 
 32 H        2.1980     4.6480     0.0290 H     1 <1>   0.4500 
 33 H       -1.4450     5.2740    -0.0820 H     1 <1>   0.0800 
 34 H       -1.0480     4.4080    -1.5240 H     1 <1>   0.0800 
 35 H        0.4070     6.2240    -1.6180 H     1 <1>   0.0800 
 36 H        0.6840     6.2400     0.1010 H     1 <1>   0.0800 
 37 H        2.5900     5.6620    -2.6900 H     1 <1>   0.0800 
 38 H        3.7870     4.8990    -1.6630 H     1 <1>   0.0800 
 39 H        4.0090     5.9490     0.8000 H     1 <1>   0.1500 
 40 H        2.3860     7.9940    -2.6120 H     1 <1>   0.1500 
 41 H        2.7770    10.1500    -1.5060 H     1 <1>   0.1500 
 42 H        4.8500     7.7380     2.8860 H     1 <1>   0.1500 
 43 H        4.7850    10.4160     3.0430 H     1 <1>   0.1500 
 44 H        3.6260    12.2690     1.7440 H     1 <1>   0.0800 
 45 H        2.8020    11.8670     0.2600 H     1 <1>   0.0800 
 46 H        5.8110    12.1900     0.5640 H     1 <1>   0.0800 
 47 H        4.7430    13.3490    -0.1880 H     1 <1>   0.0800 
 48 H        4.9880    11.7880    -0.9320 H     1 <1>   0.0800 
@<TRIPOS>BOND
  1   1   2  2   
  2   1   3  1   
  3   2   4  1   
  4   2   5  1   
  5   3   6  2   
  6   3  24  1   
  7   4   6  1   
  8   4  25  1   
  9   5   7  1   
 10   5   8  1   
 11   5  26  1   
 12   6  27  1   
 13   7   9  1   
 14   7  28  1   
 15   7  29  1   
 16   8  10  1   
 17   8  30  1   
 18   8  31  1   
 19   9  11  1   
 20   9  12  1   
 21   9  32  1   
 22  10  11  1   
 23  10  33  1   
 24  10  34  1   
 25  11  35  1   
 26  11  36  1   
 27  12  13  1   
 28  12  37  1   
 29  12  38  1   
 30  13  14  ar  
 31  13  15  ar  
 32  14  16  ar  
 33  14  39  1   
 34  15  17  ar  
 35  15  40  1   
 36  16  18  ar  
 37  16  19  1   
 38  17  18  ar  
 39  17  41  1   
 40  18  20  1   
 41  19  21  2   
 42  19  42  1   
 43  20  21  1   
 44  20  22  1   
 45  21  43  1   
 46  22  23  1   
 47  22  44  1   
 48  22  45  1   
 49  23  46  1   
 50  23  47  1   
 51  23  48  1   
@<TRIPOS>SUBSTRUCTURE
  1 ****  14 GROUP 4 **** **** 0

# MOE 2024.06 (io_trps.svl 2023.06)
