@<TRIPOS>MOLECULE
NONAME
50 52 1 0 0 
SMALL
USER_CHARGES


@<TRIPOS>ATOM
  1 O       -2.8770     0.2120     1.8060 O.2   1 <1>  -0.5700 
  2 C       -2.6050     0.6440     0.7030 C.2   1 <1>   0.5440 
  3 N       -2.9010    -0.1140    -0.3950 N.am  1 <1>  -0.7300 
  4 C       -2.0160     1.9580     0.5520 C.ar  1 <1>   0.0860 
  5 C       -3.8810    -1.2350    -0.4220 C.3   1 <1>   0.1400 
  6 C       -0.9500     2.2390    -0.3170 C.ar  1 <1>   0.0830 
  7 C       -2.5440     3.0260     1.2770 C.ar  1 <1>  -0.1500 
  8 C       -3.4000    -2.4210    -1.2710 C.3   1 <1>   0.1400 
  9 O       -0.3060     1.2790    -1.0170 O.3   1 <1>  -0.3630 
 10 C       -0.4930     3.5360    -0.4890 C.ar  1 <1>  -0.1500 
 11 C       -2.0790     4.3200     1.1260 C.ar  1 <1>   0.0830 
 12 N       -2.5010    -3.3290    -0.5160 N.am  1 <1>  -0.7300 
 13 C        0.3440     0.2680    -0.2780 C.3   1 <1>   0.1200 
 14 C       -1.0500     4.5780     0.2270 C.ar  1 <1>  -0.1500 
 15 O       -2.6790     5.2760     1.8810 O.3   1 <1>  -0.3620 
 16 C       -2.9470    -4.2530     0.3710 C.2   1 <1>   0.5690 
 17 C        1.5410    -0.2280    -1.0880 C.3   1 <1>  -0.1600 
 18 C       -2.2670     6.6230     1.8170 C.3   1 <1>   0.0400 
 19 O       -4.1090    -4.3170     0.6880 O.2   1 <1>  -0.5700 
 20 C       -1.9870    -5.2700     0.9570 C.3   1 <1>  -0.0990 
 21 C        2.3300    -1.3120    -0.3360 C.3   1 <1>   0.0960 
 22 C       -0.7990    -4.6580     1.7160 C.3   1 <1>   0.0210 
 23 N        1.4860    -2.4870    -0.0450 N.pl3 1 <1>   0.3140 
 24 C        0.1590    -3.8980     0.8160 C.2   1 <1>   0.0460 
 25 N        1.3040    -3.4790    -0.9200 N.2   1 <1>  -0.4180 
 26 C        0.7670    -2.7280     1.0530 C.2   1 <1>  -0.3020 
 27 N        0.5100    -4.3440    -0.3960 N.2   1 <1>  -0.2270 
 28 H       -2.5910     0.2360    -1.3040 H     1 <1>   0.3700 
 29 H       -4.7970    -0.8620    -0.8440 H     1 <1>   0.0800 
 30 H       -4.1000    -1.5720     0.5780 H     1 <1>   0.0800 
 31 H       -3.3450     2.8410     1.9710 H     1 <1>   0.1500 
 32 H       -2.9110    -2.0740    -2.1640 H     1 <1>   0.0800 
 33 H       -4.2650    -2.9900    -1.5680 H     1 <1>   0.0800 
 34 H        0.3090     3.7230    -1.1810 H     1 <1>   0.1500 
 35 H       -1.4970    -3.2890    -0.7330 H     1 <1>   0.3700 
 36 H       -0.3580    -0.5280    -0.1050 H     1 <1>   0.0800 
 37 H        0.6650     0.6790     0.6650 H     1 <1>   0.0800 
 38 H       -0.6730     5.5730     0.0760 H     1 <1>   0.1500 
 39 H        2.1970     0.6010    -1.2880 H     1 <1>   0.0800 
 40 H        1.2020    -0.6270    -2.0280 H     1 <1>   0.0800 
 41 H       -2.8710     7.1900     2.5020 H     1 <1>   0.0800 
 42 H       -2.4130     6.9870     0.8150 H     1 <1>   0.0800 
 43 H       -1.2320     6.6870     2.1040 H     1 <1>   0.0800 
 44 H       -1.6330    -5.9010     0.1630 H     1 <1>   0.0800 
 45 H       -2.5400    -5.8940     1.6360 H     1 <1>   0.0800 
 46 H        2.7100    -0.9230     0.5910 H     1 <1>   0.0800 
 47 H        3.1610    -1.6380    -0.9350 H     1 <1>   0.0800 
 48 H       -0.2490    -5.4520     2.1900 H     1 <1>   0.0800 
 49 H       -1.1640    -4.0020     2.4860 H     1 <1>   0.0800 
 50 H        0.7250    -2.0770     1.9060 H     1 <1>   0.1500 
@<TRIPOS>BOND
  1   1   2  2   
  2   2   3  am  
  3   2   4  1   
  4   3   5  1   
  5   3  28  1   
  6   4   6  ar  
  7   4   7  ar  
  8   5   8  1   
  9   5  29  1   
 10   5  30  1   
 11   6   9  1   
 12   6  10  ar  
 13   7  11  ar  
 14   7  31  1   
 15   8  12  1   
 16   8  32  1   
 17   8  33  1   
 18   9  13  1   
 19  10  14  ar  
 20  10  34  1   
 21  11  14  ar  
 22  11  15  1   
 23  12  16  am  
 24  12  35  1   
 25  13  17  1   
 26  13  36  1   
 27  13  37  1   
 28  14  38  1   
 29  15  18  1   
 30  16  19  2   
 31  16  20  1   
 32  17  21  1   
 33  17  39  1   
 34  17  40  1   
 35  18  41  1   
 36  18  42  1   
 37  18  43  1   
 38  20  22  1   
 39  20  44  1   
 40  20  45  1   
 41  21  23  1   
 42  21  46  1   
 43  21  47  1   
 44  22  24  1   
 45  22  48  1   
 46  22  49  1   
 47  23  25  1   
 48  23  26  1   
 49  24  26  2   
 50  24  27  1   
 51  25  27  2   
 52  26  50  1   
@<TRIPOS>SUBSTRUCTURE
  1 ****   2 GROUP 4 **** **** 0

# MOE 2024.06 (io_trps.svl 2023.06)
