@<TRIPOS>MOLECULE
NONAME
55 56 1 0 0 
SMALL
USER_CHARGES


@<TRIPOS>ATOM
  1 O        0.6490     1.5790     0.6340 O.3   1 <1>  -0.5600 
  2 C        1.8930     1.8810     0.1020 C.3   1 <1>   0.1200 
  3 C       -0.0510     0.5930    -0.0570 C.3   1 <1>   0.1200 
  4 C        2.4900     2.9970     0.9650 C.3   1 <1>   0.3430 
  5 C       -1.3850     0.3820     0.6560 C.3   1 <1>  -0.1600 
  6 N        3.8410     3.4300     0.4920 N.4   1 <1>  -0.9590 
  7 C       -2.2260    -0.6930    -0.0400 C.3   1 <1>  -0.2400 
  8 C        4.9160     2.3950     0.6330 C.3   1 <1>   0.3430 
  9 C        4.2960     4.6950     1.1410 C.3   1 <1>   0.3430 
 10 C        6.2850     2.9310     0.1480 C.3   1 <1>   0.1100 
 11 C        5.5640     5.2280     0.4400 C.3   1 <1>   0.1100 
 12 N        6.1940     4.2640    -0.5160 N.3   1 <1>  -0.8100 
 13 C        7.5300     4.7530    -0.9950 C.3   1 <1>   0.1900 
 14 C        7.4840     6.1330    -1.6980 C.3   1 <1>   0.0960 
 15 C        8.1140     3.7510    -2.0040 C.3   1 <1>  -0.2400 
 16 N        7.3750     7.2840    -0.7730 N.pl3 1 <1>   0.3140 
 17 N        8.0160     7.3150     0.4130 N.2   1 <1>  -0.7070 
 18 C        6.6560     8.4160    -0.9640 C.2   1 <1>  -0.3320 
 19 C        7.7020     8.4560     0.9380 C.2   1 <1>   0.1080 
 20 C        6.8490     9.1890     0.1250 C.2   1 <1>  -0.1500 
 21 C        5.8160     8.7300    -2.1920 C.3   1 <1>  -0.0600 
 22 C        8.2320     8.9050     2.2790 C.3   1 <1>  -0.0590 
 23 H        1.7590     2.2130    -0.9130 H     1 <1>   0.0800 
 24 H        2.4990     0.9930     0.1380 H     1 <1>   0.0800 
 25 H        0.5260    -0.3170    -0.0520 H     1 <1>   0.0800 
 26 H       -0.2140     0.9220    -1.0700 H     1 <1>   0.0800 
 27 H        2.5550     2.6530     1.9840 H     1 <1>   0.0800 
 28 H        1.8150     3.8360     0.9340 H     1 <1>   0.0800 
 29 H       -1.9330     1.3080     0.6650 H     1 <1>   0.0800 
 30 H       -1.2010     0.0820     1.6730 H     1 <1>   0.0800 
 31 H        3.8290     3.6610    -0.5140 H     1 <1>   0.4500 
 32 H       -2.4400    -0.4080    -1.0560 H     1 <1>   0.0800 
 33 H       -3.1590    -0.8220     0.4800 H     1 <1>   0.0800 
 34 H       -1.7070    -1.6360    -0.0450 H     1 <1>   0.0800 
 35 H        4.6620     1.5260     0.0500 H     1 <1>   0.0800 
 36 H        5.0020     2.0860     1.6610 H     1 <1>   0.0800 
 37 H        4.5130     4.5180     2.1810 H     1 <1>   0.0800 
 38 H        3.5240     5.4460     1.0870 H     1 <1>   0.0800 
 39 H        6.6810     2.1980    -0.5300 H     1 <1>   0.0800 
 40 H        6.9590     2.9920     0.9870 H     1 <1>   0.0800 
 41 H        6.2750     5.5190     1.1960 H     1 <1>   0.0800 
 42 H        5.2720     6.1150    -0.0910 H     1 <1>   0.0800 
 43 H        8.2130     4.8170    -0.1620 H     1 <1>   0.0800 
 44 H        6.6690     6.1500    -2.3950 H     1 <1>   0.0800 
 45 H        8.3940     6.2830    -2.2470 H     1 <1>   0.0800 
 46 H        7.3970     3.5260    -2.7740 H     1 <1>   0.0800 
 47 H        8.4290     2.8440    -1.5220 H     1 <1>   0.0800 
 48 H        8.9930     4.1590    -2.4700 H     1 <1>   0.0800 
 49 H        6.4510    10.1640     0.3400 H     1 <1>   0.1500 
 50 H        5.0300     8.0050    -2.3060 H     1 <1>   0.0800 
 51 H        6.4320     8.7270    -3.0740 H     1 <1>   0.0800 
 52 H        5.3700     9.7040    -2.0940 H     1 <1>   0.0800 
 53 H        7.9360     8.2040     3.0370 H     1 <1>   0.0800 
 54 H        7.8500     9.8770     2.5280 H     1 <1>   0.0800 
 55 H        9.3050     8.9470     2.2420 H     1 <1>   0.0800 
@<TRIPOS>BOND
  1   1   2  1   
  2   1   3  1   
  3   2   4  1   
  4   2  23  1   
  5   2  24  1   
  6   3   5  1   
  7   3  25  1   
  8   3  26  1   
  9   4   6  1   
 10   4  27  1   
 11   4  28  1   
 12   5   7  1   
 13   5  29  1   
 14   5  30  1   
 15   6   8  1   
 16   6   9  1   
 17   6  31  1   
 18   7  32  1   
 19   7  33  1   
 20   7  34  1   
 21   8  10  1   
 22   8  35  1   
 23   8  36  1   
 24   9  11  1   
 25   9  37  1   
 26   9  38  1   
 27  10  12  1   
 28  10  39  1   
 29  10  40  1   
 30  11  12  1   
 31  11  41  1   
 32  11  42  1   
 33  12  13  1   
 34  13  14  1   
 35  13  15  1   
 36  13  43  1   
 37  14  16  1   
 38  14  44  1   
 39  14  45  1   
 40  15  46  1   
 41  15  47  1   
 42  15  48  1   
 43  16  17  1   
 44  16  18  1   
 45  17  19  2   
 46  18  20  2   
 47  18  21  1   
 48  19  20  1   
 49  19  22  1   
 50  20  49  1   
 51  21  50  1   
 52  21  51  1   
 53  21  52  1   
 54  22  53  1   
 55  22  54  1   
 56  22  55  1   
@<TRIPOS>SUBSTRUCTURE
  1 ****  11 GROUP 4 **** **** 0

# MOE 2024.06 (io_trps.svl 2023.06)
