@<TRIPOS>MOLECULE
NONAME
44 45 1 0 0 
SMALL
USER_CHARGES


@<TRIPOS>ATOM
  1 O       -0.2190     1.0030    -1.0390 O.co2 1 <1>  -0.9000 
  2 C       -0.7610     1.4180    -0.0130 C.2   1 <1>   0.9060 
  3 O       -1.0910     0.7080     0.9350 O.co2 1 <1>  -0.9000 
  4 C       -1.0550     2.8780     0.0880 C.3   1 <1>  -0.1860 
  5 C       -2.5580     3.0770     0.2870 C.3   1 <1>   0.2000 
  6 C       -0.5870     3.5650    -1.1790 C.3   1 <1>   0.3430 
  7 O       -2.7650     3.1090     1.6440 O.3   1 <1>  -0.6800 
  8 C       -3.0700     4.3920    -0.3060 C.3   1 <1>  -0.1600 
  9 N       -0.7900     5.0570    -1.0790 N.4   1 <1>  -0.9590 
 10 C       -1.9730     5.4470    -0.2270 C.3   1 <1>   0.3430 
 11 C        0.4760     5.6700    -0.5650 C.3   1 <1>   0.3430 
 12 C        0.4820     7.1980    -0.6610 C.3   1 <1>   0.1200 
 13 O        1.7340     7.6380    -0.1990 O.3   1 <1>  -0.3630 
 14 C        2.0420     8.9600    -0.1210 C.ar  1 <1>   0.0830 
 15 C        3.2750     9.3010     0.4280 C.ar  1 <1>  -0.1430 
 16 C        1.1850     9.9650    -0.5630 C.ar  1 <1>  -0.1500 
 17 C        3.6320    10.6360     0.5320 C.ar  1 <1>  -0.1500 
 18 C        4.2360     8.2260     0.9180 C.3   1 <1>  -0.0970 
 19 C        1.5550    11.2930    -0.4530 C.ar  1 <1>  -0.1500 
 20 C        2.7780    11.6360     0.0960 C.ar  1 <1>  -0.1430 
 21 C        3.1870    13.0930     0.2170 C.3   1 <1>  -0.0970 
 22 H       -0.4900     3.2570     0.9190 H     1 <1>   0.0800 
 23 H       -3.1210     2.2460    -0.1110 H     1 <1>   0.0800 
 24 H       -1.1550     3.1650    -2.0040 H     1 <1>   0.0800 
 25 H        0.4500     3.3260    -1.3580 H     1 <1>   0.0800 
 26 H       -2.4440     2.2430     2.0000 H     1 <1>   0.4000 
 27 H       -3.3510     4.2460    -1.3330 H     1 <1>   0.0800 
 28 H       -3.9450     4.7160     0.2280 H     1 <1>   0.0800 
 29 H       -0.9510     5.3820    -2.0400 H     1 <1>   0.4500 
 30 H       -1.6670     5.5240     0.8050 H     1 <1>   0.0800 
 31 H       -2.3570     6.4040    -0.5390 H     1 <1>   0.0800 
 32 H        0.6200     5.3830     0.4640 H     1 <1>   0.0800 
 33 H        1.3090     5.2940    -1.1380 H     1 <1>   0.0800 
 34 H       -0.2740     7.6320    -0.0320 H     1 <1>   0.0800 
 35 H        0.3720     7.5190    -1.6820 H     1 <1>   0.0800 
 36 H        0.2300     9.7460    -0.9970 H     1 <1>   0.1500 
 37 H        4.5840    10.9040     0.9550 H     1 <1>   0.1500 
 38 H        5.1380     8.6610     1.3070 H     1 <1>   0.0800 
 39 H        4.4960     7.5720     0.1050 H     1 <1>   0.0800 
 40 H        3.7710     7.6480     1.6960 H     1 <1>   0.0800 
 41 H        0.8870    12.0640    -0.7980 H     1 <1>   0.1500 
 42 H        2.3200    13.7260     0.2710 H     1 <1>   0.0800 
 43 H        3.7720    13.3780    -0.6390 H     1 <1>   0.0800 
 44 H        3.7730    13.2450     1.1050 H     1 <1>   0.0800 
@<TRIPOS>BOND
  1   1   2  ar  
  2   2   3  ar  
  3   2   4  1   
  4   4   5  1   
  5   4   6  1   
  6   4  22  1   
  7   5   7  1   
  8   5   8  1   
  9   5  23  1   
 10   6   9  1   
 11   6  24  1   
 12   6  25  1   
 13   7  26  1   
 14   8  10  1   
 15   8  27  1   
 16   8  28  1   
 17   9  10  1   
 18   9  11  1   
 19   9  29  1   
 20  10  30  1   
 21  10  31  1   
 22  11  12  1   
 23  11  32  1   
 24  11  33  1   
 25  12  13  1   
 26  12  34  1   
 27  12  35  1   
 28  13  14  1   
 29  14  15  ar  
 30  14  16  ar  
 31  15  17  ar  
 32  15  18  1   
 33  16  19  ar  
 34  16  36  1   
 35  17  20  ar  
 36  17  37  1   
 37  18  38  1   
 38  18  39  1   
 39  18  40  1   
 40  19  20  ar  
 41  19  41  1   
 42  20  21  1   
 43  21  42  1   
 44  21  43  1   
 45  21  44  1   
@<TRIPOS>SUBSTRUCTURE
  1 ****  11 GROUP 4 **** **** 0

# MOE 2024.06 (io_trps.svl 2023.06)
