@<TRIPOS>MOLECULE
NONAME
49 51 1 0 0 
SMALL
USER_CHARGES


@<TRIPOS>ATOM
  1 S       -2.5120    -1.2300     2.2310 S.3   1 <1>  -0.0800 
  2 C       -2.3480    -1.3070     0.4970 C.2   1 <1>  -0.1400 
  3 C       -2.7050     0.5030     2.1100 C.2   1 <1>   0.2280 
  4 C       -2.4470    -0.0610     0.0010 C.2   1 <1>   0.0460 
  5 C       -2.1330    -2.6800    -0.1070 C.3   1 <1>   0.0200 
  6 N       -2.6530     0.9510     0.9210 N.2   1 <1>  -0.5650 
  7 C       -2.3600     0.3830    -1.4440 C.3   1 <1>  -0.0590 
  8 C       -3.3900    -3.5320     0.1150 C.3   1 <1>   0.3430 
  9 N       -3.2270    -4.9630    -0.2990 N.4   1 <1>  -0.9590 
 10 C       -2.2930    -5.7370     0.5730 C.3   1 <1>   0.5240 
 11 C       -2.9450    -5.1630    -1.7540 C.3   1 <1>   0.2630 
 12 C       -2.6890    -7.2000     0.4810 C.2   1 <1>   0.0460 
 13 N       -3.9930    -7.5480     0.4760 N.2   1 <1>  -0.5650 
 14 C       -1.9300    -8.3010     0.3810 C.2   1 <1>  -0.0400 
 15 C       -3.9680    -8.8460     0.3820 C.2   1 <1>   0.4250 
 16 O       -2.7350    -9.3200     0.3170 O.3   1 <1>  -0.2800 
 17 C       -0.4360    -8.5560     0.3340 C.3   1 <1>  -0.0600 
 18 C       -5.0970    -9.7510     0.3380 C.ar  1 <1>   0.0530 
 19 C       -6.4030    -9.2870     0.5090 C.ar  1 <1>  -0.1500 
 20 C       -4.9320   -11.1220     0.1230 C.ar  1 <1>  -0.1500 
 21 C       -7.4860   -10.1440     0.4640 C.ar  1 <1>  -0.1500 
 22 C       -6.0110   -11.9860     0.0770 C.ar  1 <1>  -0.1500 
 23 C       -7.3030   -11.4990     0.2470 C.ar  1 <1>   0.0830 
 24 O       -8.4130   -12.2730     0.2160 O.3   1 <1>  -0.3620 
 25 C       -8.3370   -13.6650     0.0040 C.3   1 <1>   0.0400 
 26 H       -2.8500     1.0510     3.0250 H     1 <1>   0.1500 
 27 H       -1.2780    -3.1240     0.3690 H     1 <1>   0.0800 
 28 H       -1.9350    -2.5790    -1.1570 H     1 <1>   0.0800 
 29 H       -2.1960    -0.4480    -2.1030 H     1 <1>   0.0800 
 30 H       -1.5490     1.0800    -1.5560 H     1 <1>   0.0800 
 31 H       -3.2740     0.8760    -1.7240 H     1 <1>   0.0800 
 32 H       -4.2060    -3.0890    -0.4350 H     1 <1>   0.0800 
 33 H       -3.6530    -3.4950     1.1600 H     1 <1>   0.0800 
 34 H       -4.1230    -5.4570    -0.1150 H     1 <1>   0.4500 
 35 H       -2.4030    -5.4190     1.5970 H     1 <1>   0.0800 
 36 H       -1.2690    -5.5970     0.2690 H     1 <1>   0.0800 
 37 H       -1.9780    -4.7640    -2.0130 H     1 <1>   0.0800 
 38 H       -3.6950    -4.6690    -2.3510 H     1 <1>   0.0800 
 39 H       -2.9600    -6.2150    -1.9940 H     1 <1>   0.0800 
 40 H        0.1180    -7.6380     0.3990 H     1 <1>   0.0800 
 41 H       -0.1810    -9.0550    -0.5840 H     1 <1>   0.0800 
 42 H       -0.1530    -9.1910     1.1560 H     1 <1>   0.0800 
 43 H       -6.5740    -8.2400     0.6810 H     1 <1>   0.1500 
 44 H       -3.9420   -11.5210    -0.0110 H     1 <1>   0.1500 
 45 H       -8.4860    -9.7710     0.5970 H     1 <1>   0.1500 
 46 H       -5.8290   -13.0310    -0.0920 H     1 <1>   0.1500 
 47 H       -9.3370   -14.0600     0.0210 H     1 <1>   0.0800 
 48 H       -7.7550   -14.1070     0.7940 H     1 <1>   0.0800 
 49 H       -7.8880   -13.8480    -0.9560 H     1 <1>   0.0800 
@<TRIPOS>BOND
  1   1   2  1   
  2   1   3  1   
  3   2   4  2   
  4   2   5  1   
  5   3   6  2   
  6   3  26  1   
  7   4   6  1   
  8   4   7  1   
  9   5   8  1   
 10   5  27  1   
 11   5  28  1   
 12   7  29  1   
 13   7  30  1   
 14   7  31  1   
 15   8   9  1   
 16   8  32  1   
 17   8  33  1   
 18   9  10  1   
 19   9  11  1   
 20   9  34  1   
 21  10  12  1   
 22  10  35  1   
 23  10  36  1   
 24  11  37  1   
 25  11  38  1   
 26  11  39  1   
 27  12  13  1   
 28  12  14  2   
 29  13  15  2   
 30  14  16  1   
 31  14  17  1   
 32  15  16  1   
 33  15  18  1   
 34  17  40  1   
 35  17  41  1   
 36  17  42  1   
 37  18  19  ar  
 38  18  20  ar  
 39  19  21  ar  
 40  19  43  1   
 41  20  22  ar  
 42  20  44  1   
 43  21  23  ar  
 44  21  45  1   
 45  22  23  ar  
 46  22  46  1   
 47  23  24  1   
 48  24  25  1   
 49  25  47  1   
 50  25  48  1   
 51  25  49  1   
@<TRIPOS>SUBSTRUCTURE
  1 ****  13 GROUP 4 **** **** 0

# MOE 2024.06 (io_trps.svl 2023.06)
