@<TRIPOS>MOLECULE
NONAME
22 22 1 0 0 
SMALL
USER_CHARGES


@<TRIPOS>ATOM
  1 S        0.0160     0.3370    -0.0140 S.3   1 <1>  -0.0800 
  2 C        0.8760    -1.1930    -0.0120 C.2   1 <1>   0.4620 
  3 C       -1.4950    -0.5350    -0.0050 C.2   1 <1>  -0.1400 
  4 N        0.1190    -2.2230    -0.0060 N.2   1 <1>  -0.5650 
  5 N        2.2300    -1.1830    -0.0180 N.pl3 1 <1>  -0.8840 
  6 C       -1.2130    -1.8490    -0.0020 C.2   1 <1>   0.0770 
  7 C       -2.7680     0.2950    -0.0020 C.3   1 <1>   0.0200 
  8 C       -4.0290    -0.5820     0.0060 C.3   1 <1>  -0.0990 
  9 C       -5.3120     0.2240     0.0090 C.2   1 <1>   0.6590 
 10 O       -5.3210     1.4280     0.0050 O.2   1 <1>  -0.5700 
 11 O       -6.4300    -0.4900     0.0160 O.3   1 <1>  -0.4300 
 12 C       -7.7030     0.1240     0.0190 C.3   1 <1>   0.0400 
 13 H        2.7380    -2.0680    -0.0170 H     1 <1>   0.4000 
 14 H        2.7720    -0.3200    -0.0230 H     1 <1>   0.4000 
 15 H       -1.9410    -2.6420     0.0040 H     1 <1>   0.1500 
 16 H       -2.7740     0.9260    -0.8740 H     1 <1>   0.0800 
 17 H       -2.7670     0.9310     0.8660 H     1 <1>   0.0800 
 18 H       -4.0250    -1.2070     0.8790 H     1 <1>   0.0800 
 19 H       -4.0320    -1.2130    -0.8630 H     1 <1>   0.0800 
 20 H       -8.4530    -0.6460     0.0240 H     1 <1>   0.0800 
 21 H       -7.7980     0.7310    -0.8650 H     1 <1>   0.0800 
 22 H       -7.7910     0.7360     0.9000 H     1 <1>   0.0800 
@<TRIPOS>BOND
  1   1   2  1   
  2   1   3  1   
  3   2   4  2   
  4   2   5  1   
  5   3   6  2   
  6   3   7  1   
  7   4   6  1   
  8   5  13  1   
  9   5  14  1   
 10   6  15  1   
 11   7   8  1   
 12   7  16  1   
 13   7  17  1   
 14   8   9  1   
 15   8  18  1   
 16   8  19  1   
 17   9  10  2   
 18   9  11  1   
 19  11  12  1   
 20  12  20  1   
 21  12  21  1   
 22  12  22  1   
@<TRIPOS>SUBSTRUCTURE
  1 ****   7 GROUP 4 **** **** 0

# MOE 2024.06 (io_trps.svl 2023.06)
