@<TRIPOS>MOLECULE
NONAME
35 35 1 0 0 
SMALL
USER_CHARGES


@<TRIPOS>ATOM
  1 S       -0.1920     0.0630     0.5830 S.3   1 <1>  -0.3320 
  2 C       -0.0170    -1.7150     0.3640 C.ar  1 <1>   0.4120 
  3 C       -1.9110     0.5140     0.0870 C.3   1 <1>   0.0700 
  4 N        1.1760    -2.1800     0.6840 N.ar  1 <1>  -0.6200 
  5 C       -1.0720    -2.4860    -0.1020 C.ar  1 <1>  -0.1500 
  6 C       -2.0650     2.0220     0.2700 C.3   1 <1>  -0.2400 
  7 C        1.3300    -3.4870     0.5320 C.ar  1 <1>   0.1600 
  8 C       -0.8880    -3.8430    -0.2520 C.ar  1 <1>  -0.1500 
  9 C        0.3500    -4.3740     0.0720 C.ar  1 <1>   0.1170 
 10 N        0.5330    -5.7610    -0.0830 N.am  1 <1>  -0.5470 
 11 C        1.6010    -6.5730     0.1390 C.2   1 <1>   0.7800 
 12 O        2.6720    -6.1810     0.5490 O.2   1 <1>  -0.5700 
 13 O        1.3770    -7.8560    -0.1320 O.3   1 <1>  -0.4300 
 14 C        2.2890    -8.9270    -0.0010 C.3   1 <1>   0.2800 
 15 C        2.7080    -9.0910     1.4650 C.3   1 <1>  -0.2400 
 16 C        1.5150   -10.1690    -0.4460 C.3   1 <1>  -0.2400 
 17 C        3.4890    -8.7200    -0.9330 C.3   1 <1>  -0.2400 
 18 H       -2.5860    -0.0300     0.7230 H     1 <1>   0.0800 
 19 H       -2.0380     0.2280    -0.9430 H     1 <1>   0.0800 
 20 H       -2.0180    -2.0490    -0.3450 H     1 <1>   0.1500 
 21 H       -1.8970     2.2880     1.2980 H     1 <1>   0.0800 
 22 H       -3.0570     2.3280    -0.0100 H     1 <1>   0.0800 
 23 H       -1.3550     2.5440    -0.3480 H     1 <1>   0.0800 
 24 H        2.2990    -3.8730     0.7900 H     1 <1>   0.1500 
 25 H       -1.6850    -4.4690    -0.6110 H     1 <1>   0.1500 
 26 H       -0.2680    -6.2850    -0.4260 H     1 <1>   0.3700 
 27 H        1.8420    -9.1650     2.0970 H     1 <1>   0.0800 
 28 H        3.3150    -8.2660     1.7910 H     1 <1>   0.0800 
 29 H        3.2910    -9.9860     1.5810 H     1 <1>   0.0800 
 30 H        0.6550   -10.3180     0.1820 H     1 <1>   0.0800 
 31 H        2.1390   -11.0420    -0.3770 H     1 <1>   0.0800 
 32 H        1.1920   -10.0630    -1.4660 H     1 <1>   0.0800 
 33 H        4.0970    -7.8950    -0.6080 H     1 <1>   0.0800 
 34 H        3.1570    -8.5400    -1.9390 H     1 <1>   0.0800 
 35 H        4.1100    -9.5970    -0.9310 H     1 <1>   0.0800 
@<TRIPOS>BOND
  1   1   2  1   
  2   1   3  1   
  3   2   4  ar  
  4   2   5  ar  
  5   3   6  1   
  6   3  18  1   
  7   3  19  1   
  8   4   7  ar  
  9   5   8  ar  
 10   5  20  1   
 11   6  21  1   
 12   6  22  1   
 13   6  23  1   
 14   7   9  ar  
 15   7  24  1   
 16   8   9  ar  
 17   8  25  1   
 18   9  10  1   
 19  10  11  am  
 20  10  26  1   
 21  11  12  2   
 22  11  13  1   
 23  13  14  1   
 24  14  15  1   
 25  14  16  1   
 26  14  17  1   
 27  15  27  1   
 28  15  28  1   
 29  15  29  1   
 30  16  30  1   
 31  16  31  1   
 32  16  32  1   
 33  17  33  1   
 34  17  34  1   
 35  17  35  1   
@<TRIPOS>SUBSTRUCTURE
  1 ****   9 GROUP 4 **** **** 0

# MOE 2024.06 (io_trps.svl 2023.06)
