@<TRIPOS>MOLECULE
NONAME
53 54 1 0 0 
SMALL
USER_CHARGES


@<TRIPOS>ATOM
  1 O       -2.7320     0.6790     1.6310 O.2   1 <1>  -0.5700 
  2 C       -2.6500     1.0970     0.5040 C.2   1 <1>   0.5690 
  3 N       -2.9290     0.2870    -0.5640 N.am  1 <1>  -0.6600 
  4 C       -2.3040     2.5620     0.2990 C.3   1 <1>  -0.0990 
  5 C       -2.6980    -1.1800    -0.4380 C.3   1 <1>   0.3200 
  6 C       -3.5660     0.7840    -1.8290 C.3   1 <1>   0.1400 
  7 C       -1.1940     3.0460     1.2410 C.3   1 <1>  -0.0170 
  8 C       -4.0420    -1.8670    -0.3370 C.2   1 <1>  -0.3320 
  9 C       -4.9070     1.5100    -1.5630 C.3   1 <1>   0.3430 
 10 C       -0.8920     4.5050     0.9510 C.ar  1 <1>  -0.1440 
 11 N       -4.6080    -2.6170    -1.3040 N.pl3 1 <1>   0.0330 
 12 C       -4.9000    -1.8730     0.7060 C.2   1 <1>   0.0770 
 13 N       -5.7450     0.7590    -0.5740 N.4   1 <1>  -0.9590 
 14 C        0.0560     4.8480     0.0000 C.ar  1 <1>  -0.1500 
 15 C       -1.5720     5.5060     1.6270 C.ar  1 <1>  -0.1500 
 16 C       -5.8040    -2.9860    -0.8000 C.2   1 <1>   0.0360 
 17 N       -6.0280    -2.5330     0.3910 N.2   1 <1>  -0.5650 
 18 C       -7.0140     0.2200    -1.1460 C.3   1 <1>   0.2630 
 19 C       -6.0110     1.5320     0.6760 C.3   1 <1>   0.2630 
 20 C        0.3200     6.1770    -0.2830 C.ar  1 <1>  -0.1430 
 21 C       -1.3130     6.8390     1.3550 C.ar  1 <1>  -0.1430 
 22 C       -0.3680     7.1680     0.3980 C.ar  1 <1>  -0.1500 
 23 C        1.3610     6.5460    -1.3240 C.3   1 <1>  -0.0970 
 24 C       -2.0570     7.9340     2.0970 C.3   1 <1>  -0.0970 
 25 H       -3.1820     3.1550     0.4690 H     1 <1>   0.0800 
 26 H       -1.9730     2.7250    -0.7090 H     1 <1>   0.0800 
 27 H       -2.1200    -1.3910     0.4480 H     1 <1>   0.0800 
 28 H       -2.1400    -1.5390    -1.2860 H     1 <1>   0.0800 
 29 H       -3.7500    -0.0460    -2.4890 H     1 <1>   0.0800 
 30 H       -2.8900     1.4470    -2.3410 H     1 <1>   0.0800 
 31 H       -0.3060     2.4540     1.1000 H     1 <1>   0.0800 
 32 H       -1.5000     2.9350     2.2670 H     1 <1>   0.0800 
 33 H       -5.4410     1.6290    -2.4910 H     1 <1>   0.0800 
 34 H       -4.6970     2.4950    -1.1820 H     1 <1>   0.0800 
 35 H       -4.2170    -2.8980    -2.2110 H     1 <1>   0.2700 
 36 H       -4.7650    -1.4140     1.6760 H     1 <1>   0.1500 
 37 H       -5.1720    -0.0620    -0.2840 H     1 <1>   0.4500 
 38 H        0.5940     4.0780    -0.5230 H     1 <1>   0.1500 
 39 H       -2.3050     5.2480     2.3700 H     1 <1>   0.1500 
 40 H       -6.4920    -3.6070    -1.3500 H     1 <1>   0.1500 
 41 H       -7.6750     1.0240    -1.4260 H     1 <1>   0.0800 
 42 H       -7.5100    -0.4020    -0.4170 H     1 <1>   0.0800 
 43 H       -6.8060    -0.3830    -2.0140 H     1 <1>   0.0800 
 44 H       -6.5790     2.4220     0.4570 H     1 <1>   0.0800 
 45 H       -5.0830     1.8150     1.1470 H     1 <1>   0.0800 
 46 H       -6.5690     0.9270     1.3720 H     1 <1>   0.0800 
 47 H       -0.1640     8.2020     0.1840 H     1 <1>   0.1500 
 48 H        1.4020     5.8000    -2.0960 H     1 <1>   0.0800 
 49 H        2.3280     6.6200    -0.8590 H     1 <1>   0.0800 
 50 H        1.1210     7.4910    -1.7780 H     1 <1>   0.0800 
 51 H       -2.4060     7.5770     3.0490 H     1 <1>   0.0800 
 52 H       -2.9000     8.2590     1.5160 H     1 <1>   0.0800 
 53 H       -1.4080     8.7740     2.2690 H     1 <1>   0.0800 
@<TRIPOS>BOND
  1   1   2  2   
  2   2   3  am  
  3   2   4  1   
  4   3   5  1   
  5   3   6  1   
  6   4   7  1   
  7   4  25  1   
  8   4  26  1   
  9   5   8  1   
 10   5  27  1   
 11   5  28  1   
 12   6   9  1   
 13   6  29  1   
 14   6  30  1   
 15   7  10  1   
 16   7  31  1   
 17   7  32  1   
 18   8  11  1   
 19   8  12  2   
 20   9  13  1   
 21   9  33  1   
 22   9  34  1   
 23  10  14  ar  
 24  10  15  ar  
 25  11  16  1   
 26  11  35  1   
 27  12  17  1   
 28  12  36  1   
 29  13  18  1   
 30  13  19  1   
 31  13  37  1   
 32  14  20  ar  
 33  14  38  1   
 34  15  21  ar  
 35  15  39  1   
 36  16  17  2   
 37  16  40  1   
 38  18  41  1   
 39  18  42  1   
 40  18  43  1   
 41  19  44  1   
 42  19  45  1   
 43  19  46  1   
 44  20  22  ar  
 45  20  23  1   
 46  21  22  ar  
 47  21  24  1   
 48  22  47  1   
 49  23  48  1   
 50  23  49  1   
 51  23  50  1   
 52  24  51  1   
 53  24  52  1   
 54  24  53  1   
@<TRIPOS>SUBSTRUCTURE
  1 ****   4 GROUP 4 **** **** 0

# MOE 2024.06 (io_trps.svl 2023.06)
