@<TRIPOS>MOLECULE
NONAME
50 52 1 0 0 
SMALL
USER_CHARGES


@<TRIPOS>ATOM
  1 CL      -0.8130    -0.1290    -2.0500 Cl    1 <1>  -0.1770 
  2 C       -1.7380    -0.8680    -0.7550 C.ar  1 <1>   0.1770 
  3 C       -2.3800    -0.1450     0.2600 C.ar  1 <1>   0.0820 
  4 C       -1.8140    -2.2470    -0.7980 C.ar  1 <1>  -0.1500 
  5 O       -2.3950     1.2000     0.4430 O.3   1 <1>  -0.3630 
  6 C       -3.0920    -0.8610     1.2100 C.ar  1 <1>  -0.1500 
  7 C       -2.5350    -2.9680     0.1520 C.ar  1 <1>   0.0860 
  8 C       -1.5500     2.1070    -0.2250 C.3   1 <1>   0.1200 
  9 C       -3.1650    -2.2410     1.1610 C.ar  1 <1>  -0.1500 
 10 C       -2.6070    -4.4150     0.0840 C.2   1 <1>   0.5440 
 11 C       -1.7030     3.4760     0.4380 C.3   1 <1>  -0.1600 
 12 O       -1.5980    -5.0560    -0.1420 O.2   1 <1>  -0.5700 
 13 N       -3.7940    -5.0940     0.2490 N.am  1 <1>  -0.6600 
 14 C       -0.8110     4.5240    -0.2360 C.3   1 <1>  -0.2400 
 15 C       -5.1420    -4.5100     0.0270 C.3   1 <1>   0.1400 
 16 C       -3.8610    -6.5780     0.2130 C.3   1 <1>   0.1400 
 17 C       -6.0030    -5.6840    -0.4340 C.3   1 <1>   0.2000 
 18 C       -5.3510    -6.9190     0.1810 C.3   1 <1>  -0.0800 
 19 O       -7.3120    -5.5610     0.0030 O.3   1 <1>  -0.6800 
 20 C       -5.6690    -8.2160    -0.5790 C.3   1 <1>   0.0210 
 21 C       -4.9260    -9.3910     0.0260 C.2   1 <1>   0.1080 
 22 N       -5.1410    -9.8110     1.2340 N.2   1 <1>  -0.7070 
 23 C       -3.9430   -10.1310    -0.6220 C.2   1 <1>  -0.1500 
 24 N       -4.2920   -10.8440     1.3900 N.pl3 1 <1>   0.3000 
 25 C       -3.5540   -11.0560     0.2800 C.2   1 <1>  -0.3320 
 26 C       -2.5060   -12.1460     0.1470 C.3   1 <1>  -0.0600 
 27 H       -1.3060    -2.7810    -1.5810 H     1 <1>   0.1500 
 28 H       -3.5890    -0.3220     1.9990 H     1 <1>   0.1500 
 29 H       -0.5360     1.7580    -0.1390 H     1 <1>   0.0800 
 30 H       -1.8500     2.1550    -1.2570 H     1 <1>   0.0800 
 31 H       -3.7120    -2.7700     1.9220 H     1 <1>   0.1500 
 32 H       -2.7310     3.7890     0.3700 H     1 <1>   0.0800 
 33 H       -1.4350     3.3980     1.4770 H     1 <1>   0.0800 
 34 H       -1.0730     4.6300    -1.2740 H     1 <1>   0.0800 
 35 H        0.2240     4.2390    -0.1660 H     1 <1>   0.0800 
 36 H       -0.9360     5.4780     0.2460 H     1 <1>   0.0800 
 37 H       -5.5110    -4.1130     0.9550 H     1 <1>   0.0800 
 38 H       -5.1090    -3.7410    -0.7250 H     1 <1>   0.0800 
 39 H       -3.3640    -6.9310    -0.6760 H     1 <1>   0.0800 
 40 H       -3.3790    -7.0030     1.0770 H     1 <1>   0.0800 
 41 H       -6.0050    -5.7320    -1.5100 H     1 <1>   0.0800 
 42 H       -5.6700    -7.0250     1.2030 H     1 <1>   0.0800 
 43 H       -7.3640    -5.7160     0.9660 H     1 <1>   0.4000 
 44 H       -5.3970    -8.1160    -1.6140 H     1 <1>   0.0800 
 45 H       -6.7250    -8.4130    -0.5270 H     1 <1>   0.0800 
 46 H       -3.5870    -9.9760    -1.6250 H     1 <1>   0.1500 
 47 H       -4.2400   -11.3820     2.2630 H     1 <1>   0.2700 
 48 H       -2.0570   -12.1100    -0.8290 H     1 <1>   0.0800 
 49 H       -2.9560   -13.1140     0.2820 H     1 <1>   0.0800 
 50 H       -1.7340   -12.0110     0.8840 H     1 <1>   0.0800 
@<TRIPOS>BOND
  1   1   2  1   
  2   2   3  ar  
  3   2   4  ar  
  4   3   5  1   
  5   3   6  ar  
  6   4   7  ar  
  7   4  27  1   
  8   5   8  1   
  9   6   9  ar  
 10   6  28  1   
 11   7   9  ar  
 12   7  10  1   
 13   8  11  1   
 14   8  29  1   
 15   8  30  1   
 16   9  31  1   
 17  10  12  2   
 18  10  13  am  
 19  11  14  1   
 20  11  32  1   
 21  11  33  1   
 22  13  15  1   
 23  13  16  1   
 24  14  34  1   
 25  14  35  1   
 26  14  36  1   
 27  15  17  1   
 28  15  37  1   
 29  15  38  1   
 30  16  18  1   
 31  16  39  1   
 32  16  40  1   
 33  17  18  1   
 34  17  19  1   
 35  17  41  1   
 36  18  20  1   
 37  18  42  1   
 38  19  43  1   
 39  20  21  1   
 40  20  44  1   
 41  20  45  1   
 42  21  22  2   
 43  21  23  1   
 44  22  24  1   
 45  23  25  2   
 46  23  46  1   
 47  24  25  1   
 48  24  47  1   
 49  25  26  1   
 50  26  48  1   
 51  26  49  1   
 52  26  50  1   
@<TRIPOS>SUBSTRUCTURE
  1 ****  10 GROUP 4 **** **** 0

# MOE 2024.06 (io_trps.svl 2023.06)
