@<TRIPOS>MOLECULE
NONAME
42 45 1 0 0 
SMALL
USER_CHARGES


@<TRIPOS>ATOM
  1 O        3.8270    -1.6310    -1.8330 O.2   1 <1>  -0.5700 
  2 C        2.9850    -1.4830    -0.9660 C.2   1 <1>   0.5440 
  3 N        2.9380    -0.2420    -0.3860 N.am  1 <1>  -0.6600 
  4 C        2.1210    -2.5690    -0.5340 C.ar  1 <1>   0.0860 
  5 C        3.7620    -0.0310     0.8560 C.3   1 <1>   0.2200 
  6 C        2.6300     0.9290    -1.2650 C.3   1 <1>   0.1400 
  7 C        1.0890    -2.3690     0.3730 C.ar  1 <1>  -0.1500 
  8 C        2.3130    -3.8800    -1.0310 C.ar  1 <1>  -0.1500 
  9 C        3.2800     1.1610     1.7010 C.3   1 <1>   0.1200 
 10 C        5.2700     0.1100     0.5180 C.3   1 <1>   0.3430 
 11 C        3.5860     2.1280    -1.1200 C.3   1 <1>  -0.0800 
 12 C        0.2880    -3.4320     0.7790 C.ar  1 <1>   0.2270 
 13 C        1.5230    -4.9350    -0.6390 C.ar  1 <1>  -0.1500 
 14 O        3.8820     2.3440     1.2700 O.3   1 <1>  -0.5600 
 15 N        5.5190     0.4460    -0.9270 N.4   1 <1>  -0.9590 
 16 C        3.3100     2.9410     0.1550 C.3   1 <1>   0.1200 
 17 C        5.0880     1.8260    -1.3150 C.3   1 <1>   0.3430 
 18 N       -0.7530    -3.4690     1.6460 N.2   1 <1>  -0.2270 
 19 C        0.5020    -4.6890     0.2810 C.ar  1 <1>  -0.1520 
 20 C        6.9280     0.1730    -1.3230 C.3   1 <1>   0.2630 
 21 N       -1.1860    -4.6720     1.7060 N.2   1 <1>  -0.4180 
 22 N       -0.4450    -5.4340     0.8870 N.pl3 1 <1>   0.3000 
 23 H        3.6460    -0.9040     1.4750 H     1 <1>   0.0800 
 24 H        2.6410     0.6040    -2.2930 H     1 <1>   0.0800 
 25 H        1.6240     1.2520    -1.0550 H     1 <1>   0.0800 
 26 H        0.8760    -1.3990     0.7820 H     1 <1>   0.1500 
 27 H        3.1040    -4.0480    -1.7430 H     1 <1>   0.1500 
 28 H        3.5900     1.0170     2.7210 H     1 <1>   0.0800 
 29 H        2.2080     1.2580     1.6860 H     1 <1>   0.0800 
 30 H        5.7430    -0.8310     0.7420 H     1 <1>   0.0800 
 31 H        5.7160     0.8560     1.1560 H     1 <1>   0.0800 
 32 H        3.3210     2.7980    -1.9190 H     1 <1>   0.0800 
 33 H        1.6810    -5.9280    -1.0280 H     1 <1>   0.1500 
 34 H        4.9000    -0.2190    -1.4470 H     1 <1>   0.4500 
 35 H        2.2540     3.0710     0.3270 H     1 <1>   0.0800 
 36 H        3.7540     3.9190     0.0660 H     1 <1>   0.0800 
 37 H        5.6630     2.5510    -0.7610 H     1 <1>   0.0800 
 38 H        5.3150     1.9640    -2.3590 H     1 <1>   0.0800 
 39 H        7.6010     0.8210    -0.7850 H     1 <1>   0.0800 
 40 H        7.0550     0.3380    -2.3800 H     1 <1>   0.0800 
 41 H        7.1820    -0.8520    -1.1060 H     1 <1>   0.0800 
 42 H       -0.6080    -6.4380     0.7620 H     1 <1>   0.2700 
@<TRIPOS>BOND
  1   1   2  2   
  2   2   3  am  
  3   2   4  1   
  4   3   5  1   
  5   3   6  1   
  6   4   7  ar  
  7   4   8  ar  
  8   5   9  1   
  9   5  10  1   
 10   5  23  1   
 11   6  11  1   
 12   6  24  1   
 13   6  25  1   
 14   7  12  ar  
 15   7  26  1   
 16   8  13  ar  
 17   8  27  1   
 18   9  14  1   
 19   9  28  1   
 20   9  29  1   
 21  10  15  1   
 22  10  30  1   
 23  10  31  1   
 24  11  16  1   
 25  11  17  1   
 26  11  32  1   
 27  12  18  1   
 28  12  19  ar  
 29  13  19  ar  
 30  13  33  1   
 31  14  16  1   
 32  15  17  1   
 33  15  20  1   
 34  15  34  1   
 35  16  35  1   
 36  16  36  1   
 37  17  37  1   
 38  17  38  1   
 39  18  21  2   
 40  19  22  1   
 41  20  39  1   
 42  20  40  1   
 43  20  41  1   
 44  21  22  1   
 45  22  42  1   
@<TRIPOS>SUBSTRUCTURE
  1 ****   2 GROUP 4 **** **** 0

# MOE 2024.06 (io_trps.svl 2023.06)
