@<TRIPOS>MOLECULE
NONAME
51 53 1 0 0 
SMALL
USER_CHARGES


@<TRIPOS>ATOM
  1 CL      -0.9360     0.8830    -0.6380 Cl    1 <1>  -0.1770 
  2 C       -0.4360     2.5490    -0.4530 C.ar  1 <1>   0.1770 
  3 C        0.8970     2.8580    -0.2110 C.ar  1 <1>  -0.1440 
  4 C       -1.3990     3.5360    -0.5560 C.ar  1 <1>  -0.1500 
  5 C        1.2560     4.1910    -0.0690 C.ar  1 <1>  -0.1500 
  6 C        1.9470     1.7610    -0.1040 C.3   1 <1>  -0.0960 
  7 C       -1.0290     4.8610    -0.4120 C.ar  1 <1>  -0.1500 
  8 C        0.2940     5.1960    -0.1670 C.ar  1 <1>   0.0830 
  9 O        0.5680     6.5180    -0.0350 O.3   1 <1>  -0.3630 
 10 C        1.8780     6.9780     0.2360 C.3   1 <1>   0.1200 
 11 C        1.8940     8.5100     0.3320 C.3   1 <1>   0.2000 
 12 O        1.6930     9.0560    -0.9360 O.3   1 <1>  -0.6800 
 13 C        3.2280     9.0090     0.9200 C.3   1 <1>   0.2090 
 14 N        3.2800    10.4940     0.9660 N.pl3 1 <1>  -0.8690 
 15 C        4.2260    11.1810     0.2450 C.ar  1 <1>   0.4100 
 16 N        5.4740    10.7320     0.3640 N.ar  1 <1>  -0.6200 
 17 C        3.8580    12.2820    -0.5520 C.ar  1 <1>   0.0860 
 18 C        6.3960    11.3710    -0.3260 C.ar  1 <1>   0.1600 
 19 C        2.4810    12.7100    -0.6230 C.2   1 <1>   0.5440 
 20 C        4.8590    12.9210    -1.2710 C.ar  1 <1>  -0.1500 
 21 C        6.1480    12.4550    -1.1490 C.ar  1 <1>  -0.1500 
 22 O        1.5920    11.8890    -0.7970 O.2   1 <1>  -0.5700 
 23 N        2.1250    14.0330    -0.4820 N.am  1 <1>  -0.6600 
 24 C        2.9600    15.0620     0.1790 C.3   1 <1>   0.1400 
 25 C        0.7200    14.4890    -0.5940 C.3   1 <1>   0.1400 
 26 C        1.9620    16.0590     0.7540 C.3   1 <1>  -0.1600 
 27 C        0.7430    15.9490    -0.1570 C.3   1 <1>  -0.1600 
 28 H       -2.4220     3.2670    -0.7450 H     1 <1>   0.1500 
 29 H        2.2840     4.4330     0.1150 H     1 <1>   0.1500 
 30 H        1.7010     1.0960     0.7050 H     1 <1>   0.0800 
 31 H        2.9220     2.1740     0.0780 H     1 <1>   0.0800 
 32 H        1.9810     1.1960    -1.0180 H     1 <1>   0.0800 
 33 H       -1.7610     5.6450    -0.4900 H     1 <1>   0.1500 
 34 H        2.5310     6.6500    -0.5530 H     1 <1>   0.0800 
 35 H        2.1850     6.5470     1.1720 H     1 <1>   0.0800 
 36 H        1.0870     8.8300     0.9670 H     1 <1>   0.0800 
 37 H        1.6620    10.0440    -0.8960 H     1 <1>   0.4000 
 38 H        4.0400     8.6250     0.3270 H     1 <1>   0.0800 
 39 H        3.3460     8.6320     1.9210 H     1 <1>   0.0800 
 40 H        2.3390    10.9010     0.8830 H     1 <1>   0.4000 
 41 H        7.4080    11.0130    -0.2340 H     1 <1>   0.1500 
 42 H        4.6250    13.7540    -1.9110 H     1 <1>   0.1500 
 43 H        6.9560    12.9200    -1.6860 H     1 <1>   0.1500 
 44 H        3.5800    15.5420    -0.5590 H     1 <1>   0.0800 
 45 H        3.5760    14.6320     0.9520 H     1 <1>   0.0800 
 46 H        0.1050    13.9050     0.0710 H     1 <1>   0.0800 
 47 H        0.3630    14.3780    -1.6040 H     1 <1>   0.0800 
 48 H        2.3640    17.0570     0.7850 H     1 <1>   0.0800 
 49 H        1.7010    15.7560     1.7530 H     1 <1>   0.0800 
 50 H       -0.1680    16.2310     0.3400 H     1 <1>   0.0800 
 51 H        0.8760    16.5710    -1.0250 H     1 <1>   0.0800 
@<TRIPOS>BOND
  1   1   2  1   
  2   2   3  ar  
  3   2   4  ar  
  4   3   5  ar  
  5   3   6  1   
  6   4   7  ar  
  7   4  28  1   
  8   5   8  ar  
  9   5  29  1   
 10   6  30  1   
 11   6  31  1   
 12   6  32  1   
 13   7   8  ar  
 14   7  33  1   
 15   8   9  1   
 16   9  10  1   
 17  10  11  1   
 18  10  34  1   
 19  10  35  1   
 20  11  12  1   
 21  11  13  1   
 22  11  36  1   
 23  12  37  1   
 24  13  14  1   
 25  13  38  1   
 26  13  39  1   
 27  14  15  1   
 28  14  40  1   
 29  15  16  ar  
 30  15  17  ar  
 31  16  18  ar  
 32  17  19  1   
 33  17  20  ar  
 34  18  21  ar  
 35  18  41  1   
 36  19  22  2   
 37  19  23  am  
 38  20  21  ar  
 39  20  42  1   
 40  21  43  1   
 41  23  24  1   
 42  23  25  1   
 43  24  26  1   
 44  24  44  1   
 45  24  45  1   
 46  25  27  1   
 47  25  46  1   
 48  25  47  1   
 49  26  27  1   
 50  26  48  1   
 51  26  49  1   
 52  27  50  1   
 53  27  51  1   
@<TRIPOS>SUBSTRUCTURE
  1 ****  12 GROUP 4 **** **** 0

# MOE 2024.06 (io_trps.svl 2023.06)
