@<TRIPOS>MOLECULE
NONAME
45 48 1 0 0 
SMALL
USER_CHARGES


@<TRIPOS>ATOM
  1 O        0.0600    -0.8160     1.4370 O.3   1 <1>  -0.5600 
  2 C        0.1770    -1.6140     0.2960 C.3   1 <1>   0.2000 
  3 C       -1.2370    -0.6770     1.9250 C.3   1 <1>   0.0400 
  4 C        1.5440    -1.4360    -0.3890 C.3   1 <1>   0.0000 
  5 C        0.0760    -3.1030     0.6430 C.3   1 <1>  -0.1600 
  6 C        2.6870    -1.3450     0.6570 C.3   1 <1>   0.2090 
  7 C        1.5650    -0.1870    -1.2950 C.3   1 <1>  -0.1600 
  8 C        1.6440    -2.7380    -1.2030 C.3   1 <1>  -0.1600 
  9 C        1.0310    -3.8260    -0.3170 C.3   1 <1>  -0.1600 
 10 N        4.0170    -1.0590     0.0280 N.pl3 1 <1>  -0.8380 
 11 C        2.9480     0.0130    -1.9360 C.3   1 <1>  -0.1600 
 12 C        5.0840    -1.9200     0.1680 C.ar  1 <1>   0.4100 
 13 C        4.0550     0.1140    -0.8830 C.3   1 <1>   0.2090 
 14 N        4.8410    -3.1870    -0.0060 N.ar  1 <1>  -0.6200 
 15 C        6.3920    -1.4510     0.4700 C.ar  1 <1>   0.0000 
 16 C        5.8930    -4.0090     0.0070 C.ar  1 <1>   0.4700 
 17 C        7.4110    -2.4090     0.4280 C.ar  1 <1>   0.3100 
 18 C        6.7360    -0.1300     0.8290 C.ar  1 <1>  -0.1500 
 19 N        7.1390    -3.7070     0.1870 N.ar  1 <1>  -0.6200 
 20 C        8.7370    -2.0180     0.6650 C.ar  1 <1>  -0.1500 
 21 C        8.0370     0.2310     1.0690 C.ar  1 <1>  -0.1500 
 22 C        9.0530    -0.7210     0.9760 C.ar  1 <1>  -0.1500 
 23 H       -0.6010    -1.3480    -0.4010 H     1 <1>   0.0800 
 24 H       -1.2010    -0.0320     2.7850 H     1 <1>   0.0800 
 25 H       -1.6180    -1.6410     2.2130 H     1 <1>   0.0800 
 26 H       -1.8570    -0.2330     1.1660 H     1 <1>   0.0800 
 27 H        0.3920    -3.2720     1.6580 H     1 <1>   0.0800 
 28 H       -0.9330    -3.4530     0.5140 H     1 <1>   0.0800 
 29 H        2.7410    -2.2540     1.2290 H     1 <1>   0.0800 
 30 H        2.4760    -0.5480     1.3470 H     1 <1>   0.0800 
 31 H        0.8190    -0.2710    -2.0650 H     1 <1>   0.0800 
 32 H        1.3260     0.6770    -0.6980 H     1 <1>   0.0800 
 33 H        1.0560    -2.6510    -2.1000 H     1 <1>   0.0800 
 34 H        2.6550    -2.9730    -1.4840 H     1 <1>   0.0800 
 35 H        1.8110    -4.3110     0.2460 H     1 <1>   0.0800 
 36 H        0.5200    -4.5650    -0.9100 H     1 <1>   0.0800 
 37 H        2.9430     0.9120    -2.5260 H     1 <1>   0.0800 
 38 H        3.1730    -0.8070    -2.5940 H     1 <1>   0.0800 
 39 H        3.9190     1.0100    -0.3030 H     1 <1>   0.0800 
 40 H        5.0110     0.1650    -1.3760 H     1 <1>   0.0800 
 41 H        5.6590    -5.0470    -0.1620 H     1 <1>   0.1500 
 42 H        5.9540     0.6000     0.9250 H     1 <1>   0.1500 
 43 H        9.4990    -2.7730     0.6010 H     1 <1>   0.1500 
 44 H        8.2870     1.2440     1.3340 H     1 <1>   0.1500 
 45 H       10.0730    -0.4300     1.1580 H     1 <1>   0.1500 
@<TRIPOS>BOND
  1   1   2  1   
  2   1   3  1   
  3   2   4  1   
  4   2   5  1   
  5   2  23  1   
  6   3  24  1   
  7   3  25  1   
  8   3  26  1   
  9   4   6  1   
 10   4   7  1   
 11   4   8  1   
 12   5   9  1   
 13   5  27  1   
 14   5  28  1   
 15   6  10  1   
 16   6  29  1   
 17   6  30  1   
 18   7  11  1   
 19   7  31  1   
 20   7  32  1   
 21   8   9  1   
 22   8  33  1   
 23   8  34  1   
 24   9  35  1   
 25   9  36  1   
 26  10  12  1   
 27  10  13  1   
 28  11  13  1   
 29  11  37  1   
 30  11  38  1   
 31  12  14  ar  
 32  12  15  ar  
 33  13  39  1   
 34  13  40  1   
 35  14  16  ar  
 36  15  17  ar  
 37  15  18  ar  
 38  16  19  ar  
 39  16  41  1   
 40  17  19  ar  
 41  17  20  ar  
 42  18  21  ar  
 43  18  42  1   
 44  20  22  ar  
 45  20  43  1   
 46  21  22  ar  
 47  21  44  1   
 48  22  45  1   
@<TRIPOS>SUBSTRUCTURE
  1 ****  10 GROUP 4 **** **** 0

# MOE 2024.06 (io_trps.svl 2023.06)
