@<TRIPOS>MOLECULE
NONAME
50 52 1 0 0 
SMALL
USER_CHARGES


@<TRIPOS>ATOM
  1 CL      -2.5760    -1.3040    -1.3780 Cl    1 <1>  -0.1770 
  2 C       -2.7960     0.2040    -0.5300 C.ar  1 <1>   0.1770 
  3 C       -2.5690     1.3920    -1.2010 C.ar  1 <1>  -0.1500 
  4 C       -3.1880     0.1890     0.7930 C.ar  1 <1>  -0.1500 
  5 C       -2.7330     2.6070    -0.5460 C.ar  1 <1>  -0.1440 
  6 C       -3.3540     1.3930     1.4530 C.ar  1 <1>  -0.1500 
  7 C       -3.1340     2.5930     0.7940 C.ar  1 <1>   0.0830 
  8 C       -2.4750     3.8750    -1.3500 C.3   1 <1>   0.4870 
  9 O       -3.2730     3.7110     1.5360 O.3   1 <1>  -0.3630 
 10 N       -1.4310     4.7640    -0.7490 N.4   1 <1>  -0.9590 
 11 C       -4.3120     4.6550     1.2610 C.3   1 <1>   0.0140 
 12 C       -1.1820     5.9370    -1.6480 C.3   1 <1>   0.3430 
 13 C       -0.2350     4.0500    -0.2480 C.3   1 <1>   0.3430 
 14 C       -3.7000     5.9320     0.7210 C.2   1 <1>   0.9060 
 15 C       -1.0420     7.2810    -0.8890 C.3   1 <1>   0.3430 
 16 C        0.8330     5.0240     0.2550 C.3   1 <1>  -0.1600 
 17 O       -2.7120     6.4110     1.2900 O.co2 1 <1>  -0.9000 
 18 O       -3.9330     6.2990    -0.4330 O.co2 1 <1>  -0.9000 
 19 N       -0.0060     7.3860     0.2190 N.4   1 <1>  -0.9590 
 20 C        0.2530     6.1820     1.0680 C.3   1 <1>   0.3430 
 21 C       -0.4900     8.4660     1.1250 C.3   1 <1>   0.5230 
 22 C       -0.3850     9.7800     0.3810 C.2   1 <1>  -0.1400 
 23 S        1.2180    10.2850    -0.1340 S.3   1 <1>  -0.0800 
 24 C       -1.3100    10.6830     0.0040 C.2   1 <1>  -0.1500 
 25 C        0.5700    11.7430    -0.8640 C.2   1 <1>  -0.1100 
 26 C       -0.7640    11.8010    -0.7050 C.2   1 <1>  -0.1500 
 27 H       -2.2710     1.3410    -2.2330 H     1 <1>   0.1500 
 28 H       -3.3580    -0.7470     1.2950 H     1 <1>   0.1500 
 29 H       -3.6540     1.4070     2.4870 H     1 <1>   0.1500 
 30 H       -3.4020     4.4160    -1.4500 H     1 <1>   0.0800 
 31 H       -2.1650     3.5910    -2.3410 H     1 <1>   0.0800 
 32 H       -1.9160     5.1780     0.0820 H     1 <1>   0.4500 
 33 H       -4.8190     4.8690     2.1820 H     1 <1>   0.0800 
 34 H       -5.0020     4.2390     0.5510 H     1 <1>   0.0800 
 35 H       -2.0260     6.0490    -2.3110 H     1 <1>   0.0800 
 36 H       -0.3100     5.7640    -2.2550 H     1 <1>   0.0800 
 37 H        0.1790     3.4280    -1.0250 H     1 <1>   0.0800 
 38 H       -0.5350     3.4070     0.5650 H     1 <1>   0.0800 
 39 H       -2.0130     7.5090    -0.4800 H     1 <1>   0.0800 
 40 H       -0.8480     8.0540    -1.6140 H     1 <1>   0.0800 
 41 H        1.4360     5.3860    -0.5580 H     1 <1>   0.0800 
 42 H        1.4860     4.4610     0.8970 H     1 <1>   0.0800 
 43 H        0.8760     7.7370    -0.1720 H     1 <1>   0.4500 
 44 H        0.9670     6.4490     1.8310 H     1 <1>   0.0800 
 45 H       -0.6460     5.8660     1.5730 H     1 <1>   0.0800 
 46 H        0.1160     8.5130     2.0140 H     1 <1>   0.0800 
 47 H       -1.5130     8.2840     1.4170 H     1 <1>   0.0800 
 48 H       -2.3700    10.6210     0.1910 H     1 <1>   0.1500 
 49 H        1.2650    12.4140    -1.3390 H     1 <1>   0.1500 
 50 H       -1.4010    12.5950    -1.0580 H     1 <1>   0.1500 
@<TRIPOS>BOND
  1   1   2  1   
  2   2   3  ar  
  3   2   4  ar  
  4   3   5  ar  
  5   3  27  1   
  6   4   6  ar  
  7   4  28  1   
  8   5   7  ar  
  9   5   8  1   
 10   6   7  ar  
 11   6  29  1   
 12   7   9  1   
 13   8  10  1   
 14   8  30  1   
 15   8  31  1   
 16   9  11  1   
 17  10  12  1   
 18  10  13  1   
 19  10  32  1   
 20  11  14  1   
 21  11  33  1   
 22  11  34  1   
 23  12  15  1   
 24  12  35  1   
 25  12  36  1   
 26  13  16  1   
 27  13  37  1   
 28  13  38  1   
 29  14  17  ar  
 30  14  18  ar  
 31  15  19  1   
 32  15  39  1   
 33  15  40  1   
 34  16  20  1   
 35  16  41  1   
 36  16  42  1   
 37  19  20  1   
 38  19  21  1   
 39  19  43  1   
 40  20  44  1   
 41  20  45  1   
 42  21  22  1   
 43  21  46  1   
 44  21  47  1   
 45  22  23  1   
 46  22  24  2   
 47  23  25  1   
 48  24  26  1   
 49  24  48  1   
 50  25  26  2   
 51  25  49  1   
 52  26  50  1   
@<TRIPOS>SUBSTRUCTURE
  1 ****  10 GROUP 4 **** **** 0

# MOE 2024.06 (io_trps.svl 2023.06)
