@<TRIPOS>MOLECULE
NONAME
47 49 1 0 0 
SMALL
USER_CHARGES


@<TRIPOS>ATOM
  1 O       -0.4560    -0.5650    -0.4050 O.2   1 <1>  -0.5700 
  2 C       -0.3390    -1.7820    -0.3820 C.2   1 <1>   0.5440 
  3 N       -1.4490    -2.5860    -0.5430 N.am  1 <1>  -0.4200 
  4 C        0.9330    -2.4080    -0.1750 C.ar  1 <1>   0.0860 
  5 C       -1.3120    -3.9610    -0.4450 C.2   1 <1>   0.4490 
  6 C       -2.7710    -1.9280    -0.7840 C.3   1 <1>   0.1400 
  7 C        0.9600    -3.8020    -0.1130 C.ar  1 <1>   0.1790 
  8 C        2.1330    -1.7090    -0.0330 C.ar  1 <1>  -0.1500 
  9 N       -0.1930    -4.5450    -0.2470 N.2   1 <1>  -0.6290 
 10 C       -2.5370    -4.8470    -0.5700 C.3   1 <1>  -0.1790 
 11 C       -3.4000    -1.4990     0.5430 C.3   1 <1>   0.1400 
 12 C        2.1640    -4.4610     0.0930 C.ar  1 <1>  -0.1500 
 13 C        3.3320    -2.3600     0.1620 C.ar  1 <1>   0.0830 
 14 N       -4.7730    -0.9840     0.2890 N.am  1 <1>  -0.4690 
 15 C        3.3570    -3.7670     0.2400 C.ar  1 <1>   0.0830 
 16 O        4.4220    -1.5520     0.2720 O.3   1 <1>  -0.3630 
 17 C       -5.8150    -1.9150     0.1410 C.2   1 <1>   0.6160 
 18 C       -5.0500     0.3780     0.1170 C.2   1 <1>  -0.0290 
 19 O        4.5320    -4.4110     0.4760 O.3   1 <1>  -0.3620 
 20 C        5.6630    -1.9330    -0.2790 C.3   1 <1>   0.0400 
 21 O       -5.5440    -3.1290     0.2520 O.2   1 <1>  -0.5700 
 22 C       -7.1010    -1.4730    -0.1480 C.2   1 <1>  -0.1360 
 23 C       -6.3120     0.7890    -0.1710 C.2   1 <1>  -0.1500 
 24 C       -3.9280     1.3960     0.2500 C.3   1 <1>  -0.1020 
 25 C        4.6020    -5.8060     0.6780 C.3   1 <1>   0.0400 
 26 C       -7.3850    -0.1290    -0.3120 C.2   1 <1>  -0.1500 
 27 O       -8.5250     0.2790    -0.5790 O.3   1 <1>  -0.8500 
 28 H       -3.4370    -2.5910    -1.3040 H     1 <1>   0.0800 
 29 H       -2.6350    -1.0610    -1.4070 H     1 <1>   0.0800 
 30 H        2.1220    -0.6340    -0.0790 H     1 <1>   0.1500 
 31 H       -3.2740    -4.5750     0.1640 H     1 <1>   0.0800 
 32 H       -2.2700    -5.8750    -0.4080 H     1 <1>   0.0800 
 33 H       -2.9610    -4.7630    -1.5530 H     1 <1>   0.0800 
 34 H       -2.7940    -0.7500     1.0140 H     1 <1>   0.0800 
 35 H       -3.4590    -2.3400     1.2110 H     1 <1>   0.0800 
 36 H        2.1240    -5.5320     0.1360 H     1 <1>   0.1500 
 37 H        6.2440    -1.0440    -0.4420 H     1 <1>   0.0800 
 38 H        5.4950    -2.4420    -1.2110 H     1 <1>   0.0800 
 39 H        6.1700    -2.5740     0.4200 H     1 <1>   0.0800 
 40 H       -7.8950    -2.1820    -0.2540 H     1 <1>   0.1500 
 41 H       -6.5780     1.8200    -0.3100 H     1 <1>   0.1500 
 42 H       -3.1390     1.1800    -0.4460 H     1 <1>   0.0800 
 43 H       -3.5380     1.3860     1.2510 H     1 <1>   0.0800 
 44 H       -4.2970     2.3850     0.0440 H     1 <1>   0.0800 
 45 H        5.6250    -6.0620     0.8880 H     1 <1>   0.0800 
 46 H        4.2770    -6.3060    -0.2170 H     1 <1>   0.0800 
 47 H        3.9810    -6.0700     1.5160 H     1 <1>   0.0800 
@<TRIPOS>BOND
  1   1   2  2   
  2   2   3  am  
  3   2   4  1   
  4   3   5  1   
  5   3   6  1   
  6   4   7  ar  
  7   4   8  ar  
  8   5   9  2   
  9   5  10  1   
 10   6  11  1   
 11   6  28  1   
 12   6  29  1   
 13   7   9  1   
 14   7  12  ar  
 15   8  13  ar  
 16   8  30  1   
 17  10  31  1   
 18  10  32  1   
 19  10  33  1   
 20  11  14  1   
 21  11  34  1   
 22  11  35  1   
 23  12  15  ar  
 24  12  36  1   
 25  13  15  ar  
 26  13  16  1   
 27  14  17  am  
 28  14  18  1   
 29  15  19  1   
 30  16  20  1   
 31  17  21  2   
 32  17  22  1   
 33  18  23  2   
 34  18  24  1   
 35  19  25  1   
 36  20  37  1   
 37  20  38  1   
 38  20  39  1   
 39  22  26  2   
 40  22  40  1   
 41  23  26  1   
 42  23  41  1   
 43  24  42  1   
 44  24  43  1   
 45  24  44  1   
 46  25  45  1   
 47  25  46  1   
 48  25  47  1   
 49  26  27  1   
@<TRIPOS>SUBSTRUCTURE
  1 ****   3 GROUP 4 **** **** 0

# MOE 2024.06 (io_trps.svl 2023.06)
