@<TRIPOS>MOLECULE
NONAME
57 61 1 0 0 
SMALL
USER_CHARGES


@<TRIPOS>ATOM
  1 O       -3.0020     2.7220     1.9700 O.2   1 <1>  -0.5700 
  2 C       -3.0340     2.3410     0.8180 C.2   1 <1>   0.5690 
  3 N       -3.9790     1.4130     0.4230 N.am  1 <1>  -0.6600 
  4 C       -1.9930     2.9470    -0.1730 C.3   1 <1>   0.2510 
  5 C       -4.1040     0.7860    -0.9250 C.3   1 <1>   0.1400 
  6 C       -5.0420     0.9570     1.3670 C.3   1 <1>   0.1400 
  7 N       -0.6320     2.3310    -0.1650 N.3   1 <1>  -0.8100 
  8 C       -1.8320     4.4630     0.0090 C.3   1 <1>  -0.2400 
  9 C       -4.0120    -0.7360    -0.7880 C.3   1 <1>  -0.1600 
 10 C       -4.9480    -0.5580     1.5410 C.3   1 <1>  -0.1600 
 11 C       -0.0290     2.2540     1.1880 C.3   1 <1>   0.1100 
 12 C       -0.6130     0.9910    -0.7750 C.3   1 <1>   0.1100 
 13 C       -5.0490    -1.2830     0.1950 C.3   1 <1>   0.4600 
 14 C        1.3720     1.6180     1.1350 C.3   1 <1>   0.1200 
 15 C        0.8100     0.4080    -0.7820 C.3   1 <1>   0.1200 
 16 O       -6.3090    -1.0210    -0.3840 O.3   1 <1>  -0.5600 
 17 C       -4.8710    -2.7870     0.3640 C.2   1 <1>  -0.3320 
 18 O        1.3230     0.3610     0.5180 O.3   1 <1>  -0.5600 
 19 C       -7.4070    -1.7950     0.0390 C.3   1 <1>   0.1200 
 20 N       -3.7360    -3.4310     0.7740 N.pl3 1 <1>   0.0330 
 21 C       -5.8360    -3.6960     0.1250 C.2   1 <1>  -0.1810 
 22 C       -7.2130    -3.2770    -0.3250 C.3   1 <1>   0.0210 
 23 C       -3.9940    -4.7800     0.7830 C.ar  1 <1>  -0.1520 
 24 C       -5.3100    -4.9810     0.3750 C.ar  1 <1>   0.0000 
 25 C       -3.1750    -5.8620     1.1180 C.ar  1 <1>  -0.1500 
 26 C       -5.8200    -6.2800     0.2960 C.ar  1 <1>  -0.1500 
 27 C       -3.6900    -7.1350     1.0370 C.ar  1 <1>  -0.1500 
 28 C       -5.0130    -7.3450     0.6260 C.ar  1 <1>  -0.1500 
 29 H       -2.3840     2.8380    -1.1650 H     1 <1>   0.0800 
 30 H       -3.3400     1.1240    -1.5970 H     1 <1>   0.0800 
 31 H       -5.0590     1.0540    -1.3470 H     1 <1>   0.0800 
 32 H       -6.0060     1.2220     0.9650 H     1 <1>   0.0800 
 33 H       -4.9430     1.4360     2.3260 H     1 <1>   0.0800 
 34 H       -1.5070     4.7000     1.0040 H     1 <1>   0.0800 
 35 H       -2.7790     4.9450    -0.1520 H     1 <1>   0.0800 
 36 H       -1.1240     4.8470    -0.7020 H     1 <1>   0.0800 
 37 H       -3.0280    -0.9980    -0.4510 H     1 <1>   0.0800 
 38 H       -4.1610    -1.2000    -1.7460 H     1 <1>   0.0800 
 39 H       -5.7180    -0.9020     2.2050 H     1 <1>   0.0800 
 40 H       -4.0060    -0.7860     2.0030 H     1 <1>   0.0800 
 41 H       -0.6470     1.6630     1.8420 H     1 <1>   0.0800 
 42 H        0.0550     3.2390     1.6100 H     1 <1>   0.0800 
 43 H       -0.9720     1.0500    -1.7870 H     1 <1>   0.0800 
 44 H       -1.2510     0.3280    -0.2180 H     1 <1>   0.0800 
 45 H        1.7560     1.4810     2.1300 H     1 <1>   0.0800 
 46 H        2.0490     2.2470     0.5840 H     1 <1>   0.0800 
 47 H        1.4620     1.0120    -1.3900 H     1 <1>   0.0800 
 48 H        0.8030    -0.5950    -1.1680 H     1 <1>   0.0800 
 49 H       -8.2870    -1.4070    -0.4410 H     1 <1>   0.0800 
 50 H       -7.5150    -1.6830     1.1030 H     1 <1>   0.0800 
 51 H       -2.8440    -3.0010     1.0380 H     1 <1>   0.2700 
 52 H       -7.3070    -3.4120    -1.3870 H     1 <1>   0.0800 
 53 H       -7.9610    -3.8720     0.1670 H     1 <1>   0.0800 
 54 H       -2.1610    -5.6920     1.4330 H     1 <1>   0.1500 
 55 H       -6.8350    -6.4250    -0.0220 H     1 <1>   0.1500 
 56 H       -3.0810    -7.9850     1.2900 H     1 <1>   0.1500 
 57 H       -5.3900    -8.3500     0.5700 H     1 <1>   0.1500 
@<TRIPOS>BOND
  1   1   2  2   
  2   2   3  am  
  3   2   4  1   
  4   3   5  1   
  5   3   6  1   
  6   4   7  1   
  7   4   8  1   
  8   4  29  1   
  9   5   9  1   
 10   5  30  1   
 11   5  31  1   
 12   6  10  1   
 13   6  32  1   
 14   6  33  1   
 15   7  11  1   
 16   7  12  1   
 17   8  34  1   
 18   8  35  1   
 19   8  36  1   
 20   9  13  1   
 21   9  37  1   
 22   9  38  1   
 23  10  13  1   
 24  10  39  1   
 25  10  40  1   
 26  11  14  1   
 27  11  41  1   
 28  11  42  1   
 29  12  15  1   
 30  12  43  1   
 31  12  44  1   
 32  13  16  1   
 33  13  17  1   
 34  14  18  1   
 35  14  45  1   
 36  14  46  1   
 37  15  18  1   
 38  15  47  1   
 39  15  48  1   
 40  16  19  1   
 41  17  20  1   
 42  17  21  2   
 43  19  22  1   
 44  19  49  1   
 45  19  50  1   
 46  20  23  1   
 47  20  51  1   
 48  21  22  1   
 49  21  24  1   
 50  22  52  1   
 51  22  53  1   
 52  23  24  ar  
 53  23  25  ar  
 54  24  26  ar  
 55  25  27  ar  
 56  25  54  1   
 57  26  28  ar  
 58  26  55  1   
 59  27  28  ar  
 60  27  56  1   
 61  28  57  1   
@<TRIPOS>SUBSTRUCTURE
  1 ****   9 GROUP 4 **** **** 0

# MOE 2024.06 (io_trps.svl 2023.06)
