@<TRIPOS>MOLECULE
NONAME
48 51 1 0 0 
SMALL
USER_CHARGES


@<TRIPOS>ATOM
  1 O        0.1600    -0.0140    -0.7380 O.2   1 <1>  -0.5700 
  2 C        1.1360    -0.4950    -0.1990 C.2   1 <1>   0.7160 
  3 N        2.2550     0.2630     0.0320 N.am  1 <1>  -0.4940 
  4 C        1.1440    -1.8810     0.1970 C.2   1 <1>  -0.0860 
  5 C        2.4770     1.6280    -0.1780 C.2   1 <1>   0.2040 
  6 C        2.0190    -2.5740     0.9770 C.2   1 <1>  -0.0100 
  7 C        0.1840    -2.8460    -0.1680 C.2   1 <1>  -0.1500 
  8 O        1.5260     2.4440    -0.5630 O.3   1 <1>  -0.0190 
  9 C        3.6000     2.3560    -0.0360 C.2   1 <1>  -0.1810 
 10 O        1.6650    -3.8300     1.0950 O.3   1 <1>  -0.2800 
 11 C        0.5540    -4.0080     0.4110 C.2   1 <1>  -0.0400 
 12 N        1.9520     3.6730    -0.6810 N.2   1 <1>  -0.4100 
 13 C        3.2110     3.6580    -0.3770 C.2   1 <1>   0.2350 
 14 C        4.9860     1.9190     0.4140 C.3   1 <1>  -0.0590 
 15 C       -0.0730    -5.3950     0.3850 C.3   1 <1>   0.2900 
 16 C        4.0640     4.8270    -0.3790 C.ar  1 <1>   0.0540 
 17 N       -1.4380    -5.3720    -0.1740 N.3   1 <1>  -0.8100 
 18 C        3.7220     5.9540     0.3640 C.ar  1 <1>  -0.1500 
 19 C        5.2460     4.8680    -1.1150 C.ar  1 <1>  -0.1500 
 20 C       -1.8890    -6.7300    -0.5300 C.3   1 <1>   0.1100 
 21 C       -2.4020    -4.7690     0.7720 C.3   1 <1>   0.1100 
 22 C        4.5360     7.0720     0.3890 C.ar  1 <1>  -0.1500 
 23 C        6.0660     5.9820    -1.0940 C.ar  1 <1>  -0.1500 
 24 C       -3.3350    -6.7100    -1.0600 C.3   1 <1>   0.1200 
 25 C       -3.8320    -4.8090     0.2040 C.3   1 <1>   0.1200 
 26 C        5.7120     7.0860    -0.3390 C.ar  1 <1>  -0.1500 
 27 O       -4.1920    -6.1220    -0.1240 O.3   1 <1>  -0.5600 
 28 H        3.0500    -0.2560     0.3860 H     1 <1>   0.3700 
 29 H        2.9080    -2.2480     1.4860 H     1 <1>   0.1500 
 30 H       -0.6720    -2.6590    -0.7950 H     1 <1>   0.1500 
 31 H        4.9650     0.9180     0.8010 H     1 <1>   0.0800 
 32 H        5.3440     2.5770     1.1870 H     1 <1>   0.0800 
 33 H        5.6710     1.9540    -0.4140 H     1 <1>   0.0800 
 34 H       -0.0940    -5.7980     1.3830 H     1 <1>   0.0800 
 35 H        0.5540    -6.0270    -0.2190 H     1 <1>   0.0800 
 36 H        2.8040     5.9470     0.9260 H     1 <1>   0.1500 
 37 H        5.5210     4.0200    -1.7150 H     1 <1>   0.1500 
 38 H       -1.8430    -7.3750     0.3310 H     1 <1>   0.0800 
 39 H       -1.2440    -7.1340    -1.2910 H     1 <1>   0.0800 
 40 H       -2.1340    -3.7450     0.9650 H     1 <1>   0.0800 
 41 H       -2.3860    -5.3000     1.7080 H     1 <1>   0.0800 
 42 H        4.2530     7.9320     0.9720 H     1 <1>   0.1500 
 43 H        6.9760     5.9950    -1.6680 H     1 <1>   0.1500 
 44 H       -3.6810    -7.7120    -1.2390 H     1 <1>   0.0800 
 45 H       -3.3910    -6.1520    -1.9780 H     1 <1>   0.0800 
 46 H       -3.9030    -4.2010    -0.6810 H     1 <1>   0.0800 
 47 H       -4.5340    -4.4480     0.9330 H     1 <1>   0.0800 
 48 H        6.3470     7.9550    -0.3220 H     1 <1>   0.1500 
@<TRIPOS>BOND
  1   1   2  2   
  2   2   3  am  
  3   2   4  1   
  4   3   5  1   
  5   3  28  1   
  6   4   6  2   
  7   4   7  1   
  8   5   8  1   
  9   5   9  2   
 10   6  10  1   
 11   6  29  1   
 12   7  11  2   
 13   7  30  1   
 14   8  12  1   
 15   9  13  1   
 16   9  14  1   
 17  10  11  1   
 18  11  15  1   
 19  12  13  2   
 20  13  16  1   
 21  14  31  1   
 22  14  32  1   
 23  14  33  1   
 24  15  17  1   
 25  15  34  1   
 26  15  35  1   
 27  16  18  ar  
 28  16  19  ar  
 29  17  20  1   
 30  17  21  1   
 31  18  22  ar  
 32  18  36  1   
 33  19  23  ar  
 34  19  37  1   
 35  20  24  1   
 36  20  38  1   
 37  20  39  1   
 38  21  25  1   
 39  21  40  1   
 40  21  41  1   
 41  22  26  ar  
 42  22  42  1   
 43  23  26  ar  
 44  23  43  1   
 45  24  27  1   
 46  24  44  1   
 47  24  45  1   
 48  25  27  1   
 49  25  46  1   
 50  25  47  1   
 51  26  48  1   
@<TRIPOS>SUBSTRUCTURE
  1 ****   2 GROUP 4 **** **** 0

# MOE 2024.06 (io_trps.svl 2023.06)
