@<TRIPOS>MOLECULE
NONAME
46 50 1 0 0 
SMALL
USER_CHARGES


@<TRIPOS>ATOM
  1 S       -1.0400     0.5260     1.0570 S.3   1 <1>  -0.0800 
  2 C       -0.4930     1.9950     0.2770 C.2   1 <1>  -0.1400 
  3 C        0.4770     0.4040     1.9350 C.2   1 <1>  -0.1100 
  4 C        0.7450     2.3330     0.6580 C.2   1 <1>  -0.1810 
  5 C       -1.3480     2.7600    -0.6950 C.3   1 <1>   0.0200 
  6 C        1.3010     1.4220     1.6190 C.2   1 <1>  -0.1500 
  7 C        1.4290     3.5750     0.0840 C.3   1 <1>   0.4610 
  8 C       -0.7520     4.1730    -0.8050 C.3   1 <1>   0.1200 
  9 O        0.6490     4.1250    -0.9600 O.3   1 <1>  -0.5600 
 10 C        2.7670     3.1950    -0.5580 C.3   1 <1>  -0.1600 
 11 C        1.6470     4.6460     1.1590 C.3   1 <1>  -0.1600 
 12 C        3.4810     4.4270    -1.1140 C.3   1 <1>   0.2090 
 13 C        2.3880     5.8590     0.5970 C.3   1 <1>   0.2090 
 14 N        3.6810     5.4160    -0.0110 N.pl3 1 <1>  -0.8380 
 15 C        4.7730     6.2340     0.0440 C.ar  1 <1>   0.7710 
 16 N        5.9910     5.6220     0.0480 N.ar  1 <1>  -0.1790 
 17 N        4.6330     7.5310     0.1080 N.ar  1 <1>  -0.5670 
 18 C        7.1510     6.2900     0.0920 C.ar  1 <1>   0.4610 
 19 C        5.7850     8.2470     0.1440 C.ar  1 <1>   0.1050 
 20 N        8.3230     5.6330     0.0970 N.pl3 1 <1>  -0.9000 
 21 C        7.0390     7.6840     0.1360 C.ar  1 <1>   0.0000 
 22 N        5.9610     9.5910     0.1920 N.pl3 1 <1>   0.3140 
 23 C        7.9060     8.7860     0.1830 C.2   1 <1>   0.1390 
 24 N        7.2780     9.9120     0.2160 N.2   1 <1>  -0.7070 
 25 C        4.9250    10.6340     0.2140 C.3   1 <1>   0.0160 
 26 H        0.5900    -0.4290     2.6050 H     1 <1>   0.1500 
 27 H       -2.3610     2.8190    -0.3420 H     1 <1>   0.0800 
 28 H       -1.3410     2.2750    -1.6540 H     1 <1>   0.0800 
 29 H        2.2840     1.5660     2.0300 H     1 <1>   0.1500 
 30 H       -0.9790     4.7430     0.0780 H     1 <1>   0.0800 
 31 H       -1.1620     4.6820    -1.6590 H     1 <1>   0.0800 
 32 H        2.5830     2.4900    -1.3490 H     1 <1>   0.0800 
 33 H        3.3970     2.7150     0.1660 H     1 <1>   0.0800 
 34 H        2.2240     4.2300     1.9650 H     1 <1>   0.0800 
 35 H        0.7040     4.9480     1.5720 H     1 <1>   0.0800 
 36 H        2.8780     4.8750    -1.8880 H     1 <1>   0.0800 
 37 H        4.4180     4.1370    -1.5570 H     1 <1>   0.0800 
 38 H        2.5660     6.5660     1.3910 H     1 <1>   0.0800 
 39 H        1.7840     6.3430    -0.1540 H     1 <1>   0.0800 
 40 H        5.9540     4.6150     0.0690 H     1 <1>   0.4570 
 41 H        9.2250     6.1280     0.1330 H     1 <1>   0.4000 
 42 H        8.4610     4.6160     0.0680 H     1 <1>   0.4000 
 43 H        8.9820     8.7120     0.1910 H     1 <1>   0.1500 
 44 H        3.9520    10.1840     0.1470 H     1 <1>   0.0800 
 45 H        5.0770    11.2950    -0.6190 H     1 <1>   0.0800 
 46 H        5.0070    11.1890     1.1300 H     1 <1>   0.0800 
@<TRIPOS>BOND
  1   1   2  1   
  2   1   3  1   
  3   2   4  2   
  4   2   5  1   
  5   3   6  2   
  6   3  26  1   
  7   4   6  1   
  8   4   7  1   
  9   5   8  1   
 10   5  27  1   
 11   5  28  1   
 12   6  29  1   
 13   7   9  1   
 14   7  10  1   
 15   7  11  1   
 16   8   9  1   
 17   8  30  1   
 18   8  31  1   
 19  10  12  1   
 20  10  32  1   
 21  10  33  1   
 22  11  13  1   
 23  11  34  1   
 24  11  35  1   
 25  12  14  1   
 26  12  36  1   
 27  12  37  1   
 28  13  14  1   
 29  13  38  1   
 30  13  39  1   
 31  14  15  1   
 32  15  16  ar  
 33  15  17  ar  
 34  16  18  ar  
 35  16  40  1   
 36  17  19  ar  
 37  18  20  1   
 38  18  21  ar  
 39  19  21  ar  
 40  19  22  1   
 41  20  41  1   
 42  20  42  1   
 43  21  23  1   
 44  22  24  1   
 45  22  25  1   
 46  23  24  2   
 47  23  43  1   
 48  25  44  1   
 49  25  45  1   
 50  25  46  1   
@<TRIPOS>SUBSTRUCTURE
  1 ****  14 GROUP 4 **** **** 0

# MOE 2024.06 (io_trps.svl 2023.06)
