@<TRIPOS>MOLECULE
NONAME
33 34 1 0 0 
SMALL
USER_CHARGES


@<TRIPOS>ATOM
  1 O        0.2410     0.2050     1.3740 O.3   1 <1>  -0.0190 
  2 N        0.7800     1.2520     0.8290 N.2   1 <1>  -0.4100 
  3 C        0.9170    -0.8000     0.8750 C.2   1 <1>   0.2980 
  4 C        1.7210     0.8390     0.0720 C.2   1 <1>   0.3350 
  5 N        1.8470    -0.4830     0.0640 N.2   1 <1>  -0.5650 
  6 C        0.5610    -2.2170     1.3160 C.3   1 <1>   0.2900 
  7 C        2.6140     1.7390    -0.7770 C.3   1 <1>   0.3010 
  8 N       -0.6010    -2.8030     0.5990 N.3   1 <1>  -0.8100 
  9 O        3.8930     1.8590    -0.2130 O.3   1 <1>  -0.5600 
 10 C       -0.7010    -4.2590     0.8580 C.3   1 <1>   0.2530 
 11 C       -1.8630    -2.1160     0.9300 C.3   1 <1>   0.0300 
 12 C        4.7700     2.6430    -0.9530 C.3   1 <1>   0.0400 
 13 C       -1.6430    -4.9770    -0.1050 C.ar  1 <1>   0.1670 
 14 N       -2.3550    -5.9790     0.3920 N.ar  1 <1>  -0.6200 
 15 C       -1.7100    -4.5740    -1.4380 C.ar  1 <1>   0.1600 
 16 C       -3.1300    -6.5380    -0.5230 C.ar  1 <1>   0.1600 
 17 N       -2.4850    -5.1340    -2.3540 N.ar  1 <1>  -0.6200 
 18 C       -3.1920    -6.1300    -1.8500 C.ar  1 <1>   0.1600 
 19 H        0.3790    -2.2200     2.3770 H     1 <1>   0.0800 
 20 H        1.4280    -2.8260     1.1290 H     1 <1>   0.0800 
 21 H        2.1780     2.7190    -0.8410 H     1 <1>   0.0800 
 22 H        2.7090     1.3160    -1.7610 H     1 <1>   0.0800 
 23 H       -1.0370    -4.4230     1.8680 H     1 <1>   0.0800 
 24 H        0.2680    -4.7130     0.7540 H     1 <1>   0.0800 
 25 H       -1.8220    -1.0880     0.6130 H     1 <1>   0.0800 
 26 H       -2.0490    -2.1510     1.9900 H     1 <1>   0.0800 
 27 H       -2.6890    -2.5790     0.4180 H     1 <1>   0.0800 
 28 H        5.7120     2.6690    -0.4330 H     1 <1>   0.0800 
 29 H        4.3750     3.6400    -1.0360 H     1 <1>   0.0800 
 30 H        4.9070     2.2030    -1.9260 H     1 <1>   0.0800 
 31 H       -1.0950    -3.7500    -1.7570 H     1 <1>   0.1500 
 32 H       -3.7470    -7.3610    -0.2080 H     1 <1>   0.1500 
 33 H       -3.8550    -6.6490    -2.5190 H     1 <1>   0.1500 
@<TRIPOS>BOND
  1   1   2  1   
  2   1   3  1   
  3   2   4  2   
  4   3   5  2   
  5   3   6  1   
  6   4   5  1   
  7   4   7  1   
  8   6   8  1   
  9   6  19  1   
 10   6  20  1   
 11   7   9  1   
 12   7  21  1   
 13   7  22  1   
 14   8  10  1   
 15   8  11  1   
 16   9  12  1   
 17  10  13  1   
 18  10  23  1   
 19  10  24  1   
 20  11  25  1   
 21  11  26  1   
 22  11  27  1   
 23  12  28  1   
 24  12  29  1   
 25  12  30  1   
 26  13  14  ar  
 27  13  15  ar  
 28  14  16  ar  
 29  15  17  ar  
 30  15  31  1   
 31  16  18  ar  
 32  16  32  1   
 33  17  18  ar  
 34  18  33  1   
@<TRIPOS>SUBSTRUCTURE
  1 ****   8 GROUP 4 **** **** 0

# MOE 2024.06 (io_trps.svl 2023.06)
