@<TRIPOS>MOLECULE
NONAME
58 61 1 0 0 
SMALL
USER_CHARGES


@<TRIPOS>ATOM
  1 O       -3.0370     0.3630     2.2520 O.2   1 <1>  -0.5700 
  2 C       -2.6530     0.9250     1.2570 C.2   1 <1>   0.5690 
  3 N       -3.0890     0.5710     0.0190 N.am  1 <1>  -0.6600 
  4 C       -1.6430     2.0400     1.3970 C.3   1 <1>  -0.0990 
  5 C       -2.7880    -0.8360    -0.4110 C.3   1 <1>   0.3640 
  6 C       -4.4230     1.0830    -0.3870 C.3   1 <1>   0.1400 
  7 C       -0.3050     1.4520     1.8540 C.3   1 <1>   0.0960 
  8 C       -1.2630    -0.9430    -0.5010 C.ar  1 <1>  -0.1440 
  9 C       -3.4520    -1.2670    -1.7560 C.3   1 <1>   0.2000 
 10 C       -4.7550     0.6940    -1.8280 C.3   1 <1>   0.1200 
 11 N        0.7540     2.4760     1.9120 N.pl3 1 <1>   0.0480 
 12 C       -0.5720    -1.7680     0.3740 C.ar  1 <1>  -0.1500 
 13 C       -0.5470    -0.1900    -1.4240 C.ar  1 <1>  -0.1500 
 14 O       -4.7180    -0.6910    -1.9490 O.3   1 <1>  -0.5600 
 15 C       -3.6630    -2.7880    -1.8550 C.3   1 <1>   0.1200 
 16 C        1.3850     3.0680     0.8620 C.ar  1 <1>  -0.1520 
 17 C        1.4400     2.8750     3.0140 C.2   1 <1>   0.0360 
 18 C        0.8130    -1.8300     0.3640 C.ar  1 <1>   0.0820 
 19 C        0.8360    -0.2420    -1.4480 C.ar  1 <1>  -0.1500 
 20 O       -2.4940    -3.4980    -1.5990 O.3   1 <1>  -0.6800 
 21 C        2.4210     3.7970     1.4180 C.ar  1 <1>   0.2270 
 22 C        1.1800     3.0530    -0.5210 C.ar  1 <1>  -0.1500 
 23 N        2.4300     3.6600     2.7710 N.2   1 <1>  -0.5650 
 24 O        1.3740    -2.6660     1.2790 O.3   1 <1>  -0.3630 
 25 C        1.5240    -1.0320    -0.5420 C.ar  1 <1>   0.0820 
 26 C        3.2810     4.5250     0.5980 C.ar  1 <1>  -0.1500 
 27 C        2.0350     3.7740    -1.3240 C.ar  1 <1>  -0.1500 
 28 C        2.5580    -3.3680     0.9680 C.3   1 <1>   0.0400 
 29 O        2.8770    -0.9750    -0.5530 O.3   1 <1>  -0.3630 
 30 C        3.0870     4.5100    -0.7660 C.ar  1 <1>  -0.1500 
 31 C        3.4440     0.2010    -0.0140 C.3   1 <1>   0.0400 
 32 H       -1.5350     2.5390     0.4530 H     1 <1>   0.0800 
 33 H       -2.0030     2.7410     2.1270 H     1 <1>   0.0800 
 34 H       -3.1430    -1.5020     0.3580 H     1 <1>   0.0800 
 35 H       -5.1750     0.6800     0.2710 H     1 <1>   0.0800 
 36 H       -4.4380     2.1550    -0.2930 H     1 <1>   0.0800 
 37 H        0.0190     0.6940     1.1700 H     1 <1>   0.0800 
 38 H       -0.4140     1.0000     2.8240 H     1 <1>   0.0800 
 39 H       -2.8420    -0.9530    -2.5830 H     1 <1>   0.0800 
 40 H       -4.0580     1.1320    -2.5220 H     1 <1>   0.0800 
 41 H       -5.7500     1.0180    -2.0800 H     1 <1>   0.0800 
 42 H       -1.1060    -2.3720     1.0880 H     1 <1>   0.1500 
 43 H       -1.0610     0.4530    -2.1160 H     1 <1>   0.1500 
 44 H       -4.0060    -3.0540    -2.8390 H     1 <1>   0.0800 
 45 H       -4.3920    -3.1030    -1.1290 H     1 <1>   0.0800 
 46 H        1.1620     2.5410     3.9990 H     1 <1>   0.1500 
 47 H        1.3880     0.3420    -2.1620 H     1 <1>   0.1500 
 48 H       -1.7880    -3.2780    -2.2400 H     1 <1>   0.4000 
 49 H        0.3710     2.4880    -0.9430 H     1 <1>   0.1500 
 50 H        4.0770     5.0810     1.0560 H     1 <1>   0.1500 
 51 H        1.9020     3.7800    -2.3920 H     1 <1>   0.1500 
 52 H        2.6250    -4.2170     1.6230 H     1 <1>   0.0800 
 53 H        3.4000    -2.7190     1.1270 H     1 <1>   0.0800 
 54 H        2.5160    -3.6930    -0.0560 H     1 <1>   0.0800 
 55 H        3.7420     5.0670    -1.4120 H     1 <1>   0.1500 
 56 H        4.5110     0.0740     0.0270 H     1 <1>   0.0800 
 57 H        3.0540     0.3570     0.9770 H     1 <1>   0.0800 
 58 H        3.1990     1.0350    -0.6460 H     1 <1>   0.0800 
@<TRIPOS>BOND
  1   1   2  2   
  2   2   3  am  
  3   2   4  1   
  4   3   5  1   
  5   3   6  1   
  6   4   7  1   
  7   4  32  1   
  8   4  33  1   
  9   5   8  1   
 10   5   9  1   
 11   5  34  1   
 12   6  10  1   
 13   6  35  1   
 14   6  36  1   
 15   7  11  1   
 16   7  37  1   
 17   7  38  1   
 18   8  12  ar  
 19   8  13  ar  
 20   9  14  1   
 21   9  15  1   
 22   9  39  1   
 23  10  14  1   
 24  10  40  1   
 25  10  41  1   
 26  11  16  1   
 27  11  17  1   
 28  12  18  ar  
 29  12  42  1   
 30  13  19  ar  
 31  13  43  1   
 32  15  20  1   
 33  15  44  1   
 34  15  45  1   
 35  16  21  ar  
 36  16  22  ar  
 37  17  23  2   
 38  17  46  1   
 39  18  24  1   
 40  18  25  ar  
 41  19  25  ar  
 42  19  47  1   
 43  20  48  1   
 44  21  23  1   
 45  21  26  ar  
 46  22  27  ar  
 47  22  49  1   
 48  24  28  1   
 49  25  29  1   
 50  26  30  ar  
 51  26  50  1   
 52  27  30  ar  
 53  27  51  1   
 54  28  52  1   
 55  28  53  1   
 56  28  54  1   
 57  29  31  1   
 58  30  55  1   
 59  31  56  1   
 60  31  57  1   
 61  31  58  1   
@<TRIPOS>SUBSTRUCTURE
  1 ****  13 GROUP 4 **** **** 0

# MOE 2024.06 (io_trps.svl 2023.06)
