@<TRIPOS>MOLECULE
NONAME
50 52 1 0 0 
SMALL
USER_CHARGES


@<TRIPOS>ATOM
  1 O        0.2560     1.5650    -2.3600 O.2   1 <1>  -0.5700 
  2 C        0.0120     2.7170    -2.1100 C.2   1 <1>   0.5690 
  3 N       -0.4390     3.0790    -0.8890 N.am  1 <1>  -0.7300 
  4 C        0.1780     3.7920    -3.1860 C.3   1 <1>   0.1810 
  5 C       -0.8260     4.4660    -0.5280 C.3   1 <1>   0.3640 
  6 O        0.2580     5.0920    -2.6430 O.3   1 <1>  -0.5600 
  7 C       -2.1980     4.4260     0.1400 C.ar  1 <1>  -0.1440 
  8 C       -0.8040     5.4210    -1.7500 C.3   1 <1>   0.2610 
  9 C       -3.2290     3.6460    -0.3690 C.ar  1 <1>  -0.1500 
 10 C       -2.4300     5.1860     1.2780 C.ar  1 <1>  -0.1500 
 11 C       -0.6570     6.8620    -1.2560 C.2   1 <1>   0.5690 
 12 C       -4.4660     3.6210     0.2530 C.ar  1 <1>  -0.1500 
 13 C       -3.6660     5.1620     1.9010 C.ar  1 <1>  -0.1500 
 14 O       -1.6330     7.4460    -0.8520 O.2   1 <1>  -0.5700 
 15 N        0.5840     7.4230    -1.2730 N.am  1 <1>  -0.7300 
 16 C       -4.6840     4.3790     1.3890 C.ar  1 <1>  -0.1500 
 17 C        1.0360     8.7340    -0.7790 C.3   1 <1>   0.3000 
 18 C        2.5510     8.8150    -1.0430 C.3   1 <1>  -0.1600 
 19 C        0.6770     8.9190     0.7140 C.3   1 <1>  -0.1600 
 20 C        0.3470     9.8150    -1.6190 C.3   1 <1>  -0.2400 
 21 C        3.4520     7.8800    -0.2150 C.3   1 <1>  -0.1600 
 22 C        1.1150     7.7860     1.6640 C.3   1 <1>  -0.1600 
 23 C        3.6280     8.3710     1.2300 C.3   1 <1>  -0.1600 
 24 C        2.5430     7.9090     2.2140 C.3   1 <1>  -0.1600 
 25 H       -0.5930     2.3560    -0.1840 H     1 <1>   0.3700 
 26 H       -0.6560     3.7560    -3.8640 H     1 <1>   0.0800 
 27 H        1.0820     3.6090    -3.7360 H     1 <1>   0.0800 
 28 H       -0.1070     4.8250     0.1880 H     1 <1>   0.0800 
 29 H       -1.7290     5.3430    -2.2910 H     1 <1>   0.0800 
 30 H       -3.0800     3.0490    -1.2520 H     1 <1>   0.1500 
 31 H       -1.6540     5.8110     1.6860 H     1 <1>   0.1500 
 32 H       -5.2580     3.0130    -0.1470 H     1 <1>   0.1500 
 33 H       -3.8360     5.7580     2.7800 H     1 <1>   0.1500 
 34 H        1.3200     6.8780    -1.7270 H     1 <1>   0.3700 
 35 H       -5.6460     4.3610     1.8730 H     1 <1>   0.1500 
 36 H        2.7210     8.6140    -2.0870 H     1 <1>   0.0800 
 37 H        2.8750     9.8280    -0.8790 H     1 <1>   0.0800 
 38 H        1.0780     9.8530     1.0640 H     1 <1>   0.0800 
 39 H       -0.3920     9.0090     0.7860 H     1 <1>   0.0800 
 40 H        0.6950    10.7900    -1.3290 H     1 <1>   0.0800 
 41 H       -0.7180     9.7900    -1.4740 H     1 <1>   0.0800 
 42 H        0.5570     9.6740    -2.6630 H     1 <1>   0.0800 
 43 H        3.0920     6.8660    -0.2330 H     1 <1>   0.0800 
 44 H        4.4240     7.8780    -0.6770 H     1 <1>   0.0800 
 45 H        0.4440     7.7760     2.5060 H     1 <1>   0.0800 
 46 H        1.0050     6.8320     1.1820 H     1 <1>   0.0800 
 47 H        4.5760     8.0190     1.5990 H     1 <1>   0.0800 
 48 H        3.6790     9.4470     1.2390 H     1 <1>   0.0800 
 49 H        2.5360     8.5950     3.0440 H     1 <1>   0.0800 
 50 H        2.8250     6.9480     2.6090 H     1 <1>   0.0800 
@<TRIPOS>BOND
  1   1   2  2   
  2   2   3  am  
  3   2   4  1   
  4   3   5  1   
  5   3  25  1   
  6   4   6  1   
  7   4  26  1   
  8   4  27  1   
  9   5   7  1   
 10   5   8  1   
 11   5  28  1   
 12   6   8  1   
 13   7   9  ar  
 14   7  10  ar  
 15   8  11  1   
 16   8  29  1   
 17   9  12  ar  
 18   9  30  1   
 19  10  13  ar  
 20  10  31  1   
 21  11  14  2   
 22  11  15  am  
 23  12  16  ar  
 24  12  32  1   
 25  13  16  ar  
 26  13  33  1   
 27  15  17  1   
 28  15  34  1   
 29  16  35  1   
 30  17  18  1   
 31  17  19  1   
 32  17  20  1   
 33  18  21  1   
 34  18  36  1   
 35  18  37  1   
 36  19  22  1   
 37  19  38  1   
 38  19  39  1   
 39  20  40  1   
 40  20  41  1   
 41  20  42  1   
 42  21  23  1   
 43  21  43  1   
 44  21  44  1   
 45  22  24  1   
 46  22  45  1   
 47  22  46  1   
 48  23  24  1   
 49  23  47  1   
 50  23  48  1   
 51  24  49  1   
 52  24  50  1   
@<TRIPOS>SUBSTRUCTURE
  1 ****  11 GROUP 4 **** **** 0

# MOE 2024.06 (io_trps.svl 2023.06)
