@<TRIPOS>MOLECULE
NONAME
43 44 1 0 0 
SMALL
USER_CHARGES


@<TRIPOS>ATOM
  1 O       -0.1700    -2.7760    -1.2100 O.3   1 <1>  -0.3630 
  2 C        0.9370    -2.1380    -0.7300 C.ar  1 <1>   0.0830 
  3 C       -0.7070    -2.4390    -2.4770 C.3   1 <1>   0.0400 
  4 C        1.2740    -2.3020     0.6180 C.ar  1 <1>  -0.1440 
  5 C        1.7380    -1.3380    -1.5420 C.ar  1 <1>  -0.1500 
  6 C        2.3970    -1.6620     1.1240 C.ar  1 <1>  -0.1500 
  7 C        0.4550    -3.1660     1.5670 C.3   1 <1>   0.5660 
  8 C        2.8540    -0.7090    -1.0230 C.ar  1 <1>  -0.1500 
  9 C        3.1840    -0.8710     0.3090 C.ar  1 <1>  -0.1500 
 10 N        0.2700    -4.4910     0.9270 N.4   1 <1>  -0.9590 
 11 C       -0.8740    -2.4800     1.8870 C.3   1 <1>  -0.2400 
 12 C       -0.7910    -5.3650     1.5030 C.3   1 <1>   0.4810 
 13 C        1.5750    -5.2120     0.7760 C.3   1 <1>   0.2630 
 14 C       -1.1150    -6.4620     0.4950 C.2   1 <1>  -0.0380 
 15 N       -1.6750    -6.1360    -0.7220 N.pl3 1 <1>  -0.5500 
 16 C       -0.8690    -7.7740     0.7160 C.2   1 <1>  -0.1360 
 17 C       -1.9510    -7.1000    -1.6510 C.2   1 <1>   0.4390 
 18 C       -1.1710    -8.7350    -0.2840 C.2   1 <1>   0.7670 
 19 N       -1.7170    -8.3440    -1.4730 N.2   1 <1>  -0.6610 
 20 C       -2.5640    -6.6330    -2.9480 C.3   1 <1>  -0.1790 
 21 O       -0.9310    -9.9140    -0.0940 O.2   1 <1>  -0.5700 
 22 H       -1.6370    -2.9610    -2.6060 H     1 <1>   0.0800 
 23 H       -0.0140    -2.7360    -3.2450 H     1 <1>   0.0800 
 24 H       -0.8810    -1.3770    -2.5130 H     1 <1>   0.0800 
 25 H        1.5200    -1.1860    -2.5830 H     1 <1>   0.1500 
 26 H        2.6760    -1.7650     2.1600 H     1 <1>   0.1500 
 27 H        1.0050    -3.2880     2.4870 H     1 <1>   0.0800 
 28 H        3.4690    -0.0910    -1.6560 H     1 <1>   0.1500 
 29 H        4.0540    -0.3760     0.7080 H     1 <1>   0.1500 
 30 H       -0.0260    -4.2300    -0.0280 H     1 <1>   0.4500 
 31 H       -1.5130    -2.4360     1.0240 H     1 <1>   0.0800 
 32 H       -0.6770    -1.4690     2.1990 H     1 <1>   0.0800 
 33 H       -1.3810    -2.9680     2.6990 H     1 <1>   0.0800 
 34 H       -1.6880    -4.8020     1.6940 H     1 <1>   0.0800 
 35 H       -0.4530    -5.7980     2.4300 H     1 <1>   0.0800 
 36 H        1.9720    -5.4830     1.7400 H     1 <1>   0.0800 
 37 H        2.2930    -4.5840     0.2720 H     1 <1>   0.0800 
 38 H        1.4430    -6.1080     0.1900 H     1 <1>   0.0800 
 39 H       -1.9490    -5.1810    -0.9690 H     1 <1>   0.4000 
 40 H       -0.4430    -8.1630     1.6200 H     1 <1>   0.1500 
 41 H       -3.5030    -6.1470    -2.7590 H     1 <1>   0.0800 
 42 H       -2.7420    -7.4750    -3.5930 H     1 <1>   0.0800 
 43 H       -1.9000    -5.9550    -3.4490 H     1 <1>   0.0800 
@<TRIPOS>BOND
  1   1   2  1   
  2   1   3  1   
  3   2   4  ar  
  4   2   5  ar  
  5   3  22  1   
  6   3  23  1   
  7   3  24  1   
  8   4   6  ar  
  9   4   7  1   
 10   5   8  ar  
 11   5  25  1   
 12   6   9  ar  
 13   6  26  1   
 14   7  10  1   
 15   7  11  1   
 16   7  27  1   
 17   8   9  ar  
 18   8  28  1   
 19   9  29  1   
 20  10  12  1   
 21  10  13  1   
 22  10  30  1   
 23  11  31  1   
 24  11  32  1   
 25  11  33  1   
 26  12  14  1   
 27  12  34  1   
 28  12  35  1   
 29  13  36  1   
 30  13  37  1   
 31  13  38  1   
 32  14  15  1   
 33  14  16  2   
 34  15  17  1   
 35  15  39  1   
 36  16  18  1   
 37  16  40  1   
 38  17  19  2   
 39  17  20  1   
 40  18  19  1   
 41  18  21  2   
 42  20  41  1   
 43  20  42  1   
 44  20  43  1   
@<TRIPOS>SUBSTRUCTURE
  1 ****  10 GROUP 4 **** **** 0

# MOE 2024.06 (io_trps.svl 2023.06)
