@<TRIPOS>MOLECULE
NONAME
35 36 1 0 0 
SMALL
USER_CHARGES


@<TRIPOS>ATOM
  1 CL      -0.2430    -0.0230    -0.6600 Cl    1 <1>  -0.1770 
  2 C        1.1580    -1.0420    -0.3740 C.ar  1 <1>   0.1770 
  3 C        1.0660    -2.4260    -0.4410 C.ar  1 <1>   0.4100 
  4 C        2.3720    -0.4850    -0.0790 C.ar  1 <1>   0.1600 
  5 N        2.1310    -3.1750    -0.2210 N.ar  1 <1>  -0.6200 
  6 N       -0.1200    -3.0670    -0.7260 N.pl3 1 <1>  -0.8690 
  7 N        3.4440    -1.2280     0.1440 N.ar  1 <1>  -0.6200 
  8 C        3.2520    -2.5350     0.0590 C.ar  1 <1>   0.4770 
  9 C       -0.2860    -4.5390    -0.8670 C.3   1 <1>   0.2090 
 10 C        4.4630    -3.4010     0.3090 C.3   1 <1>  -0.0960 
 11 C       -0.5970    -5.1630     0.4880 C.3   1 <1>  -0.0170 
 12 C       -0.8510    -6.6430     0.3150 C.ar  1 <1>   0.4770 
 13 N       -2.0590    -6.9770    -0.1140 N.ar  1 <1>  -0.6200 
 14 N        0.1560    -7.4520     0.5980 N.ar  1 <1>  -0.6200 
 15 C       -2.2740    -8.2620    -0.2680 C.ar  1 <1>   0.1670 
 16 C       -0.0780    -8.7340     0.4380 C.ar  1 <1>   0.1670 
 17 C       -1.2980    -9.1930     0.0000 C.ar  1 <1>  -0.1500 
 18 C       -3.6460    -8.6750    -0.7530 C.3   1 <1>  -0.0970 
 19 C        1.0570    -9.6830     0.7570 C.3   1 <1>  -0.0970 
 20 H        2.4730     0.5840    -0.0220 H     1 <1>   0.1500 
 21 H       -0.9590    -2.4980    -0.8690 H     1 <1>   0.4000 
 22 H        0.6140    -4.9760    -1.2660 H     1 <1>   0.0800 
 23 H       -1.0890    -4.7410    -1.5560 H     1 <1>   0.0800 
 24 H        4.1620    -4.3910     0.5950 H     1 <1>   0.0800 
 25 H        5.0600    -2.9780     1.0960 H     1 <1>   0.0800 
 26 H        5.0500    -3.4560    -0.5880 H     1 <1>   0.0800 
 27 H       -1.4700    -4.7040     0.9120 H     1 <1>   0.0800 
 28 H        0.2340    -5.0130     1.1530 H     1 <1>   0.0800 
 29 H       -1.4810   -10.2420    -0.1280 H     1 <1>   0.1500 
 30 H       -4.3910    -8.3280    -0.0600 H     1 <1>   0.0800 
 31 H       -3.7210    -9.7430    -0.8410 H     1 <1>   0.0800 
 32 H       -3.8350    -8.2310    -1.7140 H     1 <1>   0.0800 
 33 H        1.3490    -9.5590     1.7830 H     1 <1>   0.0800 
 34 H        1.8990    -9.4580     0.1280 H     1 <1>   0.0800 
 35 H        0.7640   -10.7040     0.5980 H     1 <1>   0.0800 
@<TRIPOS>BOND
  1   1   2  1   
  2   2   3  ar  
  3   2   4  ar  
  4   3   5  ar  
  5   3   6  1   
  6   4   7  ar  
  7   4  20  1   
  8   5   8  ar  
  9   6   9  1   
 10   6  21  1   
 11   7   8  ar  
 12   8  10  1   
 13   9  11  1   
 14   9  22  1   
 15   9  23  1   
 16  10  24  1   
 17  10  25  1   
 18  10  26  1   
 19  11  12  1   
 20  11  27  1   
 21  11  28  1   
 22  12  13  ar  
 23  12  14  ar  
 24  13  15  ar  
 25  14  16  ar  
 26  15  17  ar  
 27  15  18  1   
 28  16  17  ar  
 29  16  19  1   
 30  17  29  1   
 31  18  30  1   
 32  18  31  1   
 33  18  32  1   
 34  19  33  1   
 35  19  34  1   
 36  19  35  1   
@<TRIPOS>SUBSTRUCTURE
  1 ****   9 GROUP 4 **** **** 0

# MOE 2024.06 (io_trps.svl 2023.06)
