@<TRIPOS>MOLECULE
NONAME
47 48 1 0 0 
SMALL
USER_CHARGES


@<TRIPOS>ATOM
  1 O       -0.1250    -0.1220    -1.6070 O.2   1 <1>  -0.5700 
  2 C       -1.0100     0.5590    -1.1400 C.2   1 <1>   0.5690 
  3 N       -2.1330    -0.0140    -0.5910 N.am  1 <1>  -0.6600 
  4 C       -0.8320     2.0790    -1.2300 C.3   1 <1>   0.1810 
  5 C       -2.2770    -1.4990    -0.4620 C.3   1 <1>   0.1400 
  6 C       -3.3050     0.7320    -0.0410 C.3   1 <1>   0.1400 
  7 O       -0.9720     2.7180     0.0160 O.3   1 <1>  -0.5600 
  8 C       -3.6540    -1.9720    -0.9610 C.3   1 <1>   0.3440 
  9 C       -4.6340     0.1410    -0.5650 C.3   1 <1>   0.2000 
 10 C       -0.7650     4.1100    -0.0290 C.3   1 <1>   0.1810 
 11 O       -4.6740    -1.2400    -0.3310 O.3   1 <1>  -0.5600 
 12 C       -3.8480    -3.4610    -0.6840 C.ar  1 <1>  -0.1440 
 13 C       -5.9000     0.7690     0.0650 C.3   1 <1>  -0.0800 
 14 C       -0.9510     4.7600     1.3420 C.2   1 <1>   0.5690 
 15 C       -3.4780    -4.3910    -1.6460 C.ar  1 <1>  -0.1500 
 16 C       -4.3740    -3.9120     0.5190 C.ar  1 <1>  -0.1500 
 17 C       -6.0200     2.2670    -0.2570 C.3   1 <1>  -0.2400 
 18 C       -6.0020     0.5590     1.5860 C.3   1 <1>  -0.2400 
 19 O       -1.0810     5.9540     1.4210 O.2   1 <1>  -0.5700 
 20 N       -0.9670     3.9990     2.4550 N.am  1 <1>  -0.8000 
 21 C       -3.6320    -5.7460    -1.4100 C.ar  1 <1>  -0.1500 
 22 C       -4.5290    -5.2670     0.7570 C.ar  1 <1>  -0.1500 
 23 C       -4.1570    -6.1850    -0.2080 C.ar  1 <1>  -0.1500 
 24 H       -1.5650     2.4780    -1.9070 H     1 <1>   0.0800 
 25 H        0.1520     2.2890    -1.6090 H     1 <1>   0.0800 
 26 H       -1.5110    -2.0060    -1.0220 H     1 <1>   0.0800 
 27 H       -2.1650    -1.7770     0.5710 H     1 <1>   0.0800 
 28 H       -3.2780     0.6700     1.0320 H     1 <1>   0.0800 
 29 H       -3.2550     1.7690    -0.3130 H     1 <1>   0.0800 
 30 H       -3.7310    -1.7990    -2.0200 H     1 <1>   0.0800 
 31 H       -4.6820     0.2890    -1.6300 H     1 <1>   0.0800 
 32 H        0.2370     4.3000    -0.3710 H     1 <1>   0.0800 
 33 H       -1.4680     4.5430    -0.7170 H     1 <1>   0.0800 
 34 H       -6.7440     0.2770    -0.3910 H     1 <1>   0.0800 
 35 H       -3.0670    -4.0650    -2.5860 H     1 <1>   0.1500 
 36 H       -4.6700    -3.2050     1.2750 H     1 <1>   0.1500 
 37 H       -5.2480     2.8350     0.2300 H     1 <1>   0.0800 
 38 H       -6.9720     2.6390     0.0810 H     1 <1>   0.0800 
 39 H       -5.9570     2.4290    -1.3190 H     1 <1>   0.0800 
 40 H       -5.2260     1.0880     2.1080 H     1 <1>   0.0800 
 41 H       -5.9280    -0.4880     1.8240 H     1 <1>   0.0800 
 42 H       -6.9530     0.9140     1.9430 H     1 <1>   0.0800 
 43 H       -1.0850     4.4220     3.3750 H     1 <1>   0.3700 
 44 H       -0.8800     2.9830     2.3980 H     1 <1>   0.3700 
 45 H       -3.3430    -6.4590    -2.1630 H     1 <1>   0.1500 
 46 H       -4.9390    -5.6040     1.6920 H     1 <1>   0.1500 
 47 H       -4.2770    -7.2390    -0.0240 H     1 <1>   0.1500 
@<TRIPOS>BOND
  1   1   2  2   
  2   2   3  am  
  3   2   4  1   
  4   3   5  1   
  5   3   6  1   
  6   4   7  1   
  7   4  24  1   
  8   4  25  1   
  9   5   8  1   
 10   5  26  1   
 11   5  27  1   
 12   6   9  1   
 13   6  28  1   
 14   6  29  1   
 15   7  10  1   
 16   8  11  1   
 17   8  12  1   
 18   8  30  1   
 19   9  11  1   
 20   9  13  1   
 21   9  31  1   
 22  10  14  1   
 23  10  32  1   
 24  10  33  1   
 25  12  15  ar  
 26  12  16  ar  
 27  13  17  1   
 28  13  18  1   
 29  13  34  1   
 30  14  19  2   
 31  14  20  am  
 32  15  21  ar  
 33  15  35  1   
 34  16  22  ar  
 35  16  36  1   
 36  17  37  1   
 37  17  38  1   
 38  17  39  1   
 39  18  40  1   
 40  18  41  1   
 41  18  42  1   
 42  20  43  1   
 43  20  44  1   
 44  21  23  ar  
 45  21  45  1   
 46  22  23  ar  
 47  22  46  1   
 48  23  47  1   
@<TRIPOS>SUBSTRUCTURE
  1 ****   6 GROUP 4 **** **** 0

# MOE 2024.06 (io_trps.svl 2023.06)
