@<TRIPOS>MOLECULE
NONAME
54 58 1 0 0 
SMALL
USER_CHARGES


@<TRIPOS>ATOM
  1 S       -0.7920     0.2300    -1.0660 S.o2  1 <1>   1.4470 
  2 O        0.0800    -0.5840    -0.2580 O.2   1 <1>  -0.6500 
  3 O       -1.1520    -0.1070    -2.4210 O.2   1 <1>  -0.6500 
  4 N       -2.2620     0.4130    -0.1950 N.am  1 <1>  -0.7300 
  5 C       -0.4040     1.9690    -0.8980 C.ar  1 <1>  -0.0090 
  6 C       -2.4450     1.6910     0.2200 C.2   1 <1>   0.7200 
  7 C       -3.0280    -0.7630     0.2570 C.3   1 <1>   0.1960 
  8 C       -1.3980     2.6060    -0.1780 C.ar  1 <1>   0.0860 
  9 C        0.6900     2.6740    -1.3730 C.ar  1 <1>  -0.1500 
 10 O       -3.4250     2.0130     0.8610 O.2   1 <1>  -0.5700 
 11 C       -4.2640    -0.9360    -0.6240 C.3   1 <1>  -0.0990 
 12 C       -1.2970     3.9710     0.0730 C.ar  1 <1>  -0.1500 
 13 C        0.7860     4.0330    -1.1220 C.ar  1 <1>  -0.1500 
 14 C       -5.1850    -1.9920    -0.0370 C.2   1 <1>   0.5690 
 15 C       -0.2060     4.6790    -0.4000 C.ar  1 <1>  -0.1500 
 16 O       -4.6570    -2.9810     0.4160 O.2   1 <1>  -0.5700 
 17 N       -6.5480    -1.8270     0.0020 N.am  1 <1>  -0.6600 
 18 C       -7.3340    -0.7200    -0.6360 C.3   1 <1>   0.1400 
 19 C       -7.4110    -2.7620     0.7790 C.3   1 <1>   0.1400 
 20 C       -8.0520     0.1240     0.4350 C.3   1 <1>   0.1430 
 21 C       -8.1520    -1.9840     1.8750 C.3   1 <1>  -0.1600 
 22 C       -8.8450     1.2130    -0.2640 C.ar  1 <1>   0.1670 
 23 C       -8.9440    -0.7950     1.2990 C.3   1 <1>  -0.1600 
 24 C       -7.0540     0.9440     1.2980 C.3   1 <1>  -0.1600 
 25 N       -9.9540     1.0320    -0.9420 N.ar  1 <1>  -0.6200 
 26 C       -8.2540     2.4340    -0.1210 C.ar  1 <1>  -0.1430 
 27 C       -6.9800     2.3520     0.6840 C.3   1 <1>  -0.0170 
 28 C      -10.4510     2.1410    -1.4690 C.ar  1 <1>   0.7200 
 29 C       -8.8680     3.5150    -0.7060 C.ar  1 <1>   0.1600 
 30 N       -9.9850     3.3790    -1.3860 N.ar  1 <1>  -0.6200 
 31 N      -11.5860     1.9970    -2.1540 N.pl3 1 <1>  -0.9000 
 32 H       -3.3320    -0.6170     1.2800 H     1 <1>   0.0800 
 33 H       -2.4120    -1.6470     0.2140 H     1 <1>   0.0800 
 34 H        1.4600     2.1690    -1.9340 H     1 <1>   0.1500 
 35 H       -3.9700    -1.2430    -1.6100 H     1 <1>   0.0800 
 36 H       -4.7570     0.0110    -0.6790 H     1 <1>   0.0800 
 37 H       -2.0700     4.4670     0.6360 H     1 <1>   0.1500 
 38 H        1.6340     4.5900    -1.4870 H     1 <1>   0.1500 
 39 H       -0.1240     5.7360    -0.2070 H     1 <1>   0.1500 
 40 H       -8.0760    -1.1590    -1.2810 H     1 <1>   0.0800 
 41 H       -6.7220    -0.0930    -1.2540 H     1 <1>   0.0800 
 42 H       -6.8240    -3.5450     1.2280 H     1 <1>   0.0800 
 43 H       -8.1190    -3.2220     0.1110 H     1 <1>   0.0800 
 44 H       -7.4330    -1.6340     2.5960 H     1 <1>   0.0800 
 45 H       -8.8240    -2.6500     2.3850 H     1 <1>   0.0800 
 46 H       -9.7400    -1.1810     0.6850 H     1 <1>   0.0800 
 47 H       -9.4000    -0.2310     2.0940 H     1 <1>   0.0800 
 48 H       -6.0810     0.4910     1.3670 H     1 <1>   0.0800 
 49 H       -7.4420     1.0410     2.2970 H     1 <1>   0.0800 
 50 H       -6.1280     2.4380     0.0320 H     1 <1>   0.0800 
 51 H       -6.9330     3.1130     1.4440 H     1 <1>   0.0800 
 52 H       -8.4410     4.4990    -0.6150 H     1 <1>   0.1500 
 53 H      -12.1200     2.8520    -2.2850 H     1 <1>   0.4000 
 54 H      -12.1120     1.1540    -1.9450 H     1 <1>   0.4000 
@<TRIPOS>BOND
  1   1   2  2   
  2   1   3  2   
  3   1   4  am  
  4   1   5  1   
  5   4   6  am  
  6   4   7  1   
  7   5   8  ar  
  8   5   9  ar  
  9   6   8  1   
 10   6  10  2   
 11   7  11  1   
 12   7  32  1   
 13   7  33  1   
 14   8  12  ar  
 15   9  13  ar  
 16   9  34  1   
 17  11  14  1   
 18  11  35  1   
 19  11  36  1   
 20  12  15  ar  
 21  12  37  1   
 22  13  15  ar  
 23  13  38  1   
 24  14  16  2   
 25  14  17  am  
 26  15  39  1   
 27  17  18  1   
 28  17  19  1   
 29  18  20  1   
 30  18  40  1   
 31  18  41  1   
 32  19  21  1   
 33  19  42  1   
 34  19  43  1   
 35  20  22  1   
 36  20  23  1   
 37  20  24  1   
 38  21  23  1   
 39  21  44  1   
 40  21  45  1   
 41  22  25  ar  
 42  22  26  ar  
 43  23  46  1   
 44  23  47  1   
 45  24  27  1   
 46  24  48  1   
 47  24  49  1   
 48  25  28  ar  
 49  26  27  1   
 50  26  29  ar  
 51  27  50  1   
 52  27  51  1   
 53  28  30  ar  
 54  28  31  1   
 55  29  30  ar  
 56  29  52  1   
 57  31  53  1   
 58  31  54  1   
@<TRIPOS>SUBSTRUCTURE
  1 ****  11 GROUP 4 **** **** 0

# MOE 2024.06 (io_trps.svl 2023.06)
