@<TRIPOS>MOLECULE
NONAME
47 50 1 0 0 
SMALL
USER_CHARGES


@<TRIPOS>ATOM
  1 CL       0.7290     1.4120    -2.0900 Cl    1 <1>  -0.1770 
  2 C        2.1840     2.1850    -1.5050 C.ar  1 <1>   0.1770 
  3 C        3.2640     1.4220    -1.0990 C.ar  1 <1>   0.1600 
  4 C        2.2490     3.5610    -1.4500 C.ar  1 <1>  -0.1500 
  5 N        4.4060     1.9210    -0.6440 N.ar  1 <1>  -0.6200 
  6 C        3.4300     4.0890    -0.9780 C.ar  1 <1>  -0.1500 
  7 C        4.4750     3.2490    -0.5910 C.ar  1 <1>   0.4100 
  8 N        5.6520     3.8050    -0.1350 N.pl3 1 <1>  -0.8380 
  9 C        6.4290     3.0540     0.9030 C.3   1 <1>   0.2090 
 10 C        6.5520     4.4000    -1.1690 C.3   1 <1>   0.2090 
 11 C        7.5200     3.9320     1.5470 C.3   1 <1>   0.2090 
 12 C        7.6430     5.2860    -0.5350 C.3   1 <1>   0.2090 
 13 N        8.4180     4.5550     0.5200 N.pl3 1 <1>  -0.8380 
 14 C        9.6320     5.0690     0.9490 C.ar  1 <1>   0.4100 
 15 N        9.7950     6.3770     0.8490 N.ar  1 <1>  -0.6200 
 16 C       10.6260     4.2260     1.4680 C.ar  1 <1>   0.1600 
 17 C       10.9810     6.8250     1.2960 C.ar  1 <1>   0.3960 
 18 N       11.7970     4.6230     1.9200 N.ar  1 <1>  -0.6200 
 19 C       11.3260     8.2530     1.2650 C.2   1 <1>   0.5440 
 20 C       11.9320     5.9390     1.8180 C.ar  1 <1>   0.1600 
 21 O       12.2020     8.6600     2.0120 O.2   1 <1>  -0.5700 
 22 N       10.7420     9.1900     0.4260 N.am  1 <1>  -0.6600 
 23 C        9.7050     8.9360    -0.6010 C.3   1 <1>   0.1400 
 24 C       11.2040    10.5960     0.3630 C.3   1 <1>   0.1400 
 25 C        9.4430    10.2900    -1.2530 C.3   1 <1>  -0.1600 
 26 C       10.7000    11.1090    -0.9790 C.3   1 <1>  -0.1600 
 27 H        3.1810     0.3510    -1.1540 H     1 <1>   0.1500 
 28 H        1.4200     4.1720    -1.7570 H     1 <1>   0.1500 
 29 H        3.5650     5.1500    -0.8940 H     1 <1>   0.1500 
 30 H        6.8910     2.1940     0.4490 H     1 <1>   0.0800 
 31 H        5.7550     2.7050     1.6660 H     1 <1>   0.0800 
 32 H        5.9730     4.9900    -1.8570 H     1 <1>   0.0800 
 33 H        7.0220     3.6080    -1.7250 H     1 <1>   0.0800 
 34 H        8.0980     3.3320     2.2260 H     1 <1>   0.0800 
 35 H        7.0450     4.7120     2.1160 H     1 <1>   0.0800 
 36 H        7.1790     6.1530    -0.0970 H     1 <1>   0.0800 
 37 H        8.3160     5.6210    -1.3050 H     1 <1>   0.0800 
 38 H       10.4150     3.1740     1.4940 H     1 <1>   0.1500 
 39 H       12.8640     6.3470     2.1690 H     1 <1>   0.1500 
 40 H        8.8070     8.5500    -0.1500 H     1 <1>   0.0800 
 41 H       10.0850     8.2330    -1.3220 H     1 <1>   0.0800 
 42 H       12.2770    10.6580     0.4350 H     1 <1>   0.0800 
 43 H       10.7560    11.1450     1.1730 H     1 <1>   0.0800 
 44 H        8.5980    10.7500    -0.7710 H     1 <1>   0.0800 
 45 H        9.2370    10.1950    -2.3040 H     1 <1>   0.0800 
 46 H       11.4430    10.9050    -1.7310 H     1 <1>   0.0800 
 47 H       10.5070    12.1670    -0.9550 H     1 <1>   0.0800 
@<TRIPOS>BOND
  1   1   2  1   
  2   2   3  ar  
  3   2   4  ar  
  4   3   5  ar  
  5   3  27  1   
  6   4   6  ar  
  7   4  28  1   
  8   5   7  ar  
  9   6   7  ar  
 10   6  29  1   
 11   7   8  1   
 12   8   9  1   
 13   8  10  1   
 14   9  11  1   
 15   9  30  1   
 16   9  31  1   
 17  10  12  1   
 18  10  32  1   
 19  10  33  1   
 20  11  13  1   
 21  11  34  1   
 22  11  35  1   
 23  12  13  1   
 24  12  36  1   
 25  12  37  1   
 26  13  14  1   
 27  14  15  ar  
 28  14  16  ar  
 29  15  17  ar  
 30  16  18  ar  
 31  16  38  1   
 32  17  19  1   
 33  17  20  ar  
 34  18  20  ar  
 35  19  21  2   
 36  19  22  am  
 37  20  39  1   
 38  22  23  1   
 39  22  24  1   
 40  23  25  1   
 41  23  40  1   
 42  23  41  1   
 43  24  26  1   
 44  24  42  1   
 45  24  43  1   
 46  25  26  1   
 47  25  44  1   
 48  25  45  1   
 49  26  46  1   
 50  26  47  1   
@<TRIPOS>SUBSTRUCTURE
  1 ****  12 GROUP 4 **** **** 0

# MOE 2024.06 (io_trps.svl 2023.06)
