@<TRIPOS>MOLECULE
NONAME
54 56 1 0 0 
SMALL
USER_CHARGES


@<TRIPOS>ATOM
  1 CL      -0.3370    -1.3860    -1.8550 Cl    1 <1>  -0.1770 
  2 C       -1.4690    -1.7860    -0.5860 C.ar  1 <1>   0.1770 
  3 C       -2.0790    -0.7850     0.1550 C.ar  1 <1>  -0.1440 
  4 C       -1.7340    -3.1220    -0.3530 C.ar  1 <1>  -0.1500 
  5 C       -2.9710    -1.1520     1.1510 C.ar  1 <1>  -0.1500 
  6 C       -1.7780     0.6840    -0.1080 C.3   1 <1>  -0.0960 
  7 C       -2.6360    -3.4820     0.6380 C.ar  1 <1>  -0.1430 
  8 C       -3.2460    -2.4890     1.3920 C.ar  1 <1>  -0.1500 
  9 C       -2.9480    -4.9440     0.8790 C.3   1 <1>   0.4870 
 10 N       -3.8600    -5.3940    -0.2050 N.4   1 <1>  -0.9590 
 11 C       -3.9140    -6.8890    -0.2820 C.3   1 <1>   0.5660 
 12 C       -5.2280    -4.7920    -0.0780 C.3   1 <1>   0.3430 
 13 C       -2.5320    -7.3760    -0.6970 C.ar  1 <1>  -0.1430 
 14 C       -5.0140    -7.4200    -1.2420 C.3   1 <1>   0.2000 
 15 C       -6.1930    -5.3640    -1.1310 C.3   1 <1>   0.1200 
 16 C       -1.8280    -8.2050     0.1650 C.ar  1 <1>  -0.1500 
 17 C       -1.9540    -7.0060    -1.9070 C.ar  1 <1>  -0.1500 
 18 O       -6.2380    -6.7560    -1.0320 O.3   1 <1>  -0.5600 
 19 C       -5.2330    -8.9260    -1.0230 C.3   1 <1>   0.1200 
 20 C       -0.5600    -8.6520    -0.1600 C.ar  1 <1>   0.0830 
 21 C       -0.6810    -7.4420    -2.2330 C.ar  1 <1>  -0.1500 
 22 O       -5.3330    -9.2030     0.3390 O.3   1 <1>  -0.6800 
 23 O        0.0470    -9.4750     0.7280 O.3   1 <1>  -0.3630 
 24 C        0.0300    -8.2470    -1.3620 C.ar  1 <1>   0.0830 
 25 C        0.3400   -10.7850     0.2890 C.3   1 <1>   0.0400 
 26 O        1.2840    -8.6050    -1.7300 O.3   1 <1>  -0.3630 
 27 C        2.3450    -8.1110    -0.9410 C.3   1 <1>   0.0400 
 28 H       -1.2220    -3.8580    -0.9490 H     1 <1>   0.1500 
 29 H       -3.4530    -0.3940     1.7470 H     1 <1>   0.1500 
 30 H       -2.3350     1.3200     0.5570 H     1 <1>   0.0800 
 31 H       -2.0380     0.9390    -1.1200 H     1 <1>   0.0800 
 32 H       -0.7300     0.8770     0.0380 H     1 <1>   0.0800 
 33 H       -3.9390    -2.7380     2.1780 H     1 <1>   0.1500 
 34 H       -3.4080    -5.0800     1.8440 H     1 <1>   0.0800 
 35 H       -2.0270    -5.5060     0.8560 H     1 <1>   0.0800 
 36 H       -3.4420    -5.0690    -1.0800 H     1 <1>   0.4500 
 37 H       -4.1340    -7.2760     0.6990 H     1 <1>   0.0800 
 38 H       -5.6320    -5.0010     0.8990 H     1 <1>   0.0800 
 39 H       -5.1700    -3.7210    -0.1920 H     1 <1>   0.0800 
 40 H       -4.7330    -7.2580    -2.2670 H     1 <1>   0.0800 
 41 H       -5.8950    -5.0910    -2.1290 H     1 <1>   0.0800 
 42 H       -7.1890    -4.9940    -0.9580 H     1 <1>   0.0800 
 43 H       -2.2530    -8.5280     1.1010 H     1 <1>   0.1500 
 44 H       -2.4730    -6.3820    -2.6150 H     1 <1>   0.1500 
 45 H       -4.4030    -9.4910    -1.4130 H     1 <1>   0.0800 
 46 H       -6.1380    -9.2450    -1.5120 H     1 <1>   0.0800 
 47 H       -0.2250    -7.1580    -3.1660 H     1 <1>   0.1500 
 48 H       -5.7040   -10.1000     0.4820 H     1 <1>   0.4000 
 49 H        0.6970   -11.3500     1.1310 H     1 <1>   0.0800 
 50 H        1.0990   -10.7480    -0.4710 H     1 <1>   0.0800 
 51 H       -0.5570   -11.2320    -0.1010 H     1 <1>   0.0800 
 52 H        3.2700    -8.4120    -1.3970 H     1 <1>   0.0800 
 53 H        2.2770    -8.5220     0.0500 H     1 <1>   0.0800 
 54 H        2.2830    -7.0380    -0.9060 H     1 <1>   0.0800 
@<TRIPOS>BOND
  1   1   2  1   
  2   2   3  ar  
  3   2   4  ar  
  4   3   5  ar  
  5   3   6  1   
  6   4   7  ar  
  7   4  28  1   
  8   5   8  ar  
  9   5  29  1   
 10   6  30  1   
 11   6  31  1   
 12   6  32  1   
 13   7   8  ar  
 14   7   9  1   
 15   8  33  1   
 16   9  10  1   
 17   9  34  1   
 18   9  35  1   
 19  10  11  1   
 20  10  12  1   
 21  10  36  1   
 22  11  13  1   
 23  11  14  1   
 24  11  37  1   
 25  12  15  1   
 26  12  38  1   
 27  12  39  1   
 28  13  16  ar  
 29  13  17  ar  
 30  14  18  1   
 31  14  19  1   
 32  14  40  1   
 33  15  18  1   
 34  15  41  1   
 35  15  42  1   
 36  16  20  ar  
 37  16  43  1   
 38  17  21  ar  
 39  17  44  1   
 40  19  22  1   
 41  19  45  1   
 42  19  46  1   
 43  20  23  1   
 44  20  24  ar  
 45  21  24  ar  
 46  21  47  1   
 47  22  48  1   
 48  23  25  1   
 49  24  26  1   
 50  25  49  1   
 51  25  50  1   
 52  25  51  1   
 53  26  27  1   
 54  27  52  1   
 55  27  53  1   
 56  27  54  1   
@<TRIPOS>SUBSTRUCTURE
  1 ****  10 GROUP 4 **** **** 0

# MOE 2024.06 (io_trps.svl 2023.06)
