@<TRIPOS>MOLECULE
NONAME
48 50 1 0 0 
SMALL
USER_CHARGES


@<TRIPOS>ATOM
  1 O        0.2120    -0.4900    -1.5040 O.2   1 <1>  -0.5700 
  2 C       -0.6210     0.3020    -1.1340 C.2   1 <1>   0.5690 
  3 N       -1.9350    -0.0480    -0.9940 N.am  1 <1>  -0.6600 
  4 C       -0.1640     1.7040    -0.7990 C.3   1 <1>  -0.0990 
  5 C       -3.0450     0.8340    -0.5400 C.3   1 <1>   0.1400 
  6 C       -2.4150    -1.4330    -1.1970 C.3   1 <1>   0.1400 
  7 C        0.1220     1.7970     0.6970 C.3   1 <1>   0.1400 
  8 C       -4.2940    -0.0470    -0.6020 C.3   1 <1>   0.2000 
  9 C       -3.7830    -1.4830    -0.5150 C.3   1 <1>  -0.0800 
 10 N        0.1300     3.2160     1.1170 N.am  1 <1>  -0.7300 
 11 O       -5.1620     0.2130     0.4460 O.3   1 <1>  -0.6800 
 12 C       -4.7490    -2.5000    -1.1440 C.3   1 <1>  -0.0170 
 13 C       -0.9800     3.8960     1.4930 C.2   1 <1>   0.5690 
 14 C       -4.2220    -3.9240    -1.0010 C.ar  1 <1>  -0.1440 
 15 O       -2.0780     3.3980     1.4750 O.2   1 <1>  -0.5700 
 16 C       -0.8240     5.3270     1.9350 C.3   1 <1>  -0.1790 
 17 C       -4.3110    -4.6440     0.2150 C.ar  1 <1>   0.0000 
 18 C       -3.6340    -4.5480    -2.0620 C.ar  1 <1>  -0.1500 
 19 C       -3.7700    -5.9530     0.2440 C.ar  1 <1>   0.3100 
 20 C       -4.9020    -4.1450     1.3990 C.ar  1 <1>  -0.1500 
 21 C       -3.1360    -5.8500    -1.9270 C.ar  1 <1>   0.1600 
 22 N       -3.1900    -6.5400    -0.8330 N.ar  1 <1>  -0.6200 
 23 C       -3.8330    -6.6870     1.4390 C.ar  1 <1>  -0.1500 
 24 C       -4.9490    -4.8880     2.5470 C.ar  1 <1>  -0.1500 
 25 C       -4.4070    -6.1750     2.5710 C.ar  1 <1>  -0.1500 
 26 H        0.7280     1.9260    -1.3540 H     1 <1>   0.0800 
 27 H       -0.9240     2.4050    -1.0840 H     1 <1>   0.0800 
 28 H       -2.8560     1.1580     0.4680 H     1 <1>   0.0800 
 29 H       -3.1480     1.6840    -1.1910 H     1 <1>   0.0800 
 30 H       -2.5010    -1.6180    -2.2540 H     1 <1>   0.0800 
 31 H       -1.7320    -2.1470    -0.7660 H     1 <1>   0.0800 
 32 H        1.0670     1.3340     0.9270 H     1 <1>   0.0800 
 33 H       -0.6450     1.2770     1.2480 H     1 <1>   0.0800 
 34 H       -4.8170     0.1250    -1.5270 H     1 <1>   0.0800 
 35 H       -3.6090    -1.7330     0.5170 H     1 <1>   0.0800 
 36 H        1.0380     3.6830     1.1140 H     1 <1>   0.3700 
 37 H       -4.6740     0.2510     1.2920 H     1 <1>   0.4000 
 38 H       -4.8820    -2.2660    -2.1860 H     1 <1>   0.0800 
 39 H       -5.7180    -2.4210    -0.6830 H     1 <1>   0.0800 
 40 H       -0.1540     5.3780     2.7730 H     1 <1>   0.0800 
 41 H       -1.7790     5.7220     2.2280 H     1 <1>   0.0800 
 42 H       -0.4360     5.9160     1.1260 H     1 <1>   0.0800 
 43 H       -3.5330    -4.0650    -3.0160 H     1 <1>   0.1500 
 44 H       -5.3280    -3.1590     1.4020 H     1 <1>   0.1500 
 45 H       -2.6790    -6.3050    -2.7890 H     1 <1>   0.1500 
 46 H       -3.4120    -7.6750     1.4330 H     1 <1>   0.1500 
 47 H       -5.4010    -4.4940     3.4410 H     1 <1>   0.1500 
 48 H       -4.4480    -6.7500     3.4800 H     1 <1>   0.1500 
@<TRIPOS>BOND
  1   1   2  2   
  2   2   3  am  
  3   2   4  1   
  4   3   5  1   
  5   3   6  1   
  6   4   7  1   
  7   4  26  1   
  8   4  27  1   
  9   5   8  1   
 10   5  28  1   
 11   5  29  1   
 12   6   9  1   
 13   6  30  1   
 14   6  31  1   
 15   7  10  1   
 16   7  32  1   
 17   7  33  1   
 18   8   9  1   
 19   8  11  1   
 20   8  34  1   
 21   9  12  1   
 22   9  35  1   
 23  10  13  am  
 24  10  36  1   
 25  11  37  1   
 26  12  14  1   
 27  12  38  1   
 28  12  39  1   
 29  13  15  2   
 30  13  16  1   
 31  14  17  ar  
 32  14  18  ar  
 33  16  40  1   
 34  16  41  1   
 35  16  42  1   
 36  17  19  ar  
 37  17  20  ar  
 38  18  21  ar  
 39  18  43  1   
 40  19  22  ar  
 41  19  23  ar  
 42  20  24  ar  
 43  20  44  1   
 44  21  22  ar  
 45  21  45  1   
 46  23  25  ar  
 47  23  46  1   
 48  24  25  ar  
 49  24  47  1   
 50  25  48  1   
@<TRIPOS>SUBSTRUCTURE
  1 ****   9 GROUP 4 **** **** 0

# MOE 2024.06 (io_trps.svl 2023.06)
