@<TRIPOS>MOLECULE
NONAME
28 28 1 0 0 
SMALL
USER_CHARGES


@<TRIPOS>ATOM
  1 S        0.6260    -0.2140    -1.6920 S.2   1 <1>  -0.3800 
  2 C        1.9240    -0.4370    -0.7680 C.2   1 <1>   0.5900 
  3 O        2.3410    -1.6540    -0.5430 O.3   1 <1>  -0.4300 
  4 N        2.6670     0.4920    -0.1270 N.am  1 <1>  -0.4200 
  5 C        3.4030    -1.6810     0.3780 C.3   1 <1>   0.1200 
  6 C        2.4120     1.8200     0.1510 C.2   1 <1>   0.5690 
  7 C        3.8080    -0.2050     0.5130 C.3   1 <1>   0.2200 
  8 O        2.8520     2.3310     1.1510 O.2   1 <1>  -0.5700 
  9 C        1.5820     2.6770    -0.8030 C.3   1 <1>  -0.0990 
 10 C        5.1660     0.0830    -0.1890 C.3   1 <1>  -0.0800 
 11 C        1.8720     4.1860    -0.7150 C.3   1 <1>  -0.2400 
 12 C        5.6950     1.4950     0.1040 C.3   1 <1>  -0.2400 
 13 C        5.1500    -0.1430    -1.7130 C.3   1 <1>  -0.2400 
 14 H        3.0330    -2.0710     1.3100 H     1 <1>   0.0800 
 15 H        4.1900    -2.3090     0.0000 H     1 <1>   0.0800 
 16 H        3.8720     0.0540     1.5570 H     1 <1>   0.0800 
 17 H        1.7780     2.3620    -1.8110 H     1 <1>   0.0800 
 18 H        0.5420     2.5090    -0.5920 H     1 <1>   0.0800 
 19 H        5.8840    -0.6010     0.2320 H     1 <1>   0.0800 
 20 H        2.9110     4.3780    -0.9170 H     1 <1>   0.0800 
 21 H        1.6400     4.5540     0.2700 H     1 <1>   0.0800 
 22 H        1.2740     4.7220    -1.4310 H     1 <1>   0.0800 
 23 H        5.0960     2.2430    -0.3850 H     1 <1>   0.0800 
 24 H        6.7070     1.5950    -0.2470 H     1 <1>   0.0800 
 25 H        5.6840     1.6910     1.1620 H     1 <1>   0.0800 
 26 H        4.4840     0.5490    -2.1970 H     1 <1>   0.0800 
 27 H        4.8390    -1.1430    -1.9570 H     1 <1>   0.0800 
 28 H        6.1360     0.0050    -2.1180 H     1 <1>   0.0800 
@<TRIPOS>BOND
  1   1   2  2   
  2   2   3  1   
  3   2   4  am  
  4   3   5  1   
  5   4   6  am  
  6   4   7  1   
  7   5   7  1   
  8   5  14  1   
  9   5  15  1   
 10   6   8  2   
 11   6   9  1   
 12   7  10  1   
 13   7  16  1   
 14   9  11  1   
 15   9  17  1   
 16   9  18  1   
 17  10  12  1   
 18  10  13  1   
 19  10  19  1   
 20  11  20  1   
 21  11  21  1   
 22  11  22  1   
 23  12  23  1   
 24  12  24  1   
 25  12  25  1   
 26  13  26  1   
 27  13  27  1   
 28  13  28  1   
@<TRIPOS>SUBSTRUCTURE
  1 ****   4 GROUP 4 **** **** 0

# MOE 2024.06 (io_trps.svl 2023.06)
