@<TRIPOS>MOLECULE
NONAME
42 44 1 0 0 
SMALL
USER_CHARGES


@<TRIPOS>ATOM
  1 S        1.1800     1.3940    -0.7860 S.3   1 <1>  -0.0800 
  2 C        1.8110    -0.2300    -0.5440 C.2   1 <1>  -0.1400 
  3 C       -0.3880     0.9300    -0.1520 C.2   1 <1>  -0.1100 
  4 C        0.8610    -1.0270    -0.0200 C.2   1 <1>  -0.1500 
  5 C        3.2540    -0.5070    -0.9350 C.3   1 <1>   0.0810 
  6 C       -0.3900    -0.3670     0.2040 C.2   1 <1>  -0.1500 
  7 C        4.2410     0.1670     0.0110 C.2   1 <1>   0.5690 
  8 O        4.7170    -0.5030     0.8970 O.2   1 <1>  -0.5700 
  9 N        4.6120     1.4820    -0.1290 N.am  1 <1>  -0.6600 
 10 C        5.1420     2.2090     1.0890 C.3   1 <1>   0.2200 
 11 C        4.5950     2.1920    -1.4470 C.3   1 <1>   0.1400 
 12 C        4.5010     3.5940     1.2690 C.3   1 <1>   0.1200 
 13 C        6.6850     2.2860     1.0870 C.3   1 <1>   0.3430 
 14 C        5.5270     3.4150    -1.5440 C.3   1 <1>  -0.0800 
 15 O        5.1930     4.5730     0.5550 O.3   1 <1>  -0.5600 
 16 N        7.2610     2.0210    -0.2750 N.4   1 <1>  -0.9590 
 17 C        4.9520     4.6350    -0.8090 C.3   1 <1>   0.1200 
 18 C        7.0130     3.1720    -1.2010 C.3   1 <1>   0.3430 
 19 C        8.7620     1.8130    -0.1320 C.3   1 <1>   0.2370 
 20 C        9.5250     3.0370     0.3830 C.2   1 <1>   0.9060 
 21 O        9.6300     3.1820     1.6030 O.co2 1 <1>  -0.9000 
 22 O        9.8820     3.8800    -0.4460 O.co2 1 <1>  -0.9000 
 23 H       -1.1520     1.6860    -0.1130 H     1 <1>   0.1500 
 24 H        0.9810    -2.0670     0.2290 H     1 <1>   0.1500 
 25 H        3.4210    -1.5670    -0.8900 H     1 <1>   0.0800 
 26 H        3.4170    -0.2020    -1.9490 H     1 <1>   0.0800 
 27 H       -1.2270    -0.9000     0.6200 H     1 <1>   0.1500 
 28 H        4.8570     1.6510     1.9650 H     1 <1>   0.0800 
 29 H        4.8820     1.4950    -2.2150 H     1 <1>   0.0800 
 30 H        3.5880     2.5060    -1.6590 H     1 <1>   0.0800 
 31 H        4.5690     3.8760     2.3050 H     1 <1>   0.0800 
 32 H        3.4620     3.5930     0.9870 H     1 <1>   0.0800 
 33 H        7.0590     1.5480     1.7760 H     1 <1>   0.0800 
 34 H        7.0110     3.2500     1.4480 H     1 <1>   0.0800 
 35 H        5.5160     3.7040    -2.5800 H     1 <1>   0.0800 
 36 H        6.7930     1.1770    -0.6210 H     1 <1>   0.4500 
 37 H        3.8920     4.7400    -0.9720 H     1 <1>   0.0800 
 38 H        5.4350     5.5300    -1.1630 H     1 <1>   0.0800 
 39 H        7.4290     4.0720    -0.7710 H     1 <1>   0.0800 
 40 H        7.5510     2.9900    -2.1170 H     1 <1>   0.0800 
 41 H        8.9550     1.0090     0.5540 H     1 <1>   0.0800 
 42 H        9.1860     1.5570    -1.0850 H     1 <1>   0.0800 
@<TRIPOS>BOND
  1   1   2  1   
  2   1   3  1   
  3   2   4  2   
  4   2   5  1   
  5   3   6  2   
  6   3  23  1   
  7   4   6  1   
  8   4  24  1   
  9   5   7  1   
 10   5  25  1   
 11   5  26  1   
 12   6  27  1   
 13   7   8  2   
 14   7   9  am  
 15   9  10  1   
 16   9  11  1   
 17  10  12  1   
 18  10  13  1   
 19  10  28  1   
 20  11  14  1   
 21  11  29  1   
 22  11  30  1   
 23  12  15  1   
 24  12  31  1   
 25  12  32  1   
 26  13  16  1   
 27  13  33  1   
 28  13  34  1   
 29  14  17  1   
 30  14  18  1   
 31  14  35  1   
 32  15  17  1   
 33  16  18  1   
 34  16  19  1   
 35  16  36  1   
 36  17  37  1   
 37  17  38  1   
 38  18  39  1   
 39  18  40  1   
 40  19  20  1   
 41  19  41  1   
 42  19  42  1   
 43  20  21  ar  
 44  20  22  ar  
@<TRIPOS>SUBSTRUCTURE
  1 ****   9 GROUP 4 **** **** 0

# MOE 2024.06 (io_trps.svl 2023.06)
