@<TRIPOS>MOLECULE
NONAME
52 55 1 0 0 
SMALL
USER_CHARGES


@<TRIPOS>ATOM
  1 O        1.8190     0.4580    -2.9270 O.2   1 <1>  -0.5700 
  2 C        1.8820    -0.5330    -2.2340 C.2   1 <1>   0.9370 
  3 N        2.6520    -0.5080    -1.0610 N.pl3 1 <1>  -0.5760 
  4 C        1.1870    -1.7150    -2.5920 C.2   1 <1>  -0.1360 
  5 C        2.7100    -1.6170    -0.2810 C.cat 1 <1>   0.7390 
  6 C        3.3390     0.6220    -0.6800 C.2   1 <1>   0.1910 
  7 C        1.2710    -2.8030    -1.8070 C.2   1 <1>   0.2030 
  8 N        2.0330    -2.7180    -0.6690 N.pl3 1 <1>  -0.6450 
  9 C        3.4600    -1.5980     0.9030 C.2   1 <1>  -0.1800 
 10 C        4.0790     0.6600     0.4720 C.2   1 <1>  -0.1380 
 11 C        0.5900    -4.1500    -2.0520 C.3   1 <1>   0.2480 
 12 C        4.1430    -0.4760     1.2870 C.2   1 <1>  -0.1500 
 13 C        4.8390     1.9060     0.8980 C.3   1 <1>  -0.1020 
 14 N        0.3330    -4.8260    -0.7590 N.3   1 <1>  -0.8100 
 15 C        0.1770    -6.2870    -0.9690 C.3   1 <1>   0.1100 
 16 C       -0.8720    -4.2810    -0.1020 C.3   1 <1>   0.1100 
 17 C       -0.0090    -7.0360     0.3590 C.3   1 <1>   0.2000 
 18 C       -1.0610    -4.9330     1.2720 C.3   1 <1>  -0.1600 
 19 O       -0.2690    -8.3670     0.0480 O.3   1 <1>  -0.5600 
 20 C       -1.1880    -6.4600     1.1570 C.3   1 <1>  -0.1600 
 21 C        0.0180    -9.2890     1.0690 C.3   1 <1>   0.2630 
 22 C       -0.2110   -10.7330     0.6290 C.ar  1 <1>   0.1670 
 23 N        0.2210   -11.6560     1.4800 N.ar  1 <1>  -0.6200 
 24 C       -0.8340   -11.0350    -0.5770 C.ar  1 <1>  -0.1500 
 25 C        0.0300   -12.9140     1.1170 C.ar  1 <1>   0.1600 
 26 C       -1.0260   -12.3510    -0.9410 C.ar  1 <1>  -0.1500 
 27 C       -0.5770   -13.3100    -0.0620 C.ar  1 <1>  -0.1500 
 28 H        0.6130    -1.6800    -3.4980 H     1 <1>   0.1500 
 29 H        3.2840     1.4950    -1.3150 H     1 <1>   0.1500 
 30 H        1.9840    -3.5570    -0.0700 H     1 <1>   0.4500 
 31 H        3.4920    -2.4840     1.5090 H     1 <1>   0.1500 
 32 H        1.2630    -4.7540    -2.6380 H     1 <1>   0.0800 
 33 H       -0.3240    -4.0290    -2.6100 H     1 <1>   0.0800 
 34 H        4.7230    -0.4530     2.1970 H     1 <1>   0.1500 
 35 H        4.4870     2.2440     1.8570 H     1 <1>   0.0800 
 36 H        4.7080     2.7040     0.1880 H     1 <1>   0.0800 
 37 H        5.8900     1.6900     0.9740 H     1 <1>   0.0800 
 38 H        1.0540    -6.6790    -1.4550 H     1 <1>   0.0800 
 39 H       -0.6780    -6.4740    -1.5970 H     1 <1>   0.0800 
 40 H       -1.7430    -4.4690    -0.7100 H     1 <1>   0.0800 
 41 H       -0.7760    -3.2160     0.0290 H     1 <1>   0.0800 
 42 H        0.9070    -6.9760     0.9230 H     1 <1>   0.0800 
 43 H       -1.9480    -4.5380     1.7350 H     1 <1>   0.0800 
 44 H       -0.2240    -4.6830     1.9010 H     1 <1>   0.0800 
 45 H       -1.2180    -6.8870     2.1420 H     1 <1>   0.0800 
 46 H       -2.1060    -6.6980     0.6480 H     1 <1>   0.0800 
 47 H       -0.6110    -9.0800     1.9150 H     1 <1>   0.0800 
 48 H        1.0480    -9.1730     1.3540 H     1 <1>   0.0800 
 49 H       -1.1670   -10.2490    -1.2290 H     1 <1>   0.1500 
 50 H        0.3770   -13.6720     1.7970 H     1 <1>   0.1500 
 51 H       -1.5050   -12.6130    -1.8690 H     1 <1>   0.1500 
 52 H       -0.6950   -14.3550    -0.2840 H     1 <1>   0.1500 
@<TRIPOS>BOND
  1   1   2  2   
  2   2   3  1   
  3   2   4  1   
  4   3   5  ar  
  5   3   6  1   
  6   4   7  2   
  7   4  28  1   
  8   5   8  ar  
  9   5   9  1   
 10   6  10  2   
 11   6  29  1   
 12   7   8  1   
 13   7  11  1   
 14   8  30  1   
 15   9  12  2   
 16   9  31  1   
 17  10  12  1   
 18  10  13  1   
 19  11  14  1   
 20  11  32  1   
 21  11  33  1   
 22  12  34  1   
 23  13  35  1   
 24  13  36  1   
 25  13  37  1   
 26  14  15  1   
 27  14  16  1   
 28  15  17  1   
 29  15  38  1   
 30  15  39  1   
 31  16  18  1   
 32  16  40  1   
 33  16  41  1   
 34  17  19  1   
 35  17  20  1   
 36  17  42  1   
 37  18  20  1   
 38  18  43  1   
 39  18  44  1   
 40  19  21  1   
 41  20  45  1   
 42  20  46  1   
 43  21  22  1   
 44  21  47  1   
 45  21  48  1   
 46  22  23  ar  
 47  22  24  ar  
 48  23  25  ar  
 49  24  26  ar  
 50  24  49  1   
 51  25  27  ar  
 52  25  50  1   
 53  26  27  ar  
 54  26  51  1   
 55  27  52  1   
@<TRIPOS>SUBSTRUCTURE
  1 ****  14 GROUP 4 **** **** 0

# MOE 2024.06 (io_trps.svl 2023.06)
