@<TRIPOS>MOLECULE
NONAME
42 44 1 0 0 
SMALL
USER_CHARGES


@<TRIPOS>ATOM
  1 O        1.8930    -1.2870     1.9400 O.3   1 <1>  -0.0190 
  2 N        1.6270    -2.5390     1.9670 N.2   1 <1>  -0.4100 
  3 C        2.0290    -0.8760     0.7080 C.2   1 <1>   0.4250 
  4 C        1.5980    -2.8660     0.7310 C.2   1 <1>   0.3350 
  5 N        1.8580    -1.8550    -0.1120 N.2   1 <1>  -0.5650 
  6 C        2.3320     0.5070     0.4070 C.ar  1 <1>   0.0530 
  7 C        1.3270    -4.2840     0.2170 C.3   1 <1>   0.2910 
  8 C        2.4900     1.4640     1.4120 C.ar  1 <1>  -0.1500 
  9 C        2.4790     0.9400    -0.9110 C.ar  1 <1>  -0.1500 
 10 N       -0.1030    -4.5950    -0.0550 N.3   1 <1>  -0.8100 
 11 C        2.7800     2.7830     1.1150 C.ar  1 <1>  -0.1500 
 12 C        2.7690     2.2570    -1.2130 C.ar  1 <1>  -0.1500 
 13 C       -0.2670    -6.0330    -0.3940 C.3   1 <1>   0.2900 
 14 C       -0.6760    -3.7030    -1.0790 C.3   1 <1>   0.0300 
 15 C        2.9220     3.1890    -0.2010 C.ar  1 <1>  -0.1430 
 16 C       -1.7130    -6.5230    -0.4530 C.2   1 <1>   0.2980 
 17 C        3.2410     4.6330    -0.5440 C.3   1 <1>  -0.0970 
 18 O       -2.4140    -6.2850    -1.5340 O.3   1 <1>  -0.0190 
 19 N       -2.3160    -7.1890     0.4510 N.2   1 <1>  -0.5650 
 20 N       -3.5650    -6.8310    -1.2910 N.2   1 <1>  -0.4100 
 21 C       -3.4960    -7.3500    -0.1290 C.2   1 <1>   0.3350 
 22 C       -4.6060    -8.0970     0.5960 C.3   1 <1>   0.0210 
 23 C       -5.9120    -8.2110    -0.2040 C.3   1 <1>  -0.2400 
 24 H        1.6910    -4.9650     0.9650 H     1 <1>   0.0800 
 25 H        1.9060    -4.4350    -0.6770 H     1 <1>   0.0800 
 26 H        2.3850     1.1770     2.4440 H     1 <1>   0.1500 
 27 H        2.3640     0.2300    -1.7120 H     1 <1>   0.1500 
 28 H        2.8950     3.4940     1.9150 H     1 <1>   0.1500 
 29 H        2.8760     2.5570    -2.2410 H     1 <1>   0.1500 
 30 H        0.2290    -6.6210     0.3590 H     1 <1>   0.0800 
 31 H        0.2060    -6.2400    -1.3380 H     1 <1>   0.0800 
 32 H       -0.5800    -2.6750    -0.7740 H     1 <1>   0.0800 
 33 H       -1.7270    -3.8970    -1.2000 H     1 <1>   0.0800 
 34 H       -0.1790    -3.8360    -2.0240 H     1 <1>   0.0800 
 35 H        3.3300     5.2300     0.3460 H     1 <1>   0.0800 
 36 H        2.4580     5.0450    -1.1550 H     1 <1>   0.0800 
 37 H        4.1680     4.6840    -1.0850 H     1 <1>   0.0800 
 38 H       -4.8010    -7.5870     1.5220 H     1 <1>   0.0800 
 39 H       -4.2480    -9.0830     0.8330 H     1 <1>   0.0800 
 40 H       -6.2940    -7.2320    -0.4320 H     1 <1>   0.0800 
 41 H       -6.6500    -8.7480     0.3640 H     1 <1>   0.0800 
 42 H       -5.7370    -8.7360    -1.1270 H     1 <1>   0.0800 
@<TRIPOS>BOND
  1   1   2  1   
  2   1   3  1   
  3   2   4  2   
  4   3   5  2   
  5   3   6  1   
  6   4   5  1   
  7   4   7  1   
  8   6   8  ar  
  9   6   9  ar  
 10   7  10  1   
 11   7  24  1   
 12   7  25  1   
 13   8  11  ar  
 14   8  26  1   
 15   9  12  ar  
 16   9  27  1   
 17  10  13  1   
 18  10  14  1   
 19  11  15  ar  
 20  11  28  1   
 21  12  15  ar  
 22  12  29  1   
 23  13  16  1   
 24  13  30  1   
 25  13  31  1   
 26  14  32  1   
 27  14  33  1   
 28  14  34  1   
 29  15  17  1   
 30  16  18  1   
 31  16  19  2   
 32  17  35  1   
 33  17  36  1   
 34  17  37  1   
 35  18  20  1   
 36  19  21  1   
 37  20  21  2   
 38  21  22  1   
 39  22  23  1   
 40  22  38  1   
 41  22  39  1   
 42  23  40  1   
 43  23  41  1   
 44  23  42  1   
@<TRIPOS>SUBSTRUCTURE
  1 ****   4 GROUP 4 **** **** 0

# MOE 2024.06 (io_trps.svl 2023.06)
