@<TRIPOS>MOLECULE
NONAME
44 45 1 0 0 
SMALL
USER_CHARGES


@<TRIPOS>ATOM
  1 S        0.2640    -0.1280     0.8010 S.3   1 <1>  -0.0800 
  2 C       -1.3720     0.3040     0.3480 C.2   1 <1>   0.1980 
  3 C        0.7250     1.5400     0.6340 C.2   1 <1>  -0.1100 
  4 N       -1.5300     1.5460     0.1080 N.2   1 <1>  -0.5650 
  5 C       -2.3940    -0.8300     0.2950 C.3   1 <1>   0.1000 
  6 C       -0.3510     2.2560     0.2660 C.2   1 <1>   0.0460 
  7 C       -2.2340    -1.6390    -0.9980 C.3   1 <1>  -0.2400 
  8 C       -3.8320    -0.3050     0.4090 C.3   1 <1>  -0.2400 
  9 C       -0.4350     3.7490     0.0000 C.3   1 <1>   0.0210 
 10 C        0.8920     4.4690     0.2370 C.3   1 <1>   0.2090 
 11 N        0.7520     5.9230    -0.0370 N.pl3 1 <1>  -0.8690 
 12 C        1.8270     6.7890    -0.0940 C.ar  1 <1>   0.4100 
 13 N        3.0210     6.2110    -0.0100 N.ar  1 <1>  -0.6200 
 14 C        1.6460     8.1810    -0.2110 C.ar  1 <1>   0.0860 
 15 C        4.0800     6.9940    -0.0030 C.ar  1 <1>   0.1670 
 16 C        0.3460     8.7930    -0.3650 C.2   1 <1>   0.5440 
 17 C        2.7810     8.9780    -0.1800 C.ar  1 <1>  -0.1500 
 18 C        4.0190     8.3820    -0.0740 C.ar  1 <1>  -0.1430 
 19 C        5.4120     6.2730     0.0990 C.3   1 <1>  -0.0970 
 20 O        0.0860     9.8680     0.1330 O.2   1 <1>  -0.5700 
 21 N       -0.6440     8.2340    -1.1010 N.am  1 <1>  -0.8000 
 22 C        5.2630     9.2610    -0.0370 C.3   1 <1>  -0.0970 
 23 H        1.7500     1.7960     0.8290 H     1 <1>   0.1500 
 24 H       -2.2090    -1.4800     1.1330 H     1 <1>   0.0800 
 25 H       -2.3980    -1.0060    -1.8530 H     1 <1>   0.0800 
 26 H       -2.9400    -2.4490    -1.0250 H     1 <1>   0.0800 
 27 H       -1.2410    -2.0480    -1.0620 H     1 <1>   0.0800 
 28 H       -4.0600     0.3430    -0.4190 H     1 <1>   0.0800 
 29 H       -3.9460     0.2560     1.3200 H     1 <1>   0.0800 
 30 H       -4.5330    -1.1200     0.4170 H     1 <1>   0.0800 
 31 H       -1.1860     4.1640     0.6470 H     1 <1>   0.0800 
 32 H       -0.7400     3.8950    -1.0200 H     1 <1>   0.0800 
 33 H        1.6450     4.0560    -0.4150 H     1 <1>   0.0800 
 34 H        1.2100     4.3320     1.2560 H     1 <1>   0.0800 
 35 H       -0.1260     6.3360     0.2950 H     1 <1>   0.4000 
 36 H        2.6790    10.0480    -0.2420 H     1 <1>   0.1500 
 37 H        5.2910     5.2330    -0.1470 H     1 <1>   0.0800 
 38 H        5.7850     6.3460     1.1030 H     1 <1>   0.0800 
 39 H        6.1270     6.6950    -0.5820 H     1 <1>   0.0800 
 40 H       -1.5040     8.7590    -1.2630 H     1 <1>   0.3700 
 41 H       -0.4970     7.3830    -1.6490 H     1 <1>   0.3700 
 42 H        5.8760     9.0050     0.8080 H     1 <1>   0.0800 
 43 H        4.9970    10.3000     0.0470 H     1 <1>   0.0800 
 44 H        5.8330     9.1300    -0.9390 H     1 <1>   0.0800 
@<TRIPOS>BOND
  1   1   2  1   
  2   1   3  1   
  3   2   4  2   
  4   2   5  1   
  5   3   6  2   
  6   3  23  1   
  7   4   6  1   
  8   5   7  1   
  9   5   8  1   
 10   5  24  1   
 11   6   9  1   
 12   7  25  1   
 13   7  26  1   
 14   7  27  1   
 15   8  28  1   
 16   8  29  1   
 17   8  30  1   
 18   9  10  1   
 19   9  31  1   
 20   9  32  1   
 21  10  11  1   
 22  10  33  1   
 23  10  34  1   
 24  11  12  1   
 25  11  35  1   
 26  12  13  ar  
 27  12  14  ar  
 28  13  15  ar  
 29  14  16  1   
 30  14  17  ar  
 31  15  18  ar  
 32  15  19  1   
 33  16  20  2   
 34  16  21  am  
 35  17  18  ar  
 36  17  36  1   
 37  18  22  1   
 38  19  37  1   
 39  19  38  1   
 40  19  39  1   
 41  21  40  1   
 42  21  41  1   
 43  22  42  1   
 44  22  43  1   
 45  22  44  1   
@<TRIPOS>SUBSTRUCTURE
  1 ****  10 GROUP 4 **** **** 0

# MOE 2024.06 (io_trps.svl 2023.06)
