@<TRIPOS>MOLECULE
NONAME
44 45 1 0 0 
SMALL
USER_CHARGES


@<TRIPOS>ATOM
  1 S        0.6770     0.0630    -0.2670 S.3   1 <1>  -0.4600 
  2 C       -1.0070    -0.6120    -0.2370 C.3   1 <1>   0.2140 
  3 C        0.4310     1.7560    -0.8610 C.3   1 <1>   0.0700 
  4 C       -0.9500    -2.0330     0.2990 C.ar  1 <1>  -0.1440 
  5 C        1.8050     2.4060    -1.0060 C.3   1 <1>  -0.0990 
  6 C       -0.4400    -3.0550    -0.4870 C.ar  1 <1>  -0.1500 
  7 C       -1.4100    -2.3220     1.5750 C.ar  1 <1>  -0.1500 
  8 C        1.6540     3.8460    -1.4340 C.2   1 <1>   0.5690 
  9 C       -0.3970    -4.3520    -0.0070 C.ar  1 <1>  -0.1500 
 10 C       -1.3680    -3.6200     2.0560 C.ar  1 <1>  -0.1500 
 11 O        1.1600     4.0910    -2.5070 O.2   1 <1>  -0.5700 
 12 N        2.0670     4.8200    -0.5970 N.am  1 <1>  -0.7300 
 13 C       -0.8620    -4.6360     1.2650 C.ar  1 <1>  -0.1500 
 14 C        2.0940     6.2570    -0.9020 C.3   1 <1>   0.3640 
 15 C        3.3870     6.8640    -0.3430 C.ar  1 <1>   0.1670 
 16 C        0.8590     6.9000    -0.2740 C.3   1 <1>  -0.2400 
 17 N        3.7500     6.5140     0.8910 N.ar  1 <1>  -0.6200 
 18 C        4.1170     7.7370    -1.1370 C.ar  1 <1>  -0.1500 
 19 C        4.8670     7.0520     1.3460 C.ar  1 <1>   0.1670 
 20 C        5.2810     8.2910    -0.6520 C.ar  1 <1>  -0.1500 
 21 C        5.6560     7.9330     0.6240 C.ar  1 <1>  -0.1500 
 22 C        5.2670     6.6510     2.7500 C.3   1 <1>  -0.0970 
 23 H       -1.3820    -0.5910    -1.2450 H     1 <1>   0.0800 
 24 H       -1.5990     0.0270     0.3920 H     1 <1>   0.0800 
 25 H       -0.1750     2.2710    -0.1360 H     1 <1>   0.0800 
 26 H       -0.0790     1.7050    -1.8070 H     1 <1>   0.0800 
 27 H        2.3750     1.8830    -1.7510 H     1 <1>   0.0800 
 28 H        2.3320     2.3540    -0.0710 H     1 <1>   0.0800 
 29 H       -0.0700    -2.8400    -1.4740 H     1 <1>   0.1500 
 30 H       -1.8020    -1.5400     2.2010 H     1 <1>   0.1500 
 31 H        0.0010    -5.1400    -0.6230 H     1 <1>   0.1500 
 32 H       -1.7260    -3.8380     3.0470 H     1 <1>   0.1500 
 33 H        2.5670     4.6190     0.2740 H     1 <1>   0.3700 
 34 H       -0.8280    -5.6440     1.6380 H     1 <1>   0.1500 
 35 H        2.0610     6.3940    -1.9700 H     1 <1>   0.0800 
 36 H        0.8680     6.7600     0.7920 H     1 <1>   0.0800 
 37 H       -0.0320     6.4650    -0.6880 H     1 <1>   0.0800 
 38 H        0.8550     7.9540    -0.4810 H     1 <1>   0.0800 
 39 H        3.7800     7.9820    -2.1280 H     1 <1>   0.1500 
 40 H        5.8710     8.9720    -1.2430 H     1 <1>   0.1500 
 41 H        6.5550     8.3370     1.0510 H     1 <1>   0.1500 
 42 H        4.4830     6.9160     3.4350 H     1 <1>   0.0800 
 43 H        6.1740     7.1410     3.0520 H     1 <1>   0.0800 
 44 H        5.4160     5.5870     2.7900 H     1 <1>   0.0800 
@<TRIPOS>BOND
  1   1   2  1   
  2   1   3  1   
  3   2   4  1   
  4   2  23  1   
  5   2  24  1   
  6   3   5  1   
  7   3  25  1   
  8   3  26  1   
  9   4   6  ar  
 10   4   7  ar  
 11   5   8  1   
 12   5  27  1   
 13   5  28  1   
 14   6   9  ar  
 15   6  29  1   
 16   7  10  ar  
 17   7  30  1   
 18   8  11  2   
 19   8  12  am  
 20   9  13  ar  
 21   9  31  1   
 22  10  13  ar  
 23  10  32  1   
 24  12  14  1   
 25  12  33  1   
 26  13  34  1   
 27  14  15  1   
 28  14  16  1   
 29  14  35  1   
 30  15  17  ar  
 31  15  18  ar  
 32  16  36  1   
 33  16  37  1   
 34  16  38  1   
 35  17  19  ar  
 36  18  20  ar  
 37  18  39  1   
 38  19  21  ar  
 39  19  22  1   
 40  20  21  ar  
 41  20  40  1   
 42  21  41  1   
 43  22  42  1   
 44  22  43  1   
 45  22  44  1   
@<TRIPOS>SUBSTRUCTURE
  1 ****   5 GROUP 4 **** **** 0

# MOE 2024.06 (io_trps.svl 2023.06)
