@<TRIPOS>MOLECULE
NONAME
40 42 1 0 0 
SMALL
USER_CHARGES


@<TRIPOS>ATOM
  1 CL       0.1280    -2.0220     3.3580 Cl    1 <1>  -0.1770 
  2 C        0.6090    -2.9390     1.9550 C.ar  1 <1>   0.1770 
  3 C       -0.3600    -3.6000     1.2210 C.ar  1 <1>  -0.1500 
  4 C        1.9450    -2.9900     1.6010 C.ar  1 <1>  -0.1500 
  5 C        0.0150    -4.3370     0.1060 C.ar  1 <1>  -0.1440 
  6 C        2.3200    -3.7260     0.4910 C.ar  1 <1>  -0.1500 
  7 C        1.3570    -4.4030    -0.2410 C.ar  1 <1>   0.0830 
  8 C       -1.0070    -5.0520    -0.7470 C.3   1 <1>   0.4870 
  9 O        1.7370    -5.1320    -1.3080 O.3   1 <1>  -0.3630 
 10 N       -0.8270    -6.5180    -0.5570 N.4   1 <1>  -0.9590 
 11 C        1.6660    -6.5360    -1.1730 C.3   1 <1>   0.1200 
 12 C        0.2480    -7.0600    -1.4690 C.3   1 <1>   0.3430 
 13 C       -2.1260    -7.2290    -0.7150 C.3   1 <1>   0.3430 
 14 C       -2.0350    -8.6370    -0.1290 C.3   1 <1>  -0.1600 
 15 C       -3.4000    -9.3370    -0.1510 C.3   1 <1>   0.0960 
 16 N       -3.2560   -10.6950     0.4000 N.pl3 1 <1>   0.0480 
 17 C       -2.9760   -11.8230    -0.3040 C.2   1 <1>  -0.3020 
 18 C       -3.3170   -11.0430     1.7120 C.2   1 <1>  -0.3020 
 19 C       -2.8640   -12.8730     0.5510 C.2   1 <1>  -0.1500 
 20 C       -3.0820   -12.3750     1.8390 C.2   1 <1>  -0.1500 
 21 H       -1.3870    -3.5170     1.5320 H     1 <1>   0.1500 
 22 H        2.6750    -2.4590     2.1870 H     1 <1>   0.1500 
 23 H        3.3540    -3.7760     0.1930 H     1 <1>   0.1500 
 24 H       -0.8750    -4.7840    -1.7830 H     1 <1>   0.0800 
 25 H       -1.9930    -4.7500    -0.4360 H     1 <1>   0.0800 
 26 H       -0.5060    -6.6260     0.4160 H     1 <1>   0.4500 
 27 H        1.9880    -6.8100    -0.1830 H     1 <1>   0.0800 
 28 H        2.3590    -6.9560    -1.8810 H     1 <1>   0.0800 
 29 H        0.0060    -6.8300    -2.4940 H     1 <1>   0.0800 
 30 H        0.2790    -8.1330    -1.3820 H     1 <1>   0.0800 
 31 H       -2.4000    -7.2770    -1.7570 H     1 <1>   0.0800 
 32 H       -2.8970    -6.6880    -0.1890 H     1 <1>   0.0800 
 33 H       -1.6980    -8.5830     0.8920 H     1 <1>   0.0800 
 34 H       -1.3450    -9.2330    -0.6990 H     1 <1>   0.0800 
 35 H       -3.7770    -9.4170    -1.1550 H     1 <1>   0.0800 
 36 H       -4.1170    -8.8030     0.4470 H     1 <1>   0.0800 
 37 H       -2.8720   -11.8330    -1.3740 H     1 <1>   0.1500 
 38 H       -3.5270   -10.3350     2.4940 H     1 <1>   0.1500 
 39 H       -2.6510   -13.9020     0.3140 H     1 <1>   0.1500 
 40 H       -3.0620   -12.9620     2.7410 H     1 <1>   0.1500 
@<TRIPOS>BOND
  1   1   2  1   
  2   2   3  ar  
  3   2   4  ar  
  4   3   5  ar  
  5   3  21  1   
  6   4   6  ar  
  7   4  22  1   
  8   5   7  ar  
  9   5   8  1   
 10   6   7  ar  
 11   6  23  1   
 12   7   9  1   
 13   8  10  1   
 14   8  24  1   
 15   8  25  1   
 16   9  11  1   
 17  10  12  1   
 18  10  13  1   
 19  10  26  1   
 20  11  12  1   
 21  11  27  1   
 22  11  28  1   
 23  12  29  1   
 24  12  30  1   
 25  13  14  1   
 26  13  31  1   
 27  13  32  1   
 28  14  15  1   
 29  14  33  1   
 30  14  34  1   
 31  15  16  1   
 32  15  35  1   
 33  15  36  1   
 34  16  17  1   
 35  16  18  1   
 36  17  19  2   
 37  17  37  1   
 38  18  20  2   
 39  18  38  1   
 40  19  20  1   
 41  19  39  1   
 42  20  40  1   
@<TRIPOS>SUBSTRUCTURE
  1 ****  10 GROUP 4 **** **** 0

# MOE 2024.06 (io_trps.svl 2023.06)
