@<TRIPOS>MOLECULE
NONAME
38 40 1 0 0 
SMALL
USER_CHARGES


@<TRIPOS>ATOM
  1 O        0.1170    -1.1640     2.5140 O.co2 1 <1>  -0.9000 
  2 C       -0.2560    -1.4990     1.3770 C.2   1 <1>   1.0330 
  3 O       -1.3250    -1.0290     0.9440 O.co2 1 <1>  -0.9000 
  4 C        0.5760    -2.3070     0.5440 C.2   1 <1>  -0.2330 
  5 C        0.3600    -3.6410     0.1860 C.2   1 <1>   0.3720 
  6 C        1.7510    -1.9900    -0.0620 C.2   1 <1>   0.0870 
  7 N        1.3230    -4.0750    -0.5540 N.2   1 <1>  -0.4100 
  8 N       -0.7270    -4.4420     0.5720 N.pl3 1 <1>  -0.8210 
  9 O        2.1450    -3.0710    -0.6940 O.3   1 <1>  -0.0190 
 10 C        2.5550    -0.7880    -0.1290 C.ar  1 <1>   0.0530 
 11 C       -2.0820    -3.8580     0.3640 C.3   1 <1>   0.2090 
 12 C       -0.7460    -5.8620     0.1570 C.3   1 <1>   0.2090 
 13 C        3.8490    -0.8230    -0.6550 C.ar  1 <1>  -0.1500 
 14 C        2.0900     0.4530     0.3100 C.ar  1 <1>  -0.1500 
 15 C       -2.9610    -4.9770    -0.2230 C.3   1 <1>   0.0000 
 16 C       -2.2170    -6.2530     0.1740 C.3   1 <1>  -0.1600 
 17 C        4.6350     0.3120    -0.7410 C.ar  1 <1>  -0.1500 
 18 C        2.8690     1.5930     0.2300 C.ar  1 <1>  -0.1500 
 19 C       -3.0260    -4.8540    -1.7560 C.3   1 <1>  -0.2400 
 20 C       -4.3850    -4.9560     0.3520 C.3   1 <1>  -0.2400 
 21 C        4.1450     1.5270    -0.2980 C.ar  1 <1>  -0.1500 
 22 H       -2.0440    -3.0130    -0.3020 H     1 <1>   0.0800 
 23 H       -2.4590    -3.5250     1.3160 H     1 <1>   0.0800 
 24 H       -0.1660    -6.4590     0.8390 H     1 <1>   0.0800 
 25 H       -0.3500    -5.9620    -0.8390 H     1 <1>   0.0800 
 26 H        4.2490    -1.7590    -1.0020 H     1 <1>   0.1500 
 27 H        1.1020     0.5380     0.7260 H     1 <1>   0.1500 
 28 H       -2.4730    -6.5360     1.1800 H     1 <1>   0.0800 
 29 H       -2.4180    -7.0810    -0.4810 H     1 <1>   0.0800 
 30 H        5.6270     0.2500    -1.1510 H     1 <1>   0.1500 
 31 H        2.4750     2.5300     0.5830 H     1 <1>   0.1500 
 32 H       -2.0360    -4.8390    -2.1780 H     1 <1>   0.0800 
 33 H       -3.5190    -3.9390    -2.0340 H     1 <1>   0.0800 
 34 H       -3.5700    -5.6780    -2.1820 H     1 <1>   0.0800 
 35 H       -4.3580    -5.0340     1.4250 H     1 <1>   0.0800 
 36 H       -4.9620    -5.7750    -0.0380 H     1 <1>   0.0800 
 37 H       -4.8750    -4.0330     0.0950 H     1 <1>   0.0800 
 38 H        4.7510     2.4130    -0.3600 H     1 <1>   0.1500 
@<TRIPOS>BOND
  1   1   2  ar  
  2   2   3  ar  
  3   2   4  1   
  4   4   5  1   
  5   4   6  2   
  6   5   7  2   
  7   5   8  1   
  8   6   9  1   
  9   6  10  1   
 10   7   9  1   
 11   8  11  1   
 12   8  12  1   
 13  10  13  ar  
 14  10  14  ar  
 15  11  15  1   
 16  11  22  1   
 17  11  23  1   
 18  12  16  1   
 19  12  24  1   
 20  12  25  1   
 21  13  17  ar  
 22  13  26  1   
 23  14  18  ar  
 24  14  27  1   
 25  15  16  1   
 26  15  19  1   
 27  15  20  1   
 28  16  28  1   
 29  16  29  1   
 30  17  21  ar  
 31  17  30  1   
 32  18  21  ar  
 33  18  31  1   
 34  19  32  1   
 35  19  33  1   
 36  19  34  1   
 37  20  35  1   
 38  20  36  1   
 39  20  37  1   
 40  21  38  1   
@<TRIPOS>SUBSTRUCTURE
  1 ****   4 GROUP 4 **** **** 0

# MOE 2024.06 (io_trps.svl 2023.06)
