@<TRIPOS>MOLECULE
NONAME
58 61 1 0 0 
SMALL
USER_CHARGES


@<TRIPOS>ATOM
  1 O       -0.7920     0.3280     1.9480 O.2   1 <1>  -0.5700 
  2 C       -1.5540     0.9520     1.2470 C.2   1 <1>   0.5690 
  3 N       -2.5650     0.3190     0.5710 N.am  1 <1>  -0.6600 
  4 C       -1.3710     2.4650     1.1640 C.3   1 <1>   0.1810 
  5 C       -3.4990     0.9470    -0.3960 C.3   1 <1>   0.1400 
  6 C       -2.7230    -1.1550     0.5600 C.3   1 <1>   0.1400 
  7 O       -1.2460     2.9020    -0.1810 O.3   1 <1>  -0.3620 
  8 C       -4.5260    -0.1430    -0.6930 C.3   1 <1>   0.2000 
  9 C       -3.7180    -1.4420    -0.5750 C.3   1 <1>  -0.0800 
 10 C       -0.8430     4.1820    -0.3400 C.ar  1 <1>   0.0820 
 11 O       -5.4940    -0.1010     0.3010 O.3   1 <1>  -0.6800 
 12 C       -4.5690    -2.7120    -0.3630 C.3   1 <1>  -0.0170 
 13 C        0.5170     4.4960    -0.3160 C.ar  1 <1>  -0.1440 
 14 C       -1.8070     5.1690    -0.5280 C.ar  1 <1>  -0.1440 
 15 C       -3.8240    -4.0520    -0.3860 C.ar  1 <1>  -0.1440 
 16 C        0.9050     5.8270    -0.4360 C.ar  1 <1>  -0.1440 
 17 C        1.5680     3.3940    -0.1650 C.3   1 <1>  -0.0970 
 18 C       -1.4020     6.4840    -0.6550 C.ar  1 <1>  -0.1500 
 19 C       -3.2890     4.8290    -0.6010 C.3   1 <1>  -0.0970 
 20 C       -4.5020    -5.2380    -0.0050 C.ar  1 <1>   0.0000 
 21 C       -2.5180    -4.1860    -0.7710 C.ar  1 <1>  -0.1500 
 22 C       -0.0590     6.8090    -0.6040 C.ar  1 <1>  -0.1500 
 23 C        2.3680     6.2490    -0.3900 C.3   1 <1>  -0.0970 
 24 C       -3.7780    -6.4550    -0.0240 C.ar  1 <1>   0.3100 
 25 C       -5.8610    -5.2880     0.3880 C.ar  1 <1>  -0.1500 
 26 C       -1.8970    -5.4400    -0.7570 C.ar  1 <1>   0.1600 
 27 N       -2.4790    -6.5390    -0.4010 N.ar  1 <1>  -0.6200 
 28 C       -4.4260    -7.6410     0.3590 C.ar  1 <1>  -0.1500 
 29 C       -6.4640    -6.4620     0.7530 C.ar  1 <1>  -0.1500 
 30 C       -5.7390    -7.6550     0.7410 C.ar  1 <1>  -0.1500 
 31 H       -0.4810     2.7450     1.6970 H     1 <1>   0.0800 
 32 H       -2.2140     2.9610     1.6040 H     1 <1>   0.0800 
 33 H       -3.9600     1.8330     0.0040 H     1 <1>   0.0800 
 34 H       -2.9580     1.1950    -1.2940 H     1 <1>   0.0800 
 35 H       -1.7730    -1.6350     0.3970 H     1 <1>   0.0800 
 36 H       -3.1190    -1.4720     1.5100 H     1 <1>   0.0800 
 37 H       -5.0090    -0.0220    -1.6470 H     1 <1>   0.0800 
 38 H       -3.1630    -1.5430    -1.4900 H     1 <1>   0.0800 
 39 H       -5.0470    -0.0680     1.1710 H     1 <1>   0.4000 
 40 H       -5.3300    -2.7410    -1.1240 H     1 <1>   0.0800 
 41 H       -5.0670    -2.6230     0.5860 H     1 <1>   0.0800 
 42 H        2.4010     3.5730    -0.8180 H     1 <1>   0.0800 
 43 H        1.1690     2.4300    -0.4210 H     1 <1>   0.0800 
 44 H        1.9190     3.3620     0.8500 H     1 <1>   0.0800 
 45 H       -2.1260     7.2670    -0.7960 H     1 <1>   0.1500 
 46 H       -3.8620     5.6800    -0.9230 H     1 <1>   0.0800 
 47 H       -3.6440     4.5230     0.3660 H     1 <1>   0.0800 
 48 H       -3.4460     4.0310    -1.3040 H     1 <1>   0.0800 
 49 H       -1.9170    -3.3600    -1.0960 H     1 <1>   0.1500 
 50 H        0.2310     7.8400    -0.7020 H     1 <1>   0.1500 
 51 H        2.4590     7.3180    -0.3220 H     1 <1>   0.0800 
 52 H        2.8700     5.9230    -1.2830 H     1 <1>   0.0800 
 53 H        2.8530     5.8180     0.4660 H     1 <1>   0.0800 
 54 H       -6.4450    -4.3880     0.4000 H     1 <1>   0.1500 
 55 H       -0.8660    -5.4930    -1.0640 H     1 <1>   0.1500 
 56 H       -3.8480    -8.5470     0.3390 H     1 <1>   0.1500 
 57 H       -7.4980    -6.4820     1.0510 H     1 <1>   0.1500 
 58 H       -6.2220    -8.5720     1.0320 H     1 <1>   0.1500 
@<TRIPOS>BOND
  1   1   2  2   
  2   2   3  am  
  3   2   4  1   
  4   3   5  1   
  5   3   6  1   
  6   4   7  1   
  7   4  31  1   
  8   4  32  1   
  9   5   8  1   
 10   5  33  1   
 11   5  34  1   
 12   6   9  1   
 13   6  35  1   
 14   6  36  1   
 15   7  10  1   
 16   8   9  1   
 17   8  11  1   
 18   8  37  1   
 19   9  12  1   
 20   9  38  1   
 21  10  13  ar  
 22  10  14  ar  
 23  11  39  1   
 24  12  15  1   
 25  12  40  1   
 26  12  41  1   
 27  13  16  ar  
 28  13  17  1   
 29  14  18  ar  
 30  14  19  1   
 31  15  20  ar  
 32  15  21  ar  
 33  16  22  ar  
 34  16  23  1   
 35  17  42  1   
 36  17  43  1   
 37  17  44  1   
 38  18  22  ar  
 39  18  45  1   
 40  19  46  1   
 41  19  47  1   
 42  19  48  1   
 43  20  24  ar  
 44  20  25  ar  
 45  21  26  ar  
 46  21  49  1   
 47  22  50  1   
 48  23  51  1   
 49  23  52  1   
 50  23  53  1   
 51  24  27  ar  
 52  24  28  ar  
 53  25  29  ar  
 54  25  54  1   
 55  26  27  ar  
 56  26  55  1   
 57  28  30  ar  
 58  28  56  1   
 59  29  30  ar  
 60  29  57  1   
 61  30  58  1   
@<TRIPOS>SUBSTRUCTURE
  1 ****   3 GROUP 4 **** **** 0

# MOE 2024.06 (io_trps.svl 2023.06)
