@<TRIPOS>MOLECULE
NONAME
49 51 1 0 0 
SMALL
USER_CHARGES


@<TRIPOS>ATOM
  1 S       -2.3330    -0.5750     0.0550 S.3   1 <1>  -0.0800 
  2 C       -1.0420    -1.6590     0.4630 C.2   1 <1>   0.4420 
  3 C       -1.1720     0.7050     0.1100 C.2   1 <1>   0.1980 
  4 N        0.0780    -1.0450     0.6010 N.2   1 <1>  -0.3380 
  5 N       -1.3630    -2.9900     0.5860 N.am  1 <1>  -0.4940 
  6 N       -0.0040     0.3020     0.3980 N.2   1 <1>  -0.3380 
  7 C       -1.6310     2.1170    -0.1740 C.3   1 <1>   0.0200 
  8 C       -0.5850    -4.0730     0.8690 C.2   1 <1>   0.5690 
  9 C       -0.4210     3.0550    -0.0850 C.3   1 <1>   0.3430 
 10 O        0.6060    -4.0340     1.0460 O.2   1 <1>  -0.5700 
 11 C       -1.3170    -5.4110     0.9560 C.3   1 <1>   0.1710 
 12 N       -0.7530     4.4820    -0.4140 N.4   1 <1>  -0.9590 
 13 N       -2.6020    -5.4140     0.1900 N.3   1 <1>  -0.8100 
 14 C        0.5120     5.2650    -0.5720 C.3   1 <1>   0.2630 
 15 C       -1.6230     5.1230     0.6250 C.3   1 <1>   0.2630 
 16 C       -3.5210    -6.4470     0.7040 C.3   1 <1>   0.2530 
 17 C       -2.3320    -5.6170    -1.2550 C.3   1 <1>   0.1100 
 18 C       -4.9620    -6.0990     0.3730 C.ar  1 <1>  -0.1430 
 19 C       -3.5480    -5.3610    -2.1580 C.3   1 <1>   0.1200 
 20 C       -5.4090    -6.0960    -0.9430 C.ar  1 <1>   0.0820 
 21 C       -5.8640    -5.8100     1.3870 C.ar  1 <1>  -0.1500 
 22 O       -4.5580    -6.3290    -1.9620 O.3   1 <1>  -0.3620 
 23 C       -6.7390    -5.8460    -1.2380 C.ar  1 <1>  -0.1500 
 24 C       -7.1920    -5.5440     1.0930 C.ar  1 <1>  -0.1500 
 25 C       -7.6320    -5.5680    -0.2190 C.ar  1 <1>  -0.1500 
 26 H       -2.3350    -3.2590     0.4120 H     1 <1>   0.3700 
 27 H       -2.3760     2.3860     0.5510 H     1 <1>   0.0800 
 28 H       -2.0560     2.1500    -1.1610 H     1 <1>   0.0800 
 29 H        0.3300     2.6950    -0.7720 H     1 <1>   0.0800 
 30 H       -0.0010     2.9950     0.9070 H     1 <1>   0.0800 
 31 H       -1.5110    -5.5850     1.9990 H     1 <1>   0.0800 
 32 H       -0.6680    -6.1960     0.6060 H     1 <1>   0.0800 
 33 H       -1.2480     4.5040    -1.3210 H     1 <1>   0.4500 
 34 H        1.0700     5.2680     0.3500 H     1 <1>   0.0800 
 35 H        0.2920     6.2850    -0.8450 H     1 <1>   0.0800 
 36 H        1.1280     4.8310    -1.3440 H     1 <1>   0.0800 
 37 H       -1.1360     5.1020     1.5860 H     1 <1>   0.0800 
 38 H       -2.5650     4.6060     0.7030 H     1 <1>   0.0800 
 39 H       -1.8210     6.1510     0.3630 H     1 <1>   0.0800 
 40 H       -3.4310    -6.5200     1.7740 H     1 <1>   0.0800 
 41 H       -3.2750    -7.4110     0.2890 H     1 <1>   0.0800 
 42 H       -1.9660    -6.6150    -1.4320 H     1 <1>   0.0800 
 43 H       -1.5590    -4.9340    -1.5650 H     1 <1>   0.0800 
 44 H       -3.2500    -5.4270    -3.1890 H     1 <1>   0.0800 
 45 H       -3.9610    -4.3840    -1.9800 H     1 <1>   0.0800 
 46 H       -5.5420    -5.7960     2.4130 H     1 <1>   0.1500 
 47 H       -7.0640    -5.8670    -2.2620 H     1 <1>   0.1500 
 48 H       -7.8850    -5.3230     1.8860 H     1 <1>   0.1500 
 49 H       -8.6650    -5.3690    -0.4470 H     1 <1>   0.1500 
@<TRIPOS>BOND
  1   1   2  1   
  2   1   3  1   
  3   2   4  2   
  4   2   5  1   
  5   3   6  2   
  6   3   7  1   
  7   4   6  1   
  8   5   8  am  
  9   5  26  1   
 10   7   9  1   
 11   7  27  1   
 12   7  28  1   
 13   8  10  2   
 14   8  11  1   
 15   9  12  1   
 16   9  29  1   
 17   9  30  1   
 18  11  13  1   
 19  11  31  1   
 20  11  32  1   
 21  12  14  1   
 22  12  15  1   
 23  12  33  1   
 24  13  16  1   
 25  13  17  1   
 26  14  34  1   
 27  14  35  1   
 28  14  36  1   
 29  15  37  1   
 30  15  38  1   
 31  15  39  1   
 32  16  18  1   
 33  16  40  1   
 34  16  41  1   
 35  17  19  1   
 36  17  42  1   
 37  17  43  1   
 38  18  20  ar  
 39  18  21  ar  
 40  19  22  1   
 41  19  44  1   
 42  19  45  1   
 43  20  22  1   
 44  20  23  ar  
 45  21  24  ar  
 46  21  46  1   
 47  23  25  ar  
 48  23  47  1   
 49  24  25  ar  
 50  24  48  1   
 51  25  49  1   
@<TRIPOS>SUBSTRUCTURE
  1 ****   5 GROUP 4 **** **** 0

# MOE 2024.06 (io_trps.svl 2023.06)
