@<TRIPOS>MOLECULE
NONAME
47 50 1 0 0 
SMALL
USER_CHARGES


@<TRIPOS>ATOM
  1 O        0.7970    -0.3830     1.8000 O.3   1 <1>  -0.0190 
  2 N        1.0650     0.8370     1.4420 N.2   1 <1>  -0.4100 
  3 C        1.1490    -1.1020     0.7630 C.2   1 <1>   0.2980 
  4 C        1.5400     0.7840     0.2620 C.2   1 <1>   0.3350 
  5 N        1.6160    -0.4460    -0.2260 N.2   1 <1>  -0.5650 
  6 C        0.9790    -2.6160     0.8290 C.3   1 <1>   0.2900 
  7 C        1.9870     1.9870    -0.5490 C.3   1 <1>   0.0210 
  8 N       -0.4400    -3.0420     0.8750 N.3   1 <1>  -0.8100 
  9 C        3.5130     2.0410    -0.7060 C.3   1 <1>  -0.2400 
 10 C       -1.2050    -2.5900    -0.2940 C.3   1 <1>   0.1100 
 11 C       -0.5880    -4.5060     0.9230 C.3   1 <1>   0.1100 
 12 C       -2.4170    -3.5120    -0.3220 C.3   1 <1>   0.2000 
 13 C       -1.8310    -4.8630     0.0850 C.3   1 <1>  -0.0800 
 14 O       -3.2740    -3.1050     0.6810 O.3   1 <1>  -0.6800 
 15 C       -1.4730    -5.7030    -1.1560 C.3   1 <1>  -0.0170 
 16 C       -0.8780    -7.0500    -0.7780 C.ar  1 <1>   0.1670 
 17 N        0.4090    -7.1880    -0.8730 N.ar  1 <1>  -0.6200 
 18 C       -1.7400    -8.0710    -0.3450 C.ar  1 <1>  -0.1500 
 19 C        0.9430    -8.3890    -0.5330 C.ar  1 <1>   0.3100 
 20 C       -1.2310    -9.2840     0.0060 C.ar  1 <1>  -0.1500 
 21 C        0.1580    -9.4730    -0.0820 C.ar  1 <1>   0.0000 
 22 C        2.3330    -8.5660    -0.6300 C.ar  1 <1>  -0.1500 
 23 C        0.7930   -10.6850     0.2570 C.ar  1 <1>  -0.1500 
 24 C        2.9310    -9.7530    -0.2960 C.ar  1 <1>  -0.1500 
 25 C        2.1500   -10.8230     0.1530 C.ar  1 <1>  -0.1500 
 26 H        1.4810    -2.9750     1.7090 H     1 <1>   0.0800 
 27 H        1.4580    -3.0510    -0.0310 H     1 <1>   0.0800 
 28 H        1.5230     1.9400    -1.5170 H     1 <1>   0.0800 
 29 H        1.6460     2.8820    -0.0600 H     1 <1>   0.0800 
 30 H        3.8630     1.1580    -1.2120 H     1 <1>   0.0800 
 31 H        3.9810     2.0930     0.2600 H     1 <1>   0.0800 
 32 H        3.7970     2.9050    -1.2790 H     1 <1>   0.0800 
 33 H       -1.4910    -1.5540    -0.2080 H     1 <1>   0.0800 
 34 H       -0.6270    -2.7260    -1.1930 H     1 <1>   0.0800 
 35 H        0.2910    -4.9900     0.5310 H     1 <1>   0.0800 
 36 H       -0.7200    -4.8180     1.9460 H     1 <1>   0.0800 
 37 H       -2.9500    -3.5140    -1.2570 H     1 <1>   0.0800 
 38 H       -2.5370    -5.4170     0.6790 H     1 <1>   0.0800 
 39 H       -2.7090    -2.8880     1.4540 H     1 <1>   0.4000 
 40 H       -0.7700    -5.1690    -1.7710 H     1 <1>   0.0800 
 41 H       -2.3560    -5.8700    -1.7450 H     1 <1>   0.0800 
 42 H       -2.7960    -7.8800    -0.2940 H     1 <1>   0.1500 
 43 H       -1.8590   -10.0890     0.3430 H     1 <1>   0.1500 
 44 H        2.9150    -7.7330    -0.9780 H     1 <1>   0.1500 
 45 H        0.1870   -11.5040     0.6010 H     1 <1>   0.1500 
 46 H        3.9970    -9.8750    -0.3740 H     1 <1>   0.1500 
 47 H        2.6330   -11.7500     0.4120 H     1 <1>   0.1500 
@<TRIPOS>BOND
  1   1   2  1   
  2   1   3  1   
  3   2   4  2   
  4   3   5  2   
  5   3   6  1   
  6   4   5  1   
  7   4   7  1   
  8   6   8  1   
  9   6  26  1   
 10   6  27  1   
 11   7   9  1   
 12   7  28  1   
 13   7  29  1   
 14   8  10  1   
 15   8  11  1   
 16   9  30  1   
 17   9  31  1   
 18   9  32  1   
 19  10  12  1   
 20  10  33  1   
 21  10  34  1   
 22  11  13  1   
 23  11  35  1   
 24  11  36  1   
 25  12  13  1   
 26  12  14  1   
 27  12  37  1   
 28  13  15  1   
 29  13  38  1   
 30  14  39  1   
 31  15  16  1   
 32  15  40  1   
 33  15  41  1   
 34  16  17  ar  
 35  16  18  ar  
 36  17  19  ar  
 37  18  20  ar  
 38  18  42  1   
 39  19  21  ar  
 40  19  22  ar  
 41  20  21  ar  
 42  20  43  1   
 43  21  23  ar  
 44  22  24  ar  
 45  22  44  1   
 46  23  25  ar  
 47  23  45  1   
 48  24  25  ar  
 49  24  46  1   
 50  25  47  1   
@<TRIPOS>SUBSTRUCTURE
  1 ****  11 GROUP 4 **** **** 0

# MOE 2024.06 (io_trps.svl 2023.06)
