@<TRIPOS>MOLECULE
NONAME
54 55 1 0 0 
SMALL
USER_CHARGES


@<TRIPOS>ATOM
  1 S       -0.2850    -0.2680     0.7410 S.o2  1 <1>   1.3330 
  2 O       -0.8930    -0.2500     2.0480 O.2   1 <1>  -0.6500 
  3 O       -1.0870    -0.0400    -0.4360 O.2   1 <1>  -0.6500 
  4 N        0.4440    -1.8270     0.5660 N.am  1 <1>  -0.6930 
  5 C        1.1230     0.8210     0.7600 C.3   1 <1>  -0.1350 
  6 C        1.3660    -2.1450    -0.4330 C.ar  1 <1>   0.1990 
  7 C       -0.1550    -2.9250     1.4000 C.3   1 <1>   0.2570 
  8 C        1.1720    -1.7730    -1.7600 C.ar  1 <1>  -0.1500 
  9 C        2.5190    -2.8600    -0.1080 C.ar  1 <1>  -0.1500 
 10 C       -0.2920    -4.2740     0.6830 C.2   1 <1>   0.5690 
 11 C        2.1230    -2.1120    -2.7000 C.ar  1 <1>   0.1900 
 12 C        3.4630    -3.1930    -1.0660 C.ar  1 <1>  -0.1500 
 13 O        0.4190    -5.1730     1.0730 O.2   1 <1>  -0.5700 
 14 N       -1.1840    -4.4590    -0.3510 N.am  1 <1>  -0.6600 
 15 F        1.9310    -1.7580    -3.9420 F     1 <1>  -0.1900 
 16 C        3.2700    -2.8140    -2.3830 C.ar  1 <1>  -0.1500 
 17 C       -1.2490    -5.7580    -1.0860 C.3   1 <1>   0.1400 
 18 C       -2.0540    -3.3950    -0.9230 C.3   1 <1>   0.1400 
 19 C       -2.6810    -6.3420    -1.1760 C.3   1 <1>   0.0000 
 20 C       -3.5050    -3.8650    -0.9140 C.3   1 <1>  -0.1600 
 21 C       -3.6540    -5.2140    -1.6270 C.3   1 <1>   0.2000 
 22 C       -2.6860    -7.3920    -2.3170 C.3   1 <1>   0.1200 
 23 C       -3.0820    -7.0840     0.1430 C.3   1 <1>  -0.1600 
 24 O       -4.9660    -5.6280    -1.4960 O.3   1 <1>  -0.6800 
 25 O       -1.8030    -8.4400    -2.0730 O.3   1 <1>  -0.6800 
 26 C       -3.3840    -6.2560     1.4040 C.3   1 <1>  -0.1600 
 27 C       -3.5790    -7.1680     2.6180 C.3   1 <1>  -0.2400 
 28 H        1.7830     0.5580     1.5630 H     1 <1>   0.0800 
 29 H        0.8010     1.8340     0.8980 H     1 <1>   0.0800 
 30 H        1.6590     0.7550    -0.1660 H     1 <1>   0.0800 
 31 H        0.4550    -3.0610     2.2740 H     1 <1>   0.0800 
 32 H       -1.1360    -2.6430     1.7360 H     1 <1>   0.0800 
 33 H        0.2960    -1.2380    -2.0700 H     1 <1>   0.1500 
 34 H        2.6760    -3.1640     0.9120 H     1 <1>   0.1500 
 35 H        4.3440    -3.7470    -0.7860 H     1 <1>   0.1500 
 36 H        3.9860    -3.0580    -3.1470 H     1 <1>   0.1500 
 37 H       -0.8720    -5.5830    -2.0790 H     1 <1>   0.0800 
 38 H       -0.6000    -6.4810    -0.6230 H     1 <1>   0.0800 
 39 H       -1.9820    -2.4810    -0.3640 H     1 <1>   0.0800 
 40 H       -1.7390    -3.1890    -1.9320 H     1 <1>   0.0800 
 41 H       -4.1030    -3.1330    -1.4260 H     1 <1>   0.0800 
 42 H       -3.8450    -3.9070     0.1000 H     1 <1>   0.0800 
 43 H       -3.4980    -5.0290    -2.6770 H     1 <1>   0.0800 
 44 H       -2.4110    -6.9450    -3.2570 H     1 <1>   0.0800 
 45 H       -3.6690    -7.8200    -2.4250 H     1 <1>   0.0800 
 46 H       -3.9440    -7.6970    -0.0580 H     1 <1>   0.0800 
 47 H       -2.2870    -7.7660     0.3910 H     1 <1>   0.0800 
 48 H       -5.1250    -5.9080    -0.5740 H     1 <1>   0.4000 
 49 H       -0.8800    -8.1270    -2.0110 H     1 <1>   0.4000 
 50 H       -2.5750    -5.5820     1.6130 H     1 <1>   0.0800 
 51 H       -4.2840    -5.6860     1.2700 H     1 <1>   0.0800 
 52 H       -2.6830    -7.7320     2.8110 H     1 <1>   0.0800 
 53 H       -4.3910    -7.8550     2.4500 H     1 <1>   0.0800 
 54 H       -3.8040    -6.5790     3.4890 H     1 <1>   0.0800 
@<TRIPOS>BOND
  1   1   2  2   
  2   1   3  2   
  3   1   4  am  
  4   1   5  1   
  5   4   6  1   
  6   4   7  1   
  7   5  28  1   
  8   5  29  1   
  9   5  30  1   
 10   6   8  ar  
 11   6   9  ar  
 12   7  10  1   
 13   7  31  1   
 14   7  32  1   
 15   8  11  ar  
 16   8  33  1   
 17   9  12  ar  
 18   9  34  1   
 19  10  13  2   
 20  10  14  am  
 21  11  15  1   
 22  11  16  ar  
 23  12  16  ar  
 24  12  35  1   
 25  14  17  1   
 26  14  18  1   
 27  16  36  1   
 28  17  19  1   
 29  17  37  1   
 30  17  38  1   
 31  18  20  1   
 32  18  39  1   
 33  18  40  1   
 34  19  21  1   
 35  19  22  1   
 36  19  23  1   
 37  20  21  1   
 38  20  41  1   
 39  20  42  1   
 40  21  24  1   
 41  21  43  1   
 42  22  25  1   
 43  22  44  1   
 44  22  45  1   
 45  23  26  1   
 46  23  46  1   
 47  23  47  1   
 48  24  48  1   
 49  25  49  1   
 50  26  27  1   
 51  26  50  1   
 52  26  51  1   
 53  27  52  1   
 54  27  53  1   
 55  27  54  1   
@<TRIPOS>SUBSTRUCTURE
  1 ****  14 GROUP 4 **** **** 0

# MOE 2024.06 (io_trps.svl 2023.06)
