@<TRIPOS>MOLECULE
NONAME
52 54 1 0 0 
SMALL
USER_CHARGES


@<TRIPOS>ATOM
  1 O       -2.6480     1.2670    -2.7000 O.2   1 <1>  -0.5700 
  2 C       -2.2150     1.3880    -1.5780 C.2   1 <1>   0.5690 
  3 N       -2.1130     0.3260    -0.7380 N.am  1 <1>  -0.7300 
  4 C       -1.7730     2.7650    -1.1010 C.3   1 <1>   0.1810 
  5 C       -2.5050    -1.0660    -1.0480 C.3   1 <1>   0.2200 
  6 O       -1.5310     2.7670     0.2990 O.3   1 <1>  -0.3630 
  7 C       -3.6940    -1.4530    -0.1850 C.3   1 <1>  -0.0800 
  8 C       -1.4250    -2.0310    -0.5620 C.3   1 <1>   0.1200 
  9 C       -1.0260     3.9160     0.7970 C.ar  1 <1>   0.0820 
 10 C       -3.0050    -1.8780     1.1130 C.3   1 <1>   0.1200 
 11 C       -4.5020    -2.6000    -0.8190 C.3   1 <1>  -0.0160 
 12 O       -1.7500    -2.3750     0.7550 O.3   1 <1>  -0.5600 
 13 C        0.3550     4.1180     0.8220 C.ar  1 <1>  -0.1440 
 14 C       -1.9040     4.8810     1.2810 C.ar  1 <1>  -0.1440 
 15 C       -5.7000    -2.9790     0.0390 C.ar  1 <1>  -0.1440 
 16 C        0.8520     5.3280     1.2990 C.ar  1 <1>  -0.1440 
 17 C        1.3120     3.0280     0.3360 C.3   1 <1>  -0.0970 
 18 C       -1.3920     6.0730     1.7590 C.ar  1 <1>  -0.1500 
 19 C       -3.4100     4.6540     1.2980 C.3   1 <1>  -0.0970 
 20 C       -6.8390    -2.2020     0.0790 C.ar  1 <1>  -0.1500 
 21 C       -5.7110    -4.1160     0.8210 C.ar  1 <1>  -0.1500 
 22 C       -0.0270     6.2940     1.7620 C.ar  1 <1>  -0.1500 
 23 C        2.3440     5.6320     1.3320 C.3   1 <1>  -0.0970 
 24 C       -7.9030    -2.5860     0.8790 C.ar  1 <1>   0.1600 
 25 C       -6.8270    -4.4100     1.5870 C.ar  1 <1>   0.1600 
 26 N       -7.9230    -3.6710     1.6360 N.ar  1 <1>  -0.6200 
 27 H       -1.7610     0.4930     0.2100 H     1 <1>   0.3700 
 28 H       -2.5380     3.4860    -1.3150 H     1 <1>   0.0800 
 29 H       -0.8670     3.0450    -1.6060 H     1 <1>   0.0800 
 30 H       -2.6950    -1.1720    -2.1030 H     1 <1>   0.0800 
 31 H       -4.3480    -0.6140    -0.0210 H     1 <1>   0.0800 
 32 H       -0.4420    -1.5970    -0.5890 H     1 <1>   0.0800 
 33 H       -1.4390    -2.9360    -1.1430 H     1 <1>   0.0800 
 34 H       -3.5430    -2.6350     1.6570 H     1 <1>   0.0800 
 35 H       -2.8460    -1.0270     1.7530 H     1 <1>   0.0800 
 36 H       -3.8750    -3.4640    -0.9630 H     1 <1>   0.0800 
 37 H       -4.8570    -2.2940    -1.7880 H     1 <1>   0.0800 
 38 H        2.1550     2.9450     0.9960 H     1 <1>   0.0800 
 39 H        1.6630     3.2660    -0.6510 H     1 <1>   0.0800 
 40 H        0.8360     2.0660     0.3100 H     1 <1>   0.0800 
 41 H       -2.0500     6.8370     2.1320 H     1 <1>   0.1500 
 42 H       -3.8900     5.3340     1.9780 H     1 <1>   0.0800 
 43 H       -3.6310     3.6500     1.6160 H     1 <1>   0.0800 
 44 H       -3.8150     4.8060     0.3150 H     1 <1>   0.0800 
 45 H       -6.9110    -1.3020    -0.5050 H     1 <1>   0.1500 
 46 H       -4.8620    -4.7760     0.8440 H     1 <1>   0.1500 
 47 H        0.3460     7.2310     2.1360 H     1 <1>   0.1500 
 48 H        2.5220     6.6660     1.5680 H     1 <1>   0.0800 
 49 H        2.7870     5.4290     0.3740 H     1 <1>   0.0800 
 50 H        2.8240     5.0270     2.0790 H     1 <1>   0.0800 
 51 H       -8.7830    -1.9670     0.8970 H     1 <1>   0.1500 
 52 H       -6.8170    -5.3010     2.1910 H     1 <1>   0.1500 
@<TRIPOS>BOND
  1   1   2  2   
  2   2   3  am  
  3   2   4  1   
  4   3   5  1   
  5   3  27  1   
  6   4   6  1   
  7   4  28  1   
  8   4  29  1   
  9   5   7  1   
 10   5   8  1   
 11   5  30  1   
 12   6   9  1   
 13   7  10  1   
 14   7  11  1   
 15   7  31  1   
 16   8  12  1   
 17   8  32  1   
 18   8  33  1   
 19   9  13  ar  
 20   9  14  ar  
 21  10  12  1   
 22  10  34  1   
 23  10  35  1   
 24  11  15  1   
 25  11  36  1   
 26  11  37  1   
 27  13  16  ar  
 28  13  17  1   
 29  14  18  ar  
 30  14  19  1   
 31  15  20  ar  
 32  15  21  ar  
 33  16  22  ar  
 34  16  23  1   
 35  17  38  1   
 36  17  39  1   
 37  17  40  1   
 38  18  22  ar  
 39  18  41  1   
 40  19  42  1   
 41  19  43  1   
 42  19  44  1   
 43  20  24  ar  
 44  20  45  1   
 45  21  25  ar  
 46  21  46  1   
 47  22  47  1   
 48  23  48  1   
 49  23  49  1   
 50  23  50  1   
 51  24  26  ar  
 52  24  51  1   
 53  25  26  ar  
 54  25  52  1   
@<TRIPOS>SUBSTRUCTURE
  1 ****   3 GROUP 4 **** **** 0

# MOE 2024.06 (io_trps.svl 2023.06)
