@<TRIPOS>MOLECULE
NONAME
40 41 1 0 0 
SMALL
USER_CHARGES


@<TRIPOS>ATOM
  1 S       -0.2060     1.3160    -2.5760 S.3   1 <1>  -0.3320 
  2 C       -1.2710     0.5470    -1.3400 C.ar  1 <1>   0.1020 
  3 C        0.5920     2.7450    -1.7220 C.3   1 <1>   0.0700 
  4 C       -1.7410     1.2450    -0.2360 C.ar  1 <1>  -0.1500 
  5 C       -1.6000    -0.7820    -1.5310 C.ar  1 <1>  -0.1500 
  6 C        1.4910     2.1610    -0.6250 C.3   1 <1>   0.3430 
  7 C       -2.5300     0.5890     0.6930 C.ar  1 <1>  -0.1500 
  8 C       -2.3920    -1.4320    -0.5990 C.ar  1 <1>  -0.1500 
  9 N        1.7510     3.1190     0.4880 N.4   1 <1>  -0.9590 
 10 C       -2.8530    -0.7470     0.5130 C.ar  1 <1>  -0.1500 
 11 C        2.7110     4.2240     0.1840 C.3   1 <1>   0.5240 
 12 C        2.0750     2.4990     1.7900 C.3   1 <1>   0.3430 
 13 C        2.0870     5.2610    -0.7370 C.2   1 <1>  -0.1810 
 14 C        0.8630     1.7480     2.3280 C.3   1 <1>  -0.2400 
 15 C        0.9010     5.9260    -0.3970 C.2   1 <1>   0.0560 
 16 C        2.4630     5.7580    -1.9340 C.2   1 <1>  -0.3020 
 17 N        0.5710     6.7800    -1.3510 N.2   1 <1>  -0.7070 
 18 C        0.2380     5.5540     0.8540 C.2   1 <1>   1.0330 
 19 N        1.5340     6.6730    -2.2770 N.pl3 1 <1>   0.3000 
 20 O        0.7790     5.8020     1.9450 O.co2 1 <1>  -0.9000 
 21 O       -0.5610     4.5930     0.8440 O.co2 1 <1>  -0.9000 
 22 H       -0.1940     3.3690    -1.3380 H     1 <1>   0.0800 
 23 H        1.1580     3.2790    -2.4620 H     1 <1>   0.0800 
 24 H       -1.5230     2.2870    -0.0810 H     1 <1>   0.1500 
 25 H       -1.2390    -1.3030    -2.4000 H     1 <1>   0.1500 
 26 H        2.4190     1.8260    -1.0550 H     1 <1>   0.0800 
 27 H        0.9840     1.3000    -0.2260 H     1 <1>   0.0800 
 28 H       -2.8970     1.1250     1.5520 H     1 <1>   0.1500 
 29 H       -2.6510    -2.4680    -0.7400 H     1 <1>   0.1500 
 30 H        0.8320     3.5950     0.6820 H     1 <1>   0.4500 
 31 H       -3.4690    -1.2510     1.2380 H     1 <1>   0.1500 
 32 H        3.6100     3.8290    -0.2550 H     1 <1>   0.0800 
 33 H        2.9710     4.7270     1.1030 H     1 <1>   0.0800 
 34 H        2.3250     3.2780     2.4960 H     1 <1>   0.0800 
 35 H        2.9190     1.8360     1.6940 H     1 <1>   0.0800 
 36 H        0.0120     2.4070     2.3810 H     1 <1>   0.0800 
 37 H        1.0740     1.4040     3.3240 H     1 <1>   0.0800 
 38 H        0.6200     0.8920     1.7270 H     1 <1>   0.0800 
 39 H        3.3130     5.5340    -2.5520 H     1 <1>   0.1500 
 40 H        1.5280     7.2440    -3.1320 H     1 <1>   0.2700 
@<TRIPOS>BOND
  1   1   2  1   
  2   1   3  1   
  3   2   4  ar  
  4   2   5  ar  
  5   3   6  1   
  6   3  22  1   
  7   3  23  1   
  8   4   7  ar  
  9   4  24  1   
 10   5   8  ar  
 11   5  25  1   
 12   6   9  1   
 13   6  26  1   
 14   6  27  1   
 15   7  10  ar  
 16   7  28  1   
 17   8  10  ar  
 18   8  29  1   
 19   9  11  1   
 20   9  12  1   
 21   9  30  1   
 22  10  31  1   
 23  11  13  1   
 24  11  32  1   
 25  11  33  1   
 26  12  14  1   
 27  12  34  1   
 28  12  35  1   
 29  13  15  1   
 30  13  16  2   
 31  14  36  1   
 32  14  37  1   
 33  14  38  1   
 34  15  17  2   
 35  15  18  1   
 36  16  19  1   
 37  16  39  1   
 38  17  19  1   
 39  18  20  ar  
 40  18  21  ar  
 41  19  40  1   
@<TRIPOS>SUBSTRUCTURE
  1 ****   3 GROUP 4 **** **** 0

# MOE 2024.06 (io_trps.svl 2023.06)
