@<TRIPOS>MOLECULE
NONAME
55 59 1 0 0 
SMALL
USER_CHARGES


@<TRIPOS>ATOM
  1 O       -0.2250    -1.3060     1.7610 O.3   1 <1>  -0.6800 
  2 C       -0.6410    -2.0820     0.6970 C.3   1 <1>   0.4240 
  3 C        0.6110    -2.2880    -0.1770 C.ar  1 <1>  -0.1440 
  4 C       -1.7410    -1.2930    -0.0520 C.3   1 <1>  -0.0800 
  5 C       -1.2060    -3.3710     1.3200 C.3   1 <1>  -0.1600 
  6 C        1.3500    -1.1770    -0.5740 C.ar  1 <1>  -0.1500 
  7 C        1.0410    -3.5430    -0.6020 C.ar  1 <1>  -0.1500 
  8 C       -2.9680    -1.0780     0.8530 C.3   1 <1>   0.2890 
  9 C       -2.1150    -1.9090    -1.4280 C.3   1 <1>  -0.1600 
 10 C       -2.4640    -3.1160     2.1560 C.3   1 <1>   0.2090 
 11 C        2.4770    -1.3110    -1.3650 C.ar  1 <1>  -0.1500 
 12 C        2.1680    -3.6790    -1.3930 C.ar  1 <1>  -0.1500 
 13 N       -3.4920    -2.4070     1.3340 N.pl3 1 <1>  -0.8380 
 14 C       -3.9970    -0.1480     0.1710 C.3   1 <1>  -0.1600 
 15 C       -3.4800    -1.4560    -1.9810 C.3   1 <1>  -0.1600 
 16 C        2.8880    -2.5640    -1.7770 C.ar  1 <1>  -0.1500 
 17 C       -4.4540    -3.1510     0.7170 C.ar  1 <1>   0.7710 
 18 C       -3.9600    -0.1360    -1.3710 C.3   1 <1>  -0.1600 
 19 N       -5.7360    -2.7130     0.8500 N.ar  1 <1>  -0.1790 
 20 N       -4.1490    -4.2540     0.0840 N.ar  1 <1>  -0.5670 
 21 C       -6.7900    -3.3290     0.3010 C.ar  1 <1>   0.4610 
 22 C       -5.1860    -4.9030    -0.5020 C.ar  1 <1>   0.1050 
 23 N       -8.0310    -2.8390     0.4610 N.pl3 1 <1>  -0.9000 
 24 C       -6.4940    -4.4880    -0.4240 C.ar  1 <1>   0.0000 
 25 N       -5.1790    -6.0320    -1.2530 N.pl3 1 <1>   0.3140 
 26 C       -7.2000    -5.4470    -1.1670 C.2   1 <1>   0.1390 
 27 N       -6.4310    -6.3590    -1.6590 N.2   1 <1>  -0.7070 
 28 C       -4.0190    -6.8490    -1.6360 C.3   1 <1>   0.0160 
 29 H        0.7300    -1.4750     1.8880 H     1 <1>   0.4000 
 30 H       -1.3400    -0.3170    -0.2610 H     1 <1>   0.0800 
 31 H       -1.4630    -4.0690     0.5480 H     1 <1>   0.0800 
 32 H       -0.4550    -3.8340     1.9340 H     1 <1>   0.0800 
 33 H        1.0530    -0.1880    -0.2690 H     1 <1>   0.1500 
 34 H        0.5170    -4.4410    -0.3340 H     1 <1>   0.1500 
 35 H       -2.6330    -0.5470     1.7310 H     1 <1>   0.0800 
 36 H       -1.3480    -1.6340    -2.1330 H     1 <1>   0.0800 
 37 H       -2.1120    -2.9820    -1.3770 H     1 <1>   0.0800 
 38 H       -2.2150    -2.5150     3.0150 H     1 <1>   0.0800 
 39 H       -2.8540    -4.0550     2.5130 H     1 <1>   0.0800 
 40 H        3.0340    -0.4380    -1.6610 H     1 <1>   0.1500 
 41 H        2.4870    -4.6560    -1.7130 H     1 <1>   0.1500 
 42 H       -4.9900    -0.3130     0.5310 H     1 <1>   0.0800 
 43 H       -3.7530     0.8560     0.4770 H     1 <1>   0.0800 
 44 H       -3.4050    -1.3480    -3.0500 H     1 <1>   0.0800 
 45 H       -4.2160    -2.2170    -1.8030 H     1 <1>   0.0800 
 46 H        3.7640    -2.6700    -2.3930 H     1 <1>   0.1500 
 47 H       -4.9310     0.1180    -1.7610 H     1 <1>   0.0800 
 48 H       -3.2810     0.6370    -1.6930 H     1 <1>   0.0800 
 49 H       -5.8240    -1.8850     1.4190 H     1 <1>   0.4570 
 50 H       -8.2960    -1.9970     0.9860 H     1 <1>   0.4000 
 51 H       -8.8550    -3.2980     0.0510 H     1 <1>   0.4000 
 52 H       -8.2670    -5.4330    -1.3180 H     1 <1>   0.1500 
 53 H       -3.1150    -6.3880    -1.2850 H     1 <1>   0.0800 
 54 H       -3.9900    -6.9360    -2.7060 H     1 <1>   0.0800 
 55 H       -4.1210    -7.8260    -1.2010 H     1 <1>   0.0800 
@<TRIPOS>BOND
  1   1   2  1   
  2   1  29  1   
  3   2   3  1   
  4   2   4  1   
  5   2   5  1   
  6   3   6  ar  
  7   3   7  ar  
  8   4   8  1   
  9   4   9  1   
 10   4  30  1   
 11   5  10  1   
 12   5  31  1   
 13   5  32  1   
 14   6  11  ar  
 15   6  33  1   
 16   7  12  ar  
 17   7  34  1   
 18   8  13  1   
 19   8  14  1   
 20   8  35  1   
 21   9  15  1   
 22   9  36  1   
 23   9  37  1   
 24  10  13  1   
 25  10  38  1   
 26  10  39  1   
 27  11  16  ar  
 28  11  40  1   
 29  12  16  ar  
 30  12  41  1   
 31  13  17  1   
 32  14  18  1   
 33  14  42  1   
 34  14  43  1   
 35  15  18  1   
 36  15  44  1   
 37  15  45  1   
 38  16  46  1   
 39  17  19  ar  
 40  17  20  ar  
 41  18  47  1   
 42  18  48  1   
 43  19  21  ar  
 44  19  49  1   
 45  20  22  ar  
 46  21  23  1   
 47  21  24  ar  
 48  22  24  ar  
 49  22  25  1   
 50  23  50  1   
 51  23  51  1   
 52  24  26  1   
 53  25  27  1   
 54  25  28  1   
 55  26  27  2   
 56  26  52  1   
 57  28  53  1   
 58  28  54  1   
 59  28  55  1   
@<TRIPOS>SUBSTRUCTURE
  1 ****   9 GROUP 4 **** **** 0

# MOE 2024.06 (io_trps.svl 2023.06)
