@<TRIPOS>MOLECULE
NONAME
36 37 1 0 0 
SMALL
USER_CHARGES


@<TRIPOS>ATOM
  1 CL      -0.9280     0.1370     2.2360 Cl    1 <1>  -0.1770 
  2 C       -1.9200    -0.5990     1.0030 C.ar  1 <1>   0.1770 
  3 C       -2.6960     0.2010     0.1660 C.ar  1 <1>   0.0860 
  4 C       -1.8920    -1.9780     0.8930 C.ar  1 <1>  -0.1500 
  5 C       -3.4350    -0.4640    -0.8110 C.ar  1 <1>   0.1770 
  6 C       -2.7380     1.6320     0.3070 C.2   1 <1>   0.5440 
  7 C       -2.6500    -2.6060    -0.0800 C.ar  1 <1>  -0.1500 
  8 CL      -4.3990     0.4410    -1.9510 Cl    1 <1>  -0.1770 
  9 C       -3.4230    -1.8420    -0.9370 C.ar  1 <1>  -0.1500 
 10 O       -3.7550     2.1690     0.6820 O.2   1 <1>  -0.5700 
 11 N       -1.6130     2.3730     0.0330 N.am  1 <1>  -0.4940 
 12 C       -1.4420     3.7410     0.0340 C.2   1 <1>   0.4420 
 13 S        0.1720     4.3200    -0.2290 S.3   1 <1>  -0.0800 
 14 N       -2.2770     4.7050     0.1910 N.2   1 <1>  -0.3380 
 15 C       -0.4590     5.9230    -0.0880 C.2   1 <1>   0.1980 
 16 N       -1.7100     5.9450     0.1210 N.2   1 <1>  -0.3380 
 17 C        0.4870     7.0950    -0.2180 C.3   1 <1>   0.0200 
 18 C       -0.3030     8.3910     0.0000 C.3   1 <1>   0.3430 
 19 N        0.5570     9.6210    -0.0450 N.4   1 <1>  -0.9590 
 20 C       -0.2290    10.7970     0.4450 C.3   1 <1>   0.2630 
 21 C        1.0900     9.9010    -1.4180 C.3   1 <1>   0.2630 
 22 H       -1.2820    -2.5550     1.5670 H     1 <1>   0.1500 
 23 H       -2.6370    -3.6810    -0.1710 H     1 <1>   0.1500 
 24 H       -4.0150    -2.3110    -1.7040 H     1 <1>   0.1500 
 25 H       -0.7700     1.8390    -0.1540 H     1 <1>   0.3700 
 26 H        0.9230     7.0740    -1.1990 H     1 <1>   0.0800 
 27 H        1.2580     7.0000     0.5250 H     1 <1>   0.0800 
 28 H       -0.7870     8.3280     0.9620 H     1 <1>   0.0800 
 29 H       -1.0800     8.4590    -0.7450 H     1 <1>   0.0800 
 30 H        1.3530     9.4900     0.6000 H     1 <1>   0.4500 
 31 H       -1.0790    10.9740    -0.1950 H     1 <1>   0.0800 
 32 H        0.3850    11.6830     0.4540 H     1 <1>   0.0800 
 33 H       -0.5860    10.6190     1.4470 H     1 <1>   0.0800 
 34 H        0.2780    10.0300    -2.1160 H     1 <1>   0.0800 
 35 H        1.7110     9.0880    -1.7560 H     1 <1>   0.0800 
 36 H        1.6830    10.8010    -1.4120 H     1 <1>   0.0800 
@<TRIPOS>BOND
  1   1   2  1   
  2   2   3  ar  
  3   2   4  ar  
  4   3   5  ar  
  5   3   6  1   
  6   4   7  ar  
  7   4  22  1   
  8   5   8  1   
  9   5   9  ar  
 10   6  10  2   
 11   6  11  am  
 12   7   9  ar  
 13   7  23  1   
 14   9  24  1   
 15  11  12  1   
 16  11  25  1   
 17  12  13  1   
 18  12  14  2   
 19  13  15  1   
 20  14  16  1   
 21  15  16  2   
 22  15  17  1   
 23  17  18  1   
 24  17  26  1   
 25  17  27  1   
 26  18  19  1   
 27  18  28  1   
 28  18  29  1   
 29  19  20  1   
 30  19  21  1   
 31  19  30  1   
 32  20  31  1   
 33  20  32  1   
 34  20  33  1   
 35  21  34  1   
 36  21  35  1   
 37  21  36  1   
@<TRIPOS>SUBSTRUCTURE
  1 ****  12 GROUP 4 **** **** 0

# MOE 2024.06 (io_trps.svl 2023.06)
