@<TRIPOS>MOLECULE
NONAME
60 62 1 0 0 
SMALL
USER_CHARGES


@<TRIPOS>ATOM
  1 O        1.5200    -0.1010    -0.2790 O.2   1 <1>  -0.5700 
  2 C        2.5730    -0.6590    -0.4930 C.2   1 <1>   0.5690 
  3 N        3.2840    -0.4110    -1.6420 N.am  1 <1>  -0.6600 
  4 C        3.0660    -1.6300     0.5790 C.3   1 <1>  -0.0190 
  5 C        4.7200    -0.7960    -1.8590 C.3   1 <1>   0.1400 
  6 C        2.6070     0.2690    -2.7870 C.3   1 <1>   0.1400 
  7 C        1.8580    -2.3710     1.1810 C.3   1 <1>   0.3430 
  8 C        3.8940    -0.8870     1.6580 C.3   1 <1>  -0.1600 
  9 C        5.5610     0.3190    -2.5130 C.3   1 <1>   0.3430 
 10 C        2.7480     1.7900    -2.6630 C.3   1 <1>  -0.1600 
 11 N        1.1530    -1.4750     2.1440 N.4   1 <1>  -0.9590 
 12 C        3.4830    -1.2870     3.0860 C.3   1 <1>  -0.1600 
 13 N        5.1530     1.6740    -2.0270 N.4   1 <1>  -0.9590 
 14 C        4.1560     2.3390    -2.9010 C.3   1 <1>   0.3430 
 15 C        1.9760    -1.1160     3.3430 C.3   1 <1>   0.3430 
 16 C       -0.1920    -1.9970     2.5210 C.3   1 <1>   0.2630 
 17 C        6.3310     2.5330    -1.7340 C.3   1 <1>   0.5240 
 18 C        7.0950     1.9160    -0.5710 C.2   1 <1>   0.0460 
 19 N        6.4330     1.4630     0.5180 N.2   1 <1>  -0.5650 
 20 C        8.4300     1.7370    -0.4370 C.2   1 <1>  -0.3320 
 21 C        7.3760     1.0580     1.3070 C.2   1 <1>   0.0060 
 22 N        8.6120     1.1850     0.7760 N.pl3 1 <1>   0.0330 
 23 C        9.5940     2.0650    -1.3580 C.3   1 <1>  -0.0600 
 24 C        7.1530     0.5090     2.7060 C.3   1 <1>   0.0200 
 25 C        7.9290     1.3040     3.7620 C.3   1 <1>  -0.2400 
 26 H        3.6770    -2.3790     0.1120 H     1 <1>   0.0800 
 27 H        4.7660    -1.6790    -2.4730 H     1 <1>   0.0800 
 28 H        5.1830    -1.0300    -0.9180 H     1 <1>   0.0800 
 29 H        1.5590     0.0160    -2.7760 H     1 <1>   0.0800 
 30 H        3.0090    -0.0810    -3.7230 H     1 <1>   0.0800 
 31 H        2.1920    -3.2590     1.6930 H     1 <1>   0.0800 
 32 H        1.1890    -2.6640     0.3880 H     1 <1>   0.0800 
 33 H        3.7590     0.1780     1.5540 H     1 <1>   0.0800 
 34 H        4.9410    -1.0890     1.5110 H     1 <1>   0.0800 
 35 H        5.4540     0.2670    -3.5840 H     1 <1>   0.0800 
 36 H        6.5980     0.1350    -2.2800 H     1 <1>   0.0800 
 37 H        2.3920     2.1070    -1.6990 H     1 <1>   0.0800 
 38 H        2.0980     2.2410    -3.3920 H     1 <1>   0.0800 
 39 H        1.0080    -0.6030     1.5920 H     1 <1>   0.4500 
 40 H        4.0260    -0.6940     3.8020 H     1 <1>   0.0800 
 41 H        3.7530    -2.3140     3.2650 H     1 <1>   0.0800 
 42 H        4.7340     1.5220    -1.0930 H     1 <1>   0.4500 
 43 H        4.1420     3.3980    -2.6960 H     1 <1>   0.0800 
 44 H        4.4300     2.2050    -3.9350 H     1 <1>   0.0800 
 45 H        1.6980    -1.7350     4.1820 H     1 <1>   0.0800 
 46 H        1.7750    -0.0910     3.6100 H     1 <1>   0.0800 
 47 H       -0.0970    -2.9240     3.0630 H     1 <1>   0.0800 
 48 H       -0.7860    -2.1700     1.6380 H     1 <1>   0.0800 
 49 H       -0.7080    -1.2830     3.1430 H     1 <1>   0.0800 
 50 H        6.0020     3.5160    -1.4390 H     1 <1>   0.0800 
 51 H        6.9680     2.6210    -2.5970 H     1 <1>   0.0800 
 52 H        9.4980     0.9400     1.2300 H     1 <1>   0.2700 
 53 H        9.2520     2.5110    -2.2740 H     1 <1>   0.0800 
 54 H       10.1430     1.1700    -1.5980 H     1 <1>   0.0800 
 55 H       10.2630     2.7560    -0.8750 H     1 <1>   0.0800 
 56 H        7.4480    -0.5250     2.7380 H     1 <1>   0.0800 
 57 H        6.1060     0.5670     2.9390 H     1 <1>   0.0800 
 58 H        8.9890     1.2210     3.6030 H     1 <1>   0.0800 
 59 H        7.7030     0.9300     4.7450 H     1 <1>   0.0800 
 60 H        7.6520     2.3430     3.7200 H     1 <1>   0.0800 
@<TRIPOS>BOND
  1   1   2  2   
  2   2   3  am  
  3   2   4  1   
  4   3   5  1   
  5   3   6  1   
  6   4   7  1   
  7   4   8  1   
  8   4  26  1   
  9   5   9  1   
 10   5  27  1   
 11   5  28  1   
 12   6  10  1   
 13   6  29  1   
 14   6  30  1   
 15   7  11  1   
 16   7  31  1   
 17   7  32  1   
 18   8  12  1   
 19   8  33  1   
 20   8  34  1   
 21   9  13  1   
 22   9  35  1   
 23   9  36  1   
 24  10  14  1   
 25  10  37  1   
 26  10  38  1   
 27  11  15  1   
 28  11  16  1   
 29  11  39  1   
 30  12  15  1   
 31  12  40  1   
 32  12  41  1   
 33  13  14  1   
 34  13  17  1   
 35  13  42  1   
 36  14  43  1   
 37  14  44  1   
 38  15  45  1   
 39  15  46  1   
 40  16  47  1   
 41  16  48  1   
 42  16  49  1   
 43  17  18  1   
 44  17  50  1   
 45  17  51  1   
 46  18  19  1   
 47  18  20  2   
 48  19  21  2   
 49  20  22  1   
 50  20  23  1   
 51  21  22  1   
 52  21  24  1   
 53  22  52  1   
 54  23  53  1   
 55  23  54  1   
 56  23  55  1   
 57  24  25  1   
 58  24  56  1   
 59  24  57  1   
 60  25  58  1   
 61  25  59  1   
 62  25  60  1   
@<TRIPOS>SUBSTRUCTURE
  1 ****   8 GROUP 4 **** **** 0

# MOE 2024.06 (io_trps.svl 2023.06)
