@<TRIPOS>MOLECULE
NONAME
47 49 1 0 0 
SMALL
USER_CHARGES


@<TRIPOS>ATOM
  1 CL      -0.6580     0.2450    -0.5660 Cl    1 <1>  -0.1770 
  2 C       -1.3180    -1.3640    -0.6680 C.ar  1 <1>   0.1770 
  3 C       -0.7210    -2.3900     0.0390 C.ar  1 <1>  -0.1500 
  4 C       -2.4290    -1.5940    -1.4550 C.ar  1 <1>  -0.1500 
  5 C       -1.2420    -3.6730    -0.0330 C.ar  1 <1>  -0.1440 
  6 C       -2.9490    -2.8730    -1.5240 C.ar  1 <1>  -0.1500 
  7 C       -2.3770    -3.9310    -0.8140 C.ar  1 <1>   0.0860 
  8 C       -0.5600    -4.7980     0.7360 C.3   1 <1>  -0.0960 
  9 C       -2.9790    -5.2470    -0.8980 C.2   1 <1>   0.5440 
 10 O       -2.7620    -5.9390    -1.8750 O.2   1 <1>  -0.5700 
 11 N       -3.8100    -5.7330     0.0920 N.am  1 <1>  -0.6600 
 12 C       -4.3690    -7.1120    -0.0120 C.3   1 <1>   0.1400 
 13 C       -4.2840    -4.9100     1.2420 C.3   1 <1>   0.1400 
 14 C       -5.6170    -7.1370    -0.9070 C.3   1 <1>   0.1400 
 15 C       -5.8110    -4.9260     1.4100 C.3   1 <1>  -0.1600 
 16 N       -6.7960    -6.4690    -0.2630 N.am  1 <1>  -0.6600 
 17 C       -6.5990    -5.0350     0.0990 C.3   1 <1>   0.1400 
 18 C       -7.9950    -7.0880     0.0290 C.2   1 <1>   0.5690 
 19 O       -8.7830    -6.5650     0.7890 O.2   1 <1>  -0.5700 
 20 C       -8.3500    -8.4780    -0.5580 C.3   1 <1>   0.2610 
 21 O       -9.6980    -8.5830    -0.9420 O.3   1 <1>  -0.5600 
 22 C       -8.1200    -9.6200     0.4430 C.3   1 <1>  -0.1600 
 23 C      -10.4300    -9.2070     0.0560 C.3   1 <1>   0.1200 
 24 C       -9.4890   -10.2630     0.6080 C.3   1 <1>  -0.1600 
 25 H        0.1470    -2.1740     0.6360 H     1 <1>   0.1500 
 26 H       -2.8730    -0.7820    -2.0030 H     1 <1>   0.1500 
 27 H       -3.8110    -3.0680    -2.1390 H     1 <1>   0.1500 
 28 H        0.3550    -4.4600     1.1890 H     1 <1>   0.0800 
 29 H       -0.3250    -5.6090     0.0690 H     1 <1>   0.0800 
 30 H       -1.2080    -5.1660     1.5110 H     1 <1>   0.0800 
 31 H       -3.6220    -7.7580    -0.4430 H     1 <1>   0.0800 
 32 H       -4.6060    -7.4960     0.9650 H     1 <1>   0.0800 
 33 H       -3.8220    -5.2680     2.1460 H     1 <1>   0.0800 
 34 H       -3.9770    -3.8880     1.1080 H     1 <1>   0.0800 
 35 H       -5.8330    -8.1660    -1.1190 H     1 <1>   0.0800 
 36 H       -5.3950    -6.6540    -1.8430 H     1 <1>   0.0800 
 37 H       -6.0920    -4.0110     1.8980 H     1 <1>   0.0800 
 38 H       -6.1030    -5.7240     2.0690 H     1 <1>   0.0800 
 39 H       -6.0930    -4.5180    -0.6980 H     1 <1>   0.0800 
 40 H       -7.5600    -4.5660     0.2280 H     1 <1>   0.0800 
 41 H       -7.7880    -8.6460    -1.4560 H     1 <1>   0.0800 
 42 H       -7.3940   -10.3200     0.0730 H     1 <1>   0.0800 
 43 H       -7.7750    -9.2230     1.3820 H     1 <1>   0.0800 
 44 H      -10.6740    -8.4680     0.8020 H     1 <1>   0.0800 
 45 H      -11.3280    -9.6220    -0.3660 H     1 <1>   0.0800 
 46 H       -9.7160   -10.5030     1.6320 H     1 <1>   0.0800 
 47 H       -9.5640   -11.1520     0.0060 H     1 <1>   0.0800 
@<TRIPOS>BOND
  1   1   2  1   
  2   2   3  ar  
  3   2   4  ar  
  4   3   5  ar  
  5   3  25  1   
  6   4   6  ar  
  7   4  26  1   
  8   5   7  ar  
  9   5   8  1   
 10   6   7  ar  
 11   6  27  1   
 12   7   9  1   
 13   8  28  1   
 14   8  29  1   
 15   8  30  1   
 16   9  10  2   
 17   9  11  am  
 18  11  12  1   
 19  11  13  1   
 20  12  14  1   
 21  12  31  1   
 22  12  32  1   
 23  13  15  1   
 24  13  33  1   
 25  13  34  1   
 26  14  16  1   
 27  14  35  1   
 28  14  36  1   
 29  15  17  1   
 30  15  37  1   
 31  15  38  1   
 32  16  17  1   
 33  16  18  am  
 34  17  39  1   
 35  17  40  1   
 36  18  19  2   
 37  18  20  1   
 38  20  21  1   
 39  20  22  1   
 40  20  41  1   
 41  21  23  1   
 42  22  24  1   
 43  22  42  1   
 44  22  43  1   
 45  23  24  1   
 46  23  44  1   
 47  23  45  1   
 48  24  46  1   
 49  24  47  1   
@<TRIPOS>SUBSTRUCTURE
  1 ****  11 GROUP 4 **** **** 0

# MOE 2024.06 (io_trps.svl 2023.06)
