@<TRIPOS>MOLECULE
NONAME
52 53 1 0 0 
SMALL
USER_CHARGES


@<TRIPOS>ATOM
  1 S       -0.7230     0.3970    -2.2460 S.o2  1 <1>   1.4470 
  2 O       -0.1430    -0.3350    -3.3510 O.2   1 <1>  -0.6500 
  3 O       -1.6480     1.4740    -2.5400 O.2   1 <1>  -0.6500 
  4 N       -1.5320    -0.7120    -1.2420 N.am  1 <1>  -0.8490 
  5 C        0.6600     0.9990    -1.2070 C.ar  1 <1>  -0.0090 
  6 C       -0.7210    -1.8940    -0.8830 C.3   1 <1>   0.1960 
  7 C       -2.2300    -0.0880    -0.1250 C.3   1 <1>   0.1960 
  8 C        0.6470     2.1670    -0.4340 C.ar  1 <1>  -0.1440 
  9 C        1.8080     0.2140    -1.1580 C.ar  1 <1>  -0.1500 
 10 C       -1.4350    -2.9560    -0.0160 C.3   1 <1>  -0.1060 
 11 C       -3.0820    -1.1120     0.6130 C.3   1 <1>  -0.1600 
 12 C        1.7400     2.4930     0.3580 C.ar  1 <1>  -0.1500 
 13 C       -0.5260     3.1420    -0.4280 C.3   1 <1>  -0.0970 
 14 C        2.8970     0.5300    -0.3550 C.ar  1 <1>   0.0820 
 15 C       -2.3790    -3.7690    -0.9190 C.2   1 <1>   0.9060 
 16 C       -2.1880    -2.2330     1.1270 C.3   1 <1>   0.2000 
 17 C       -0.3840    -3.9620     0.5520 C.3   1 <1>  -0.1600 
 18 C        2.8610     1.6860     0.4100 C.ar  1 <1>  -0.1440 
 19 O        4.0060    -0.2520    -0.2770 O.3   1 <1>  -0.3630 
 20 O       -3.5190    -4.0690    -0.5240 O.co2 1 <1>  -0.9000 
 21 O       -1.9410    -4.2150    -1.9870 O.co2 1 <1>  -0.9000 
 22 O       -2.9790    -3.1190     1.8230 O.3   1 <1>  -0.6800 
 23 C        0.6450    -3.4200     1.5660 C.3   1 <1>  -0.1600 
 24 C        4.0380     2.0690     1.2950 C.3   1 <1>  -0.0970 
 25 C        4.0890    -1.4940    -0.9420 C.3   1 <1>   0.0400 
 26 C        1.6540    -4.5080     1.9430 C.3   1 <1>  -0.2400 
 27 H       -0.3630    -2.3630    -1.7860 H     1 <1>   0.0800 
 28 H        0.1340    -1.5490    -0.3400 H     1 <1>   0.0800 
 29 H       -1.5180     0.3490     0.5550 H     1 <1>   0.0800 
 30 H       -2.8780     0.6890    -0.4950 H     1 <1>   0.0800 
 31 H        1.8330    -0.6670    -1.7710 H     1 <1>   0.1500 
 32 H       -3.8310    -1.4980    -0.0570 H     1 <1>   0.0800 
 33 H       -3.5730    -0.6360     1.4410 H     1 <1>   0.0800 
 34 H        1.7220     3.3950     0.9460 H     1 <1>   0.1500 
 35 H       -0.3720     3.9370     0.2780 H     1 <1>   0.0800 
 36 H       -1.4400     2.6450    -0.1670 H     1 <1>   0.0800 
 37 H       -0.6380     3.5850    -1.4030 H     1 <1>   0.0800 
 38 H       -1.4920    -1.8110     1.8290 H     1 <1>   0.0800 
 39 H       -0.9230    -4.7680     1.0220 H     1 <1>   0.0800 
 40 H        0.1430    -4.3960    -0.2810 H     1 <1>   0.0800 
 41 H       -3.4420    -3.6540     1.1090 H     1 <1>   0.4000 
 42 H        1.1840    -2.5820     1.1650 H     1 <1>   0.0800 
 43 H        0.1410    -3.1020     2.4620 H     1 <1>   0.0800 
 44 H        3.8520     2.9900     1.8170 H     1 <1>   0.0800 
 45 H        4.9210     2.1880     0.6930 H     1 <1>   0.0800 
 46 H        4.2170     1.2940     2.0190 H     1 <1>   0.0800 
 47 H        5.0360    -1.9410    -0.6970 H     1 <1>   0.0800 
 48 H        4.0280    -1.3280    -2.0030 H     1 <1>   0.0800 
 49 H        3.2880    -2.1280    -0.6030 H     1 <1>   0.0800 
 50 H        2.1910    -4.8400     1.0720 H     1 <1>   0.0800 
 51 H        1.1460    -5.3510     2.3780 H     1 <1>   0.0800 
 52 H        2.3600    -4.1260     2.6590 H     1 <1>   0.0800 
@<TRIPOS>BOND
  1   1   2  2   
  2   1   3  2   
  3   1   4  am  
  4   1   5  1   
  5   4   6  1   
  6   4   7  1   
  7   5   8  ar  
  8   5   9  ar  
  9   6  10  1   
 10   6  27  1   
 11   6  28  1   
 12   7  11  1   
 13   7  29  1   
 14   7  30  1   
 15   8  12  ar  
 16   8  13  1   
 17   9  14  ar  
 18   9  31  1   
 19  10  15  1   
 20  10  16  1   
 21  10  17  1   
 22  11  16  1   
 23  11  32  1   
 24  11  33  1   
 25  12  18  ar  
 26  12  34  1   
 27  13  35  1   
 28  13  36  1   
 29  13  37  1   
 30  14  18  ar  
 31  14  19  1   
 32  15  20  ar  
 33  15  21  ar  
 34  16  22  1   
 35  16  38  1   
 36  17  23  1   
 37  17  39  1   
 38  17  40  1   
 39  18  24  1   
 40  19  25  1   
 41  22  41  1   
 42  23  26  1   
 43  23  42  1   
 44  23  43  1   
 45  24  44  1   
 46  24  45  1   
 47  24  46  1   
 48  25  47  1   
 49  25  48  1   
 50  25  49  1   
 51  26  50  1   
 52  26  51  1   
 53  26  52  1   
@<TRIPOS>SUBSTRUCTURE
  1 ****   6 GROUP 4 **** **** 0

# MOE 2024.06 (io_trps.svl 2023.06)
