@<TRIPOS>MOLECULE
NONAME
47 48 1 0 0 
SMALL
USER_CHARGES


@<TRIPOS>ATOM
  1 O        0.2130     0.2360    -0.9880 O.2   1 <1>  -0.5700 
  2 C        0.9310    -0.5970    -0.4940 C.2   1 <1>   0.5690 
  3 N        2.0190    -0.2680     0.2430 N.am  1 <1>  -0.7300 
  4 C        0.6110    -2.0560    -0.7000 C.3   1 <1>  -0.0990 
  5 C        2.4160     1.1220     0.5720 C.3   1 <1>   0.1400 
  6 C       -0.1490    -2.6170     0.5090 C.3   1 <1>   0.1760 
  7 C        3.2210     1.7230    -0.5790 C.3   1 <1>  -0.0160 
  8 N       -0.1190    -4.1090     0.4780 N.pl3 1 <1>   0.3140 
  9 C       -1.5700    -2.0430     0.6630 C.3   1 <1>  -0.2400 
 10 C        3.6100     3.1540    -0.2570 C.ar  1 <1>   0.1660 
 11 N        0.7910    -4.7260     1.2490 N.2   1 <1>  -0.7070 
 12 C       -0.8250    -5.0100    -0.2440 C.2   1 <1>  -0.3320 
 13 N        4.5210     3.3150     0.6900 N.ar  1 <1>  -0.6200 
 14 C        3.0150     4.2130    -0.9410 C.ar  1 <1>   0.1600 
 15 C        0.6380    -5.9870     1.0240 C.2   1 <1>   0.1080 
 16 C       -0.3790    -6.2600     0.1010 C.2   1 <1>  -0.0860 
 17 C       -1.8920    -4.6480    -1.2720 C.3   1 <1>  -0.0600 
 18 C        4.7970     4.5910     0.9010 C.ar  1 <1>   0.1600 
 19 N        3.2900     5.4900    -0.7300 N.ar  1 <1>  -0.6200 
 20 C        1.4990    -7.0170     1.7260 C.3   1 <1>  -0.0590 
 21 C       -0.7840    -7.5840    -0.3040 C.2   1 <1>   0.5950 
 22 C        4.2020     5.6430     0.2140 C.ar  1 <1>   0.1600 
 23 O       -0.0380    -8.5290    -0.3590 O.2   1 <1>  -0.5700 
 24 C       -2.2310    -7.8550    -0.6530 C.3   1 <1>  -0.1790 
 25 H        2.6220    -1.0030     0.6220 H     1 <1>   0.3700 
 26 H        1.5330    -2.5920    -0.8280 H     1 <1>   0.0800 
 27 H        0.0290    -2.1610    -1.5950 H     1 <1>   0.0800 
 28 H        3.0020     1.1260     1.4760 H     1 <1>   0.0800 
 29 H        1.5320     1.7150     0.7400 H     1 <1>   0.0800 
 30 H        0.3960    -2.3350     1.3930 H     1 <1>   0.0800 
 31 H        2.6330     1.6960    -1.4780 H     1 <1>   0.0800 
 32 H        4.1150     1.1470    -0.7360 H     1 <1>   0.0800 
 33 H       -2.1290    -2.1190    -0.2500 H     1 <1>   0.0800 
 34 H       -1.5120    -1.0010     0.9220 H     1 <1>   0.0800 
 35 H       -2.0920    -2.5550     1.4520 H     1 <1>   0.0800 
 36 H        2.2780     3.9970    -1.6950 H     1 <1>   0.1500 
 37 H       -1.5770    -3.8130    -1.8700 H     1 <1>   0.0800 
 38 H       -2.8140    -4.3980    -0.7790 H     1 <1>   0.0800 
 39 H       -2.0710    -5.4640    -1.9450 H     1 <1>   0.0800 
 40 H        5.5310     4.8180     1.6540 H     1 <1>   0.1500 
 41 H        2.1140    -6.5420     2.4670 H     1 <1>   0.0800 
 42 H        2.1320    -7.5080     1.0100 H     1 <1>   0.0800 
 43 H        0.8770    -7.7490     2.2070 H     1 <1>   0.0800 
 44 H        4.4930     6.6490     0.4570 H     1 <1>   0.1500 
 45 H       -2.8710    -7.1260    -0.1960 H     1 <1>   0.0800 
 46 H       -2.5080    -8.8290    -0.2920 H     1 <1>   0.0800 
 47 H       -2.3540    -7.8350    -1.7190 H     1 <1>   0.0800 
@<TRIPOS>BOND
  1   1   2  2   
  2   2   3  am  
  3   2   4  1   
  4   3   5  1   
  5   3  25  1   
  6   4   6  1   
  7   4  26  1   
  8   4  27  1   
  9   5   7  1   
 10   5  28  1   
 11   5  29  1   
 12   6   8  1   
 13   6   9  1   
 14   6  30  1   
 15   7  10  1   
 16   7  31  1   
 17   7  32  1   
 18   8  11  1   
 19   8  12  1   
 20   9  33  1   
 21   9  34  1   
 22   9  35  1   
 23  10  13  ar  
 24  10  14  ar  
 25  11  15  2   
 26  12  16  2   
 27  12  17  1   
 28  13  18  ar  
 29  14  19  ar  
 30  14  36  1   
 31  15  16  1   
 32  15  20  1   
 33  16  21  1   
 34  17  37  1   
 35  17  38  1   
 36  17  39  1   
 37  18  22  ar  
 38  18  40  1   
 39  19  22  ar  
 40  20  41  1   
 41  20  42  1   
 42  20  43  1   
 43  21  23  2   
 44  21  24  1   
 45  22  44  1   
 46  24  45  1   
 47  24  46  1   
 48  24  47  1   
@<TRIPOS>SUBSTRUCTURE
  1 ****   4 GROUP 4 **** **** 0

# MOE 2024.06 (io_trps.svl 2023.06)
