@<TRIPOS>MOLECULE
NONAME
44 46 1 0 0 
SMALL
USER_CHARGES


@<TRIPOS>ATOM
  1 O       -2.2970     0.5810    -2.2200 O.2   1 <1>  -0.5700 
  2 C       -2.1590     0.7190    -1.0310 C.2   1 <1>   0.5690 
  3 N       -2.0860    -0.3380    -0.1900 N.am  1 <1>  -0.7300 
  4 C       -2.0610     2.1140    -0.4590 C.3   1 <1>  -0.0990 
  5 C       -2.1210    -1.7590    -0.6070 C.3   1 <1>   0.2200 
  6 C       -0.6530     2.6870    -0.6520 C.3   1 <1>  -0.0170 
  7 C       -3.4580    -2.4030    -0.2640 C.3   1 <1>  -0.0800 
  8 C       -1.1900    -2.5530     0.2970 C.3   1 <1>   0.1200 
  9 C       -0.5580     4.0750    -0.0410 C.ar  1 <1>  -0.1440 
 10 C       -3.2740    -2.8270     1.1990 C.3   1 <1>   0.1200 
 11 C       -4.7080    -1.5420    -0.5240 C.3   1 <1>  -0.0170 
 12 O       -1.9080    -2.7260     1.4800 O.3   1 <1>  -0.5600 
 13 C       -0.9180     5.1970    -0.7750 C.ar  1 <1>   0.1600 
 14 C       -0.1160     4.2450     1.2560 C.ar  1 <1>  -0.1500 
 15 C       -5.9770    -2.3300    -0.2430 C.ar  1 <1>  -0.1440 
 16 N       -0.8770     6.4430    -0.3280 N.ar  1 <1>  -0.6200 
 17 C       -0.0650     5.5350     1.7370 C.ar  1 <1>  -0.1500 
 18 C       -6.6670    -2.2140     0.9470 C.ar  1 <1>  -0.1500 
 19 C       -6.5050    -3.2060    -1.1700 C.ar  1 <1>  -0.1500 
 20 C       -0.4500     6.5810     0.9170 C.ar  1 <1>   0.1600 
 21 C       -7.8140    -2.9640     1.1490 C.ar  1 <1>   0.1600 
 22 C       -7.6600    -3.9080    -0.8690 C.ar  1 <1>   0.1600 
 23 N       -8.3260    -3.8100     0.2700 N.ar  1 <1>  -0.6200 
 24 H       -1.9920    -0.2100     0.8210 H     1 <1>   0.3700 
 25 H       -2.7780     2.7400    -0.9600 H     1 <1>   0.0800 
 26 H       -2.3090     2.0960     0.5870 H     1 <1>   0.0800 
 27 H       -1.8660    -1.8570    -1.6490 H     1 <1>   0.0800 
 28 H       -0.4250     2.7350    -1.7030 H     1 <1>   0.0800 
 29 H        0.0710     2.0370    -0.1920 H     1 <1>   0.0800 
 30 H       -3.5460    -3.3030    -0.8470 H     1 <1>   0.0800 
 31 H       -0.2660    -2.0420     0.5010 H     1 <1>   0.0800 
 32 H       -0.9910    -3.5260    -0.1160 H     1 <1>   0.0800 
 33 H       -3.5910    -3.8430     1.3610 H     1 <1>   0.0800 
 34 H       -3.7950    -2.1720     1.8760 H     1 <1>   0.0800 
 35 H       -4.7090    -1.2160    -1.5500 H     1 <1>   0.0800 
 36 H       -4.6930    -0.6600     0.0920 H     1 <1>   0.0800 
 37 H       -1.2620     5.0640    -1.7860 H     1 <1>   0.1500 
 38 H        0.1770     3.4110     1.8710 H     1 <1>   0.1500 
 39 H        0.2710     5.7330     2.7390 H     1 <1>   0.1500 
 40 H       -6.3260    -1.5500     1.7190 H     1 <1>   0.1500 
 41 H       -6.0300    -3.3480    -2.1240 H     1 <1>   0.1500 
 42 H       -0.4060     7.5850     1.3040 H     1 <1>   0.1500 
 43 H       -8.3390    -2.8610     2.0830 H     1 <1>   0.1500 
 44 H       -8.0570    -4.5870    -1.6040 H     1 <1>   0.1500 
@<TRIPOS>BOND
  1   1   2  2   
  2   2   3  am  
  3   2   4  1   
  4   3   5  1   
  5   3  24  1   
  6   4   6  1   
  7   4  25  1   
  8   4  26  1   
  9   5   7  1   
 10   5   8  1   
 11   5  27  1   
 12   6   9  1   
 13   6  28  1   
 14   6  29  1   
 15   7  10  1   
 16   7  11  1   
 17   7  30  1   
 18   8  12  1   
 19   8  31  1   
 20   8  32  1   
 21   9  13  ar  
 22   9  14  ar  
 23  10  12  1   
 24  10  33  1   
 25  10  34  1   
 26  11  15  1   
 27  11  35  1   
 28  11  36  1   
 29  13  16  ar  
 30  13  37  1   
 31  14  17  ar  
 32  14  38  1   
 33  15  18  ar  
 34  15  19  ar  
 35  16  20  ar  
 36  17  20  ar  
 37  17  39  1   
 38  18  21  ar  
 39  18  40  1   
 40  19  22  ar  
 41  19  41  1   
 42  20  42  1   
 43  21  23  ar  
 44  21  43  1   
 45  22  23  ar  
 46  22  44  1   
@<TRIPOS>SUBSTRUCTURE
  1 ****   3 GROUP 4 **** **** 0

# MOE 2024.06 (io_trps.svl 2023.06)
