@<TRIPOS>MOLECULE
NONAME
49 52 1 0 0 
SMALL
USER_CHARGES


@<TRIPOS>ATOM
  1 O       -0.3410     1.8750     2.2980 O.2   1 <1>  -0.5700 
  2 C       -0.2160     2.4550     1.2400 C.2   1 <1>   0.5690 
  3 N       -1.1580     2.3440     0.2360 N.am  1 <1>  -0.6600 
  4 C        1.0350     3.3350     1.0510 C.3   1 <1>   0.2700 
  5 C       -2.3900     1.5250     0.4220 C.3   1 <1>   0.2200 
  6 C       -0.9400     3.0130    -1.0950 C.3   1 <1>   0.1400 
  7 N        1.3230     3.7060    -0.3780 N.pl3 1 <1>  -0.8210 
  8 C       -2.5720     0.5080    -0.7160 C.3   1 <1>  -0.1600 
  9 C       -3.6190     2.4320     0.5640 C.3   1 <1>  -0.1600 
 10 C        0.0680     4.1690    -1.0270 C.3   1 <1>   0.2090 
 11 C        2.4220     4.5570    -0.5130 C.2   1 <1>   0.3720 
 12 C       -3.8440    -0.3280    -0.5020 C.3   1 <1>  -0.1600 
 13 C       -4.8940     1.6010     0.7710 C.3   1 <1>  -0.1600 
 14 N        3.5640     4.1270    -0.9180 N.2   1 <1>  -0.4100 
 15 C        2.4740     5.9200    -0.2260 C.2   1 <1>  -0.2330 
 16 C       -5.0790     0.5730    -0.3550 C.3   1 <1>  -0.1600 
 17 O        4.3570     5.1670    -0.9050 O.3   1 <1>  -0.0190 
 18 C        3.7590     6.2610    -0.4940 C.2   1 <1>   0.0870 
 19 C        1.3850     6.7070     0.2410 C.2   1 <1>   1.0330 
 20 C        4.4930     7.5020    -0.4000 C.ar  1 <1>   0.0530 
 21 O        0.6000     7.2400    -0.5610 O.co2 1 <1>  -0.9000 
 22 O        1.1880     6.8420     1.4600 O.co2 1 <1>  -0.9000 
 23 C        4.0760     8.5490     0.4230 C.ar  1 <1>  -0.1500 
 24 C        5.6650     7.6980    -1.1350 C.ar  1 <1>  -0.1500 
 25 C        4.7870     9.7320     0.5060 C.ar  1 <1>  -0.1500 
 26 C        6.3820     8.8780    -1.0550 C.ar  1 <1>  -0.1500 
 27 C        5.9440     9.9000    -0.2330 C.ar  1 <1>  -0.1500 
 28 H        1.8820     2.8070     1.4470 H     1 <1>   0.0800 
 29 H        0.9040     4.2300     1.6340 H     1 <1>   0.0800 
 30 H       -2.2990     0.9630     1.3360 H     1 <1>   0.0800 
 31 H       -1.8700     3.3980    -1.4690 H     1 <1>   0.0800 
 32 H       -0.5720     2.2830    -1.7940 H     1 <1>   0.0800 
 33 H       -1.7170    -0.1430    -0.7470 H     1 <1>   0.0800 
 34 H       -2.6560     1.0150    -1.6590 H     1 <1>   0.0800 
 35 H       -3.7390     3.0350    -0.3170 H     1 <1>   0.0800 
 36 H       -3.4780     3.0850     1.4080 H     1 <1>   0.0800 
 37 H       -0.3770     4.9690    -0.4610 H     1 <1>   0.0800 
 38 H        0.2830     4.5370    -2.0160 H     1 <1>   0.0800 
 39 H       -3.7310    -0.9260     0.3870 H     1 <1>   0.0800 
 40 H       -3.9810    -0.9970    -1.3330 H     1 <1>   0.0800 
 41 H       -5.7490     2.2540     0.8080 H     1 <1>   0.0800 
 42 H       -4.8320     1.0860     1.7150 H     1 <1>   0.0800 
 43 H       -5.9440    -0.0350    -0.1490 H     1 <1>   0.0800 
 44 H       -5.2550     1.0900    -1.2830 H     1 <1>   0.0800 
 45 H        3.1820     8.4390     1.0120 H     1 <1>   0.1500 
 46 H        6.0140     6.9130    -1.7800 H     1 <1>   0.1500 
 47 H        4.4340    10.5200     1.1480 H     1 <1>   0.1500 
 48 H        7.2810     9.0010    -1.6340 H     1 <1>   0.1500 
 49 H        6.4970    10.8210    -0.1690 H     1 <1>   0.1500 
@<TRIPOS>BOND
  1   1   2  2   
  2   2   3  am  
  3   2   4  1   
  4   3   5  1   
  5   3   6  1   
  6   4   7  1   
  7   4  28  1   
  8   4  29  1   
  9   5   8  1   
 10   5   9  1   
 11   5  30  1   
 12   6  10  1   
 13   6  31  1   
 14   6  32  1   
 15   7  10  1   
 16   7  11  1   
 17   8  12  1   
 18   8  33  1   
 19   8  34  1   
 20   9  13  1   
 21   9  35  1   
 22   9  36  1   
 23  10  37  1   
 24  10  38  1   
 25  11  14  2   
 26  11  15  1   
 27  12  16  1   
 28  12  39  1   
 29  12  40  1   
 30  13  16  1   
 31  13  41  1   
 32  13  42  1   
 33  14  17  1   
 34  15  18  2   
 35  15  19  1   
 36  16  43  1   
 37  16  44  1   
 38  17  18  1   
 39  18  20  1   
 40  19  21  ar  
 41  19  22  ar  
 42  20  23  ar  
 43  20  24  ar  
 44  23  25  ar  
 45  23  45  1   
 46  24  26  ar  
 47  24  46  1   
 48  25  27  ar  
 49  25  47  1   
 50  26  27  ar  
 51  26  48  1   
 52  27  49  1   
@<TRIPOS>SUBSTRUCTURE
  1 ****   7 GROUP 4 **** **** 0

# MOE 2024.06 (io_trps.svl 2023.06)
