@<TRIPOS>MOLECULE
NONAME
46 48 1 0 0 
SMALL
USER_CHARGES


@<TRIPOS>ATOM
  1 O       -2.3200     1.3710    -1.4770 O.2   1 <1>  -0.5700 
  2 C       -1.9510     1.1010    -0.3610 C.2   1 <1>   0.5690 
  3 N       -1.9650    -0.1690     0.1070 N.am  1 <1>  -0.7300 
  4 C       -1.4630     2.2070     0.5450 C.3   1 <1>  -0.0990 
  5 C       -2.4140    -1.3480    -0.6660 C.3   1 <1>   0.2200 
  6 C       -0.3930     3.0360    -0.1590 C.3   1 <1>   0.1200 
  7 C       -3.7890    -1.7690    -0.1770 C.3   1 <1>  -0.0800 
  8 C       -1.5680    -2.5570    -0.2880 C.3   1 <1>   0.1200 
  9 O        0.1000     3.9870     0.7570 O.3   1 <1>  -0.3630 
 10 C       -3.4540    -2.6580     1.0280 C.3   1 <1>   0.1200 
 11 C       -4.5660    -2.5310    -1.2680 C.3   1 <1>  -0.0160 
 12 O       -2.1160    -3.0450     0.8990 O.3   1 <1>  -0.5600 
 13 C        1.0750     4.8620     0.4040 C.ar  1 <1>   0.0820 
 14 C       -5.9560    -2.9220    -0.7900 C.ar  1 <1>  -0.1440 
 15 C        1.6410     4.9220    -0.8670 C.ar  1 <1>  -0.1500 
 16 C        1.5140     5.7360     1.3860 C.ar  1 <1>  -0.1500 
 17 C       -6.2780    -4.2190    -0.4470 C.ar  1 <1>  -0.1500 
 18 C       -6.9700    -1.9920    -0.6750 C.ar  1 <1>  -0.1500 
 19 C        2.6340     5.8470    -1.1400 C.ar  1 <1>  -0.1500 
 20 C        2.5070     6.6600     1.1120 C.ar  1 <1>  -0.1500 
 21 C       -7.5610    -4.5150    -0.0150 C.ar  1 <1>   0.1600 
 22 C       -8.2190    -2.3920    -0.2320 C.ar  1 <1>   0.1600 
 23 C        3.0670     6.7160    -0.1530 C.ar  1 <1>  -0.1500 
 24 N       -8.5390    -3.6310     0.1030 N.ar  1 <1>  -0.6200 
 25 H       -1.6750    -0.3830     1.0640 H     1 <1>   0.3700 
 26 H       -2.2960     2.8360     0.7950 H     1 <1>   0.0800 
 27 H       -1.0540     1.7870     1.4440 H     1 <1>   0.0800 
 28 H       -2.3810    -1.1390    -1.7230 H     1 <1>   0.0800 
 29 H       -0.8110     3.5560    -1.0040 H     1 <1>   0.0800 
 30 H        0.4260     2.4120    -0.4740 H     1 <1>   0.0800 
 31 H       -4.3700    -0.9160     0.1240 H     1 <1>   0.0800 
 32 H       -0.5320    -2.3100    -0.1360 H     1 <1>   0.0800 
 33 H       -1.6530    -3.3310    -1.0300 H     1 <1>   0.0800 
 34 H       -4.0670    -3.5400     1.0840 H     1 <1>   0.0800 
 35 H       -3.5440    -2.1040     1.9470 H     1 <1>   0.0800 
 36 H       -4.0250    -3.4120    -1.5660 H     1 <1>   0.0800 
 37 H       -4.6670    -1.9030    -2.1370 H     1 <1>   0.0800 
 38 H        1.3230     4.2630    -1.6520 H     1 <1>   0.1500 
 39 H        1.0730     5.6880     2.3650 H     1 <1>   0.1500 
 40 H       -5.5470    -5.0050    -0.5120 H     1 <1>   0.1500 
 41 H       -6.8000    -0.9610    -0.9270 H     1 <1>   0.1500 
 42 H        3.0700     5.8920    -2.1230 H     1 <1>   0.1500 
 43 H        2.8420     7.3350     1.8800 H     1 <1>   0.1500 
 44 H       -7.7940    -5.5320     0.2490 H     1 <1>   0.1500 
 45 H       -8.9970    -1.6530    -0.1490 H     1 <1>   0.1500 
 46 H        3.8390     7.4340    -0.3680 H     1 <1>   0.1500 
@<TRIPOS>BOND
  1   1   2  2   
  2   2   3  am  
  3   2   4  1   
  4   3   5  1   
  5   3  25  1   
  6   4   6  1   
  7   4  26  1   
  8   4  27  1   
  9   5   7  1   
 10   5   8  1   
 11   5  28  1   
 12   6   9  1   
 13   6  29  1   
 14   6  30  1   
 15   7  10  1   
 16   7  11  1   
 17   7  31  1   
 18   8  12  1   
 19   8  32  1   
 20   8  33  1   
 21   9  13  1   
 22  10  12  1   
 23  10  34  1   
 24  10  35  1   
 25  11  14  1   
 26  11  36  1   
 27  11  37  1   
 28  13  15  ar  
 29  13  16  ar  
 30  14  17  ar  
 31  14  18  ar  
 32  15  19  ar  
 33  15  38  1   
 34  16  20  ar  
 35  16  39  1   
 36  17  21  ar  
 37  17  40  1   
 38  18  22  ar  
 39  18  41  1   
 40  19  23  ar  
 41  19  42  1   
 42  20  23  ar  
 43  20  43  1   
 44  21  24  ar  
 45  21  44  1   
 46  22  24  ar  
 47  22  45  1   
 48  23  46  1   
@<TRIPOS>SUBSTRUCTURE
  1 ****   2 GROUP 4 **** **** 0

# MOE 2024.06 (io_trps.svl 2023.06)
