@<TRIPOS>MOLECULE
NONAME
45 47 1 0 0 
SMALL
USER_CHARGES


@<TRIPOS>ATOM
  1 S        0.5550    -0.2540     2.1740 S.3   1 <1>  -0.0800 
  2 C        1.3300    -0.9530     0.7560 C.2   1 <1>   0.2930 
  3 C        1.0150     1.3310     1.6490 C.2   1 <1>  -0.1100 
  4 N        1.8560    -0.0500    -0.0060 N.2   1 <1>  -0.5650 
  5 C        1.2750    -2.3990     0.6180 C.2   1 <1>   0.7150 
  6 C        1.6880     1.2290     0.4920 C.2   1 <1>   0.0460 
  7 O        2.2980    -3.0620     0.5440 O.2   1 <1>  -0.5700 
  8 N        0.0700    -3.0740     0.5650 N.am  1 <1>  -0.6600 
  9 C        2.2860     2.3720    -0.3280 C.3   1 <1>   0.1010 
 10 C       -1.2360    -2.4350     0.2610 C.3   1 <1>   0.1400 
 11 C       -0.0150    -4.5460     0.3920 C.3   1 <1>   0.1400 
 12 C        3.8170     2.3340    -0.2600 C.3   1 <1>  -0.2400 
 13 C        1.7790     3.7490     0.1240 C.3   1 <1>  -0.2400 
 14 C       -2.0680    -3.5430    -0.3820 C.3   1 <1>   0.2000 
 15 C       -1.5010    -4.8440     0.1780 C.3   1 <1>  -0.0800 
 16 O       -3.4110    -3.4250    -0.0620 O.3   1 <1>  -0.6800 
 17 C       -1.7600    -6.0570    -0.7270 C.3   1 <1>   0.0210 
 18 C       -1.1100    -7.3050    -0.1620 C.2   1 <1>   0.1080 
 19 N       -1.4600    -7.8270     0.9720 N.2   1 <1>  -0.7070 
 20 C       -0.0810    -8.0140    -0.7730 C.2   1 <1>  -0.1500 
 21 N       -0.6580    -8.8990     1.1150 N.pl3 1 <1>   0.3000 
 22 C        0.1890    -9.0310     0.0720 C.2   1 <1>  -0.3320 
 23 C        1.2180   -10.1390    -0.0550 C.3   1 <1>  -0.0600 
 24 H        0.7360     2.1680     2.2620 H     1 <1>   0.1500 
 25 H        1.9870     2.2270    -1.3530 H     1 <1>   0.0800 
 26 H       -1.6890    -2.1040     1.1790 H     1 <1>   0.0800 
 27 H       -1.1140    -1.6070    -0.4170 H     1 <1>   0.0800 
 28 H        0.5650    -4.8340    -0.4680 H     1 <1>   0.0800 
 29 H        0.3650    -5.0560     1.2610 H     1 <1>   0.0800 
 30 H        4.1490     2.4540     0.7560 H     1 <1>   0.0800 
 31 H        4.2420     3.1150    -0.8630 H     1 <1>   0.0800 
 32 H        4.1760     1.3880    -0.6250 H     1 <1>   0.0800 
 33 H        2.0860     3.9540     1.1340 H     1 <1>   0.0800 
 34 H        0.7050     3.7830     0.0700 H     1 <1>   0.0800 
 35 H        2.1740     4.5170    -0.5170 H     1 <1>   0.0800 
 36 H       -1.9680    -3.4960    -1.4530 H     1 <1>   0.0800 
 37 H       -1.9250    -5.0360     1.1490 H     1 <1>   0.0800 
 38 H       -3.5580    -3.6530     0.8770 H     1 <1>   0.4000 
 39 H       -1.3790    -5.8720    -1.7150 H     1 <1>   0.0800 
 40 H       -2.8190    -6.2270    -0.8040 H     1 <1>   0.0800 
 41 H        0.3820    -7.7800    -1.7140 H     1 <1>   0.1500 
 42 H       -0.7130    -9.5180     1.9330 H     1 <1>   0.2700 
 43 H        1.7690   -10.0280    -0.9720 H     1 <1>   0.0800 
 44 H        0.7340   -11.0990    -0.0610 H     1 <1>   0.0800 
 45 H        1.9110   -10.0990     0.7670 H     1 <1>   0.0800 
@<TRIPOS>BOND
  1   1   2  1   
  2   1   3  1   
  3   2   4  2   
  4   2   5  1   
  5   3   6  2   
  6   3  24  1   
  7   4   6  1   
  8   5   7  2   
  9   5   8  am  
 10   6   9  1   
 11   8  10  1   
 12   8  11  1   
 13   9  12  1   
 14   9  13  1   
 15   9  25  1   
 16  10  14  1   
 17  10  26  1   
 18  10  27  1   
 19  11  15  1   
 20  11  28  1   
 21  11  29  1   
 22  12  30  1   
 23  12  31  1   
 24  12  32  1   
 25  13  33  1   
 26  13  34  1   
 27  13  35  1   
 28  14  15  1   
 29  14  16  1   
 30  14  36  1   
 31  15  17  1   
 32  15  37  1   
 33  16  38  1   
 34  17  18  1   
 35  17  39  1   
 36  17  40  1   
 37  18  19  2   
 38  18  20  1   
 39  19  21  1   
 40  20  22  2   
 41  20  41  1   
 42  21  22  1   
 43  21  42  1   
 44  22  23  1   
 45  23  43  1   
 46  23  44  1   
 47  23  45  1   
@<TRIPOS>SUBSTRUCTURE
  1 ****   8 GROUP 4 **** **** 0

# MOE 2024.06 (io_trps.svl 2023.06)
