@<TRIPOS>MOLECULE
NONAME
40 41 1 0 0 
SMALL
USER_CHARGES


@<TRIPOS>ATOM
  1 S       -0.8820    -0.7080     1.0190 S.3   1 <1>  -0.0800 
  2 C       -1.8840    -1.1380    -0.3260 C.2   1 <1>   0.4420 
  3 C       -1.2300     0.9510     0.6550 C.2   1 <1>   0.1980 
  4 N       -2.3760    -0.1090    -0.9150 N.2   1 <1>  -0.3380 
  5 N       -2.0180    -2.4840    -0.5830 N.am  1 <1>  -0.4940 
  6 N       -1.9990     1.0790    -0.3500 N.2   1 <1>  -0.3380 
  7 C       -0.6110     2.0460     1.5220 C.3   1 <1>   0.3800 
  8 C       -2.7800    -3.1380    -1.5130 C.2   1 <1>   0.5690 
  9 O        0.7820     1.9270     1.5610 O.3   1 <1>  -0.5600 
 10 C       -1.1040     1.9900     2.9670 C.3   1 <1>  -0.2400 
 11 O       -3.5110    -2.5590    -2.2790 O.2   1 <1>  -0.5700 
 12 C       -2.6690    -4.6810    -1.5820 C.3   1 <1>   0.2040 
 13 C        1.4330     2.2360     0.3660 C.3   1 <1>   0.0400 
 14 C       -2.1430    -5.2280    -0.2300 C.ar  1 <1>  -0.1440 
 15 C       -4.0390    -5.3340    -1.8720 C.3   1 <1>  -0.2400 
 16 C       -1.7440    -5.0390    -2.7640 C.3   1 <1>  -0.2400 
 17 C       -0.9290    -5.8970    -0.0950 C.ar  1 <1>  -0.1500 
 18 C       -2.9030    -5.0240     0.9190 C.ar  1 <1>  -0.1500 
 19 C       -0.4910    -6.3370     1.1420 C.ar  1 <1>  -0.1500 
 20 C       -2.4680    -5.4630     2.1570 C.ar  1 <1>  -0.1500 
 21 C       -1.2590    -6.1200     2.2700 C.ar  1 <1>  -0.1500 
 22 H       -1.5060    -3.1010     0.0480 H     1 <1>   0.3700 
 23 H       -0.8560     3.0080     1.1050 H     1 <1>   0.0800 
 24 H       -0.8170     1.0620     3.4260 H     1 <1>   0.0800 
 25 H       -2.1750     2.0720     2.9880 H     1 <1>   0.0800 
 26 H       -0.6850     2.8070     3.5250 H     1 <1>   0.0800 
 27 H        2.4920     2.1360     0.5270 H     1 <1>   0.0800 
 28 H        1.2050     3.2500     0.0850 H     1 <1>   0.0800 
 29 H        1.1220     1.5510    -0.4050 H     1 <1>   0.0800 
 30 H       -4.7730    -5.0270    -1.1510 H     1 <1>   0.0800 
 31 H       -3.9560    -6.4050    -1.8440 H     1 <1>   0.0800 
 32 H       -4.3960    -5.0410    -2.8440 H     1 <1>   0.0800 
 33 H       -0.7720    -4.5990    -2.6320 H     1 <1>   0.0800 
 34 H       -2.1540    -4.6540    -3.6820 H     1 <1>   0.0800 
 35 H       -1.6430    -6.1050    -2.8630 H     1 <1>   0.0800 
 36 H       -0.2930    -6.0930    -0.9390 H     1 <1>   0.1500 
 37 H       -3.8490    -4.5120     0.8660 H     1 <1>   0.1500 
 38 H        0.4500    -6.8530     1.2270 H     1 <1>   0.1500 
 39 H       -3.0720    -5.2940     3.0320 H     1 <1>   0.1500 
 40 H       -0.9180    -6.4640     3.2320 H     1 <1>   0.1500 
@<TRIPOS>BOND
  1   1   2  1   
  2   1   3  1   
  3   2   4  2   
  4   2   5  1   
  5   3   6  2   
  6   3   7  1   
  7   4   6  1   
  8   5   8  am  
  9   5  22  1   
 10   7   9  1   
 11   7  10  1   
 12   7  23  1   
 13   8  11  2   
 14   8  12  1   
 15   9  13  1   
 16  10  24  1   
 17  10  25  1   
 18  10  26  1   
 19  12  14  1   
 20  12  15  1   
 21  12  16  1   
 22  13  27  1   
 23  13  28  1   
 24  13  29  1   
 25  14  17  ar  
 26  14  18  ar  
 27  15  30  1   
 28  15  31  1   
 29  15  32  1   
 30  16  33  1   
 31  16  34  1   
 32  16  35  1   
 33  17  19  ar  
 34  17  36  1   
 35  18  20  ar  
 36  18  37  1   
 37  19  21  ar  
 38  19  38  1   
 39  20  21  ar  
 40  20  39  1   
 41  21  40  1   
@<TRIPOS>SUBSTRUCTURE
  1 ****   5 GROUP 4 **** **** 0

# MOE 2024.06 (io_trps.svl 2023.06)
