@<TRIPOS>MOLECULE
NONAME
47 51 1 0 0 
SMALL
USER_CHARGES


@<TRIPOS>ATOM
  1 O       -1.0610     1.5470     1.2990 O.2   1 <1>  -0.5700 
  2 C       -1.7500     1.4000     0.3020 C.2   1 <1>   0.7160 
  3 N       -2.3190     0.1520     0.1030 N.am  1 <1>  -0.6600 
  4 C       -1.9170     2.5280    -0.6090 C.2   1 <1>   0.1410 
  5 C       -2.8940    -0.3060    -1.1930 C.3   1 <1>   0.1400 
  6 C       -2.4940    -0.7620     1.2730 C.3   1 <1>   0.1400 
  7 N       -3.0670     2.8220    -1.3010 N.2   1 <1>  -0.5650 
  8 C       -1.0150     3.4940    -0.9170 C.2   1 <1>  -0.0400 
  9 C       -4.3440    -0.7390    -0.9780 C.3   1 <1>  -0.1600 
 10 C       -3.1830    -2.0710     0.8780 C.3   1 <1>  -0.1600 
 11 C       -2.7780     3.8940    -1.9380 C.2   1 <1>   0.3280 
 12 O       -1.5610     4.3320    -1.7440 O.3   1 <1>  -0.2800 
 13 C        0.4180     3.7410    -0.4830 C.3   1 <1>  -0.0600 
 14 C       -4.4950    -1.8050     0.1300 C.3   1 <1>   0.4600 
 15 O       -5.3900    -1.3150     1.1030 O.3   1 <1>  -0.5600 
 16 C       -5.0470    -3.1150    -0.4280 C.2   1 <1>  -0.3320 
 17 C       -6.7660    -1.3750     0.8140 C.3   1 <1>   0.1200 
 18 N       -4.3970    -3.9880    -1.2570 N.pl3 1 <1>   0.0330 
 19 C       -6.2820    -3.5890    -0.1670 C.2   1 <1>  -0.1810 
 20 C       -7.2430    -2.8340     0.7170 C.3   1 <1>   0.0210 
 21 C       -5.2440    -5.0380    -1.5170 C.ar  1 <1>  -0.1520 
 22 C       -6.4410    -4.8170    -0.8410 C.ar  1 <1>   0.0000 
 23 C       -5.0640    -6.1840    -2.2960 C.ar  1 <1>  -0.1500 
 24 C       -7.4760    -5.7510    -0.9410 C.ar  1 <1>  -0.1500 
 25 C       -6.0910    -7.0950    -2.3880 C.ar  1 <1>  -0.1500 
 26 C       -7.2970    -6.8790    -1.7100 C.ar  1 <1>  -0.1500 
 27 H       -2.3130    -1.1360    -1.5560 H     1 <1>   0.0800 
 28 H       -2.8470     0.4620    -1.9430 H     1 <1>   0.0800 
 29 H       -3.0910    -0.2580     2.0150 H     1 <1>   0.0800 
 30 H       -1.5320    -0.9740     1.7080 H     1 <1>   0.0800 
 31 H       -4.7310    -1.1210    -1.9040 H     1 <1>   0.0800 
 32 H       -4.9120     0.1390    -0.7270 H     1 <1>   0.0800 
 33 H       -3.3890    -2.6570     1.7550 H     1 <1>   0.0800 
 34 H       -2.5110    -2.6400     0.2650 H     1 <1>   0.0800 
 35 H       -3.4260     4.4460    -2.5960 H     1 <1>   0.1500 
 36 H        0.7660     2.9560     0.1630 H     1 <1>   0.0800 
 37 H        0.4790     4.6750     0.0450 H     1 <1>   0.0800 
 38 H        1.0560     3.7860    -1.3470 H     1 <1>   0.0800 
 39 H       -6.9440    -0.8620    -0.1140 H     1 <1>   0.0800 
 40 H       -7.2900    -0.8620     1.6010 H     1 <1>   0.0800 
 41 H       -3.4430    -3.9010    -1.6170 H     1 <1>   0.2700 
 42 H       -8.2330    -2.8650     0.3020 H     1 <1>   0.0800 
 43 H       -7.2640    -3.2790     1.6950 H     1 <1>   0.0800 
 44 H       -4.1350    -6.3440    -2.8140 H     1 <1>   0.1500 
 45 H       -8.3950    -5.5730    -0.4150 H     1 <1>   0.1500 
 46 H       -5.9770    -7.9850    -2.9810 H     1 <1>   0.1500 
 47 H       -8.0840    -7.6070    -1.7970 H     1 <1>   0.1500 
@<TRIPOS>BOND
  1   1   2  2   
  2   2   3  am  
  3   2   4  1   
  4   3   5  1   
  5   3   6  1   
  6   4   7  1   
  7   4   8  2   
  8   5   9  1   
  9   5  27  1   
 10   5  28  1   
 11   6  10  1   
 12   6  29  1   
 13   6  30  1   
 14   7  11  2   
 15   8  12  1   
 16   8  13  1   
 17   9  14  1   
 18   9  31  1   
 19   9  32  1   
 20  10  14  1   
 21  10  33  1   
 22  10  34  1   
 23  11  12  1   
 24  11  35  1   
 25  13  36  1   
 26  13  37  1   
 27  13  38  1   
 28  14  15  1   
 29  14  16  1   
 30  15  17  1   
 31  16  18  1   
 32  16  19  2   
 33  17  20  1   
 34  17  39  1   
 35  17  40  1   
 36  18  21  1   
 37  18  41  1   
 38  19  20  1   
 39  19  22  1   
 40  20  42  1   
 41  20  43  1   
 42  21  22  ar  
 43  21  23  ar  
 44  22  24  ar  
 45  23  25  ar  
 46  23  44  1   
 47  24  26  ar  
 48  24  45  1   
 49  25  26  ar  
 50  25  46  1   
 51  26  47  1   
@<TRIPOS>SUBSTRUCTURE
  1 ****   9 GROUP 4 **** **** 0

# MOE 2024.06 (io_trps.svl 2023.06)
