@<TRIPOS>MOLECULE
NONAME
14 14 1 0 0 
SMALL
USER_CHARGES


@<TRIPOS>ATOM
  1 N       -7.7540     2.4710     0.6450 N.1   1 <1>  -0.5570 
  2 C       -6.7700     1.9180     0.5130 C.1   1 <1>   0.4920 
  3 C       -5.5820     1.1390     0.3360 C.2   1 <1>  -0.0540 
  4 C       -5.5490    -0.1670     0.0200 C.2   1 <1>  -0.3070 
  5 C       -4.5000    -1.2490    -0.2040 C.3   1 <1>   0.6100 
  6 C       -6.5970    -1.2460    -0.2300 C.3   1 <1>   0.6100 
  7 N       -5.5560    -2.1800     0.3030 N.4   1 <1>  -0.8440 
  8 H       -4.6860     1.7170     0.4850 H     1 <1>   0.1500 
  9 H       -3.6470    -1.1950     0.4480 H     1 <1>   0.0000 
 10 H       -4.2810    -1.4300    -1.2410 H     1 <1>   0.0000 
 11 H       -6.7910    -1.4270    -1.2720 H     1 <1>   0.0000 
 12 H       -7.4650    -1.1890     0.4010 H     1 <1>   0.0000 
 13 H       -5.5740    -2.2030     1.3240 H     1 <1>   0.4500 
 14 H       -5.5560    -3.0970    -0.1470 H     1 <1>   0.4500 
@<TRIPOS>BOND
  1   1   2  3   
  2   2   3  1   
  3   3   4  2   
  4   3   8  1   
  5   4   5  1   
  6   4   6  1   
  7   5   7  1   
  8   5   9  1   
  9   5  10  1   
 10   6   7  1   
 11   6  11  1   
 12   6  12  1   
 13   7  13  1   
 14   7  14  1   
@<TRIPOS>SUBSTRUCTURE
  1 ****   4 GROUP 4 **** **** 0

# MOE 2024.06 (io_trps.svl 2023.06)
