@<TRIPOS>MOLECULE
NONAME
57 59 1 0 0 
SMALL
USER_CHARGES


@<TRIPOS>ATOM
  1 O       -4.2620     1.8760    -1.4460 O.2   1 <1>  -0.5700 
  2 C       -3.5400     1.1550    -0.7960 C.2   1 <1>   0.5690 
  3 N       -3.7530    -0.2010    -0.7520 N.am  1 <1>  -0.6600 
  4 C       -2.3930     1.8520    -0.0510 C.3   1 <1>  -0.0190 
  5 C       -2.8840    -1.1740     0.0090 C.3   1 <1>   0.3640 
  6 C       -4.9650    -0.7430    -1.4470 C.3   1 <1>   0.1400 
  7 C       -2.8980     3.0490     0.7780 C.3   1 <1>  -0.1600 
  8 C       -1.3180     2.3280    -1.0450 C.3   1 <1>  -0.1600 
  9 C       -1.4710    -1.1580    -0.5860 C.ar  1 <1>  -0.1430 
 10 C       -3.3840    -2.6520     0.0910 C.3   1 <1>   0.2000 
 11 C       -4.9500    -2.2640    -1.6020 C.3   1 <1>   0.1200 
 12 C       -1.7470     3.8080     1.4360 C.3   1 <1>   0.3430 
 13 C       -0.2000     3.0940    -0.3470 C.3   1 <1>   0.3430 
 14 C       -0.3640    -1.0800     0.2510 C.ar  1 <1>  -0.1500 
 15 C       -1.2690    -1.2240    -1.9590 C.ar  1 <1>  -0.1500 
 16 O       -4.6960    -2.8380    -0.3640 O.3   1 <1>  -0.5600 
 17 C       -3.3470    -3.1930     1.5280 C.3   1 <1>   0.1200 
 18 N       -0.7810     4.2550     0.3910 N.4   1 <1>  -0.9590 
 19 C        0.9160    -1.0590    -0.2730 C.ar  1 <1>  -0.1500 
 20 C        0.0110    -1.2020    -2.4850 C.ar  1 <1>  -0.1500 
 21 O       -2.0730    -3.0690     2.0760 O.3   1 <1>  -0.6800 
 22 C        0.2750     5.1240     1.0080 C.3   1 <1>   0.3430 
 23 C        1.1050    -1.1180    -1.6420 C.ar  1 <1>  -0.1500 
 24 C        1.1240     5.8670    -0.0310 C.3   1 <1>   0.1200 
 25 O        2.0220     6.6580     0.6700 O.3   1 <1>  -0.5600 
 26 C        2.8660     7.4250    -0.1320 C.3   1 <1>   0.0400 
 27 H       -1.9360     1.1730     0.6400 H     1 <1>   0.0800 
 28 H       -2.8240    -0.8120     1.0200 H     1 <1>   0.0800 
 29 H       -5.8390    -0.4630    -0.8840 H     1 <1>   0.0800 
 30 H       -5.0510    -0.2950    -2.4220 H     1 <1>   0.0800 
 31 H       -3.5690     2.6940     1.5410 H     1 <1>   0.0800 
 32 H       -3.4570     3.7270     0.1550 H     1 <1>   0.0800 
 33 H       -1.7640     2.9510    -1.8010 H     1 <1>   0.0800 
 34 H       -0.8910     1.4790    -1.5470 H     1 <1>   0.0800 
 35 H       -2.7570    -3.2760    -0.5210 H     1 <1>   0.0800 
 36 H       -4.2000    -2.5810    -2.3070 H     1 <1>   0.0800 
 37 H       -5.9110    -2.6100    -1.9370 H     1 <1>   0.0800 
 38 H       -1.2490     3.1670     2.1450 H     1 <1>   0.0800 
 39 H       -2.1400     4.6610     1.9660 H     1 <1>   0.0800 
 40 H        0.5090     3.4340    -1.0840 H     1 <1>   0.0800 
 41 H        0.3130     2.4390     0.3400 H     1 <1>   0.0800 
 42 H       -0.4930    -1.0460     1.3200 H     1 <1>   0.1500 
 43 H       -2.1090    -1.2880    -2.6290 H     1 <1>   0.1500 
 44 H       -3.6250    -4.2320     1.5490 H     1 <1>   0.0800 
 45 H       -4.0240    -2.6310     2.1480 H     1 <1>   0.0800 
 46 H       -1.3170     4.8160    -0.2850 H     1 <1>   0.4500 
 47 H        1.7680    -1.0070     0.3840 H     1 <1>   0.1500 
 48 H        0.1560    -1.2560    -3.5510 H     1 <1>   0.1500 
 49 H       -1.4720    -3.7510     1.7110 H     1 <1>   0.4000 
 50 H       -0.1940     5.8620     1.6370 H     1 <1>   0.0800 
 51 H        0.9260     4.5240     1.6220 H     1 <1>   0.0800 
 52 H        2.1000    -1.1080    -2.0520 H     1 <1>   0.1500 
 53 H        0.5100     6.5080    -0.6390 H     1 <1>   0.0800 
 54 H        1.6850     5.1820    -0.6420 H     1 <1>   0.0800 
 55 H        3.5150     7.9930     0.5120 H     1 <1>   0.0800 
 56 H        2.2780     8.0980    -0.7320 H     1 <1>   0.0800 
 57 H        3.4570     6.7770    -0.7560 H     1 <1>   0.0800 
@<TRIPOS>BOND
  1   1   2  2   
  2   2   3  am  
  3   2   4  1   
  4   3   5  1   
  5   3   6  1   
  6   4   7  1   
  7   4   8  1   
  8   4  27  1   
  9   5   9  1   
 10   5  10  1   
 11   5  28  1   
 12   6  11  1   
 13   6  29  1   
 14   6  30  1   
 15   7  12  1   
 16   7  31  1   
 17   7  32  1   
 18   8  13  1   
 19   8  33  1   
 20   8  34  1   
 21   9  14  ar  
 22   9  15  ar  
 23  10  16  1   
 24  10  17  1   
 25  10  35  1   
 26  11  16  1   
 27  11  36  1   
 28  11  37  1   
 29  12  18  1   
 30  12  38  1   
 31  12  39  1   
 32  13  18  1   
 33  13  40  1   
 34  13  41  1   
 35  14  19  ar  
 36  14  42  1   
 37  15  20  ar  
 38  15  43  1   
 39  17  21  1   
 40  17  44  1   
 41  17  45  1   
 42  18  22  1   
 43  18  46  1   
 44  19  23  ar  
 45  19  47  1   
 46  20  23  ar  
 47  20  48  1   
 48  21  49  1   
 49  22  24  1   
 50  22  50  1   
 51  22  51  1   
 52  23  52  1   
 53  24  25  1   
 54  24  53  1   
 55  24  54  1   
 56  25  26  1   
 57  26  55  1   
 58  26  56  1   
 59  26  57  1   
@<TRIPOS>SUBSTRUCTURE
  1 ****   4 GROUP 4 **** **** 0

# MOE 2024.06 (io_trps.svl 2023.06)
