@<TRIPOS>MOLECULE
NONAME
44 45 1 0 0 
SMALL
USER_CHARGES


@<TRIPOS>ATOM
  1 S        0.0300     0.0770     1.4970 S.o2  1 <1>   1.5760 
  2 O       -0.8810     1.0030     2.1300 O.2   1 <1>  -0.6500 
  3 O        0.6090    -0.9750     2.3040 O.2   1 <1>  -0.6500 
  4 N        1.3010     0.8900     0.7260 N.am  1 <1>  -0.8490 
  5 N       -0.7880    -0.6840     0.2220 N.am  1 <1>  -0.8490 
  6 C        2.4460    -0.0010     0.4080 C.3   1 <1>   0.4140 
  7 C        1.0550     2.0030    -0.2320 C.3   1 <1>   0.2760 
  8 C       -1.3710    -1.9530     0.6250 C.3   1 <1>   0.1960 
  9 C       -1.8760     0.0510    -0.4020 C.3   1 <1>   0.1960 
 10 C        3.6620     0.8300     0.0250 C.2   1 <1>  -0.2880 
 11 C        2.1830    -1.0190    -0.7280 C.3   1 <1>  -0.0220 
 12 C        2.3270     2.8760    -0.4030 C.3   1 <1>  -0.0220 
 13 C       -0.0890     2.9720     0.1630 C.3   1 <1>  -0.0220 
 14 C       -2.3080    -2.3290    -0.5140 C.3   1 <1>  -0.1600 
 15 C       -2.6770    -0.9980    -1.1640 C.3   1 <1>  -0.1600 
 16 C        3.6260     2.1080    -0.3430 C.2   1 <1>  -0.2880 
 17 C        3.3400    -1.9670    -1.0440 C.2   1 <1>  -0.2880 
 18 C       -0.2750     4.1030    -0.8430 C.2   1 <1>  -0.2880 
 19 C        4.2810    -2.4020    -0.2000 C.2   1 <1>  -0.3000 
 20 C       -0.1360     5.4020    -0.5620 C.2   1 <1>  -0.3000 
 21 H        2.7110    -0.5420     1.2990 H     1 <1>   0.0800 
 22 H        0.8140     1.5670    -1.1860 H     1 <1>   0.0800 
 23 H       -0.6100    -2.7010     0.7810 H     1 <1>   0.0800 
 24 H       -1.9350    -1.8230     1.5360 H     1 <1>   0.0800 
 25 H       -2.5030     0.5060     0.3480 H     1 <1>   0.0800 
 26 H       -1.5010     0.8020    -1.0750 H     1 <1>   0.0800 
 27 H        4.5800     0.2730     0.0730 H     1 <1>   0.1500 
 28 H        1.3550    -1.6500    -0.4850 H     1 <1>   0.0800 
 29 H        1.9420    -0.4700    -1.6190 H     1 <1>   0.0800 
 30 H        2.2720     3.3900    -1.3460 H     1 <1>   0.0800 
 31 H        2.3590     3.6240     0.3700 H     1 <1>   0.0800 
 32 H       -1.0300     2.4730     0.2190 H     1 <1>   0.0800 
 33 H        0.1200     3.3850     1.1350 H     1 <1>   0.0800 
 34 H       -1.7840    -2.9540    -1.2160 H     1 <1>   0.0800 
 35 H       -3.1690    -2.8570    -0.1450 H     1 <1>   0.0800 
 36 H       -3.7310    -0.7940    -1.0920 H     1 <1>   0.0800 
 37 H       -2.3900    -0.9970    -2.2010 H     1 <1>   0.0800 
 38 H        4.4960     2.6850    -0.6080 H     1 <1>   0.1500 
 39 H        3.3180    -2.2900    -2.0720 H     1 <1>   0.1500 
 40 H       -0.5410     3.7530    -1.8280 H     1 <1>   0.1500 
 41 H        5.0700    -3.0770    -0.4850 H     1 <1>   0.1500 
 42 H        4.3500    -2.1340     0.8400 H     1 <1>   0.1500 
 43 H       -0.2730     6.1910    -1.2810 H     1 <1>   0.1500 
 44 H        0.1250     5.7870     0.4090 H     1 <1>   0.1500 
@<TRIPOS>BOND
  1   1   2  2   
  2   1   3  2   
  3   1   4  am  
  4   1   5  am  
  5   4   6  1   
  6   4   7  1   
  7   5   8  1   
  8   5   9  1   
  9   6  10  1   
 10   6  11  1   
 11   6  21  1   
 12   7  12  1   
 13   7  13  1   
 14   7  22  1   
 15   8  14  1   
 16   8  23  1   
 17   8  24  1   
 18   9  15  1   
 19   9  25  1   
 20   9  26  1   
 21  10  16  2   
 22  10  27  1   
 23  11  17  1   
 24  11  28  1   
 25  11  29  1   
 26  12  16  1   
 27  12  30  1   
 28  12  31  1   
 29  13  18  1   
 30  13  32  1   
 31  13  33  1   
 32  14  15  1   
 33  14  34  1   
 34  14  35  1   
 35  15  36  1   
 36  15  37  1   
 37  16  38  1   
 38  17  19  2   
 39  17  39  1   
 40  18  20  2   
 41  18  40  1   
 42  19  41  1   
 43  19  42  1   
 44  20  43  1   
 45  20  44  1   
@<TRIPOS>SUBSTRUCTURE
  1 ****   4 GROUP 4 **** **** 0

# MOE 2024.06 (io_trps.svl 2023.06)
