@<TRIPOS>MOLECULE
NONAME
47 49 1 0 0 
SMALL
USER_CHARGES


@<TRIPOS>ATOM
  1 O       -0.5340    -1.8950    -1.0280 O.2   1 <1>  -0.5700 
  2 C        0.5580    -2.4240    -1.0490 C.2   1 <1>   0.6900 
  3 N        1.0120    -3.1800    -0.0050 N.am  1 <1>  -0.6600 
  4 N        1.3210    -2.2320    -2.1290 N.am  1 <1>  -0.8000 
  5 C        0.2630    -3.2110     1.3020 C.3   1 <1>   0.2010 
  6 C        2.1840    -4.1010    -0.0750 C.3   1 <1>   0.0600 
  7 C       -0.3320    -4.5810     1.6460 C.2   1 <1>   0.5690 
  8 O        0.2050    -5.2260     2.5180 O.2   1 <1>  -0.5700 
  9 N       -1.4310    -5.0610     0.9860 N.am  1 <1>  -0.6600 
 10 C       -2.1630    -4.3720    -0.1060 C.3   1 <1>   0.1400 
 11 C       -1.9050    -6.4600     1.1250 C.3   1 <1>   0.1400 
 12 C       -3.3710    -5.2680    -0.3780 C.3   1 <1>   0.2000 
 13 C       -2.8790    -6.6780    -0.0450 C.3   1 <1>  -0.0800 
 14 O       -4.3720    -4.9440     0.5230 O.3   1 <1>  -0.6800 
 15 C       -2.1800    -7.3140    -1.2640 C.3   1 <1>  -0.0170 
 16 C       -1.7520    -8.7460    -0.9890 C.ar  1 <1>   0.1670 
 17 N       -0.5040    -8.9570    -0.7050 N.ar  1 <1>  -0.6200 
 18 C       -2.7170    -9.7650    -1.0530 C.ar  1 <1>  -0.1500 
 19 C       -0.1190   -10.2330    -0.4470 C.ar  1 <1>   0.3100 
 20 C       -2.3580   -11.0550    -0.8040 C.ar  1 <1>  -0.1500 
 21 C       -1.0170   -11.3220    -0.4860 C.ar  1 <1>   0.0000 
 22 C        1.2230   -10.4840    -0.1240 C.ar  1 <1>  -0.1500 
 23 C       -0.5350   -12.6160    -0.2050 C.ar  1 <1>  -0.1500 
 24 C        1.6720   -11.7500     0.1470 C.ar  1 <1>  -0.1500 
 25 C        0.7810   -12.8280     0.1050 C.ar  1 <1>  -0.1500 
 26 H        0.9930    -1.5590    -2.8190 H     1 <1>   0.3700 
 27 H        2.3210    -2.4030    -2.0920 H     1 <1>   0.3700 
 28 H        0.9410    -2.9340     2.0880 H     1 <1>   0.0800 
 29 H       -0.5300    -2.4860     1.3000 H     1 <1>   0.0800 
 30 H        2.9720    -3.7340     0.5590 H     1 <1>   0.0800 
 31 H        2.5530    -4.1870    -1.0810 H     1 <1>   0.0800 
 32 H        1.9010    -5.0850     0.2580 H     1 <1>   0.0800 
 33 H       -2.4580    -3.3730     0.1670 H     1 <1>   0.0800 
 34 H       -1.5360    -4.3350    -0.9790 H     1 <1>   0.0800 
 35 H       -1.0740    -7.1440     1.1090 H     1 <1>   0.0800 
 36 H       -2.4190    -6.5610     2.0650 H     1 <1>   0.0800 
 37 H       -3.7640    -5.1610    -1.3740 H     1 <1>   0.0800 
 38 H       -3.6970    -7.3110     0.2520 H     1 <1>   0.0800 
 39 H       -3.9760    -4.8760     1.4160 H     1 <1>   0.4000 
 40 H       -1.3140    -6.7360    -1.5380 H     1 <1>   0.0800 
 41 H       -2.8490    -7.3130    -2.1050 H     1 <1>   0.0800 
 42 H       -3.7320    -9.5120    -1.2990 H     1 <1>   0.1500 
 43 H       -3.0680   -11.8610    -0.8440 H     1 <1>   0.1500 
 44 H        1.8900    -9.6430    -0.0950 H     1 <1>   0.1500 
 45 H       -1.2250   -13.4400    -0.2390 H     1 <1>   0.1500 
 46 H        2.7040   -11.9290     0.3930 H     1 <1>   0.1500 
 47 H        1.1470   -13.8170     0.3190 H     1 <1>   0.1500 
@<TRIPOS>BOND
  1   1   2  2   
  2   2   3  am  
  3   2   4  am  
  4   3   5  1   
  5   3   6  1   
  6   4  26  1   
  7   4  27  1   
  8   5   7  1   
  9   5  28  1   
 10   5  29  1   
 11   6  30  1   
 12   6  31  1   
 13   6  32  1   
 14   7   8  2   
 15   7   9  am  
 16   9  10  1   
 17   9  11  1   
 18  10  12  1   
 19  10  33  1   
 20  10  34  1   
 21  11  13  1   
 22  11  35  1   
 23  11  36  1   
 24  12  13  1   
 25  12  14  1   
 26  12  37  1   
 27  13  15  1   
 28  13  38  1   
 29  14  39  1   
 30  15  16  1   
 31  15  40  1   
 32  15  41  1   
 33  16  17  ar  
 34  16  18  ar  
 35  17  19  ar  
 36  18  20  ar  
 37  18  42  1   
 38  19  21  ar  
 39  19  22  ar  
 40  20  21  ar  
 41  20  43  1   
 42  21  23  ar  
 43  22  24  ar  
 44  22  44  1   
 45  23  25  ar  
 46  23  45  1   
 47  24  25  ar  
 48  24  46  1   
 49  25  47  1   
@<TRIPOS>SUBSTRUCTURE
  1 ****  11 GROUP 4 **** **** 0

# MOE 2024.06 (io_trps.svl 2023.06)
