@<TRIPOS>MOLECULE
NONAME
47 49 1 0 0 
SMALL
USER_CHARGES


@<TRIPOS>ATOM
  1 O       -0.2220    -0.2270     1.5500 O.3   1 <1>  -0.5600 
  2 C        0.4750     0.9670     1.6500 C.3   1 <1>   0.1200 
  3 C       -1.5630     0.0190     1.2550 C.3   1 <1>   0.1200 
  4 C       -0.1700     1.8580     0.5980 C.3   1 <1>   0.2890 
  5 C       -1.6320     1.4390     0.6780 C.3   1 <1>  -0.0800 
  6 N       -0.0060     3.3060     0.8870 N.pl3 1 <1>  -0.8690 
  7 C       -2.3610     1.5230    -0.6740 C.3   1 <1>  -0.0170 
  8 C        0.7060     4.2800     0.3120 C.ar  1 <1>   0.7710 
  9 C       -3.8110     1.0860    -0.5400 C.ar  1 <1>  -0.1440 
 10 N        0.5630     5.4730     0.8400 N.ar  1 <1>  -0.6200 
 11 N        1.5120     4.0320    -0.7330 N.ar  1 <1>  -0.1790 
 12 C       -4.2470    -0.1540    -0.9650 C.ar  1 <1>  -0.1500 
 13 C       -4.7690     1.9110     0.0140 C.ar  1 <1>  -0.1500 
 14 C        1.2310     6.4750     0.2980 C.ar  1 <1>   0.4100 
 15 C        2.2440     5.0240    -1.2930 C.ar  1 <1>   0.2110 
 16 C       -5.5790    -0.5000    -0.8120 C.ar  1 <1>   0.1600 
 17 C       -6.0770     1.4680     0.1200 C.ar  1 <1>   0.1600 
 18 N        1.0150     7.7000     0.8410 N.pl3 1 <1>  -0.8380 
 19 C        2.1270     6.2770    -0.7850 C.ar  1 <1>  -0.1430 
 20 N       -6.5030     0.2800    -0.2770 N.ar  1 <1>  -0.6200 
 21 C        0.5350     8.8640     0.0440 C.3   1 <1>   0.1290 
 22 C        0.8830     7.8870     2.3150 C.3   1 <1>   0.1290 
 23 C        2.9750     7.4160    -1.3510 C.3   1 <1>  -0.0970 
 24 H        0.3290     1.3530     2.6440 H     1 <1>   0.0800 
 25 H        1.5170     0.7790     1.4620 H     1 <1>   0.0800 
 26 H       -1.8910    -0.7320     0.5570 H     1 <1>   0.0800 
 27 H       -2.1340    -0.0630     2.1650 H     1 <1>   0.0800 
 28 H        0.2370     1.6000    -0.3640 H     1 <1>   0.0800 
 29 H       -2.1500     2.0500     1.3960 H     1 <1>   0.0800 
 30 H       -0.5550     3.6320     1.6910 H     1 <1>   0.4000 
 31 H       -1.8650     0.9030    -1.4010 H     1 <1>   0.0800 
 32 H       -2.3370     2.5360    -1.0350 H     1 <1>   0.0800 
 33 H        1.5590     3.0740    -1.0580 H     1 <1>   0.4570 
 34 H       -3.5700    -0.8580    -1.4130 H     1 <1>   0.1500 
 35 H       -4.5160     2.8950     0.3640 H     1 <1>   0.1500 
 36 H        2.9010     4.7880    -2.1150 H     1 <1>   0.1500 
 37 H       -5.9020    -1.4710    -1.1470 H     1 <1>   0.1500 
 38 H       -6.8110     2.1240     0.5550 H     1 <1>   0.1500 
 39 H       -0.3740     9.2520     0.4710 H     1 <1>   0.0800 
 40 H        0.3310     8.5700    -0.9700 H     1 <1>   0.0800 
 41 H        1.2810     9.6410     0.0460 H     1 <1>   0.0800 
 42 H        1.3910     8.7860     2.6180 H     1 <1>   0.0800 
 43 H        1.3210     7.0540     2.8390 H     1 <1>   0.0800 
 44 H       -0.1560     7.9580     2.5830 H     1 <1>   0.0800 
 45 H        3.7880     7.0420    -1.9470 H     1 <1>   0.0800 
 46 H        3.3950     7.9970    -0.5470 H     1 <1>   0.0800 
 47 H        2.3760     8.0630    -1.9660 H     1 <1>   0.0800 
@<TRIPOS>BOND
  1   1   2  1   
  2   1   3  1   
  3   2   4  1   
  4   2  24  1   
  5   2  25  1   
  6   3   5  1   
  7   3  26  1   
  8   3  27  1   
  9   4   5  1   
 10   4   6  1   
 11   4  28  1   
 12   5   7  1   
 13   5  29  1   
 14   6   8  1   
 15   6  30  1   
 16   7   9  1   
 17   7  31  1   
 18   7  32  1   
 19   8  10  ar  
 20   8  11  ar  
 21   9  12  ar  
 22   9  13  ar  
 23  10  14  ar  
 24  11  15  ar  
 25  11  33  1   
 26  12  16  ar  
 27  12  34  1   
 28  13  17  ar  
 29  13  35  1   
 30  14  18  1   
 31  14  19  ar  
 32  15  19  ar  
 33  15  36  1   
 34  16  20  ar  
 35  16  37  1   
 36  17  20  ar  
 37  17  38  1   
 38  18  21  1   
 39  18  22  1   
 40  19  23  1   
 41  21  39  1   
 42  21  40  1   
 43  21  41  1   
 44  22  42  1   
 45  22  43  1   
 46  22  44  1   
 47  23  45  1   
 48  23  46  1   
 49  23  47  1   
@<TRIPOS>SUBSTRUCTURE
  1 ****   6 GROUP 4 **** **** 0

# MOE 2024.06 (io_trps.svl 2023.06)
