@<TRIPOS>MOLECULE
NONAME
44 45 1 0 0 
SMALL
USER_CHARGES


@<TRIPOS>ATOM
  1 O        1.0640    -0.6550    -1.6380 O.2   1 <1>  -0.5700 
  2 C        1.9290    -1.1020    -0.9110 C.2   1 <1>   0.7150 
  3 N        3.1630    -0.5420    -0.9490 N.am  1 <1>  -0.7300 
  4 C        1.7090    -2.2060    -0.0200 C.2   1 <1>  -0.2370 
  5 C        3.5340     0.6560    -1.7220 C.3   1 <1>   0.3200 
  6 N        0.6020    -2.4130     0.7810 N.pl3 1 <1>   0.0480 
  7 C        2.5780    -3.2470     0.1960 C.2   1 <1>  -0.1500 
  8 C        4.3690     1.5660    -0.8460 C.2   1 <1>  -0.0400 
  9 C        0.8090    -3.5700     1.4640 C.2   1 <1>  -0.3020 
 10 C       -0.6220    -1.5850     1.0110 C.3   1 <1>   0.1760 
 11 C        2.0100    -4.1050     1.1270 C.2   1 <1>  -0.1500 
 12 O        5.5500     1.1780    -0.4460 O.3   1 <1>  -0.0190 
 13 C        4.1420     2.7880    -0.3420 C.2   1 <1>  -0.1500 
 14 C       -1.6280    -1.7380    -0.1350 C.3   1 <1>  -0.2400 
 15 C       -0.2910    -0.1160     1.3080 C.3   1 <1>  -0.2400 
 16 N        6.1260     2.0750     0.3000 N.2   1 <1>  -0.4100 
 17 C        5.3020     3.0590     0.3800 C.2   1 <1>   0.1080 
 18 C        5.5660     4.3340     1.1620 C.3   1 <1>   0.0210 
 19 C        5.6710     5.5780     0.2580 C.3   1 <1>  -0.0800 
 20 C        6.8460     5.4660    -0.7250 C.3   1 <1>  -0.2400 
 21 C        5.8300     6.8440     1.1080 C.3   1 <1>  -0.2400 
 22 H        3.8540    -0.8570    -0.2690 H     1 <1>   0.3700 
 23 H        2.6510     1.1770    -2.0500 H     1 <1>   0.0800 
 24 H        4.1020     0.3630    -2.5870 H     1 <1>   0.0800 
 25 H        3.5370    -3.3990    -0.2700 H     1 <1>   0.1500 
 26 H        0.0940    -3.9640     2.1630 H     1 <1>   0.1500 
 27 H       -1.0920    -1.9790     1.8950 H     1 <1>   0.0800 
 28 H        2.4540    -5.0140     1.4960 H     1 <1>   0.1500 
 29 H        3.2880     3.4310    -0.4450 H     1 <1>   0.1500 
 30 H       -1.2470    -1.3200    -1.0480 H     1 <1>   0.0800 
 31 H       -2.5420    -1.2280     0.1100 H     1 <1>   0.0800 
 32 H       -1.8510    -2.7780    -0.2930 H     1 <1>   0.0800 
 33 H        0.0490     0.3980     0.4300 H     1 <1>   0.0800 
 34 H        0.4620    -0.0530     2.0740 H     1 <1>   0.0800 
 35 H       -1.1740     0.3870     1.6590 H     1 <1>   0.0800 
 36 H        6.4770     4.2170     1.7220 H     1 <1>   0.0800 
 37 H        4.7660     4.4670     1.8670 H     1 <1>   0.0800 
 38 H        4.7600     5.6670    -0.3100 H     1 <1>   0.0800 
 39 H        7.7760     5.3570    -0.1940 H     1 <1>   0.0800 
 40 H        6.9040     6.3450    -1.3420 H     1 <1>   0.0800 
 41 H        6.7220     4.6130    -1.3690 H     1 <1>   0.0800 
 42 H        6.7350     6.8000     1.6900 H     1 <1>   0.0800 
 43 H        4.9960     6.9570     1.7780 H     1 <1>   0.0800 
 44 H        5.8740     7.7140     0.4770 H     1 <1>   0.0800 
@<TRIPOS>BOND
  1   1   2  2   
  2   2   3  am  
  3   2   4  1   
  4   3   5  1   
  5   3  22  1   
  6   4   6  1   
  7   4   7  2   
  8   5   8  1   
  9   5  23  1   
 10   5  24  1   
 11   6   9  1   
 12   6  10  1   
 13   7  11  1   
 14   7  25  1   
 15   8  12  1   
 16   8  13  2   
 17   9  11  2   
 18   9  26  1   
 19  10  14  1   
 20  10  15  1   
 21  10  27  1   
 22  11  28  1   
 23  12  16  1   
 24  13  17  1   
 25  13  29  1   
 26  14  30  1   
 27  14  31  1   
 28  14  32  1   
 29  15  33  1   
 30  15  34  1   
 31  15  35  1   
 32  16  17  2   
 33  17  18  1   
 34  18  19  1   
 35  18  36  1   
 36  18  37  1   
 37  19  20  1   
 38  19  21  1   
 39  19  38  1   
 40  20  39  1   
 41  20  40  1   
 42  20  41  1   
 43  21  42  1   
 44  21  43  1   
 45  21  44  1   
@<TRIPOS>SUBSTRUCTURE
  1 ****   3 GROUP 4 **** **** 0

# MOE 2024.06 (io_trps.svl 2023.06)
