@<TRIPOS>MOLECULE
NONAME
53 56 1 0 0 
SMALL
USER_CHARGES


@<TRIPOS>ATOM
  1 O       -2.3820     0.8260    -2.1980 O.2   1 <1>  -0.5700 
  2 C       -2.3090     1.0480    -1.0040 C.2   1 <1>   0.6160 
  3 N       -2.7140     0.0240    -0.1720 N.am  1 <1>  -0.6600 
  4 C       -1.9020     2.3550    -0.5520 C.2   1 <1>   0.0290 
  5 C       -3.4520     0.2390     1.1070 C.3   1 <1>   0.1400 
  6 C       -2.6470    -1.4000    -0.6070 C.3   1 <1>   0.1400 
  7 C       -1.1260     2.4970     0.6540 C.2   1 <1>   0.6160 
  8 C       -2.2230     3.4900    -1.2640 C.2   1 <1>  -0.1500 
  9 C       -4.8690    -0.3730     1.0390 C.3   1 <1>   0.4230 
 10 C       -4.0630    -1.9880    -0.7080 C.3   1 <1>   0.3430 
 11 O       -0.7920     1.5700     1.3780 O.2   1 <1>  -0.5700 
 12 N       -0.7460     3.7510     1.0580 N.am  1 <1>  -0.5390 
 13 C       -1.8080     4.7500    -0.7940 C.2   1 <1>  -0.1380 
 14 N       -4.8500    -1.8230     0.5780 N.4   1 <1>  -0.9590 
 15 C       -5.7830     0.4790     0.1280 C.3   1 <1>   0.1200 
 16 C       -1.0890     4.8570     0.3380 C.2   1 <1>  -0.0290 
 17 C       -2.0540     6.0970    -1.4260 C.3   1 <1>  -0.0220 
 18 C       -6.2650    -2.3240     0.4770 C.3   1 <1>   0.4230 
 19 O       -7.0690    -0.0720     0.0790 O.3   1 <1>  -0.5600 
 20 C       -0.7260     6.2780     0.6740 C.3   1 <1>  -0.0220 
 21 C       -1.5000     7.0930    -0.3840 C.3   1 <1>  -0.1600 
 22 C       -7.1340    -1.3870    -0.3980 C.3   1 <1>   0.1200 
 23 C       -6.2900    -3.7850    -0.0030 C.3   1 <1>  -0.1600 
 24 C       -7.6520    -4.4560     0.2360 C.3   1 <1>  -0.1600 
 25 C       -7.6130    -5.9300    -0.1770 C.3   1 <1>  -0.2400 
 26 H       -2.8970    -0.2120     1.9120 H     1 <1>   0.0800 
 27 H       -3.5300     1.2900     1.3240 H     1 <1>   0.0800 
 28 H       -2.1570    -1.4800    -1.5630 H     1 <1>   0.0800 
 29 H       -2.0630    -1.9610     0.1010 H     1 <1>   0.0800 
 30 H       -2.7820     3.4370    -2.1830 H     1 <1>   0.1500 
 31 H       -5.2890    -0.3270     2.0300 H     1 <1>   0.0800 
 32 H       -3.9850    -3.0320    -0.9610 H     1 <1>   0.0800 
 33 H       -4.5740    -1.4900    -1.5150 H     1 <1>   0.0800 
 34 H       -0.1790     3.7930     1.9060 H     1 <1>   0.3700 
 35 H       -4.3740    -2.3680     1.3050 H     1 <1>   0.4500 
 36 H       -5.3940     0.5450    -0.8740 H     1 <1>   0.0800 
 37 H       -5.8750     1.4760     0.5210 H     1 <1>   0.0800 
 38 H       -1.5130     6.1700    -2.3530 H     1 <1>   0.0800 
 39 H       -3.1030     6.2590    -1.6020 H     1 <1>   0.0800 
 40 H       -6.6950    -2.3080     1.4660 H     1 <1>   0.0800 
 41 H       -1.0390     6.5350     1.6710 H     1 <1>   0.0800 
 42 H        0.3350     6.4200     0.5710 H     1 <1>   0.0800 
 43 H       -2.3220     7.5990     0.0920 H     1 <1>   0.0800 
 44 H       -0.8650     7.8270    -0.8490 H     1 <1>   0.0800 
 45 H       -8.1670    -1.6870    -0.3570 H     1 <1>   0.0800 
 46 H       -6.8180    -1.3990    -1.4260 H     1 <1>   0.0800 
 47 H       -6.0650    -3.8370    -1.0540 H     1 <1>   0.0800 
 48 H       -5.5470    -4.3450     0.5370 H     1 <1>   0.0800 
 49 H       -7.9170    -4.3950     1.2790 H     1 <1>   0.0800 
 50 H       -8.4230    -3.9650    -0.3320 H     1 <1>   0.0800 
 51 H       -6.8790    -6.4700     0.3970 H     1 <1>   0.0800 
 52 H       -7.3770    -6.0280    -1.2220 H     1 <1>   0.0800 
 53 H       -8.5730    -6.3850    -0.0050 H     1 <1>   0.0800 
@<TRIPOS>BOND
  1   1   2  2   
  2   2   3  am  
  3   2   4  1   
  4   3   5  1   
  5   3   6  1   
  6   4   7  1   
  7   4   8  2   
  8   5   9  1   
  9   5  26  1   
 10   5  27  1   
 11   6  10  1   
 12   6  28  1   
 13   6  29  1   
 14   7  11  2   
 15   7  12  am  
 16   8  13  1   
 17   8  30  1   
 18   9  14  1   
 19   9  15  1   
 20   9  31  1   
 21  10  14  1   
 22  10  32  1   
 23  10  33  1   
 24  12  16  1   
 25  12  34  1   
 26  13  16  2   
 27  13  17  1   
 28  14  18  1   
 29  14  35  1   
 30  15  19  1   
 31  15  36  1   
 32  15  37  1   
 33  16  20  1   
 34  17  21  1   
 35  17  38  1   
 36  17  39  1   
 37  18  22  1   
 38  18  23  1   
 39  18  40  1   
 40  19  22  1   
 41  20  21  1   
 42  20  41  1   
 43  20  42  1   
 44  21  43  1   
 45  21  44  1   
 46  22  45  1   
 47  22  46  1   
 48  23  24  1   
 49  23  47  1   
 50  23  48  1   
 51  24  25  1   
 52  24  49  1   
 53  24  50  1   
 54  25  51  1   
 55  25  52  1   
 56  25  53  1   
@<TRIPOS>SUBSTRUCTURE
  1 ****   3 GROUP 4 **** **** 0

# MOE 2024.06 (io_trps.svl 2023.06)
