@<TRIPOS>MOLECULE
NONAME
42 44 1 0 0 
SMALL
USER_CHARGES


@<TRIPOS>ATOM
  1 F        0.3160    -0.7790     0.5180 F     1 <1>  -0.1900 
  2 C       -0.3960    -1.8770     0.5000 C.ar  1 <1>   0.1900 
  3 C        0.1880    -3.1420     0.6360 C.ar  1 <1>   0.0820 
  4 C       -1.7590    -1.7230     0.3450 C.ar  1 <1>  -0.1500 
  5 O        1.5140    -3.4220     0.7950 O.3   1 <1>  -0.3630 
  6 C       -0.6540    -4.2430     0.6070 C.ar  1 <1>  -0.1500 
  7 C       -2.5680    -2.8440     0.3230 C.ar  1 <1>  -0.1500 
  8 C        2.5160    -2.4300     0.7770 C.3   1 <1>   0.0400 
  9 C       -2.0380    -4.1300     0.4510 C.ar  1 <1>   0.0530 
 10 C       -2.8760    -5.3060     0.4280 C.2   1 <1>   0.0870 
 11 O       -2.4750    -6.4100     1.0110 O.3   1 <1>  -0.0190 
 12 C       -4.0930    -5.5710    -0.1090 C.2   1 <1>  -0.2330 
 13 N       -3.3410    -7.3830     0.9060 N.2   1 <1>  -0.4100 
 14 C       -4.3370    -6.9020     0.2430 C.2   1 <1>   0.3720 
 15 C       -4.9260    -4.7200    -0.8910 C.2   1 <1>   1.0330 
 16 N       -5.4660    -7.6900    -0.0400 N.pl3 1 <1>  -0.8210 
 17 O       -4.8660    -4.7330    -2.1320 O.co2 1 <1>  -0.9000 
 18 O       -5.7280    -3.9450    -0.3410 O.co2 1 <1>  -0.9000 
 19 C       -6.7550    -7.0120    -0.3450 C.3   1 <1>   0.2090 
 20 C       -5.2070    -8.9540    -0.7640 C.3   1 <1>   0.2090 
 21 C       -7.9640    -7.9600    -0.3040 C.3   1 <1>  -0.1600 
 22 C       -5.6210   -10.1270     0.1280 C.3   1 <1>  -0.1600 
 23 C       -7.8990    -9.0710     0.7610 C.3   1 <1>  -0.1600 
 24 C       -7.1420   -10.3180     0.2720 C.3   1 <1>  -0.1600 
 25 H       -2.1860    -0.7420     0.2420 H     1 <1>   0.1500 
 26 H       -0.2180    -5.2210     0.7070 H     1 <1>   0.1500 
 27 H       -3.6310    -2.7140     0.2090 H     1 <1>   0.1500 
 28 H        3.4690    -2.9150     0.8850 H     1 <1>   0.0800 
 29 H        2.3550    -1.7550     1.5990 H     1 <1>   0.0800 
 30 H        2.4760    -1.9100    -0.1640 H     1 <1>   0.0800 
 31 H       -6.7030    -6.5510    -1.3180 H     1 <1>   0.0800 
 32 H       -6.9020    -6.2310     0.3830 H     1 <1>   0.0800 
 33 H       -4.1560    -9.0310    -0.9870 H     1 <1>   0.0800 
 34 H       -5.7430    -8.9700    -1.6970 H     1 <1>   0.0800 
 35 H       -8.1020    -8.3930    -1.2780 H     1 <1>   0.0800 
 36 H       -8.8300    -7.3510    -0.1160 H     1 <1>   0.0800 
 37 H       -5.1780    -9.9850     1.0980 H     1 <1>   0.0800 
 38 H       -5.2050   -11.0270    -0.2860 H     1 <1>   0.0800 
 39 H       -8.9060    -9.3680     0.9990 H     1 <1>   0.0800 
 40 H       -7.4500    -8.6920     1.6640 H     1 <1>   0.0800 
 41 H       -7.3100   -11.1140     0.9760 H     1 <1>   0.0800 
 42 H       -7.5510   -10.6350    -0.6710 H     1 <1>   0.0800 
@<TRIPOS>BOND
  1   1   2  1   
  2   2   3  ar  
  3   2   4  ar  
  4   3   5  1   
  5   3   6  ar  
  6   4   7  ar  
  7   4  25  1   
  8   5   8  1   
  9   6   9  ar  
 10   6  26  1   
 11   7   9  ar  
 12   7  27  1   
 13   8  28  1   
 14   8  29  1   
 15   8  30  1   
 16   9  10  1   
 17  10  11  1   
 18  10  12  2   
 19  11  13  1   
 20  12  14  1   
 21  12  15  1   
 22  13  14  2   
 23  14  16  1   
 24  15  17  ar  
 25  15  18  ar  
 26  16  19  1   
 27  16  20  1   
 28  19  21  1   
 29  19  31  1   
 30  19  32  1   
 31  20  22  1   
 32  20  33  1   
 33  20  34  1   
 34  21  23  1   
 35  21  35  1   
 36  21  36  1   
 37  22  24  1   
 38  22  37  1   
 39  22  38  1   
 40  23  24  1   
 41  23  39  1   
 42  23  40  1   
 43  24  41  1   
 44  24  42  1   
@<TRIPOS>SUBSTRUCTURE
  1 ****  10 GROUP 4 **** **** 0

# MOE 2024.06 (io_trps.svl 2023.06)
