@<TRIPOS>MOLECULE
Untitled Document
45 46 1 0 0 
SMALL
USER_CHARGES


@<TRIPOS>ATOM
  1 O       -0.4310    -0.2940     0.0490 O.3   1 <1>  -0.3630 
  2 C       -1.4990    -0.9220     0.5970 C.ar  1 <1>   0.0830 
  3 C        0.7890    -0.9690    -0.1720 C.3   1 <1>   0.1200 
  4 C       -1.6290    -2.3060     0.6610 C.ar  1 <1>  -0.1500 
  5 C       -2.4990    -0.1160     1.1130 C.ar  1 <1>  -0.1500 
  6 C        1.8680     0.0450    -0.5810 C.3   1 <1>  -0.0800 
  7 C       -2.7570    -2.8780     1.2340 C.ar  1 <1>  -0.1430 
  8 C       -3.6170    -0.6780     1.6990 C.ar  1 <1>  -0.1500 
  9 C        3.1810    -0.6870    -0.9120 C.3   1 <1>  -0.1600 
 10 C        2.1030     1.0990     0.5180 C.3   1 <1>  -0.1600 
 11 C       -3.7440    -2.0540     1.7620 C.ar  1 <1>  -0.1500 
 12 C       -2.9110    -4.3920     1.2530 C.3   1 <1>   0.3430 
 13 C        4.2900     0.2980    -1.3070 C.3   1 <1>  -0.1600 
 14 C        3.2150     2.0820     0.1270 C.3   1 <1>  -0.1600 
 15 O       -3.1980    -4.7860     2.5360 O.3   1 <1>  -0.6800 
 16 C       -4.0670    -4.8640     0.3690 C.3   1 <1>  -0.1600 
 17 C        4.5170     1.3450    -0.2100 C.3   1 <1>  -0.1600 
 18 C       -3.9900    -4.2290    -1.0170 C.3   1 <1>   0.3430 
 19 N       -5.1680    -4.6450    -1.8120 N.4   1 <1>  -0.8530 
 20 H        1.0710    -1.4680     0.7390 H     1 <1>   0.0800 
 21 H        0.6380    -1.6880    -0.9570 H     1 <1>   0.0800 
 22 H       -0.8570    -2.9350     0.2630 H     1 <1>   0.1500 
 23 H       -2.3900     0.9530     1.0580 H     1 <1>   0.1500 
 24 H        1.5300     0.5440    -1.4730 H     1 <1>   0.0800 
 25 H       -4.3840    -0.0430     2.1100 H     1 <1>   0.1500 
 26 H        3.5050    -1.2520    -0.0550 H     1 <1>   0.0800 
 27 H        3.0200    -1.3770    -1.7220 H     1 <1>   0.0800 
 28 H        1.1960     1.6510     0.6940 H     1 <1>   0.0800 
 29 H        2.3720     0.6080     1.4370 H     1 <1>   0.0800 
 30 H       -4.6160    -2.4790     2.2310 H     1 <1>   0.1500 
 31 H       -1.9880    -4.8700     0.9660 H     1 <1>   0.0800 
 32 H        5.2050    -0.2410    -1.4850 H     1 <1>   0.0800 
 33 H        4.0170     0.7950    -2.2220 H     1 <1>   0.0800 
 34 H        2.8980     2.6540    -0.7290 H     1 <1>   0.0800 
 35 H        3.3880     2.7700     0.9360 H     1 <1>   0.0800 
 36 H       -2.6200    -4.3030     3.1600 H     1 <1>   0.4000 
 37 H       -4.0220    -5.9360     0.2930 H     1 <1>   0.0800 
 38 H       -4.9930    -4.5780     0.8380 H     1 <1>   0.0800 
 39 H        5.2590     2.0540    -0.5340 H     1 <1>   0.0800 
 40 H        4.8900     0.8590     0.6760 H     1 <1>   0.0800 
 41 H       -3.0800    -4.5350    -1.5090 H     1 <1>   0.0800 
 42 H       -3.9760    -3.1530    -0.9220 H     1 <1>   0.0800 
 43 H       -5.2040    -5.6650    -1.9160 H     1 <1>   0.4500 
 44 H       -5.1480    -4.2260    -2.7500 H     1 <1>   0.4500 
 45 H       -6.0360    -4.3430    -1.3530 H     1 <1>   0.4500 
@<TRIPOS>BOND
  1   1   2  1   
  2   1   3  1   
  3   2   4  ar  
  4   2   5  ar  
  5   3   6  1   
  6   3  20  1   
  7   3  21  1   
  8   4   7  ar  
  9   4  22  1   
 10   5   8  ar  
 11   5  23  1   
 12   6   9  1   
 13   6  10  1   
 14   6  24  1   
 15   7  11  ar  
 16   7  12  1   
 17   8  11  ar  
 18   8  25  1   
 19   9  13  1   
 20   9  26  1   
 21   9  27  1   
 22  10  14  1   
 23  10  28  1   
 24  10  29  1   
 25  11  30  1   
 26  12  15  1   
 27  12  16  1   
 28  12  31  1   
 29  13  17  1   
 30  13  32  1   
 31  13  33  1   
 32  14  17  1   
 33  14  34  1   
 34  14  35  1   
 35  15  36  1   
 36  16  18  1   
 37  16  37  1   
 38  16  38  1   
 39  17  39  1   
 40  17  40  1   
 41  18  19  1   
 42  18  41  1   
 43  18  42  1   
 44  19  43  1   
 45  19  44  1   
 46  19  45  1   
@<TRIPOS>SUBSTRUCTURE
  1 ****   2 GROUP 4 **** **** 0

# MOE 2024.06 (io_trps.svl 2023.06)
