@<TRIPOS>MOLECULE
NONAME
45 47 1 0 0 
SMALL
USER_CHARGES


@<TRIPOS>ATOM
  1 F       -0.5540    -0.0340     0.5190 F     1 <1>  -0.1900 
  2 C       -1.7970     0.3700     0.4510 C.ar  1 <1>   0.1900 
  3 C       -2.1460     1.6110    -0.0940 C.ar  1 <1>   0.0830 
  4 C       -2.7520    -0.4950     0.9490 C.ar  1 <1>  -0.1500 
  5 O       -1.3000     2.5480    -0.6120 O.3   1 <1>  -0.3630 
  6 C       -3.4900     1.9460    -0.1190 C.ar  1 <1>  -0.1500 
  7 C       -4.0850    -0.1270     0.9110 C.ar  1 <1>  -0.1500 
  8 C        0.0980     2.3730    -0.6750 C.3   1 <1>   0.0400 
  9 C       -4.4850     1.0980     0.3730 C.ar  1 <1>   0.0530 
 10 C       -5.8710     1.4960     0.3340 C.2   1 <1>   0.0870 
 11 O       -6.1800     2.7540     0.5180 O.3   1 <1>  -0.0190 
 12 C       -7.0410     0.8220     0.1490 C.2   1 <1>  -0.0860 
 13 N       -7.4640     2.9770     0.4770 N.2   1 <1>  -0.4100 
 14 C       -8.0080     1.8320     0.2540 C.2   1 <1>   0.3720 
 15 C       -7.2450    -0.5690    -0.1270 C.2   1 <1>   0.7160 
 16 N       -9.3940     1.6740     0.1350 N.pl3 1 <1>  -0.8210 
 17 O       -6.4210    -1.2010    -0.7670 O.2   1 <1>  -0.5700 
 18 N       -8.3420    -1.2710     0.3030 N.am  1 <1>  -0.6600 
 19 C      -10.0590     1.5010     1.4540 C.3   1 <1>   0.1290 
 20 C      -10.0620     2.7280    -0.6780 C.3   1 <1>   0.1290 
 21 C       -9.5050    -1.3570    -0.6370 C.3   1 <1>   0.1400 
 22 C       -8.1480    -2.6300     0.8870 C.3   1 <1>   0.1400 
 23 C       -9.8810    -2.8390    -0.7390 C.3   1 <1>   0.2600 
 24 C       -8.6780    -3.5910    -0.1770 C.3   1 <1>   0.2000 
 25 F      -10.9020    -3.0510     0.0910 F     1 <1>  -0.3400 
 26 O       -7.7060    -3.7220    -1.1680 O.3   1 <1>  -0.6800 
 27 H       -2.4540    -1.4420     1.3610 H     1 <1>   0.1500 
 28 H       -3.7700     2.8970    -0.5360 H     1 <1>   0.1500 
 29 H       -4.8240    -0.8010     1.3040 H     1 <1>   0.1500 
 30 H        0.5240     3.2490    -1.1280 H     1 <1>   0.0800 
 31 H        0.3160     1.5090    -1.2780 H     1 <1>   0.0800 
 32 H        0.4820     2.2550     0.3220 H     1 <1>   0.0800 
 33 H      -11.0950     1.2450     1.3150 H     1 <1>   0.0800 
 34 H       -9.9900     2.4120     2.0250 H     1 <1>   0.0800 
 35 H       -9.5790     0.7090     2.0040 H     1 <1>   0.0800 
 36 H      -11.0630     2.4230    -0.9250 H     1 <1>   0.0800 
 37 H       -9.5130     2.8860    -1.5910 H     1 <1>   0.0800 
 38 H      -10.0960     3.6550    -0.1310 H     1 <1>   0.0800 
 39 H      -10.3350    -0.7730    -0.2800 H     1 <1>   0.0800 
 40 H       -9.2090    -0.9920    -1.6060 H     1 <1>   0.0800 
 41 H       -7.1170    -2.8310     1.1240 H     1 <1>   0.0800 
 42 H       -8.7400    -2.7120     1.7820 H     1 <1>   0.0800 
 43 H      -10.1970    -3.1640    -1.7140 H     1 <1>   0.0800 
 44 H       -8.9250    -4.5700     0.1930 H     1 <1>   0.0800 
 45 H       -7.1810    -2.8840    -1.2250 H     1 <1>   0.4000 
@<TRIPOS>BOND
  1   1   2  1   
  2   2   3  ar  
  3   2   4  ar  
  4   3   5  1   
  5   3   6  ar  
  6   4   7  ar  
  7   4  27  1   
  8   5   8  1   
  9   6   9  ar  
 10   6  28  1   
 11   7   9  ar  
 12   7  29  1   
 13   8  30  1   
 14   8  31  1   
 15   8  32  1   
 16   9  10  1   
 17  10  11  1   
 18  10  12  2   
 19  11  13  1   
 20  12  14  1   
 21  12  15  1   
 22  13  14  2   
 23  14  16  1   
 24  15  17  2   
 25  15  18  am  
 26  16  19  1   
 27  16  20  1   
 28  18  21  1   
 29  18  22  1   
 30  19  33  1   
 31  19  34  1   
 32  19  35  1   
 33  20  36  1   
 34  20  37  1   
 35  20  38  1   
 36  21  23  1   
 37  21  39  1   
 38  21  40  1   
 39  22  24  1   
 40  22  41  1   
 41  22  42  1   
 42  23  24  1   
 43  23  25  1   
 44  23  43  1   
 45  24  26  1   
 46  24  44  1   
 47  26  45  1   
@<TRIPOS>SUBSTRUCTURE
  1 ****  12 GROUP 4 **** **** 0

# MOE 2024.06 (io_trps.svl 2023.06)
