@<TRIPOS>MOLECULE
NONAME
55 57 1 0 0 
SMALL
USER_CHARGES


@<TRIPOS>ATOM
  1 O        0.2700     0.1100    -0.9180 O.3   1 <1>  -0.5600 
  2 C        1.4800    -0.5960    -1.0220 C.3   1 <1>   0.2000 
  3 C        0.3940     1.4640    -1.2460 C.3   1 <1>   0.1200 
  4 C        2.5290     0.0170    -0.0520 C.3   1 <1>   0.3340 
  5 C        1.1680    -2.0750    -0.7410 C.3   1 <1>   0.1200 
  6 C        1.3930     2.1540    -0.3020 C.3   1 <1>   0.1100 
  7 N        2.7010     1.4690    -0.3070 N.3   1 <1>  -0.8100 
  8 C        3.8710    -0.7080    -0.1610 C.ar  1 <1>  -0.1440 
  9 O        2.1980    -2.9040    -1.1790 O.3   1 <1>  -0.6800 
 10 C        3.6730     2.0940     0.6310 C.3   1 <1>   0.2530 
 11 C        4.2820    -1.5690     0.8430 C.ar  1 <1>  -0.1500 
 12 C        4.6900    -0.5260    -1.2630 C.ar  1 <1>  -0.1500 
 13 C        3.8380     3.6050     0.4490 C.ar  1 <1>   0.1670 
 14 C        5.4840    -2.2530     0.7590 C.ar  1 <1>   0.0830 
 15 C        5.9000    -1.1890    -1.3590 C.ar  1 <1>  -0.1500 
 16 N        4.5950     4.0240    -0.5580 N.ar  1 <1>  -0.6200 
 17 C        3.2040     4.4620     1.3380 C.ar  1 <1>  -0.1500 
 18 O        5.7440    -3.0820     1.8090 O.3   1 <1>  -0.3630 
 19 C        6.3210    -2.0530    -0.3510 C.ar  1 <1>   0.0830 
 20 C        4.7140     5.3350    -0.6830 C.ar  1 <1>   0.1600 
 21 C        3.3400     5.8250     1.1940 C.ar  1 <1>  -0.1500 
 22 C        6.4190    -4.3050     1.6110 C.3   1 <1>   0.0400 
 23 O        7.5290    -2.6860    -0.4160 O.3   1 <1>  -0.3630 
 24 C        4.1180     6.2720     0.1470 C.ar  1 <1>  -0.1430 
 25 C        8.5030    -2.3310    -1.3730 C.3   1 <1>   0.0400 
 26 C        4.3200     7.7610    -0.0870 C.3   1 <1>  -0.0170 
 27 C        5.5320     8.2690     0.6970 C.3   1 <1>  -0.2400 
 28 H        1.8230    -0.5050    -2.0380 H     1 <1>   0.0800 
 29 H        0.7240     1.5460    -2.2670 H     1 <1>   0.0800 
 30 H       -0.5770     1.9160    -1.1560 H     1 <1>   0.0800 
 31 H        2.1540    -0.1100     0.9490 H     1 <1>   0.0800 
 32 H        0.2800    -2.3670    -1.2740 H     1 <1>   0.0800 
 33 H        1.0240    -2.2420     0.3120 H     1 <1>   0.0800 
 34 H        0.9840     2.1680     0.6940 H     1 <1>   0.0800 
 35 H        1.5180     3.1710    -0.6320 H     1 <1>   0.0800 
 36 H        3.0640    -2.6070    -0.8190 H     1 <1>   0.4000 
 37 H        3.3700     1.8920     1.6430 H     1 <1>   0.0800 
 38 H        4.6430     1.6500     0.4890 H     1 <1>   0.0800 
 39 H        3.6690    -1.7290     1.7120 H     1 <1>   0.1500 
 40 H        4.3860     0.1490    -2.0470 H     1 <1>   0.1500 
 41 H        6.4990    -1.0100    -2.2310 H     1 <1>   0.1500 
 42 H        2.6080     4.0660     2.1390 H     1 <1>   0.1500 
 43 H        5.3260     5.6820    -1.4970 H     1 <1>   0.1500 
 44 H        2.8580     6.5090     1.8710 H     1 <1>   0.1500 
 45 H        6.1840    -4.9540     2.4340 H     1 <1>   0.0800 
 46 H        7.4770    -4.1170     1.5860 H     1 <1>   0.0800 
 47 H        6.0880    -4.7450     0.6860 H     1 <1>   0.0800 
 48 H        9.3980    -2.8860    -1.1590 H     1 <1>   0.0800 
 49 H        8.7000    -1.2760    -1.2960 H     1 <1>   0.0800 
 50 H        8.1410    -2.5880    -2.3530 H     1 <1>   0.0800 
 51 H        4.4660     7.9480    -1.1370 H     1 <1>   0.0800 
 52 H        3.4400     8.2990     0.2200 H     1 <1>   0.0800 
 53 H        6.4210     7.7490     0.3870 H     1 <1>   0.0800 
 54 H        5.3880     8.1050     1.7510 H     1 <1>   0.0800 
 55 H        5.6690     9.3210     0.5270 H     1 <1>   0.0800 
@<TRIPOS>BOND
  1   1   2  1   
  2   1   3  1   
  3   2   4  1   
  4   2   5  1   
  5   2  28  1   
  6   3   6  1   
  7   3  29  1   
  8   3  30  1   
  9   4   7  1   
 10   4   8  1   
 11   4  31  1   
 12   5   9  1   
 13   5  32  1   
 14   5  33  1   
 15   6   7  1   
 16   6  34  1   
 17   6  35  1   
 18   7  10  1   
 19   8  11  ar  
 20   8  12  ar  
 21   9  36  1   
 22  10  13  1   
 23  10  37  1   
 24  10  38  1   
 25  11  14  ar  
 26  11  39  1   
 27  12  15  ar  
 28  12  40  1   
 29  13  16  ar  
 30  13  17  ar  
 31  14  18  1   
 32  14  19  ar  
 33  15  19  ar  
 34  15  41  1   
 35  16  20  ar  
 36  17  21  ar  
 37  17  42  1   
 38  18  22  1   
 39  19  23  1   
 40  20  24  ar  
 41  20  43  1   
 42  21  24  ar  
 43  21  44  1   
 44  22  45  1   
 45  22  46  1   
 46  22  47  1   
 47  23  25  1   
 48  24  26  1   
 49  25  48  1   
 50  25  49  1   
 51  25  50  1   
 52  26  27  1   
 53  26  51  1   
 54  26  52  1   
 55  27  53  1   
 56  27  54  1   
 57  27  55  1   
@<TRIPOS>SUBSTRUCTURE
  1 ****  10 GROUP 4 **** **** 0

# MOE 2024.06 (io_trps.svl 2023.06)
