@<TRIPOS>MOLECULE
NONAME
54 58 1 0 0 
SMALL
USER_CHARGES


@<TRIPOS>ATOM
  1 O       -0.1210     0.1380     0.2730 O.2   1 <1>  -0.5700 
  2 C       -1.1670     0.7500     0.3550 C.2   1 <1>   0.5440 
  3 N       -2.3520     0.0590     0.2450 N.am  1 <1>  -0.6600 
  4 C       -1.1480     2.1820     0.5480 C.ar  1 <1>   0.0860 
  5 C       -3.6610     0.6710    -0.1000 C.3   1 <1>   0.1400 
  6 C       -2.3930    -1.4100     0.0320 C.3   1 <1>   0.1400 
  7 C       -1.8890     2.7800     1.5610 C.ar  1 <1>   0.1600 
  8 C       -0.4000     3.0220    -0.2620 C.ar  1 <1>  -0.1500 
  9 C       -4.4870    -0.4710    -0.6920 C.3   1 <1>   0.2000 
 10 C       -3.8760    -1.7510    -0.1290 C.3   1 <1>  -0.0800 
 11 N       -1.9700     4.0780     1.8000 N.ar  1 <1>  -0.6200 
 12 C       -0.4550     4.3810    -0.0340 C.ar  1 <1>  -0.1440 
 13 O       -5.8210    -0.3790    -0.3280 O.3   1 <1>  -0.6800 
 14 C       -4.1420    -2.9780    -1.0170 C.3   1 <1>  -0.0170 
 15 C       -1.2560     4.8570     1.0020 C.ar  1 <1>   0.1670 
 16 C        0.3550     5.3090    -0.9320 C.3   1 <1>  -0.0170 
 17 C       -3.5460    -4.2370    -0.4130 C.ar  1 <1>   0.1670 
 18 C       -1.3480     6.3460     1.3080 C.3   1 <1>  -0.0170 
 19 C        0.5380     6.7040    -0.3230 C.3   1 <1>  -0.1600 
 20 N       -2.3120    -4.5140    -0.7040 N.ar  1 <1>  -0.6200 
 21 C       -4.3430    -5.0310     0.4270 C.ar  1 <1>  -0.1500 
 22 C       -0.8020     7.2400     0.1860 C.3   1 <1>  -0.1600 
 23 C       -1.7680    -5.6320    -0.1580 C.ar  1 <1>   0.3100 
 24 C       -3.8240    -6.1590     0.9870 C.ar  1 <1>  -0.1500 
 25 C       -2.4900    -6.4910     0.6990 C.ar  1 <1>   0.0000 
 26 C       -0.4320    -5.9500    -0.4510 C.ar  1 <1>  -0.1500 
 27 C       -1.8500    -7.6310     1.2250 C.ar  1 <1>  -0.1500 
 28 C        0.1730    -7.0630     0.0700 C.ar  1 <1>  -0.1500 
 29 C       -0.5460    -7.9130     0.9180 C.ar  1 <1>  -0.1500 
 30 H       -4.1230     1.0500     0.7950 H     1 <1>   0.0800 
 31 H       -3.5340     1.4620    -0.8180 H     1 <1>   0.0800 
 32 H       -1.8420    -1.6520    -0.8620 H     1 <1>   0.0800 
 33 H       -1.9520    -1.9320     0.8650 H     1 <1>   0.0800 
 34 H       -2.4500     2.1350     2.2150 H     1 <1>   0.1500 
 35 H        0.2050     2.6040    -1.0490 H     1 <1>   0.1500 
 36 H       -4.4240    -0.4470    -1.7670 H     1 <1>   0.0800 
 37 H       -4.2670    -1.9320     0.8570 H     1 <1>   0.0800 
 38 H       -5.9140    -0.4200     0.6430 H     1 <1>   0.4000 
 39 H       -3.7170    -2.8220    -1.9930 H     1 <1>   0.0800 
 40 H       -5.2020    -3.1070    -1.1430 H     1 <1>   0.0800 
 41 H        1.3230     4.8780    -1.1230 H     1 <1>   0.0800 
 42 H       -0.1570     5.4000    -1.8740 H     1 <1>   0.0800 
 43 H       -2.3740     6.6050     1.4990 H     1 <1>   0.0800 
 44 H       -0.7930     6.5300     2.2100 H     1 <1>   0.0800 
 45 H        1.2360     6.6480     0.4950 H     1 <1>   0.0800 
 46 H        0.9440     7.3700    -1.0650 H     1 <1>   0.0800 
 47 H       -5.3590    -4.7380     0.6200 H     1 <1>   0.1500 
 48 H       -1.5100     7.2640    -0.6260 H     1 <1>   0.0800 
 49 H       -0.6830     8.2450     0.5530 H     1 <1>   0.0800 
 50 H       -4.4030    -6.7920     1.6350 H     1 <1>   0.1500 
 51 H        0.1030    -5.2840    -1.1030 H     1 <1>   0.1500 
 52 H       -2.4080    -8.2790     1.8760 H     1 <1>   0.1500 
 53 H        1.1980    -7.2940    -0.1630 H     1 <1>   0.1500 
 54 H       -0.0590    -8.7840     1.3210 H     1 <1>   0.1500 
@<TRIPOS>BOND
  1   1   2  2   
  2   2   3  am  
  3   2   4  1   
  4   3   5  1   
  5   3   6  1   
  6   4   7  ar  
  7   4   8  ar  
  8   5   9  1   
  9   5  30  1   
 10   5  31  1   
 11   6  10  1   
 12   6  32  1   
 13   6  33  1   
 14   7  11  ar  
 15   7  34  1   
 16   8  12  ar  
 17   8  35  1   
 18   9  10  1   
 19   9  13  1   
 20   9  36  1   
 21  10  14  1   
 22  10  37  1   
 23  11  15  ar  
 24  12  15  ar  
 25  12  16  1   
 26  13  38  1   
 27  14  17  1   
 28  14  39  1   
 29  14  40  1   
 30  15  18  1   
 31  16  19  1   
 32  16  41  1   
 33  16  42  1   
 34  17  20  ar  
 35  17  21  ar  
 36  18  22  1   
 37  18  43  1   
 38  18  44  1   
 39  19  22  1   
 40  19  45  1   
 41  19  46  1   
 42  20  23  ar  
 43  21  24  ar  
 44  21  47  1   
 45  22  48  1   
 46  22  49  1   
 47  23  25  ar  
 48  23  26  ar  
 49  24  25  ar  
 50  24  50  1   
 51  25  27  ar  
 52  26  28  ar  
 53  26  51  1   
 54  27  29  ar  
 55  27  52  1   
 56  28  29  ar  
 57  28  53  1   
 58  29  54  1   
@<TRIPOS>SUBSTRUCTURE
  1 ****   3 GROUP 4 **** **** 0

# MOE 2024.06 (io_trps.svl 2023.06)
