@<TRIPOS>MOLECULE
NONAME
53 55 1 0 0 
SMALL
USER_CHARGES


@<TRIPOS>ATOM
  1 CL      -1.1620    -0.4030    -1.3460 Cl    1 <1>  -0.1770 
  2 C       -2.2280     0.7250    -0.5400 C.ar  1 <1>   0.1770 
  3 C       -3.1350     0.2580     0.4000 C.ar  1 <1>  -0.1440 
  4 C       -2.1500     2.0640    -0.8710 C.ar  1 <1>  -0.1500 
  5 C       -3.9770     1.1720     1.0180 C.ar  1 <1>  -0.1500 
  6 C       -3.2090    -1.2170     0.7390 C.3   1 <1>   0.4870 
  7 C       -2.9960     2.9680    -0.2530 C.ar  1 <1>   0.0830 
  8 C       -3.9370     2.5160     0.6820 C.ar  1 <1>   0.0830 
  9 N       -3.7020    -2.0280    -0.4250 N.4   1 <1>  -0.9590 
 10 O       -2.8610     4.2710    -0.5870 O.3   1 <1>  -0.3620 
 11 O       -4.8530     3.3080     1.2980 O.3   1 <1>  -0.3620 
 12 C       -5.1330    -1.8860    -0.8480 C.3   1 <1>   0.4230 
 13 C       -3.3820    -3.4690    -0.1970 C.3   1 <1>   0.2630 
 14 C       -2.1960     5.0790     0.3590 C.3   1 <1>   0.0400 
 15 C       -5.5700     4.2610     0.5360 C.3   1 <1>   0.0400 
 16 C       -6.1450    -1.7180     0.2860 C.3   1 <1>  -0.1600 
 17 C       -5.3710    -0.7120    -1.7950 C.3   1 <1>  -0.1600 
 18 C       -7.3770    -1.1050    -0.3900 C.3   1 <1>  -0.0800 
 19 C       -6.8290    -0.2780    -1.5740 C.3   1 <1>  -0.0800 
 20 C       -8.2840    -0.3410     0.6030 C.3   1 <1>   0.1400 
 21 C       -6.9600     1.2370    -1.3490 C.3   1 <1>  -0.0990 
 22 N       -9.0100     0.7670    -0.0630 N.am  1 <1>  -0.6600 
 23 C       -8.3760     1.5900    -0.9520 C.2   1 <1>   0.5690 
 24 C      -10.3990     1.0260     0.4050 C.3   1 <1>   0.0600 
 25 O       -8.8810     2.5800    -1.4230 O.2   1 <1>  -0.5700 
 26 H       -1.4370     2.4070    -1.5990 H     1 <1>   0.1500 
 27 H       -4.6890     0.8670     1.7650 H     1 <1>   0.1500 
 28 H       -3.8430    -1.3690     1.5960 H     1 <1>   0.0800 
 29 H       -2.2170    -1.5450     1.0070 H     1 <1>   0.0800 
 30 H       -3.1350    -1.7120    -1.2280 H     1 <1>   0.4500 
 31 H       -5.4200    -2.7710    -1.3950 H     1 <1>   0.0800 
 32 H       -3.9430    -3.8500     0.6420 H     1 <1>   0.0800 
 33 H       -2.3300    -3.5930     0.0050 H     1 <1>   0.0800 
 34 H       -3.6310    -4.0500    -1.0700 H     1 <1>   0.0800 
 35 H       -2.1810     6.0880    -0.0120 H     1 <1>   0.0800 
 36 H       -1.1910     4.7160     0.4810 H     1 <1>   0.0800 
 37 H       -2.7250     5.0390     1.2950 H     1 <1>   0.0800 
 38 H       -6.5090     4.4460     1.0250 H     1 <1>   0.0800 
 39 H       -5.7450     3.8770    -0.4540 H     1 <1>   0.0800 
 40 H       -5.0030     5.1720     0.4870 H     1 <1>   0.0800 
 41 H       -6.3850    -2.6600     0.7470 H     1 <1>   0.0800 
 42 H       -5.7920    -1.0320     1.0280 H     1 <1>   0.0800 
 43 H       -4.7140     0.1110    -1.5990 H     1 <1>   0.0800 
 44 H       -5.2280    -1.0240    -2.8150 H     1 <1>   0.0800 
 45 H       -7.9620    -1.9090    -0.8070 H     1 <1>   0.0800 
 46 H       -7.4110    -0.5250    -2.4490 H     1 <1>   0.0800 
 47 H       -7.6960     0.0890     1.3960 H     1 <1>   0.0800 
 48 H       -8.9870    -1.0260     1.0470 H     1 <1>   0.0800 
 49 H       -6.6990     1.7710    -2.2440 H     1 <1>   0.0800 
 50 H       -6.3120     1.5590    -0.5590 H     1 <1>   0.0800 
 51 H      -11.0110     0.1590     0.2320 H     1 <1>   0.0800 
 52 H      -10.8280     1.8590    -0.1260 H     1 <1>   0.0800 
 53 H      -10.3930     1.2560     1.4560 H     1 <1>   0.0800 
@<TRIPOS>BOND
  1   1   2  1   
  2   2   3  ar  
  3   2   4  ar  
  4   3   5  ar  
  5   3   6  1   
  6   4   7  ar  
  7   4  26  1   
  8   5   8  ar  
  9   5  27  1   
 10   6   9  1   
 11   6  28  1   
 12   6  29  1   
 13   7   8  ar  
 14   7  10  1   
 15   8  11  1   
 16   9  12  1   
 17   9  13  1   
 18   9  30  1   
 19  10  14  1   
 20  11  15  1   
 21  12  16  1   
 22  12  17  1   
 23  12  31  1   
 24  13  32  1   
 25  13  33  1   
 26  13  34  1   
 27  14  35  1   
 28  14  36  1   
 29  14  37  1   
 30  15  38  1   
 31  15  39  1   
 32  15  40  1   
 33  16  18  1   
 34  16  41  1   
 35  16  42  1   
 36  17  19  1   
 37  17  43  1   
 38  17  44  1   
 39  18  19  1   
 40  18  20  1   
 41  18  45  1   
 42  19  21  1   
 43  19  46  1   
 44  20  22  1   
 45  20  47  1   
 46  20  48  1   
 47  21  23  1   
 48  21  49  1   
 49  21  50  1   
 50  22  23  am  
 51  22  24  1   
 52  23  25  2   
 53  24  51  1   
 54  24  52  1   
 55  24  53  1   
@<TRIPOS>SUBSTRUCTURE
  1 ****   5 GROUP 4 **** **** 0

# MOE 2024.06 (io_trps.svl 2023.06)
