@<TRIPOS>MOLECULE
NONAME
40 42 1 0 0 
SMALL
USER_CHARGES


@<TRIPOS>ATOM
  1 O       -1.7600    -0.3700    -2.7550 O.2   1 <1>  -0.5700 
  2 C       -2.0110    -0.7440    -1.6420 C.2   1 <1>   0.5690 
  3 N       -2.0560     0.1330    -0.6250 N.am  1 <1>  -0.7300 
  4 C       -2.3150    -2.1970    -1.3950 C.3   1 <1>  -0.0190 
  5 C       -2.3590    -0.1960     0.7870 C.3   1 <1>   0.2200 
  6 C       -1.3010    -2.8340    -0.4180 C.3   1 <1>   0.1200 
  7 C       -3.8010    -2.3280    -1.0320 C.3   1 <1>   0.3430 
  8 C       -1.3190    -1.2030     1.3410 C.3   1 <1>   0.1200 
  9 C       -3.8310    -0.6780     0.9290 C.3   1 <1>   0.3430 
 10 O       -1.5580    -2.5250     0.9270 O.3   1 <1>  -0.5600 
 11 N       -4.1020    -2.0700     0.4180 N.4   1 <1>  -0.9590 
 12 C       -5.4370    -2.5840     0.8240 C.3   1 <1>   0.4860 
 13 C       -5.4800    -4.0740     0.5550 C.ar  1 <1>  -0.1440 
 14 C       -4.6710    -4.9440     1.2740 C.ar  1 <1>  -0.1500 
 15 C       -6.3190    -4.5810    -0.4270 C.ar  1 <1>  -0.1500 
 16 C       -4.6960    -6.3000     1.0050 C.ar  1 <1>  -0.1500 
 17 C       -6.3400    -5.9380    -0.6920 C.ar  1 <1>  -0.1500 
 18 C       -5.5290    -6.8040     0.0210 C.ar  1 <1>  -0.1440 
 19 C       -5.5540    -8.2940    -0.2720 C.3   1 <1>  -0.0970 
 20 H       -1.7850     1.0970    -0.8510 H     1 <1>   0.3700 
 21 H       -2.1820    -2.6880    -2.3420 H     1 <1>   0.0800 
 22 H       -2.2570     0.7170     1.3480 H     1 <1>   0.0800 
 23 H       -0.2940    -2.5320    -0.6580 H     1 <1>   0.0800 
 24 H       -1.3530    -3.9070    -0.5040 H     1 <1>   0.0800 
 25 H       -4.0980    -3.3360    -1.2740 H     1 <1>   0.0800 
 26 H       -4.3800    -1.6630    -1.6530 H     1 <1>   0.0800 
 27 H       -1.3690    -1.2060     2.4160 H     1 <1>   0.0800 
 28 H       -0.3180    -0.9200     1.0590 H     1 <1>   0.0800 
 29 H       -4.4730     0.0260     0.4260 H     1 <1>   0.0800 
 30 H       -4.0780    -0.6490     1.9770 H     1 <1>   0.0800 
 31 H       -3.4000    -2.6640     0.9030 H     1 <1>   0.4500 
 32 H       -5.5990    -2.4110     1.8760 H     1 <1>   0.0800 
 33 H       -6.2140    -2.0850     0.2690 H     1 <1>   0.0800 
 34 H       -4.0160    -4.5850     2.0500 H     1 <1>   0.1500 
 35 H       -6.9650    -3.9330    -0.9950 H     1 <1>   0.1500 
 36 H       -4.0640    -6.9680     1.5670 H     1 <1>   0.1500 
 37 H       -6.9930    -6.3230    -1.4570 H     1 <1>   0.1500 
 38 H       -5.3290    -8.8570     0.6160 H     1 <1>   0.0800 
 39 H       -4.8260    -8.5310    -1.0270 H     1 <1>   0.0800 
 40 H       -6.5260    -8.5930    -0.6210 H     1 <1>   0.0800 
@<TRIPOS>BOND
  1   1   2  2   
  2   2   3  am  
  3   2   4  1   
  4   3   5  1   
  5   3  20  1   
  6   4   6  1   
  7   4   7  1   
  8   4  21  1   
  9   5   8  1   
 10   5   9  1   
 11   5  22  1   
 12   6  10  1   
 13   6  23  1   
 14   6  24  1   
 15   7  11  1   
 16   7  25  1   
 17   7  26  1   
 18   8  10  1   
 19   8  27  1   
 20   8  28  1   
 21   9  11  1   
 22   9  29  1   
 23   9  30  1   
 24  11  12  1   
 25  11  31  1   
 26  12  13  1   
 27  12  32  1   
 28  12  33  1   
 29  13  14  ar  
 30  13  15  ar  
 31  14  16  ar  
 32  14  34  1   
 33  15  17  ar  
 34  15  35  1   
 35  16  18  ar  
 36  16  36  1   
 37  17  18  ar  
 38  17  37  1   
 39  18  19  1   
 40  19  38  1   
 41  19  39  1   
 42  19  40  1   
@<TRIPOS>SUBSTRUCTURE
  1 ****  11 GROUP 4 **** **** 0

# MOE 2024.06 (io_trps.svl 2023.06)
