@<TRIPOS>MOLECULE
NONAME
40 42 1 0 0 
SMALL
USER_CHARGES


@<TRIPOS>ATOM
  1 S        0.1600     0.2740    -0.2410 S.o2  1 <1>   1.3330 
  2 O       -0.2650    -0.1020     1.0890 O.2   1 <1>  -0.6500 
  3 O       -0.2600     1.5420    -0.7920 O.2   1 <1>  -0.6500 
  4 N       -0.3370    -0.9540    -1.3040 N.am  1 <1>  -0.8490 
  5 C        1.9470     0.1890    -0.3640 C.3   1 <1>  -0.0550 
  6 C       -0.3490    -2.2860    -0.6890 C.3   1 <1>   0.1160 
  7 C       -1.6450    -0.6730    -1.9040 C.3   1 <1>   0.1160 
  8 C        2.6820     1.2270     0.5080 C.3   1 <1>  -0.0800 
  9 C        4.1640     1.2670     0.1780 C.3   1 <1>   0.2890 
 10 C        2.7110     0.8180     1.9820 C.3   1 <1>   0.1200 
 11 N        4.7250     2.5670     0.6170 N.pl3 1 <1>  -0.8690 
 12 C        4.7160     0.1460     1.0570 C.3   1 <1>   0.1200 
 13 O        3.8470     0.0210     2.1470 O.3   1 <1>  -0.5600 
 14 C        4.9170     3.6610    -0.1860 C.ar  1 <1>   0.4100 
 15 N        4.6040     3.5480    -1.4640 N.ar  1 <1>  -0.6200 
 16 C        5.4190     4.8530     0.3310 C.ar  1 <1>   0.0000 
 17 C        4.7930     4.6270    -2.2150 C.ar  1 <1>   0.4700 
 18 C        5.5540     5.8700    -0.5810 C.ar  1 <1>   0.2970 
 19 C        5.8310     5.2290     1.6590 C.2   1 <1>  -0.1500 
 20 N        5.2580     5.8110    -1.8620 N.ar  1 <1>  -0.5670 
 21 S        6.1960     7.3150     0.2010 S.3   1 <1>  -0.0800 
 22 C        6.2680     6.4970     1.7650 C.2   1 <1>  -0.1100 
 23 H        2.2770    -0.7970    -0.1010 H     1 <1>   0.0800 
 24 H        2.2110     0.3590    -1.3910 H     1 <1>   0.0800 
 25 H       -0.5790    -3.0330    -1.4290 H     1 <1>   0.0800 
 26 H       -1.0850    -2.3320     0.0970 H     1 <1>   0.0800 
 27 H        0.6160    -2.5110    -0.2690 H     1 <1>   0.0800 
 28 H       -1.9230    -1.4610    -2.5810 H     1 <1>   0.0800 
 29 H       -1.6050     0.2490    -2.4600 H     1 <1>   0.0800 
 30 H       -2.3970    -0.5810    -1.1370 H     1 <1>   0.0800 
 31 H        2.2280     2.1940     0.3680 H     1 <1>   0.0800 
 32 H        4.3770     1.0970    -0.8640 H     1 <1>   0.0800 
 33 H        1.8460     0.2650     2.3010 H     1 <1>   0.0800 
 34 H        2.8280     1.6840     2.6110 H     1 <1>   0.0800 
 35 H        4.8470     2.6560     1.6270 H     1 <1>   0.4000 
 36 H        5.7110     0.3530     1.4090 H     1 <1>   0.0800 
 37 H        4.7060    -0.7890     0.5270 H     1 <1>   0.0800 
 38 H        4.5300     4.5210    -3.2540 H     1 <1>   0.1500 
 39 H        5.7780     4.5220     2.4670 H     1 <1>   0.1500 
 40 H        6.6370     7.0690     2.5980 H     1 <1>   0.1500 
@<TRIPOS>BOND
  1   1   2  2   
  2   1   3  2   
  3   1   4  am  
  4   1   5  1   
  5   4   6  1   
  6   4   7  1   
  7   5   8  1   
  8   5  23  1   
  9   5  24  1   
 10   6  25  1   
 11   6  26  1   
 12   6  27  1   
 13   7  28  1   
 14   7  29  1   
 15   7  30  1   
 16   8   9  1   
 17   8  10  1   
 18   8  31  1   
 19   9  11  1   
 20   9  12  1   
 21   9  32  1   
 22  10  13  1   
 23  10  33  1   
 24  10  34  1   
 25  11  14  1   
 26  11  35  1   
 27  12  13  1   
 28  12  36  1   
 29  12  37  1   
 30  14  15  ar  
 31  14  16  ar  
 32  15  17  ar  
 33  16  18  ar  
 34  16  19  1   
 35  17  20  ar  
 36  17  38  1   
 37  18  20  ar  
 38  18  21  1   
 39  19  22  2   
 40  19  39  1   
 41  21  22  1   
 42  22  40  1   
@<TRIPOS>SUBSTRUCTURE
  1 ****   8 GROUP 4 **** **** 0

# MOE 2024.06 (io_trps.svl 2023.06)
