@<TRIPOS>MOLECULE
NONAME
41 42 1 0 0 
SMALL
USER_CHARGES


@<TRIPOS>ATOM
  1 S        0.0430    -0.3120     0.6140 S.3   1 <1>  -0.0800 
  2 C       -1.3730    -0.9200    -0.1840 C.2   1 <1>   0.4420 
  3 C       -0.3930     1.2560     0.0290 C.2   1 <1>   0.1980 
  4 N       -2.0190     0.0100    -0.7890 N.2   1 <1>  -0.3380 
  5 N       -1.6110    -2.2720    -0.0840 N.am  1 <1>  -0.4940 
  6 N       -1.4560     1.2460    -0.6630 N.2   1 <1>  -0.3380 
  7 C        0.4870     2.4370     0.3760 C.3   1 <1>   0.0200 
  8 C       -2.6860    -3.0010    -0.5130 C.2   1 <1>   0.7160 
  9 C       -0.1030     3.6970    -0.2680 C.3   1 <1>   0.3430 
 10 O       -3.6860    -2.4510    -0.9190 O.2   1 <1>  -0.5700 
 11 C       -2.6160    -4.4350    -0.4220 C.2   1 <1>  -0.0860 
 12 N        0.7300     4.9240    -0.0360 N.4   1 <1>  -0.9590 
 13 C       -3.6360    -5.2960    -0.0390 C.2   1 <1>   0.1080 
 14 C       -1.6100    -5.3060    -0.6590 C.2   1 <1>  -0.0400 
 15 C        0.7150     5.3670     1.3970 C.3   1 <1>   0.2630 
 16 C        0.2410     6.0330    -0.9150 C.3   1 <1>   0.2630 
 17 N       -3.2170    -6.5070    -0.0420 N.2   1 <1>  -0.4100 
 18 C       -5.0530    -4.8640     0.3300 C.3   1 <1>   0.0210 
 19 O       -1.9610    -6.5450    -0.4190 O.3   1 <1>  -0.0190 
 20 C       -0.1980    -5.0760    -1.1670 C.3   1 <1>  -0.0600 
 21 C       -5.8620    -5.9560     1.0450 C.3   1 <1>  -0.2400 
 22 H       -0.9080    -2.8130     0.4080 H     1 <1>   0.3700 
 23 H        1.4760     2.2540    -0.0020 H     1 <1>   0.0800 
 24 H        0.5180     2.5350     1.4450 H     1 <1>   0.0800 
 25 H       -1.1010     3.8540     0.1120 H     1 <1>   0.0800 
 26 H       -0.1900     3.5200    -1.3290 H     1 <1>   0.0800 
 27 H        1.7040     4.7180    -0.3090 H     1 <1>   0.4500 
 28 H       -0.2950     5.5760     1.7140 H     1 <1>   0.0800 
 29 H        1.3050     6.2610     1.5180 H     1 <1>   0.0800 
 30 H        1.1250     4.6010     2.0350 H     1 <1>   0.0800 
 31 H       -0.7790     6.2830    -0.6720 H     1 <1>   0.0800 
 32 H        0.2830     5.7360    -1.9510 H     1 <1>   0.0800 
 33 H        0.8520     6.9120    -0.7860 H     1 <1>   0.0800 
 34 H       -5.5660    -4.5760    -0.5700 H     1 <1>   0.0800 
 35 H       -5.0000    -4.0000     0.9680 H     1 <1>   0.0800 
 36 H       -0.0460    -4.0550    -1.4610 H     1 <1>   0.0800 
 37 H       -0.0230    -5.7020    -2.0250 H     1 <1>   0.0800 
 38 H        0.5130    -5.3380    -0.4040 H     1 <1>   0.0800 
 39 H       -5.9680    -6.8160     0.4070 H     1 <1>   0.0800 
 40 H       -6.8400    -5.5880     1.2960 H     1 <1>   0.0800 
 41 H       -5.3610    -6.2570     1.9480 H     1 <1>   0.0800 
@<TRIPOS>BOND
  1   1   2  1   
  2   1   3  1   
  3   2   4  2   
  4   2   5  1   
  5   3   6  2   
  6   3   7  1   
  7   4   6  1   
  8   5   8  am  
  9   5  22  1   
 10   7   9  1   
 11   7  23  1   
 12   7  24  1   
 13   8  10  2   
 14   8  11  1   
 15   9  12  1   
 16   9  25  1   
 17   9  26  1   
 18  11  13  1   
 19  11  14  2   
 20  12  15  1   
 21  12  16  1   
 22  12  27  1   
 23  13  17  2   
 24  13  18  1   
 25  14  19  1   
 26  14  20  1   
 27  15  28  1   
 28  15  29  1   
 29  15  30  1   
 30  16  31  1   
 31  16  32  1   
 32  16  33  1   
 33  17  19  1   
 34  18  21  1   
 35  18  34  1   
 36  18  35  1   
 37  20  36  1   
 38  20  37  1   
 39  20  38  1   
 40  21  39  1   
 41  21  40  1   
 42  21  41  1   
@<TRIPOS>SUBSTRUCTURE
  1 ****   2 GROUP 4 **** **** 0

# MOE 2024.06 (io_trps.svl 2023.06)
