@<TRIPOS>MOLECULE
NONAME
40 43 1 0 0 
SMALL
USER_CHARGES


@<TRIPOS>ATOM
  1 CL      -0.8250    -1.2180     3.3360 Cl    1 <1>  -0.1770 
  2 C       -1.8120    -1.4130     1.9100 C.ar  1 <1>   0.1770 
  3 C       -2.5290    -0.3380     1.4120 C.ar  1 <1>   0.1600 
  4 C       -1.8750    -2.6380     1.2890 C.ar  1 <1>  -0.1500 
  5 N       -3.3010    -0.4000     0.3340 N.ar  1 <1>  -0.6200 
  6 C       -2.6800    -2.7390     0.1630 C.ar  1 <1>   0.0860 
  7 C       -3.3450    -1.5860    -0.2590 C.ar  1 <1>   0.1600 
  8 C       -2.8260    -3.9820    -0.5580 C.2   1 <1>   0.5440 
  9 O       -1.8240    -4.5520    -0.9420 O.2   1 <1>  -0.5700 
 10 N       -4.0630    -4.5390    -0.8120 N.am  1 <1>  -0.6600 
 11 C       -5.3100    -4.1850    -0.0780 C.3   1 <1>   0.1400 
 12 C       -4.2240    -5.6920    -1.7440 C.3   1 <1>   0.1400 
 13 C       -5.7820    -5.3990     0.7250 C.3   1 <1>  -0.1600 
 14 C       -4.6900    -6.9190    -0.9590 C.3   1 <1>  -0.1600 
 15 C       -5.9720    -6.6300    -0.1720 C.3   1 <1>   0.4600 
 16 O       -6.9730    -6.3470    -1.1320 O.3   1 <1>  -0.5600 
 17 C       -6.4030    -7.8490     0.6350 C.2   1 <1>  -0.1400 
 18 C       -8.3220    -6.5000    -0.7520 C.3   1 <1>   0.1200 
 19 S       -5.3590    -8.6240     1.8180 S.3   1 <1>  -0.0800 
 20 C       -7.5840    -8.4760     0.5640 C.2   1 <1>  -0.1810 
 21 C       -8.6440    -7.9620    -0.3850 C.3   1 <1>   0.0210 
 22 C       -6.5980    -9.8210     2.1730 C.2   1 <1>  -0.1100 
 23 C       -7.7030    -9.6060     1.4330 C.2   1 <1>  -0.1500 
 24 H       -2.4600     0.6070     1.9220 H     1 <1>   0.1500 
 25 H       -1.3220    -3.4850     1.6550 H     1 <1>   0.1500 
 26 H       -3.9520    -1.6600    -1.1460 H     1 <1>   0.1500 
 27 H       -6.0680    -3.8970    -0.7880 H     1 <1>   0.0800 
 28 H       -5.1480    -3.3620     0.5950 H     1 <1>   0.0800 
 29 H       -3.2970    -5.9140    -2.2460 H     1 <1>   0.0800 
 30 H       -4.9530    -5.4390    -2.4950 H     1 <1>   0.0800 
 31 H       -6.6960    -5.1720     1.2390 H     1 <1>   0.0800 
 32 H       -5.0440    -5.6210     1.4740 H     1 <1>   0.0800 
 33 H       -3.9040    -7.2070    -0.2840 H     1 <1>   0.0800 
 34 H       -4.8620    -7.7410    -1.6280 H     1 <1>   0.0800 
 35 H       -8.9320    -6.1830    -1.5790 H     1 <1>   0.0800 
 36 H       -8.5150    -5.8530     0.0850 H     1 <1>   0.0800 
 37 H       -8.6620    -8.5680    -1.2730 H     1 <1>   0.0800 
 38 H       -9.6110    -8.0080     0.0810 H     1 <1>   0.0800 
 39 H       -6.3640   -10.5690     2.9090 H     1 <1>   0.1500 
 40 H       -8.6010   -10.1980     1.4600 H     1 <1>   0.1500 
@<TRIPOS>BOND
  1   1   2  1   
  2   2   3  ar  
  3   2   4  ar  
  4   3   5  ar  
  5   3  24  1   
  6   4   6  ar  
  7   4  25  1   
  8   5   7  ar  
  9   6   7  ar  
 10   6   8  1   
 11   7  26  1   
 12   8   9  2   
 13   8  10  am  
 14  10  11  1   
 15  10  12  1   
 16  11  13  1   
 17  11  27  1   
 18  11  28  1   
 19  12  14  1   
 20  12  29  1   
 21  12  30  1   
 22  13  15  1   
 23  13  31  1   
 24  13  32  1   
 25  14  15  1   
 26  14  33  1   
 27  14  34  1   
 28  15  16  1   
 29  15  17  1   
 30  16  18  1   
 31  17  19  1   
 32  17  20  2   
 33  18  21  1   
 34  18  35  1   
 35  18  36  1   
 36  19  22  1   
 37  20  21  1   
 38  20  23  1   
 39  21  37  1   
 40  21  38  1   
 41  22  23  2   
 42  22  39  1   
 43  23  40  1   
@<TRIPOS>SUBSTRUCTURE
  1 ****  13 GROUP 4 **** **** 0

# MOE 2024.06 (io_trps.svl 2023.06)
