@<TRIPOS>MOLECULE
NONAME
51 53 1 0 0 
SMALL
USER_CHARGES


@<TRIPOS>ATOM
  1 CL      -2.5530    -0.2380    -1.9940 Cl    1 <1>  -0.1770 
  2 C       -2.1770     0.6470    -0.5300 C.ar  1 <1>   0.1770 
  3 C       -2.4980     0.0820     0.7030 C.ar  1 <1>   0.0860 
  4 C       -1.5770     1.8950    -0.6390 C.ar  1 <1>  -0.1440 
  5 C       -3.1280    -1.2140     0.8150 C.2   1 <1>   0.5440 
  6 C       -2.1840     0.8140     1.8460 C.ar  1 <1>  -0.1500 
  7 C       -1.2870     2.5990     0.5190 C.ar  1 <1>  -0.1500 
  8 C       -1.2350     2.4920    -1.9960 C.3   1 <1>  -0.0960 
  9 O       -2.4490    -2.1550     1.1790 O.2   1 <1>  -0.5700 
 10 N       -4.4740    -1.4130     0.5610 N.am  1 <1>  -0.6600 
 11 C       -1.5880     2.0590     1.7570 C.ar  1 <1>  -0.1500 
 12 C       -5.3860    -0.3050     0.1480 C.3   1 <1>   0.2200 
 13 C       -5.0310    -2.7990     0.6600 C.3   1 <1>   0.0600 
 14 C       -6.4500     0.0060     1.1990 C.3   1 <1>  -0.1600 
 15 C       -6.1680    -0.5910    -1.1350 C.3   1 <1>  -0.1600 
 16 C       -7.5700     0.7090     0.4190 C.3   1 <1>  -0.0800 
 17 C       -7.3860     0.3400    -1.0580 C.3   1 <1>  -0.0800 
 18 C       -8.9970     0.2720     0.7830 C.3   1 <1>  -0.1600 
 19 C       -8.7170    -0.2840    -1.5050 C.3   1 <1>  -0.1600 
 20 C       -9.7730     0.2630    -0.5380 C.3   1 <1>   0.4230 
 21 N      -10.1860     1.6500    -0.9280 N.4   1 <1>  -0.9590 
 22 C      -11.1140     2.2800     0.0680 C.3   1 <1>   0.2630 
 23 C      -10.8380     1.7030    -2.2770 C.3   1 <1>   0.2630 
 24 H       -2.4100     0.3920     2.8110 H     1 <1>   0.1500 
 25 H       -0.8210     3.5680     0.4660 H     1 <1>   0.1500 
 26 H       -0.7660     3.4540    -1.8900 H     1 <1>   0.0800 
 27 H       -2.1270     2.6110    -2.5840 H     1 <1>   0.0800 
 28 H       -0.5580     1.8420    -2.5230 H     1 <1>   0.0800 
 29 H       -1.3540     2.6080     2.6540 H     1 <1>   0.1500 
 30 H       -4.8270     0.5990    -0.0170 H     1 <1>   0.0800 
 31 H       -6.0980    -2.7870     0.7860 H     1 <1>   0.0800 
 32 H       -4.5980    -3.3110     1.5030 H     1 <1>   0.0800 
 33 H       -4.7860    -3.3450    -0.2340 H     1 <1>   0.0800 
 34 H       -6.8070    -0.9020     1.6470 H     1 <1>   0.0800 
 35 H       -6.0500     0.6410     1.9700 H     1 <1>   0.0800 
 36 H       -5.5680    -0.3850    -2.0040 H     1 <1>   0.0800 
 37 H       -6.4820    -1.6170    -1.1660 H     1 <1>   0.0800 
 38 H       -7.4670     1.7760     0.5270 H     1 <1>   0.0800 
 39 H       -7.1850     1.2380    -1.6190 H     1 <1>   0.0800 
 40 H       -9.4250     0.8780     1.5590 H     1 <1>   0.0800 
 41 H       -8.9790    -0.7410     1.1460 H     1 <1>   0.0800 
 42 H       -8.6790    -1.3500    -1.3610 H     1 <1>   0.0800 
 43 H       -8.9190    -0.1120    -2.5450 H     1 <1>   0.0800 
 44 H      -10.6330    -0.3860    -0.4860 H     1 <1>   0.0800 
 45 H       -9.3190     2.2060    -0.9620 H     1 <1>   0.4500 
 46 H      -11.9940     1.6710     0.1970 H     1 <1>   0.0800 
 47 H      -11.4190     3.2560    -0.2730 H     1 <1>   0.0800 
 48 H      -10.6300     2.3960     1.0230 H     1 <1>   0.0800 
 49 H      -11.7000     1.0560    -2.3020 H     1 <1>   0.0800 
 50 H      -10.1510     1.3930    -3.0470 H     1 <1>   0.0800 
 51 H      -11.1560     2.7090    -2.4980 H     1 <1>   0.0800 
@<TRIPOS>BOND
  1   1   2  1   
  2   2   3  ar  
  3   2   4  ar  
  4   3   5  1   
  5   3   6  ar  
  6   4   7  ar  
  7   4   8  1   
  8   5   9  2   
  9   5  10  am  
 10   6  11  ar  
 11   6  24  1   
 12   7  11  ar  
 13   7  25  1   
 14   8  26  1   
 15   8  27  1   
 16   8  28  1   
 17  10  12  1   
 18  10  13  1   
 19  11  29  1   
 20  12  14  1   
 21  12  15  1   
 22  12  30  1   
 23  13  31  1   
 24  13  32  1   
 25  13  33  1   
 26  14  16  1   
 27  14  34  1   
 28  14  35  1   
 29  15  17  1   
 30  15  36  1   
 31  15  37  1   
 32  16  17  1   
 33  16  18  1   
 34  16  38  1   
 35  17  19  1   
 36  17  39  1   
 37  18  20  1   
 38  18  40  1   
 39  18  41  1   
 40  19  20  1   
 41  19  42  1   
 42  19  43  1   
 43  20  21  1   
 44  20  44  1   
 45  21  22  1   
 46  21  23  1   
 47  21  45  1   
 48  22  46  1   
 49  22  47  1   
 50  22  48  1   
 51  23  49  1   
 52  23  50  1   
 53  23  51  1   
@<TRIPOS>SUBSTRUCTURE
  1 ****  12 GROUP 4 **** **** 0

# MOE 2024.06 (io_trps.svl 2023.06)
