@<TRIPOS>MOLECULE
NONAME
48 51 1 0 0 
SMALL
USER_CHARGES


@<TRIPOS>ATOM
  1 O       -1.5460    -0.5000     1.1890 O.2   1 <1>  -0.5700 
  2 C       -2.3510     0.1680     0.5680 C.2   1 <1>   0.5440 
  3 N       -2.3080     1.5410     0.7030 N.am  1 <1>  -0.6600 
  4 C       -3.3150    -0.5100    -0.2670 C.ar  1 <1>   0.0860 
  5 C       -3.4650     2.4600     0.4850 C.3   1 <1>   0.1400 
  6 C       -1.1450     2.2230     1.3460 C.3   1 <1>   0.1400 
  7 C       -3.9560    -1.6570     0.1940 C.ar  1 <1>   0.1600 
  8 C       -3.6350    -0.0920    -1.5560 C.ar  1 <1>  -0.1500 
  9 C       -3.0040     3.7530    -0.2090 C.3   1 <1>   0.1200 
 10 C       -0.8150     3.5360     0.6170 C.3   1 <1>   0.1200 
 11 N       -4.8540    -2.3710    -0.4680 N.ar  1 <1>  -0.6200 
 12 C       -4.5600    -0.8220    -2.2620 C.ar  1 <1>  -0.1500 
 13 O       -1.9530     4.3440     0.5020 O.3   1 <1>  -0.5600 
 14 C       -5.1400    -1.9520    -1.6930 C.ar  1 <1>   0.4100 
 15 N       -6.0530    -2.6890    -2.3990 N.pl3 1 <1>  -0.8690 
 16 C       -6.2420    -4.1420    -2.1370 C.3   1 <1>   0.3770 
 17 C       -7.2570    -4.3880    -1.0190 C.2   1 <1>   0.1820 
 18 N       -7.7990    -5.6150    -0.7090 N.pl3 1 <1>  -0.7000 
 19 C       -7.7840    -3.4900    -0.1640 C.2   1 <1>   0.2000 
 20 C       -8.6440    -5.4540     0.3260 C.cat 1 <1>   0.7910 
 21 N       -8.6560    -4.1480     0.6800 N.pl3 1 <1>  -0.6290 
 22 C       -9.4360    -6.3980     1.0170 C.2   1 <1>  -0.1290 
 23 C       -9.4350    -3.7090     1.7240 C.2   1 <1>   0.2290 
 24 C      -10.2180    -5.9650     2.0570 C.2   1 <1>  -0.1500 
 25 C       -9.4210    -7.8690     0.6130 C.3   1 <1>  -0.1020 
 26 C      -10.2100    -4.5990     2.4090 C.2   1 <1>  -0.1500 
 27 H       -3.8920     2.7150     1.4400 H     1 <1>   0.0800 
 28 H       -4.2330     1.9890    -0.1000 H     1 <1>   0.0800 
 29 H       -0.2800     1.5830     1.3290 H     1 <1>   0.0800 
 30 H       -1.3820     2.4340     2.3740 H     1 <1>   0.0800 
 31 H       -3.6960    -1.9990     1.1830 H     1 <1>   0.1500 
 32 H       -3.1590     0.7750    -1.9800 H     1 <1>   0.1500 
 33 H       -3.8110     4.4620    -0.2490 H     1 <1>   0.0800 
 34 H       -2.6700     3.5500    -1.2120 H     1 <1>   0.0800 
 35 H       -0.4340     3.3340    -0.3680 H     1 <1>   0.0800 
 36 H       -0.0740     4.0880     1.1670 H     1 <1>   0.0800 
 37 H       -4.8360    -0.5320    -3.2580 H     1 <1>   0.1500 
 38 H       -6.1620    -2.4290    -3.3830 H     1 <1>   0.4000 
 39 H       -5.2980    -4.5870    -1.8670 H     1 <1>   0.0800 
 40 H       -6.5880    -4.6140    -3.0400 H     1 <1>   0.0800 
 41 H       -7.6080    -6.5150    -1.1500 H     1 <1>   0.4500 
 42 H       -7.5870    -2.4310    -0.1020 H     1 <1>   0.1500 
 43 H       -9.4070    -2.6590     1.9730 H     1 <1>   0.1500 
 44 H      -10.8430    -6.6390     2.6210 H     1 <1>   0.1500 
 45 H       -8.4280    -8.2730     0.7100 H     1 <1>   0.0800 
 46 H       -9.7500    -7.9820    -0.4050 H     1 <1>   0.0800 
 47 H      -10.0780    -8.4440     1.2420 H     1 <1>   0.0800 
 48 H      -10.8270    -4.2730     3.2290 H     1 <1>   0.1500 
@<TRIPOS>BOND
  1   1   2  2   
  2   2   3  am  
  3   2   4  1   
  4   3   5  1   
  5   3   6  1   
  6   4   7  ar  
  7   4   8  ar  
  8   5   9  1   
  9   5  27  1   
 10   5  28  1   
 11   6  10  1   
 12   6  29  1   
 13   6  30  1   
 14   7  11  ar  
 15   7  31  1   
 16   8  12  ar  
 17   8  32  1   
 18   9  13  1   
 19   9  33  1   
 20   9  34  1   
 21  10  13  1   
 22  10  35  1   
 23  10  36  1   
 24  11  14  ar  
 25  12  14  ar  
 26  12  37  1   
 27  14  15  1   
 28  15  16  1   
 29  15  38  1   
 30  16  17  1   
 31  16  39  1   
 32  16  40  1   
 33  17  18  1   
 34  17  19  2   
 35  18  20  ar  
 36  18  41  1   
 37  19  21  1   
 38  19  42  1   
 39  20  21  ar  
 40  20  22  1   
 41  21  23  1   
 42  22  24  2   
 43  22  25  1   
 44  23  26  2   
 45  23  43  1   
 46  24  26  1   
 47  24  44  1   
 48  25  45  1   
 49  25  46  1   
 50  25  47  1   
 51  26  48  1   
@<TRIPOS>SUBSTRUCTURE
  1 ****  11 GROUP 4 **** **** 0

# MOE 2024.06 (io_trps.svl 2023.06)
