@<TRIPOS>MOLECULE
NONAME
47 49 1 0 0 
SMALL
USER_CHARGES


@<TRIPOS>ATOM
  1 O       -1.5210     0.0970    -1.4530 O.2   1 <1>  -0.5700 
  2 C       -1.7110     0.5510    -0.3330 C.2   1 <1>   0.5440 
  3 N       -2.1000    -0.3370     0.6370 N.am  1 <1>  -0.7300 
  4 C       -1.5450     1.9470    -0.0340 C.ar  1 <1>   0.0860 
  5 C       -2.3920    -1.7690     0.4100 C.3   1 <1>   0.2200 
  6 C       -2.1180     2.5400     1.0960 C.ar  1 <1>  -0.1500 
  7 C       -0.8000     2.7920    -0.8620 C.ar  1 <1>  -0.1500 
  8 C       -3.8860    -1.9400     0.2040 C.3   1 <1>  -0.0800 
  9 C       -2.1500    -2.5620     1.6910 C.3   1 <1>   0.1200 
 10 C       -1.9500     3.8650     1.4160 C.ar  1 <1>   0.0820 
 11 C       -0.6030     4.1240    -0.5890 C.ar  1 <1>   0.0820 
 12 C       -4.3910    -2.0100     1.6470 C.3   1 <1>   0.1200 
 13 C       -4.2060    -3.2180    -0.5930 C.3   1 <1>  -0.0160 
 14 O       -3.3480    -2.5390     2.4140 O.3   1 <1>  -0.5600 
 15 O       -2.6090     4.2360     2.5670 O.3   1 <1>  -0.3630 
 16 C       -1.1570     4.7130     0.5880 C.ar  1 <1>  -0.1710 
 17 O        0.1520     4.7780    -1.5350 O.3   1 <1>  -0.3630 
 18 C       -5.7020    -3.3620    -0.8270 C.ar  1 <1>  -0.1440 
 19 C       -2.7570     5.6000     2.8870 C.3   1 <1>   0.0400 
 20 O       -0.9350     5.9220     0.8930 O.3   1 <1>  -0.8290 
 21 C        0.0980     6.1830    -1.6200 C.3   1 <1>   0.0400 
 22 C       -6.3670    -2.5850    -1.7530 C.ar  1 <1>  -0.1500 
 23 C       -6.4700    -4.2730    -0.1310 C.ar  1 <1>  -0.1500 
 24 C       -7.7310    -2.7470    -1.9300 C.ar  1 <1>   0.1600 
 25 C       -7.8300    -4.3560    -0.3840 C.ar  1 <1>   0.1600 
 26 N       -8.4790    -3.6130    -1.2660 N.ar  1 <1>  -0.6200 
 27 H       -2.2560     0.0030     1.5880 H     1 <1>   0.3700 
 28 H       -1.8040    -2.1400    -0.4130 H     1 <1>   0.0800 
 29 H       -2.7270     1.9520     1.7510 H     1 <1>   0.1500 
 30 H       -0.3600     2.3820    -1.7510 H     1 <1>   0.1500 
 31 H       -4.3060    -1.0940    -0.3130 H     1 <1>   0.0800 
 32 H       -1.3590    -2.1470     2.2900 H     1 <1>   0.0800 
 33 H       -1.9320    -3.5900     1.4630 H     1 <1>   0.0800 
 34 H       -5.2650    -2.6260     1.7640 H     1 <1>   0.0800 
 35 H       -4.5980    -1.0220     2.0210 H     1 <1>   0.0800 
 36 H       -3.8350    -4.0850    -0.0740 H     1 <1>   0.0800 
 37 H       -3.7120    -3.1730    -1.5480 H     1 <1>   0.0800 
 38 H       -3.4320     5.6850     3.7160 H     1 <1>   0.0800 
 39 H       -3.1460     6.1150     2.0260 H     1 <1>   0.0800 
 40 H       -1.7920     5.9950     3.1480 H     1 <1>   0.0800 
 41 H        0.5410     6.4850    -2.5490 H     1 <1>   0.0800 
 42 H        0.6470     6.5940    -0.7920 H     1 <1>   0.0800 
 43 H       -0.9310     6.4930    -1.5710 H     1 <1>   0.0800 
 44 H       -5.8370    -1.8540    -2.3380 H     1 <1>   0.1500 
 45 H       -6.0270    -4.9170     0.6070 H     1 <1>   0.1500 
 46 H       -8.2330    -2.1320    -2.6570 H     1 <1>   0.1500 
 47 H       -8.4140    -5.0710     0.1700 H     1 <1>   0.1500 
@<TRIPOS>BOND
  1   1   2  2   
  2   2   3  am  
  3   2   4  1   
  4   3   5  1   
  5   3  27  1   
  6   4   6  ar  
  7   4   7  ar  
  8   5   8  1   
  9   5   9  1   
 10   5  28  1   
 11   6  10  ar  
 12   6  29  1   
 13   7  11  ar  
 14   7  30  1   
 15   8  12  1   
 16   8  13  1   
 17   8  31  1   
 18   9  14  1   
 19   9  32  1   
 20   9  33  1   
 21  10  15  1   
 22  10  16  ar  
 23  11  16  ar  
 24  11  17  1   
 25  12  14  1   
 26  12  34  1   
 27  12  35  1   
 28  13  18  1   
 29  13  36  1   
 30  13  37  1   
 31  15  19  1   
 32  16  20  1   
 33  17  21  1   
 34  18  22  ar  
 35  18  23  ar  
 36  19  38  1   
 37  19  39  1   
 38  19  40  1   
 39  21  41  1   
 40  21  42  1   
 41  21  43  1   
 42  22  24  ar  
 43  22  44  1   
 44  23  25  ar  
 45  23  45  1   
 46  24  26  ar  
 47  24  46  1   
 48  25  26  ar  
 49  25  47  1   
@<TRIPOS>SUBSTRUCTURE
  1 ****   3 GROUP 4 **** **** 0

# MOE 2024.06 (io_trps.svl 2023.06)
