@<TRIPOS>MOLECULE
NONAME
54 57 1 0 0 
SMALL
USER_CHARGES


@<TRIPOS>ATOM
  1 S       -0.2520     0.9850    -1.9050 S.3   1 <1>  -0.0800 
  2 C       -1.0060     1.7280    -0.4850 C.2   1 <1>  -0.0450 
  3 C       -1.2920    -0.4200    -1.8150 C.2   1 <1>  -0.1100 
  4 C       -0.5730     3.0240    -0.0190 C.2   1 <1>   0.7150 
  5 C       -1.9870     0.9010    -0.0410 C.2   1 <1>  -0.1500 
  6 C       -2.1450    -0.3080    -0.7810 C.2   1 <1>  -0.1500 
  7 O       -1.3700     3.7390     0.5620 O.2   1 <1>  -0.5700 
  8 N        0.7160     3.4880    -0.1750 N.am  1 <1>  -0.6600 
  9 C        1.0200     4.9530    -0.1260 C.3   1 <1>   0.1400 
 10 C        1.9120     2.6200     0.0060 C.3   1 <1>   0.1400 
 11 C        1.6800     5.3090     1.2190 C.3   1 <1>   0.2890 
 12 C        2.5920     2.9500     1.3430 C.3   1 <1>  -0.1600 
 13 N        2.0050     6.7560     1.3590 N.pl3 1 <1>  -0.8690 
 14 C        2.9240     4.4470     1.4770 C.3   1 <1>  -0.1600 
 15 C        2.7050     7.5510     0.4770 C.ar  1 <1>   0.4100 
 16 N        3.3830     6.9680    -0.5000 N.ar  1 <1>  -0.6200 
 17 C        2.6740     8.9270     0.6590 C.ar  1 <1>  -0.1500 
 18 C        4.0320     7.7740    -1.3200 C.ar  1 <1>   0.1600 
 19 C        3.3650     9.7760    -0.1830 C.ar  1 <1>   0.0860 
 20 C        4.0550     9.1490    -1.2120 C.ar  1 <1>  -0.1500 
 21 C        3.3610    11.2150    -0.0070 C.2   1 <1>   0.5440 
 22 O        2.2960    11.7900     0.1160 O.2   1 <1>  -0.5700 
 23 N        4.5290    11.9470     0.0340 N.am  1 <1>  -0.6600 
 24 C        4.5220    13.4320    -0.0870 C.3   1 <1>   0.1400 
 25 C        5.8580    11.3730     0.3820 C.3   1 <1>   0.1400 
 26 C        5.5460    13.8670    -1.1410 C.3   1 <1>  -0.1600 
 27 C        6.8890    11.7790    -0.6770 C.3   1 <1>  -0.1600 
 28 C        6.9450    13.3040    -0.8460 C.3   1 <1>  -0.1600 
 29 H       -1.1560    -1.1910    -2.5530 H     1 <1>   0.1500 
 30 H       -2.6180     1.1210     0.8030 H     1 <1>   0.1500 
 31 H       -2.8910    -1.0330    -0.5060 H     1 <1>   0.1500 
 32 H        0.1180     5.5260    -0.2470 H     1 <1>   0.0800 
 33 H        1.6810     5.1870    -0.9400 H     1 <1>   0.0800 
 34 H        2.5960     2.7900    -0.8080 H     1 <1>   0.0800 
 35 H        1.6340     1.5810     0.0030 H     1 <1>   0.0800 
 36 H        0.9570     5.0750     1.9820 H     1 <1>   0.0800 
 37 H        3.4960     2.3740     1.4310 H     1 <1>   0.0800 
 38 H        1.9380     2.6530     2.1450 H     1 <1>   0.0800 
 39 H        1.3350     7.2510     1.9490 H     1 <1>   0.4000 
 40 H        3.3010     4.6500     2.4630 H     1 <1>   0.0800 
 41 H        3.6880     4.6960     0.7640 H     1 <1>   0.0800 
 42 H        2.1040     9.3420     1.4680 H     1 <1>   0.1500 
 43 H        4.5770     7.3090    -2.1240 H     1 <1>   0.1500 
 44 H        4.6020     9.7420    -1.9220 H     1 <1>   0.1500 
 45 H        4.7680    13.8620     0.8690 H     1 <1>   0.0800 
 46 H        3.5450    13.7850    -0.3710 H     1 <1>   0.0800 
 47 H        5.8120    10.3010     0.4600 H     1 <1>   0.0800 
 48 H        6.1590    11.7580     1.3420 H     1 <1>   0.0800 
 49 H        5.5870    14.9410    -1.1730 H     1 <1>   0.0800 
 50 H        5.2130    13.5240    -2.1050 H     1 <1>   0.0800 
 51 H        6.6300    11.3190    -1.6140 H     1 <1>   0.0800 
 52 H        7.8580    11.4130    -0.3880 H     1 <1>   0.0800 
 53 H        7.3230    13.7500     0.0580 H     1 <1>   0.0800 
 54 H        7.6160    13.5580    -1.6490 H     1 <1>   0.0800 
@<TRIPOS>BOND
  1   1   2  1   
  2   1   3  1   
  3   2   4  1   
  4   2   5  2   
  5   3   6  2   
  6   3  29  1   
  7   4   7  2   
  8   4   8  am  
  9   5   6  1   
 10   5  30  1   
 11   6  31  1   
 12   8   9  1   
 13   8  10  1   
 14   9  11  1   
 15   9  32  1   
 16   9  33  1   
 17  10  12  1   
 18  10  34  1   
 19  10  35  1   
 20  11  13  1   
 21  11  14  1   
 22  11  36  1   
 23  12  14  1   
 24  12  37  1   
 25  12  38  1   
 26  13  15  1   
 27  13  39  1   
 28  14  40  1   
 29  14  41  1   
 30  15  16  ar  
 31  15  17  ar  
 32  16  18  ar  
 33  17  19  ar  
 34  17  42  1   
 35  18  20  ar  
 36  18  43  1   
 37  19  20  ar  
 38  19  21  1   
 39  20  44  1   
 40  21  22  2   
 41  21  23  am  
 42  23  24  1   
 43  23  25  1   
 44  24  26  1   
 45  24  45  1   
 46  24  46  1   
 47  25  27  1   
 48  25  47  1   
 49  25  48  1   
 50  26  28  1   
 51  26  49  1   
 52  26  50  1   
 53  27  28  1   
 54  27  51  1   
 55  27  52  1   
 56  28  53  1   
 57  28  54  1   
@<TRIPOS>SUBSTRUCTURE
  1 ****  15 GROUP 4 **** **** 0

# MOE 2024.06 (io_trps.svl 2023.06)
