@<TRIPOS>MOLECULE
NONAME
39 41 1 0 0 
SMALL
USER_CHARGES


@<TRIPOS>ATOM
  1 O        1.5910     0.0450     2.6280 O.2   1 <1>  -0.5700 
  2 C        1.2540    -0.6980     1.7340 C.2   1 <1>   0.5690 
  3 N        1.3300    -0.3850     0.4170 N.am  1 <1>  -0.4930 
  4 C        0.7000    -2.0800     2.0880 C.3   1 <1>   0.1710 
  5 C        1.7290     0.7780    -0.2290 C.2   1 <1>   0.3520 
  6 N       -0.1780    -2.6670     1.0310 N.3   1 <1>  -0.8100 
  7 N        1.5740     0.8810    -1.5100 N.2   1 <1>  -0.7070 
  8 C        2.3050     1.9160     0.3290 C.2   1 <1>  -0.1500 
  9 C       -0.3490    -4.1170     1.2350 C.3   1 <1>   0.2530 
 10 C       -1.4890    -1.9750     0.9990 C.3   1 <1>   0.1100 
 11 N        2.0550     2.1030    -1.8130 N.pl3 1 <1>   0.3140 
 12 C        2.5020     2.7460    -0.7170 C.2   1 <1>  -0.3020 
 13 C       -0.7090    -4.8160    -0.0660 C.ar  1 <1>  -0.1430 
 14 C       -2.3330    -2.3140    -0.2390 C.3   1 <1>   0.1200 
 15 C        2.0590     2.6000    -3.1930 C.3   1 <1>   0.0160 
 16 C       -1.9240    -4.5720    -0.6950 C.ar  1 <1>   0.0830 
 17 C        0.1630    -5.7370    -0.6290 C.ar  1 <1>  -0.1500 
 18 O       -2.7830    -3.6530    -0.2110 O.3   1 <1>  -0.3630 
 19 C       -2.2770    -5.2620    -1.8430 C.ar  1 <1>  -0.1500 
 20 C       -0.1820    -6.4170    -1.7860 C.ar  1 <1>  -0.1500 
 21 C       -1.4050    -6.1850    -2.3910 C.ar  1 <1>  -0.1500 
 22 H        0.9600    -1.0960    -0.2160 H     1 <1>   0.3700 
 23 H        0.1640    -2.0140     3.0180 H     1 <1>   0.0800 
 24 H        1.5520    -2.7180     2.2430 H     1 <1>   0.0800 
 25 H        2.5280     2.0620     1.3700 H     1 <1>   0.1500 
 26 H       -1.1130    -4.3050     1.9700 H     1 <1>   0.0800 
 27 H        0.5690    -4.5430     1.6010 H     1 <1>   0.0800 
 28 H       -1.3250    -0.9110     0.9830 H     1 <1>   0.0800 
 29 H       -2.0560    -2.2000     1.8870 H     1 <1>   0.0800 
 30 H        2.9240     3.7330    -0.7380 H     1 <1>   0.1500 
 31 H       -1.7700    -2.1490    -1.1420 H     1 <1>   0.0800 
 32 H       -3.2070    -1.6900    -0.2590 H     1 <1>   0.0800 
 33 H        2.5300     1.8690    -3.8240 H     1 <1>   0.0800 
 34 H        2.5990     3.5260    -3.2430 H     1 <1>   0.0800 
 35 H        1.0450     2.7490    -3.5110 H     1 <1>   0.0800 
 36 H        1.1150    -5.9340    -0.1690 H     1 <1>   0.1500 
 37 H       -3.2290    -5.0670    -2.3020 H     1 <1>   0.1500 
 38 H        0.5020    -7.1290    -2.2140 H     1 <1>   0.1500 
 39 H       -1.6760    -6.7170    -3.2860 H     1 <1>   0.1500 
@<TRIPOS>BOND
  1   1   2  2   
  2   2   3  am  
  3   2   4  1   
  4   3   5  1   
  5   3  22  1   
  6   4   6  1   
  7   4  23  1   
  8   4  24  1   
  9   5   7  2   
 10   5   8  1   
 11   6   9  1   
 12   6  10  1   
 13   7  11  1   
 14   8  12  2   
 15   8  25  1   
 16   9  13  1   
 17   9  26  1   
 18   9  27  1   
 19  10  14  1   
 20  10  28  1   
 21  10  29  1   
 22  11  12  1   
 23  11  15  1   
 24  12  30  1   
 25  13  16  ar  
 26  13  17  ar  
 27  14  18  1   
 28  14  31  1   
 29  14  32  1   
 30  15  33  1   
 31  15  34  1   
 32  15  35  1   
 33  16  18  1   
 34  16  19  ar  
 35  17  20  ar  
 36  17  36  1   
 37  19  21  ar  
 38  19  37  1   
 39  20  21  ar  
 40  20  38  1   
 41  21  39  1   
@<TRIPOS>SUBSTRUCTURE
  1 ****   6 GROUP 4 **** **** 0

# MOE 2024.06 (io_trps.svl 2023.06)
