@<TRIPOS>MOLECULE
NONAME
45 48 1 0 0 
SMALL
USER_CHARGES


@<TRIPOS>ATOM
  1 CL       0.5640     3.2530     2.7400 Cl    1 <1>  -0.1770 
  2 C        0.3300     2.9210     1.0390 C.ar  1 <1>   0.1770 
  3 C        1.3450     2.3690     0.2650 C.ar  1 <1>  -0.1440 
  4 C       -0.9110     3.2120     0.5040 C.ar  1 <1>  -0.1500 
  5 C        1.0670     2.0860    -1.0690 C.ar  1 <1>  -0.1500 
  6 C        2.7270     2.0700     0.8470 C.3   1 <1>   0.3640 
  7 C       -1.1650     2.9390    -0.8280 C.ar  1 <1>  -0.1500 
  8 C       -0.1750     2.3720    -1.6110 C.ar  1 <1>  -0.1500 
  9 N        2.9310     0.6040     0.7580 N.am  1 <1>  -0.7300 
 10 C        3.8550     2.8460     0.1060 C.3   1 <1>   0.2610 
 11 C        4.0910     0.0280     0.3790 C.2   1 <1>   0.5690 
 12 O        5.1260     2.2590     0.3580 O.3   1 <1>  -0.5600 
 13 C        3.8700     4.3460     0.4590 C.2   1 <1>   0.5690 
 14 O        4.2050    -1.1700     0.3530 O.2   1 <1>  -0.5700 
 15 C        5.2590     0.9160    -0.0580 C.3   1 <1>   0.1810 
 16 O        3.0790     4.7550     1.2770 O.2   1 <1>  -0.5700 
 17 N        4.7470     5.2150    -0.1510 N.am  1 <1>  -0.6600 
 18 C        4.8460     6.6340     0.3100 C.3   1 <1>   0.3200 
 19 C        5.7600     4.8350    -1.1840 C.3   1 <1>   0.1400 
 20 C        6.3030     7.0350     0.4690 C.2   1 <1>  -0.3320 
 21 C        7.1690     4.9480    -0.5990 C.3   1 <1>   0.0960 
 22 N        7.3190     6.2600     0.0410 N.pl3 1 <1>   0.3140 
 23 C        6.8610     8.1390     1.0100 C.2   1 <1>  -0.1500 
 24 N        8.5120     6.8300     0.2750 N.2   1 <1>  -0.7070 
 25 C        8.2300     7.9520     0.8590 C.2   1 <1>   0.1080 
 26 C        9.3000     8.9180     1.3080 C.3   1 <1>  -0.0590 
 27 H       -1.6700     3.6460     1.1300 H     1 <1>   0.1500 
 28 H        1.8130     1.6320    -1.6980 H     1 <1>   0.1500 
 29 H        2.7680     2.3410     1.8860 H     1 <1>   0.0800 
 30 H       -2.1290     3.1640    -1.2510 H     1 <1>   0.1500 
 31 H       -0.3750     2.1500    -2.6450 H     1 <1>   0.1500 
 32 H        2.1620     0.0060     1.0680 H     1 <1>   0.3700 
 33 H        3.6810     2.7750    -0.9510 H     1 <1>   0.0800 
 34 H        5.3380     0.8980    -1.1290 H     1 <1>   0.0800 
 35 H        6.1710     0.5320     0.3630 H     1 <1>   0.0800 
 36 H        4.3760     7.2710    -0.4180 H     1 <1>   0.0800 
 37 H        4.3410     6.7710     1.2510 H     1 <1>   0.0800 
 38 H        5.6020     3.8370    -1.5480 H     1 <1>   0.0800 
 39 H        5.6720     5.5030    -2.0240 H     1 <1>   0.0800 
 40 H        7.9120     4.8490    -1.3670 H     1 <1>   0.0800 
 41 H        7.3250     4.1870     0.1430 H     1 <1>   0.0800 
 42 H        6.3820     8.9890     1.4620 H     1 <1>   0.1500 
 43 H        8.8580     9.7830     1.7660 H     1 <1>   0.0800 
 44 H        9.8830     9.2250     0.4600 H     1 <1>   0.0800 
 45 H        9.9440     8.4320     2.0170 H     1 <1>   0.0800 
@<TRIPOS>BOND
  1   1   2  1   
  2   2   3  ar  
  3   2   4  ar  
  4   3   5  ar  
  5   3   6  1   
  6   4   7  ar  
  7   4  27  1   
  8   5   8  ar  
  9   5  28  1   
 10   6   9  1   
 11   6  10  1   
 12   6  29  1   
 13   7   8  ar  
 14   7  30  1   
 15   8  31  1   
 16   9  11  am  
 17   9  32  1   
 18  10  12  1   
 19  10  13  1   
 20  10  33  1   
 21  11  14  2   
 22  11  15  1   
 23  12  15  1   
 24  13  16  2   
 25  13  17  am  
 26  15  34  1   
 27  15  35  1   
 28  17  18  1   
 29  17  19  1   
 30  18  20  1   
 31  18  36  1   
 32  18  37  1   
 33  19  21  1   
 34  19  38  1   
 35  19  39  1   
 36  20  22  1   
 37  20  23  2   
 38  21  22  1   
 39  21  40  1   
 40  21  41  1   
 41  22  24  1   
 42  23  25  1   
 43  23  42  1   
 44  24  25  2   
 45  25  26  1   
 46  26  43  1   
 47  26  44  1   
 48  26  45  1   
@<TRIPOS>SUBSTRUCTURE
  1 ****  13 GROUP 4 **** **** 0

# MOE 2024.06 (io_trps.svl 2023.06)
