@<TRIPOS>MOLECULE
NONAME
48 49 1 0 0 
SMALL
USER_CHARGES


@<TRIPOS>ATOM
  1 F       -0.6800    -0.2780    -1.2140 F     1 <1>  -0.1900 
  2 C       -1.1140    -1.4780    -0.9230 C.ar  1 <1>   0.1900 
  3 C       -0.2650    -2.4730    -0.4230 C.ar  1 <1>   0.0820 
  4 C       -2.4570    -1.7170    -1.1400 C.ar  1 <1>  -0.1500 
  5 O        1.0710    -2.3600    -0.1680 O.3   1 <1>  -0.3630 
  6 C       -0.8200    -3.7130    -0.1530 C.ar  1 <1>  -0.1500 
  7 C       -2.9750    -2.9680    -0.8610 C.ar  1 <1>  -0.1500 
  8 C        1.7740    -1.1430    -0.2830 C.3   1 <1>   0.0400 
  9 C       -2.1730    -3.9940    -0.3590 C.ar  1 <1>   0.0530 
 10 C       -2.6990    -5.3090    -0.0780 C.2   1 <1>   0.0870 
 11 O       -1.9260    -6.3540    -0.2750 O.3   1 <1>  -0.0190 
 12 C       -3.8960    -5.7850     0.3630 C.2   1 <1>  -0.2330 
 13 N       -2.5190    -7.4860    -0.0060 N.2   1 <1>  -0.4100 
 14 C       -3.7030    -7.1650     0.3760 C.2   1 <1>   0.3720 
 15 C       -5.1110    -5.1360     0.7610 C.2   1 <1>   1.0330 
 16 N       -4.6730    -8.0740     0.7670 N.pl3 1 <1>  -0.8520 
 17 O       -5.1450    -3.9190     0.9980 O.co2 1 <1>  -0.9000 
 18 O       -6.1710    -5.7840     0.8720 O.co2 1 <1>  -0.9000 
 19 C       -4.8790    -9.2820    -0.1010 C.3   1 <1>   0.3500 
 20 C       -6.2170    -9.2750    -0.8930 C.2   1 <1>   0.5690 
 21 C       -4.6940   -10.5730     0.7460 C.3   1 <1>  -0.0800 
 22 O       -6.1460    -9.5710    -2.0690 O.2   1 <1>  -0.5700 
 23 N       -7.4450    -8.9790    -0.3240 N.am  1 <1>  -0.6600 
 24 C       -3.3260   -10.6160     1.4530 C.3   1 <1>  -0.2400 
 25 C       -4.8420   -11.8500    -0.1020 C.3   1 <1>  -0.2400 
 26 C       -8.6570    -8.7950    -1.1690 C.3   1 <1>   0.0600 
 27 C       -7.6830    -8.6100     1.1020 C.3   1 <1>   0.0600 
 28 H       -3.0910    -0.9360    -1.5180 H     1 <1>   0.1500 
 29 H       -0.1820    -4.4870     0.2340 H     1 <1>   0.1500 
 30 H       -4.0220    -3.1540    -1.0280 H     1 <1>   0.1500 
 31 H        2.7880    -1.3120     0.0310 H     1 <1>   0.0800 
 32 H        1.3130    -0.4100     0.3540 H     1 <1>   0.0800 
 33 H        1.7600    -0.8260    -1.3110 H     1 <1>   0.0800 
 34 H       -5.5580    -7.5260     0.8280 H     1 <1>   0.4000 
 35 H       -4.1050    -9.2900    -0.8480 H     1 <1>   0.0800 
 36 H       -5.4600   -10.5920     1.4990 H     1 <1>   0.0800 
 37 H       -2.5290   -10.5520     0.7330 H     1 <1>   0.0800 
 38 H       -3.2160   -11.5240     2.0180 H     1 <1>   0.0800 
 39 H       -3.2290    -9.7870     2.1330 H     1 <1>   0.0800 
 40 H       -4.1230   -11.8540    -0.9030 H     1 <1>   0.0800 
 41 H       -5.8280   -11.9160    -0.5270 H     1 <1>   0.0800 
 42 H       -4.6850   -12.7240     0.5050 H     1 <1>   0.0800 
 43 H       -8.4610    -9.0510    -2.1950 H     1 <1>   0.0800 
 44 H       -8.9670    -7.7650    -1.1280 H     1 <1>   0.0800 
 45 H       -9.4530    -9.4210    -0.8060 H     1 <1>   0.0800 
 46 H       -6.8510    -8.8660     1.7290 H     1 <1>   0.0800 
 47 H       -8.5500    -9.1280     1.4710 H     1 <1>   0.0800 
 48 H       -7.8570    -7.5500     1.1760 H     1 <1>   0.0800 
@<TRIPOS>BOND
  1   1   2  1   
  2   2   3  ar  
  3   2   4  ar  
  4   3   5  1   
  5   3   6  ar  
  6   4   7  ar  
  7   4  28  1   
  8   5   8  1   
  9   6   9  ar  
 10   6  29  1   
 11   7   9  ar  
 12   7  30  1   
 13   8  31  1   
 14   8  32  1   
 15   8  33  1   
 16   9  10  1   
 17  10  11  1   
 18  10  12  2   
 19  11  13  1   
 20  12  14  1   
 21  12  15  1   
 22  13  14  2   
 23  14  16  1   
 24  15  17  ar  
 25  15  18  ar  
 26  16  19  1   
 27  16  34  1   
 28  19  20  1   
 29  19  21  1   
 30  19  35  1   
 31  20  22  2   
 32  20  23  am  
 33  21  24  1   
 34  21  25  1   
 35  21  36  1   
 36  23  26  1   
 37  23  27  1   
 38  24  37  1   
 39  24  38  1   
 40  24  39  1   
 41  25  40  1   
 42  25  41  1   
 43  25  42  1   
 44  26  43  1   
 45  26  44  1   
 46  26  45  1   
 47  27  46  1   
 48  27  47  1   
 49  27  48  1   
@<TRIPOS>SUBSTRUCTURE
  1 ****  12 GROUP 4 **** **** 0

# MOE 2024.06 (io_trps.svl 2023.06)
