@<TRIPOS>MOLECULE
NONAME
25 25 1 0 0 
SMALL
USER_CHARGES


@<TRIPOS>ATOM
  1 O        0.2160     0.3740     0.3800 O.2   1 <1>  -0.5700 
  2 C        0.9220     1.3440     0.2810 C.2   1 <1>   0.5690 
  3 N        2.2300     1.3740     0.5650 N.am  1 <1>  -0.7300 
  4 C        0.4500     2.6970    -0.1690 C.3   1 <1>  -0.0990 
  5 C        2.8540     2.6850     0.3590 C.3   1 <1>   0.1400 
  6 C        1.7600     3.4900    -0.3710 C.3   1 <1>  -0.0800 
  7 C        1.6410     4.9500     0.0990 C.3   1 <1>  -0.1600 
  8 C        2.9110     5.7630    -0.1900 C.3   1 <1>  -0.1600 
  9 C        2.7410     7.2220     0.2480 C.3   1 <1>  -0.1600 
 10 C        4.0070     8.0350    -0.0400 C.3   1 <1>  -0.2400 
 11 H        2.7300     0.5560     0.9170 H     1 <1>   0.3700 
 12 H       -0.1610     3.1200     0.6070 H     1 <1>   0.0800 
 13 H       -0.1150     2.6180    -1.0790 H     1 <1>   0.0800 
 14 H        3.7450     2.5980    -0.2390 H     1 <1>   0.0800 
 15 H        3.0910     3.1200     1.3160 H     1 <1>   0.0800 
 16 H        1.9950     3.4800    -1.4220 H     1 <1>   0.0800 
 17 H        1.4330     4.9720     1.1560 H     1 <1>   0.0800 
 18 H        0.8100     5.4100    -0.4080 H     1 <1>   0.0800 
 19 H        3.1240     5.7320    -1.2450 H     1 <1>   0.0800 
 20 H        3.7490     5.3360     0.3330 H     1 <1>   0.0800 
 21 H        2.5280     7.2630     1.3030 H     1 <1>   0.0800 
 22 H        1.9110     7.6640    -0.2770 H     1 <1>   0.0800 
 23 H        4.8470     7.6260     0.4940 H     1 <1>   0.0800 
 24 H        3.8680     9.0550     0.2720 H     1 <1>   0.0800 
 25 H        4.2280     8.0270    -1.0930 H     1 <1>   0.0800 
@<TRIPOS>BOND
  1   1   2  2   
  2   2   3  am  
  3   2   4  1   
  4   3   5  1   
  5   3  11  1   
  6   4   6  1   
  7   4  12  1   
  8   4  13  1   
  9   5   6  1   
 10   5  14  1   
 11   5  15  1   
 12   6   7  1   
 13   6  16  1   
 14   7   8  1   
 15   7  17  1   
 16   7  18  1   
 17   8   9  1   
 18   8  19  1   
 19   8  20  1   
 20   9  10  1   
 21   9  21  1   
 22   9  22  1   
 23  10  23  1   
 24  10  24  1   
 25  10  25  1   
@<TRIPOS>SUBSTRUCTURE
  1 ****   6 GROUP 4 **** **** 0

# MOE 2024.06 (io_trps.svl 2023.06)
