@<TRIPOS>MOLECULE
NONAME
48 51 1 0 0 
SMALL
USER_CHARGES


@<TRIPOS>ATOM
  1 O       -0.4550    -0.5120    -1.3730 O.2   1 <1>  -0.5700 
  2 C       -1.3020    -0.9870    -0.6680 C.2   1 <1>   0.5690 
  3 N       -1.8990    -0.2390     0.2760 N.am  1 <1>  -0.7300 
  4 C       -1.7280    -2.4150    -0.8730 C.3   1 <1>  -0.0190 
  5 C       -2.9650    -0.6950     1.1980 C.3   1 <1>   0.2200 
  6 C       -1.4690    -3.2720     0.3860 C.3   1 <1>   0.1200 
  7 C       -3.1580    -2.4190    -1.4330 C.3   1 <1>   0.3430 
  8 C       -2.4580    -1.8740     2.0670 C.3   1 <1>   0.1200 
  9 C       -4.2660    -1.0150     0.4070 C.3   1 <1>   0.3430 
 10 O       -2.4450    -3.1010     1.3800 O.3   1 <1>  -0.5600 
 11 N       -4.2270    -2.2970    -0.3830 N.4   1 <1>  -0.9590 
 12 C       -5.5540    -2.7300    -0.8790 C.3   1 <1>   0.5240 
 13 C       -5.4650    -4.2110    -1.1730 C.2   1 <1>  -0.1810 
 14 C       -6.0630    -4.8680    -2.2390 C.2   1 <1>   0.1390 
 15 C       -4.8030    -5.1840    -0.5060 C.2   1 <1>  -0.3020 
 16 N       -5.7860    -6.1310    -2.2450 N.2   1 <1>  -0.7070 
 17 N       -5.0110    -6.3600    -1.1510 N.pl3 1 <1>   0.5930 
 18 C       -4.4030    -7.6160    -0.8660 C.ar  1 <1>  -0.0230 
 19 C       -4.3200    -8.1090     0.4400 C.ar  1 <1>   0.0820 
 20 C       -3.8710    -8.3730    -1.9060 C.ar  1 <1>  -0.1500 
 21 O       -4.8700    -7.3700     1.4440 O.3   1 <1>  -0.3620 
 22 C       -3.6910    -9.3280     0.6800 C.ar  1 <1>  -0.1500 
 23 C       -3.2520    -9.5840    -1.6610 C.ar  1 <1>  -0.1500 
 24 C       -5.0710    -7.9120     2.7330 C.3   1 <1>   0.0400 
 25 C       -3.1590   -10.0600    -0.3660 C.ar  1 <1>  -0.1500 
 26 H       -1.5240     0.7090     0.4000 H     1 <1>   0.3700 
 27 H       -1.0890    -2.8020    -1.6470 H     1 <1>   0.0800 
 28 H       -3.1770     0.1280     1.8590 H     1 <1>   0.0800 
 29 H       -0.5010    -3.0530     0.8080 H     1 <1>   0.0800 
 30 H       -1.4820    -4.3140     0.1160 H     1 <1>   0.0800 
 31 H       -3.2940    -3.3510    -1.9580 H     1 <1>   0.0800 
 32 H       -3.2580    -1.6240    -2.1550 H     1 <1>   0.0800 
 33 H       -3.1170    -2.0010     2.9080 H     1 <1>   0.0800 
 34 H       -1.4710    -1.6740     2.4510 H     1 <1>   0.0800 
 35 H       -4.4840    -0.1880    -0.2480 H     1 <1>   0.0800 
 36 H       -5.0690    -1.0830     1.1220 H     1 <1>   0.0800 
 37 H       -3.9460    -3.0160     0.3150 H     1 <1>   0.4500 
 38 H       -6.3100    -2.5640    -0.1290 H     1 <1>   0.0800 
 39 H       -5.8180    -2.1840    -1.7700 H     1 <1>   0.0800 
 40 H       -6.6840    -4.4070    -2.9920 H     1 <1>   0.1500 
 41 H       -4.1980    -5.1460     0.3820 H     1 <1>   0.1500 
 42 H       -3.9450    -8.0120    -2.9180 H     1 <1>   0.1500 
 43 H       -3.6020    -9.7280     1.6720 H     1 <1>   0.1500 
 44 H       -2.8450   -10.1560    -2.4770 H     1 <1>   0.1500 
 45 H       -5.6190    -7.1950     3.3160 H     1 <1>   0.0800 
 46 H       -4.1150    -8.0980     3.1890 H     1 <1>   0.0800 
 47 H       -5.6400    -8.8210     2.6460 H     1 <1>   0.0800 
 48 H       -2.6750   -11.0030    -0.1750 H     1 <1>   0.1500 
@<TRIPOS>BOND
  1   1   2  2   
  2   2   3  am  
  3   2   4  1   
  4   3   5  1   
  5   3  26  1   
  6   4   6  1   
  7   4   7  1   
  8   4  27  1   
  9   5   8  1   
 10   5   9  1   
 11   5  28  1   
 12   6  10  1   
 13   6  29  1   
 14   6  30  1   
 15   7  11  1   
 16   7  31  1   
 17   7  32  1   
 18   8  10  1   
 19   8  33  1   
 20   8  34  1   
 21   9  11  1   
 22   9  35  1   
 23   9  36  1   
 24  11  12  1   
 25  11  37  1   
 26  12  13  1   
 27  12  38  1   
 28  12  39  1   
 29  13  14  1   
 30  13  15  2   
 31  14  16  2   
 32  14  40  1   
 33  15  17  1   
 34  15  41  1   
 35  16  17  1   
 36  17  18  1   
 37  18  19  ar  
 38  18  20  ar  
 39  19  21  1   
 40  19  22  ar  
 41  20  23  ar  
 42  20  42  1   
 43  21  24  1   
 44  22  25  ar  
 45  22  43  1   
 46  23  25  ar  
 47  23  44  1   
 48  24  45  1   
 49  24  46  1   
 50  24  47  1   
 51  25  48  1   
@<TRIPOS>SUBSTRUCTURE
  1 ****  15 GROUP 4 **** **** 0

# MOE 2024.06 (io_trps.svl 2023.06)
