@<TRIPOS>MOLECULE
NONAME
47 49 1 0 0 
SMALL
USER_CHARGES


@<TRIPOS>ATOM
  1 S        0.9910     0.1310     0.4590 S.o2  1 <1>   1.3330 
  2 O        1.0440     0.7640     1.7580 O.2   1 <1>  -0.6500 
  3 O        1.0530    -1.3110     0.3640 O.2   1 <1>  -0.6500 
  4 N       -0.4310     0.6380    -0.3180 N.am  1 <1>  -0.8490 
  5 C        2.2830     0.8410    -0.5560 C.3   1 <1>  -0.0550 
  6 C       -1.5700     0.7050     0.6020 C.3   1 <1>   0.1160 
  7 C       -0.7790    -0.1740    -1.4880 C.3   1 <1>   0.1160 
  8 C        3.6940     0.6530     0.0290 C.3   1 <1>  -0.0800 
  9 C        4.7710     1.2290    -0.8640 C.3   1 <1>   0.2200 
 10 C        4.1400    -0.8000     0.1650 C.3   1 <1>   0.1200 
 11 N        4.9270     2.6820    -0.6370 N.am  1 <1>  -0.7300 
 12 C        6.0000     0.4200    -0.4680 C.3   1 <1>   0.1200 
 13 O        5.5290    -0.8010     0.0240 O.3   1 <1>  -0.5600 
 14 C        4.3310     3.6770    -1.3560 C.2   1 <1>   0.6160 
 15 O        3.6220     3.3310    -2.2860 O.2   1 <1>  -0.5700 
 16 C        4.4910     5.0790    -1.0480 C.2   1 <1>   0.0290 
 17 C        5.3090     5.5300     0.0440 C.2   1 <1>   0.4690 
 18 C        3.8500     6.0290    -1.8020 C.2   1 <1>  -0.0500 
 19 O        5.9170     4.7470     0.7690 O.2   1 <1>  -0.5700 
 20 C        5.4250     6.9460     0.3040 C.ar  1 <1>   0.0860 
 21 N        3.9600     7.3640    -1.5530 N.pl3 1 <1>  -0.6000 
 22 C        4.7340     7.8560    -0.5150 C.ar  1 <1>   0.1000 
 23 C        6.2020     7.4630     1.3490 C.ar  1 <1>  -0.1500 
 24 C        4.8220     9.2310    -0.2920 C.ar  1 <1>  -0.1500 
 25 C        6.2690     8.8220     1.5430 C.ar  1 <1>   0.1900 
 26 C        5.5910     9.7240     0.7400 C.ar  1 <1>  -0.1500 
 27 F        6.9990     9.2880     2.5220 F     1 <1>  -0.1900 
 28 H        2.2440     0.4120    -1.5370 H     1 <1>   0.0800 
 29 H        2.0950     1.8930    -0.6560 H     1 <1>   0.0800 
 30 H       -2.4490     1.0480     0.0830 H     1 <1>   0.0800 
 31 H       -1.3590     1.3990     1.3990 H     1 <1>   0.0800 
 32 H       -1.7640    -0.2650     1.0290 H     1 <1>   0.0800 
 33 H       -1.6380     0.2440    -1.9850 H     1 <1>   0.0800 
 34 H       -1.0020    -1.1860    -1.1920 H     1 <1>   0.0800 
 35 H        0.0400    -0.1900    -2.1870 H     1 <1>   0.0800 
 36 H        3.7460     1.1070     1.0050 H     1 <1>   0.0800 
 37 H        4.5500     1.0350    -1.9010 H     1 <1>   0.0800 
 38 H        3.7330    -1.4140    -0.6220 H     1 <1>   0.0800 
 39 H        3.8820    -1.2210     1.1220 H     1 <1>   0.0800 
 40 H        5.4840     2.9730     0.1800 H     1 <1>   0.3700 
 41 H        6.5450     0.9000     0.3260 H     1 <1>   0.0800 
 42 H        6.6450     0.2320    -1.3070 H     1 <1>   0.0800 
 43 H        3.2250     5.7360    -2.6330 H     1 <1>   0.1500 
 44 H        3.4570     8.0400    -2.1430 H     1 <1>   0.4000 
 45 H        6.7470     6.8010     1.9990 H     1 <1>   0.1500 
 46 H        4.2860     9.9100    -0.9310 H     1 <1>   0.1500 
 47 H        5.6750    10.7790     0.9310 H     1 <1>   0.1500 
@<TRIPOS>BOND
  1   1   2  2   
  2   1   3  2   
  3   1   4  am  
  4   1   5  1   
  5   4   6  1   
  6   4   7  1   
  7   5   8  1   
  8   5  28  1   
  9   5  29  1   
 10   6  30  1   
 11   6  31  1   
 12   6  32  1   
 13   7  33  1   
 14   7  34  1   
 15   7  35  1   
 16   8   9  1   
 17   8  10  1   
 18   8  36  1   
 19   9  11  1   
 20   9  12  1   
 21   9  37  1   
 22  10  13  1   
 23  10  38  1   
 24  10  39  1   
 25  11  14  am  
 26  11  40  1   
 27  12  13  1   
 28  12  41  1   
 29  12  42  1   
 30  14  15  2   
 31  14  16  1   
 32  16  17  1   
 33  16  18  2   
 34  17  19  2   
 35  17  20  1   
 36  18  21  1   
 37  18  43  1   
 38  20  22  ar  
 39  20  23  ar  
 40  21  22  1   
 41  21  44  1   
 42  22  24  ar  
 43  23  25  ar  
 44  23  45  1   
 45  24  26  ar  
 46  24  46  1   
 47  25  26  ar  
 48  25  27  1   
 49  26  47  1   
@<TRIPOS>SUBSTRUCTURE
  1 ****  14 GROUP 4 **** **** 0

# MOE 2024.06 (io_trps.svl 2023.06)
