@<TRIPOS>MOLECULE
NONAME
42 43 1 0 0 
SMALL
USER_CHARGES


@<TRIPOS>ATOM
  1 S        0.7230    -0.4280    -1.9650 S.o2  1 <1>   1.5000 
  2 O        1.5870    -1.4240    -2.5630 O.2   1 <1>  -0.6500 
  3 O       -0.1190     0.3870    -2.8140 O.2   1 <1>  -0.6500 
  4 N       -0.2810    -1.2150    -0.8500 N.am  1 <1>  -0.8490 
  5 C        1.7400     0.6130    -0.8870 C.2   1 <1>  -0.0220 
  6 C       -0.9650    -2.3870    -1.4290 C.3   1 <1>   0.1960 
  7 C       -1.2760    -0.3150    -0.2440 C.3   1 <1>   0.1960 
  8 S        1.4670     2.3550    -0.8990 S.3   1 <1>  -0.0800 
  9 C        2.7120     0.3230     0.0030 C.2   1 <1>  -0.1500 
 10 C       -1.5760    -3.2950    -0.3290 C.3   1 <1>  -0.1060 
 11 C       -2.2440    -1.0600     0.6900 C.3   1 <1>  -0.1600 
 12 C        2.7050     2.6240     0.3140 C.2   1 <1>  -0.1400 
 13 C        3.2620     1.4570     0.6810 C.2   1 <1>  -0.1500 
 14 C       -2.9200    -3.7770    -0.9060 C.2   1 <1>   0.9060 
 15 C       -1.7470    -2.4740     0.9810 C.3   1 <1>   0.2000 
 16 C       -0.6790    -4.5440    -0.0770 C.3   1 <1>  -0.1600 
 17 C        2.9540     4.0540     0.7450 C.3   1 <1>  -0.0600 
 18 O       -3.9530    -3.7540    -0.2190 O.co2 1 <1>  -0.9000 
 19 O       -2.9470    -4.1860    -2.0730 O.co2 1 <1>  -0.9000 
 20 O       -2.6250    -3.0790     1.8540 O.3   1 <1>  -0.6800 
 21 C        0.7800    -4.2630     0.3310 C.3   1 <1>  -0.1600 
 22 C        1.5690    -5.5680     0.4590 C.3   1 <1>  -0.2400 
 23 H       -1.7350    -2.0320    -2.0970 H     1 <1>   0.0800 
 24 H       -0.2870    -2.9710    -2.0280 H     1 <1>   0.0800 
 25 H       -0.7620     0.4430     0.3220 H     1 <1>   0.0800 
 26 H       -1.8500     0.1760    -1.0140 H     1 <1>   0.0800 
 27 H        3.0670    -0.6720     0.2120 H     1 <1>   0.1500 
 28 H       -3.2110    -1.1130     0.2220 H     1 <1>   0.0800 
 29 H       -2.3470    -0.5120     1.6090 H     1 <1>   0.0800 
 30 H        4.0470     1.3390     1.4080 H     1 <1>   0.1500 
 31 H       -0.8090    -2.3880     1.4970 H     1 <1>   0.0800 
 32 H       -1.1470    -5.1470     0.6840 H     1 <1>   0.0800 
 33 H       -0.6720    -5.1350    -0.9790 H     1 <1>   0.0800 
 34 H        3.7330     4.0890     1.4850 H     1 <1>   0.0800 
 35 H        2.0570     4.4730     1.1640 H     1 <1>   0.0800 
 36 H        3.2530     4.6460    -0.1020 H     1 <1>   0.0800 
 37 H       -3.3730    -3.4200     1.2710 H     1 <1>   0.4000 
 38 H        1.2580    -3.6380    -0.4040 H     1 <1>   0.0800 
 39 H        0.8110    -3.7500     1.2760 H     1 <1>   0.0800 
 40 H        1.5810    -6.0900    -0.4810 H     1 <1>   0.0800 
 41 H        1.1220    -6.2030     1.2030 H     1 <1>   0.0800 
 42 H        2.5830    -5.3580     0.7490 H     1 <1>   0.0800 
@<TRIPOS>BOND
  1   1   2  2   
  2   1   3  2   
  3   1   4  am  
  4   1   5  1   
  5   4   6  1   
  6   4   7  1   
  7   5   8  1   
  8   5   9  2   
  9   6  10  1   
 10   6  23  1   
 11   6  24  1   
 12   7  11  1   
 13   7  25  1   
 14   7  26  1   
 15   8  12  1   
 16   9  13  1   
 17   9  27  1   
 18  10  14  1   
 19  10  15  1   
 20  10  16  1   
 21  11  15  1   
 22  11  28  1   
 23  11  29  1   
 24  12  13  2   
 25  12  17  1   
 26  13  30  1   
 27  14  18  ar  
 28  14  19  ar  
 29  15  20  1   
 30  15  31  1   
 31  16  21  1   
 32  16  32  1   
 33  16  33  1   
 34  17  34  1   
 35  17  35  1   
 36  17  36  1   
 37  20  37  1   
 38  21  22  1   
 39  21  38  1   
 40  21  39  1   
 41  22  40  1   
 42  22  41  1   
 43  22  42  1   
@<TRIPOS>SUBSTRUCTURE
  1 ****   4 GROUP 4 **** **** 0

# MOE 2024.06 (io_trps.svl 2023.06)
