@<TRIPOS>MOLECULE
NONAME
52 55 1 0 0 
SMALL
USER_CHARGES


@<TRIPOS>ATOM
  1 F        2.6720    -0.0250     1.6980 F     1 <1>  -0.1900 
  2 C        2.2910    -0.1010     0.4510 C.ar  1 <1>   0.1900 
  3 C        2.2950     1.0350    -0.3600 C.ar  1 <1>  -0.1440 
  4 C        1.9210    -1.3540     0.0000 C.ar  1 <1>  -0.1500 
  5 C        1.9390     0.8370    -1.6940 C.ar  1 <1>  -0.1500 
  6 C        2.7130     2.4290     0.1690 C.3   1 <1>   0.1440 
  7 C        1.5500    -1.5100    -1.3220 C.ar  1 <1>  -0.1500 
  8 C        1.5660    -0.4130    -2.1650 C.ar  1 <1>  -0.1500 
  9 C        2.1900     3.5870    -0.7120 C.3   1 <1>  -0.1600 
 10 C        2.0690     2.7660     1.5310 C.3   1 <1>  -0.1600 
 11 C        4.2650     2.4120     0.2440 C.3   1 <1>   0.2090 
 12 C        1.9860     4.8130     0.1810 C.3   1 <1>  -0.1600 
 13 C        1.8810     4.2850     1.6110 C.3   1 <1>  -0.1600 
 14 N        4.8670     3.6840     0.7250 N.pl3 1 <1>  -0.8690 
 15 C        5.8250     4.3310    -0.0060 C.ar  1 <1>   0.4100 
 16 N        5.5560     5.6010    -0.2130 N.ar  1 <1>  -0.6200 
 17 C        6.9830     3.7010    -0.4870 C.ar  1 <1>   0.1600 
 18 C        6.4880     6.2410    -0.9410 C.ar  1 <1>   0.3960 
 19 N        7.9120     4.2930    -1.2090 N.ar  1 <1>  -0.6200 
 20 C        6.3470     7.6620    -1.2740 C.2   1 <1>   0.5440 
 21 C        7.6210     5.5710    -1.4170 C.ar  1 <1>   0.1600 
 22 O        6.8690     8.0840    -2.2930 O.2   1 <1>  -0.5700 
 23 N        5.6680     8.5810    -0.4920 N.am  1 <1>  -0.6600 
 24 C        5.5160    10.0010    -0.8790 C.3   1 <1>   0.1400 
 25 C        5.0850     8.3340     0.8460 C.3   1 <1>   0.1400 
 26 C        4.5990    10.6010     0.1810 C.3   1 <1>  -0.1600 
 27 C        4.8040     9.7210     1.4110 C.3   1 <1>  -0.1600 
 28 H        1.9280    -2.1910     0.6740 H     1 <1>   0.1500 
 29 H        1.9460     1.6470    -2.4000 H     1 <1>   0.1500 
 30 H        1.2560    -2.4770    -1.6940 H     1 <1>   0.1500 
 31 H        1.2880    -0.5320    -3.1990 H     1 <1>   0.1500 
 32 H        1.2210     3.3270    -1.1010 H     1 <1>   0.0800 
 33 H        2.8480     3.8030    -1.5360 H     1 <1>   0.0800 
 34 H        2.6570     2.4110     2.3590 H     1 <1>   0.0800 
 35 H        1.0980     2.3040     1.5800 H     1 <1>   0.0800 
 36 H        4.6490     2.1820    -0.7350 H     1 <1>   0.0800 
 37 H        4.5750     1.6230     0.9070 H     1 <1>   0.0800 
 38 H        1.0930     5.3440    -0.1020 H     1 <1>   0.0800 
 39 H        2.8190     5.4880     0.0910 H     1 <1>   0.0800 
 40 H        2.6470     4.7260     2.2260 H     1 <1>   0.0800 
 41 H        0.9220     4.5230     2.0410 H     1 <1>   0.0800 
 42 H        4.1300     4.3390     1.0060 H     1 <1>   0.4000 
 43 H        7.1220     2.6640    -0.2470 H     1 <1>   0.1500 
 44 H        8.3280     6.1320    -2.0040 H     1 <1>   0.1500 
 45 H        5.0940    10.0850    -1.8660 H     1 <1>   0.0800 
 46 H        6.4830    10.4740    -0.8590 H     1 <1>   0.0800 
 47 H        5.7660     7.7820     1.4720 H     1 <1>   0.0800 
 48 H        4.1670     7.7820     0.7330 H     1 <1>   0.0800 
 49 H        3.5810    10.5270    -0.1570 H     1 <1>   0.0800 
 50 H        4.8320    11.6340     0.3710 H     1 <1>   0.0800 
 51 H        5.6670    10.0550     1.9600 H     1 <1>   0.0800 
 52 H        3.9500     9.7210     2.0640 H     1 <1>   0.0800 
@<TRIPOS>BOND
  1   1   2  1   
  2   2   3  ar  
  3   2   4  ar  
  4   3   5  ar  
  5   3   6  1   
  6   4   7  ar  
  7   4  28  1   
  8   5   8  ar  
  9   5  29  1   
 10   6   9  1   
 11   6  10  1   
 12   6  11  1   
 13   7   8  ar  
 14   7  30  1   
 15   8  31  1   
 16   9  12  1   
 17   9  32  1   
 18   9  33  1   
 19  10  13  1   
 20  10  34  1   
 21  10  35  1   
 22  11  14  1   
 23  11  36  1   
 24  11  37  1   
 25  12  13  1   
 26  12  38  1   
 27  12  39  1   
 28  13  40  1   
 29  13  41  1   
 30  14  15  1   
 31  14  42  1   
 32  15  16  ar  
 33  15  17  ar  
 34  16  18  ar  
 35  17  19  ar  
 36  17  43  1   
 37  18  20  1   
 38  18  21  ar  
 39  19  21  ar  
 40  20  22  2   
 41  20  23  am  
 42  21  44  1   
 43  23  24  1   
 44  23  25  1   
 45  24  26  1   
 46  24  45  1   
 47  24  46  1   
 48  25  27  1   
 49  25  47  1   
 50  25  48  1   
 51  26  27  1   
 52  26  49  1   
 53  26  50  1   
 54  27  51  1   
 55  27  52  1   
@<TRIPOS>SUBSTRUCTURE
  1 ****  14 GROUP 4 **** **** 0

# MOE 2024.06 (io_trps.svl 2023.06)
