@<TRIPOS>MOLECULE
NONAME
50 53 1 0 0 
SMALL
USER_CHARGES


@<TRIPOS>ATOM
  1 O        2.2540    -0.6660    -2.6150 O.2   1 <1>  -0.5700 
  2 C        2.7410    -1.3650    -1.7580 C.2   1 <1>   0.5690 
  3 N        2.4150    -1.2640    -0.4340 N.am  1 <1>  -0.6600 
  4 C        3.7820    -2.3940    -2.1490 C.3   1 <1>  -0.0990 
  5 C        3.0420    -2.1780     0.5510 C.3   1 <1>   0.1400 
  6 C        1.4510    -0.2630     0.0890 C.3   1 <1>   0.0600 
  7 C        3.5780    -3.7430    -1.4210 C.3   1 <1>  -0.0800 
  8 C        3.0050    -3.6140     0.0050 C.3   1 <1>  -0.0800 
  9 C        4.8770    -4.5480    -1.3080 C.3   1 <1>  -0.1600 
 10 C        3.7740    -4.6010     0.8970 C.3   1 <1>  -0.1600 
 11 C        4.8090    -5.3030     0.0180 C.3   1 <1>   0.2200 
 12 N        6.1440    -5.4610     0.6780 N.am  1 <1>  -0.6600 
 13 C        7.0990    -4.4640     0.8360 C.2   1 <1>   0.5440 
 14 C        6.5520    -6.8860     0.8390 C.3   1 <1>   0.0600 
 15 O        8.2710    -4.7680     0.7060 O.2   1 <1>  -0.5700 
 16 C        6.7710    -3.0980     1.1820 C.ar  1 <1>   0.0860 
 17 C        6.9550    -2.0450     0.2640 C.ar  1 <1>   0.0000 
 18 C        6.2830    -2.7610     2.4360 C.ar  1 <1>  -0.1500 
 19 C        6.5570    -0.7470     0.5780 C.ar  1 <1>  -0.1520 
 20 C        7.4920    -1.9840    -1.0380 C.2   1 <1>  -0.1500 
 21 C        5.9210    -1.4520     2.7660 C.ar  1 <1>  -0.1500 
 22 N        6.7840     0.0560    -0.5150 N.pl3 1 <1>   0.0480 
 23 C        6.0440    -0.4420     1.8400 C.ar  1 <1>  -0.1500 
 24 C        7.3620    -0.7110    -1.4820 C.2   1 <1>  -0.3020 
 25 C        6.4160     1.4750    -0.6420 C.3   1 <1>   0.0160 
 26 H        3.7620    -2.5430    -3.2130 H     1 <1>   0.0800 
 27 H        4.7350    -1.9690    -1.8960 H     1 <1>   0.0800 
 28 H        4.0590    -1.8720     0.7060 H     1 <1>   0.0800 
 29 H        2.5200    -2.1290     1.4910 H     1 <1>   0.0800 
 30 H        1.9360     0.3600     0.8200 H     1 <1>   0.0800 
 31 H        0.6170    -0.7660     0.5440 H     1 <1>   0.0800 
 32 H        1.0850     0.3610    -0.7090 H     1 <1>   0.0800 
 33 H        2.8720    -4.3250    -1.9910 H     1 <1>   0.0800 
 34 H        1.9700    -3.9140    -0.0190 H     1 <1>   0.0800 
 35 H        5.7210    -3.8940    -1.3250 H     1 <1>   0.0800 
 36 H        4.9730    -5.2350    -2.1300 H     1 <1>   0.0800 
 37 H        3.0950    -5.3350     1.2950 H     1 <1>   0.0800 
 38 H        4.2310    -4.1010     1.7240 H     1 <1>   0.0800 
 39 H        4.4150    -6.2800    -0.2070 H     1 <1>   0.0800 
 40 H        5.7700    -7.4410     1.3260 H     1 <1>   0.0800 
 41 H        7.4430    -6.9560     1.4410 H     1 <1>   0.0800 
 42 H        6.7540    -7.3150    -0.1260 H     1 <1>   0.0800 
 43 H        6.1760    -3.5340     3.1770 H     1 <1>   0.1500 
 44 H        7.9220    -2.8280    -1.5500 H     1 <1>   0.1500 
 45 H        5.5440    -1.2410     3.7520 H     1 <1>   0.1500 
 46 H        5.7590     0.5670     2.0790 H     1 <1>   0.1500 
 47 H        7.6550    -0.3060    -2.4350 H     1 <1>   0.1500 
 48 H        6.7360     1.8460    -1.5980 H     1 <1>   0.0800 
 49 H        6.8930     2.0360     0.1400 H     1 <1>   0.0800 
 50 H        5.3490     1.5700    -0.5600 H     1 <1>   0.0800 
@<TRIPOS>BOND
  1   1   2  2   
  2   2   3  am  
  3   2   4  1   
  4   3   5  1   
  5   3   6  1   
  6   4   7  1   
  7   4  26  1   
  8   4  27  1   
  9   5   8  1   
 10   5  28  1   
 11   5  29  1   
 12   6  30  1   
 13   6  31  1   
 14   6  32  1   
 15   7   8  1   
 16   7   9  1   
 17   7  33  1   
 18   8  10  1   
 19   8  34  1   
 20   9  11  1   
 21   9  35  1   
 22   9  36  1   
 23  10  11  1   
 24  10  37  1   
 25  10  38  1   
 26  11  12  1   
 27  11  39  1   
 28  12  13  am  
 29  12  14  1   
 30  13  15  2   
 31  13  16  1   
 32  14  40  1   
 33  14  41  1   
 34  14  42  1   
 35  16  17  ar  
 36  16  18  ar  
 37  17  19  ar  
 38  17  20  1   
 39  18  21  ar  
 40  18  43  1   
 41  19  22  1   
 42  19  23  ar  
 43  20  24  2   
 44  20  44  1   
 45  21  23  ar  
 46  21  45  1   
 47  22  24  1   
 48  22  25  1   
 49  23  46  1   
 50  24  47  1   
 51  25  48  1   
 52  25  49  1   
 53  25  50  1   
@<TRIPOS>SUBSTRUCTURE
  1 ****  17 GROUP 4 **** **** 0

# MOE 2024.06 (io_trps.svl 2023.06)
