@<TRIPOS>MOLECULE
NONAME
50 52 1 0 0 
SMALL
USER_CHARGES


@<TRIPOS>ATOM
  1 CL       1.2230     1.0890    -2.1730 Cl    1 <1>  -0.1770 
  2 C        2.3980    -0.0650    -1.5740 C.ar  1 <1>   0.1770 
  3 C        3.2080     0.2240    -0.4740 C.ar  1 <1>   0.0860 
  4 C        2.4720    -1.2740    -2.2410 C.ar  1 <1>  -0.1500 
  5 C        3.1710     1.4800     0.2490 C.2   1 <1>   0.5440 
  6 C        4.0950    -0.7740    -0.0730 C.ar  1 <1>  -0.1500 
  7 C        3.3660    -2.2380    -1.8170 C.ar  1 <1>  -0.1500 
  8 O        3.2650     1.4900     1.4610 O.2   1 <1>  -0.5700 
  9 N        3.0740     2.6770    -0.4040 N.am  1 <1>  -0.7300 
 10 C        4.1900    -1.9960    -0.7230 C.ar  1 <1>   0.1000 
 11 C        3.0710     4.0100     0.2320 C.3   1 <1>   0.1400 
 12 N        5.1000    -2.9440    -0.2660 N.pl3 1 <1>  -0.8380 
 13 C        4.3130     4.7710    -0.2210 C.3   1 <1>  -0.1600 
 14 C        4.8460    -3.5710     1.0580 C.3   1 <1>   0.2090 
 15 C        5.8400    -3.8060    -1.2240 C.3   1 <1>   0.2090 
 16 C        4.4030     6.1330     0.4770 C.3   1 <1>   0.0960 
 17 C        6.1820    -3.9690     1.6930 C.3   1 <1>  -0.1600 
 18 C        7.1840    -4.2070    -0.6080 C.3   1 <1>  -0.1600 
 19 N        5.5680     6.8900    -0.0120 N.pl3 1 <1>   0.3140 
 20 C        7.0070    -4.8740     0.7640 C.3   1 <1>  -0.1600 
 21 N        5.4810     7.7190    -1.0670 N.2   1 <1>  -0.7070 
 22 C        6.8200     6.8590     0.4860 C.2   1 <1>  -0.3020 
 23 C        6.6790     8.1970    -1.2130 C.2   1 <1>   0.1390 
 24 C        7.5650     7.6940    -0.2670 C.2   1 <1>  -0.1810 
 25 C        9.0370     8.0270    -0.1350 C.3   1 <1>  -0.0590 
 26 H        1.8300    -1.4590    -3.0830 H     1 <1>   0.1500 
 27 H        4.7380    -0.5940     0.7690 H     1 <1>   0.1500 
 28 H        3.4200    -3.1820    -2.3250 H     1 <1>   0.1500 
 29 H        2.9300     2.6710    -1.4160 H     1 <1>   0.3700 
 30 H        3.0730     3.9050     1.3050 H     1 <1>   0.0800 
 31 H        2.1780     4.5380    -0.0560 H     1 <1>   0.0800 
 32 H        4.2690     4.9240    -1.2860 H     1 <1>   0.0800 
 33 H        5.1890     4.1930     0.0190 H     1 <1>   0.0800 
 34 H        4.2280    -4.4420     0.9240 H     1 <1>   0.0800 
 35 H        4.3260    -2.8810     1.7000 H     1 <1>   0.0800 
 36 H        6.0060    -3.2680    -2.1410 H     1 <1>   0.0800 
 37 H        5.2560    -4.6850    -1.4370 H     1 <1>   0.0800 
 38 H        4.4980     6.0060     1.5400 H     1 <1>   0.0800 
 39 H        3.5220     6.7140     0.2750 H     1 <1>   0.0800 
 40 H        5.9960    -4.4760     2.6230 H     1 <1>   0.0800 
 41 H        6.7360    -3.0730     1.9120 H     1 <1>   0.0800 
 42 H        7.7880    -3.3230    -0.5050 H     1 <1>   0.0800 
 43 H        7.6940    -4.8790    -1.2750 H     1 <1>   0.0800 
 44 H        6.5000    -5.8160     0.6420 H     1 <1>   0.0800 
 45 H        7.9700    -5.0660     1.2040 H     1 <1>   0.0800 
 46 H        7.1030     6.2570     1.3290 H     1 <1>   0.1500 
 47 H        6.9440     8.9020    -1.9830 H     1 <1>   0.1500 
 48 H        9.4670     7.4870     0.6890 H     1 <1>   0.0800 
 49 H        9.1600     9.0810     0.0380 H     1 <1>   0.0800 
 50 H        9.5560     7.7560    -1.0370 H     1 <1>   0.0800 
@<TRIPOS>BOND
  1   1   2  1   
  2   2   3  ar  
  3   2   4  ar  
  4   3   5  1   
  5   3   6  ar  
  6   4   7  ar  
  7   4  26  1   
  8   5   8  2   
  9   5   9  am  
 10   6  10  ar  
 11   6  27  1   
 12   7  10  ar  
 13   7  28  1   
 14   9  11  1   
 15   9  29  1   
 16  10  12  1   
 17  11  13  1   
 18  11  30  1   
 19  11  31  1   
 20  12  14  1   
 21  12  15  1   
 22  13  16  1   
 23  13  32  1   
 24  13  33  1   
 25  14  17  1   
 26  14  34  1   
 27  14  35  1   
 28  15  18  1   
 29  15  36  1   
 30  15  37  1   
 31  16  19  1   
 32  16  38  1   
 33  16  39  1   
 34  17  20  1   
 35  17  40  1   
 36  17  41  1   
 37  18  20  1   
 38  18  42  1   
 39  18  43  1   
 40  19  21  1   
 41  19  22  1   
 42  20  44  1   
 43  20  45  1   
 44  21  23  2   
 45  22  24  2   
 46  22  46  1   
 47  23  24  1   
 48  23  47  1   
 49  24  25  1   
 50  25  48  1   
 51  25  49  1   
 52  25  50  1   
@<TRIPOS>SUBSTRUCTURE
  1 ****   5 GROUP 4 **** **** 0

# MOE 2024.06 (io_trps.svl 2023.06)
