@<TRIPOS>MOLECULE
NONAME
54 58 1 0 0 
SMALL
USER_CHARGES


@<TRIPOS>ATOM
  1 S       -0.7040     1.8040    -2.7130 S.3   1 <1>  -0.0800 
  2 C       -1.1990     1.6780    -1.0320 C.2   1 <1>  -0.1400 
  3 C       -2.0900     0.8480    -3.2230 C.2   1 <1>  -0.1100 
  4 C       -2.3310     0.9730    -0.9210 C.2   1 <1>  -0.1810 
  5 C       -0.4100     2.3060     0.1080 C.3   1 <1>   0.4600 
  6 C       -2.8440     0.4890    -2.1660 C.2   1 <1>  -0.1500 
  7 C       -2.9450     0.7560     0.4440 C.3   1 <1>   0.0210 
  8 O       -0.9770     1.8960     1.3360 O.3   1 <1>  -0.5600 
  9 C        1.0310     1.7860     0.1200 C.3   1 <1>  -0.1600 
 10 C       -0.4290     3.8380     0.0380 C.3   1 <1>  -0.1600 
 11 C       -2.3820     1.8070     1.4210 C.3   1 <1>   0.1200 
 12 C        1.8430     2.4400     1.2360 C.3   1 <1>   0.2090 
 13 C        0.4220     4.4540     1.1470 C.3   1 <1>   0.2090 
 14 N        1.8230     3.9240     1.0370 N.pl3 1 <1>  -0.8380 
 15 C        2.8750     4.7370     0.7410 C.ar  1 <1>   0.7710 
 16 N        2.6620     6.0230     0.5020 N.ar  1 <1>  -0.6200 
 17 N        4.1130     4.2130     0.6920 N.ar  1 <1>  -0.1790 
 18 C        3.6870     6.8030     0.2150 C.ar  1 <1>   0.4100 
 19 C        5.1940     4.9680     0.3840 C.ar  1 <1>   0.2110 
 20 N        3.4370     8.1210    -0.0050 N.pl3 1 <1>  -0.8380 
 21 C        4.9930     6.2820     0.1350 C.ar  1 <1>  -0.1500 
 22 C        4.4010     9.2340     0.2830 C.3   1 <1>   0.2090 
 23 C        2.1100     8.6170    -0.4860 C.3   1 <1>   0.2090 
 24 C        4.6220    10.0880    -0.9770 C.3   1 <1>   0.2000 
 25 C        2.3060     9.4600    -1.7540 C.3   1 <1>  -0.1600 
 26 O        5.4290    11.1700    -0.6710 O.3   1 <1>  -0.6800 
 27 C        3.2990    10.6160    -1.5410 C.3   1 <1>  -0.1600 
 28 H       -2.1940     0.6530    -4.2760 H     1 <1>   0.1500 
 29 H       -3.7440    -0.0990    -2.2100 H     1 <1>   0.1500 
 30 H       -2.7120    -0.2330     0.7950 H     1 <1>   0.0800 
 31 H       -4.0130     0.8560     0.3900 H     1 <1>   0.0800 
 32 H        1.4990     1.9910    -0.8250 H     1 <1>   0.0800 
 33 H        1.0130     0.7190     0.2510 H     1 <1>   0.0800 
 34 H       -1.4380     4.1980     0.1030 H     1 <1>   0.0800 
 35 H       -0.0400     4.1590    -0.9110 H     1 <1>   0.0800 
 36 H       -2.6340     1.5420     2.4330 H     1 <1>   0.0800 
 37 H       -2.7990     2.7750     1.2070 H     1 <1>   0.0800 
 38 H        2.8400     2.0400     1.2310 H     1 <1>   0.0800 
 39 H        1.4020     2.2020     2.1920 H     1 <1>   0.0800 
 40 H        0.0140     4.1880     2.1090 H     1 <1>   0.0800 
 41 H        0.3830     5.5270     1.0710 H     1 <1>   0.0800 
 42 H        4.1760     3.2250     0.8960 H     1 <1>   0.4570 
 43 H        6.1680     4.5060     0.3410 H     1 <1>   0.1500 
 44 H        5.8050     6.9290    -0.1350 H     1 <1>   0.1500 
 45 H        5.3440     8.8560     0.6330 H     1 <1>   0.0800 
 46 H        3.9830     9.8510     1.0590 H     1 <1>   0.0800 
 47 H        1.6530     9.2120     0.2870 H     1 <1>   0.0800 
 48 H        1.4480     7.7980    -0.7100 H     1 <1>   0.0800 
 49 H        5.1370     9.5010    -1.7170 H     1 <1>   0.0800 
 50 H        1.3550     9.8550    -2.0640 H     1 <1>   0.0800 
 51 H        2.6620     8.8170    -2.5400 H     1 <1>   0.0800 
 52 H        4.9230    11.8480    -0.1850 H     1 <1>   0.4000 
 53 H        3.4790    11.1110    -2.4800 H     1 <1>   0.0800 
 54 H        2.8640    11.3210    -0.8540 H     1 <1>   0.0800 
@<TRIPOS>BOND
  1   1   2  1   
  2   1   3  1   
  3   2   4  2   
  4   2   5  1   
  5   3   6  2   
  6   3  28  1   
  7   4   6  1   
  8   4   7  1   
  9   5   8  1   
 10   5   9  1   
 11   5  10  1   
 12   6  29  1   
 13   7  11  1   
 14   7  30  1   
 15   7  31  1   
 16   8  11  1   
 17   9  12  1   
 18   9  32  1   
 19   9  33  1   
 20  10  13  1   
 21  10  34  1   
 22  10  35  1   
 23  11  36  1   
 24  11  37  1   
 25  12  14  1   
 26  12  38  1   
 27  12  39  1   
 28  13  14  1   
 29  13  40  1   
 30  13  41  1   
 31  14  15  1   
 32  15  16  ar  
 33  15  17  ar  
 34  16  18  ar  
 35  17  19  ar  
 36  17  42  1   
 37  18  20  1   
 38  18  21  ar  
 39  19  21  ar  
 40  19  43  1   
 41  20  22  1   
 42  20  23  1   
 43  21  44  1   
 44  22  24  1   
 45  22  45  1   
 46  22  46  1   
 47  23  25  1   
 48  23  47  1   
 49  23  48  1   
 50  24  26  1   
 51  24  27  1   
 52  24  49  1   
 53  25  27  1   
 54  25  50  1   
 55  25  51  1   
 56  26  52  1   
 57  27  53  1   
 58  27  54  1   
@<TRIPOS>SUBSTRUCTURE
  1 ****  14 GROUP 4 **** **** 0

# MOE 2024.06 (io_trps.svl 2023.06)
