@<TRIPOS>MOLECULE
NONAME
39 41 1 0 0 
SMALL
USER_CHARGES


@<TRIPOS>ATOM
  1 CL      -0.2090     0.1230    -0.4290 Cl    1 <1>  -0.1770 
  2 C       -1.6440    -0.8460    -0.1480 C.ar  1 <1>   0.1770 
  3 C       -2.9010    -0.2760     0.0110 C.ar  1 <1>   0.1660 
  4 C       -1.4940    -2.2140    -0.0920 C.ar  1 <1>  -0.1500 
  5 N       -4.0020    -0.9850     0.2100 N.ar  1 <1>  -0.6200 
  6 C       -3.1150     1.2270    -0.0380 C.3   1 <1>  -0.0960 
  7 C       -2.6380    -2.9470     0.1200 C.ar  1 <1>  -0.1500 
  8 C       -3.8740    -2.3090     0.2600 C.ar  1 <1>   0.4100 
  9 N       -5.0360    -3.0410     0.4770 N.pl3 1 <1>  -0.8380 
 10 C       -6.3750    -2.3850     0.4320 C.3   1 <1>   0.2090 
 11 C       -5.1680    -4.4610     0.0640 C.3   1 <1>   0.2090 
 12 C       -7.3650    -3.4800     0.0260 C.3   1 <1>   0.2000 
 13 C       -6.6430    -4.8030     0.2640 C.3   1 <1>  -0.0800 
 14 O       -8.5260    -3.4390     0.7870 O.3   1 <1>  -0.6800 
 15 C       -7.1530    -5.9310    -0.6480 C.3   1 <1>  -0.0170 
 16 C       -6.4510    -7.2490    -0.3670 C.ar  1 <1>   0.1670 
 17 N       -5.2560    -7.4120    -0.9130 N.ar  1 <1>  -0.6200 
 18 C       -7.0770    -8.2000     0.4270 C.ar  1 <1>  -0.1500 
 19 C       -4.6640    -8.5700    -0.6640 C.ar  1 <1>   0.1600 
 20 C       -6.4470    -9.4000     0.6800 C.ar  1 <1>  -0.1500 
 21 C       -5.2050    -9.5800     0.1130 C.ar  1 <1>  -0.1500 
 22 H       -0.5290    -2.6730    -0.2080 H     1 <1>   0.1500 
 23 H       -2.2000     1.7700     0.1010 H     1 <1>   0.0800 
 24 H       -3.7980     1.5170     0.7410 H     1 <1>   0.0800 
 25 H       -3.5430     1.4950    -0.9860 H     1 <1>   0.0800 
 26 H       -2.5790    -4.0150     0.1830 H     1 <1>   0.1500 
 27 H       -6.6030    -1.9880     1.4060 H     1 <1>   0.0800 
 28 H       -6.3890    -1.5920    -0.2960 H     1 <1>   0.0800 
 29 H       -4.8900    -4.5600    -0.9720 H     1 <1>   0.0800 
 30 H       -4.5450    -5.1010     0.6660 H     1 <1>   0.0800 
 31 H       -7.6320    -3.3580    -1.0090 H     1 <1>   0.0800 
 32 H       -6.7600    -5.0950     1.2920 H     1 <1>   0.0800 
 33 H       -8.3020    -3.4910     1.7360 H     1 <1>   0.4000 
 34 H       -7.0000    -5.6680    -1.6800 H     1 <1>   0.0800 
 35 H       -8.2120    -6.0490    -0.5010 H     1 <1>   0.0800 
 36 H       -8.0480    -8.0070     0.8440 H     1 <1>   0.1500 
 37 H       -3.6930    -8.7230    -1.1030 H     1 <1>   0.1500 
 38 H       -6.9040   -10.1600     1.2910 H     1 <1>   0.1500 
 39 H       -4.6590   -10.4930     0.2680 H     1 <1>   0.1500 
@<TRIPOS>BOND
  1   1   2  1   
  2   2   3  ar  
  3   2   4  ar  
  4   3   5  ar  
  5   3   6  1   
  6   4   7  ar  
  7   4  22  1   
  8   5   8  ar  
  9   6  23  1   
 10   6  24  1   
 11   6  25  1   
 12   7   8  ar  
 13   7  26  1   
 14   8   9  1   
 15   9  10  1   
 16   9  11  1   
 17  10  12  1   
 18  10  27  1   
 19  10  28  1   
 20  11  13  1   
 21  11  29  1   
 22  11  30  1   
 23  12  13  1   
 24  12  14  1   
 25  12  31  1   
 26  13  15  1   
 27  13  32  1   
 28  14  33  1   
 29  15  16  1   
 30  15  34  1   
 31  15  35  1   
 32  16  17  ar  
 33  16  18  ar  
 34  17  19  ar  
 35  18  20  ar  
 36  18  36  1   
 37  19  21  ar  
 38  19  37  1   
 39  20  21  ar  
 40  20  38  1   
 41  21  39  1   
@<TRIPOS>SUBSTRUCTURE
  1 ****  11 GROUP 4 **** **** 0

# MOE 2024.06 (io_trps.svl 2023.06)
