@<TRIPOS>MOLECULE
NONAME
65 68 1 0 0 
SMALL
USER_CHARGES


@<TRIPOS>ATOM
  1 O       -5.0150     1.5180     1.1530 O.2   1 <1>  -0.5700 
  2 C       -3.8960     1.6050     0.6830 C.2   1 <1>   0.5440 
  3 N       -3.2960     0.4430     0.2390 N.am  1 <1>  -0.6600 
  4 C       -3.2750     2.9060     0.5420 C.ar  1 <1>   0.0860 
  5 C       -3.8120    -0.9030     0.6560 C.3   1 <1>   0.1400 
  6 C       -2.0020     0.4340    -0.5060 C.3   1 <1>   0.0600 
  7 C       -3.8390     3.8630    -0.2930 C.ar  1 <1>  -0.1500 
  8 C       -2.1050     3.2460     1.2200 C.ar  1 <1>  -0.1500 
  9 C       -4.9020    -1.4530    -0.2900 C.3   1 <1>   0.3430 
 10 C       -3.2610     5.1090    -0.4520 C.ar  1 <1>   0.0820 
 11 C       -1.5150     4.4870     1.0550 C.ar  1 <1>  -0.1500 
 12 N       -5.9630    -0.4370    -0.5700 N.4   1 <1>  -0.9590 
 13 O       -3.8570     5.9900    -1.2840 O.3   1 <1>  -0.3620 
 14 C       -2.0800     5.4290     0.2120 C.ar  1 <1>  -0.1440 
 15 C       -7.3360    -0.8950    -0.2350 C.3   1 <1>   0.4860 
 16 C       -5.8510     0.1390    -1.9420 C.3   1 <1>   0.2630 
 17 C       -4.7380     6.9340    -0.7150 C.3   1 <1>   0.1200 
 18 C       -1.4010     6.7780     0.0250 C.3   1 <1>  -0.0970 
 19 C       -8.2950     0.2770    -0.3420 C.ar  1 <1>  -0.1440 
 20 C       -6.0910     6.2690    -0.4440 C.3   1 <1>  -0.1600 
 21 C       -9.1710     0.3740    -1.4140 C.ar  1 <1>  -0.1500 
 22 C       -8.3020     1.2650     0.6330 C.ar  1 <1>  -0.1500 
 23 C       -7.1660     7.3080    -0.0950 C.3   1 <1>   0.0960 
 24 C      -10.0360     1.4500    -1.5090 C.ar  1 <1>  -0.1500 
 25 C       -9.1700     2.3380     0.5400 C.ar  1 <1>  -0.1500 
 26 N       -8.4260     6.6560     0.3130 N.pl3 1 <1>   0.3140 
 27 C      -10.0460     2.4370    -0.5380 C.ar  1 <1>   0.0820 
 28 N       -9.0700     6.9780     1.4390 N.2   1 <1>  -0.4180 
 29 C       -9.0860     5.6760    -0.3050 C.2   1 <1>  -0.3020 
 30 O      -10.9310     3.4510    -0.7100 O.3   1 <1>  -0.3630 
 31 N      -10.1090     6.2250     1.5470 N.2   1 <1>  -0.2270 
 32 C      -10.1360     5.4100     0.4870 C.2   1 <1>   0.0460 
 33 C      -11.2330     4.3680     0.3300 C.3   1 <1>   0.3010 
 34 H       -4.2200    -0.8300     1.6500 H     1 <1>   0.0800 
 35 H       -2.9960    -1.6030     0.7040 H     1 <1>   0.0800 
 36 H       -1.8190     1.3870    -0.9740 H     1 <1>   0.0800 
 37 H       -2.0210    -0.3180    -1.2750 H     1 <1>   0.0800 
 38 H       -1.1930     0.2210     0.1720 H     1 <1>   0.0800 
 39 H       -4.7430     3.6360    -0.8260 H     1 <1>   0.1500 
 40 H       -1.6560     2.5280     1.8840 H     1 <1>   0.1500 
 41 H       -5.3390    -2.3280     0.1630 H     1 <1>   0.0800 
 42 H       -4.4400    -1.7610    -1.2130 H     1 <1>   0.0800 
 43 H       -0.6080     4.7170     1.5890 H     1 <1>   0.1500 
 44 H       -5.7690     0.3520     0.0870 H     1 <1>   0.4500 
 45 H       -7.3610    -1.2770     0.7720 H     1 <1>   0.0800 
 46 H       -7.6410    -1.6800    -0.9070 H     1 <1>   0.0800 
 47 H       -6.0560    -0.6140    -2.6860 H     1 <1>   0.0800 
 48 H       -4.8580     0.5260    -2.0990 H     1 <1>   0.0800 
 49 H       -6.5540     0.9480    -2.0640 H     1 <1>   0.0800 
 50 H       -4.8450     7.7320    -1.4290 H     1 <1>   0.0800 
 51 H       -4.3010     7.3220     0.1890 H     1 <1>   0.0800 
 52 H       -1.4630     7.0870    -1.0040 H     1 <1>   0.0800 
 53 H       -0.3620     6.7230     0.2950 H     1 <1>   0.0800 
 54 H       -1.8780     7.5190     0.6410 H     1 <1>   0.0800 
 55 H       -5.9870     5.5860     0.3810 H     1 <1>   0.0800 
 56 H       -6.3940     5.7290    -1.3240 H     1 <1>   0.0800 
 57 H       -9.1950    -0.3800    -2.1820 H     1 <1>   0.1500 
 58 H       -7.6310     1.2160     1.4760 H     1 <1>   0.1500 
 59 H       -7.3690     7.9390    -0.9410 H     1 <1>   0.0800 
 60 H       -6.8310     7.9230     0.7210 H     1 <1>   0.0800 
 61 H      -10.7170     1.5310    -2.3390 H     1 <1>   0.1500 
 62 H       -9.1440     3.0860     1.3110 H     1 <1>   0.1500 
 63 H       -8.7860     5.2280    -1.2330 H     1 <1>   0.1500 
 64 H      -11.3750     3.8190     1.2430 H     1 <1>   0.0800 
 65 H      -12.1550     4.8570     0.0740 H     1 <1>   0.0800 
@<TRIPOS>BOND
  1   1   2  2   
  2   2   3  am  
  3   2   4  1   
  4   3   5  1   
  5   3   6  1   
  6   4   7  ar  
  7   4   8  ar  
  8   5   9  1   
  9   5  34  1   
 10   5  35  1   
 11   6  36  1   
 12   6  37  1   
 13   6  38  1   
 14   7  10  ar  
 15   7  39  1   
 16   8  11  ar  
 17   8  40  1   
 18   9  12  1   
 19   9  41  1   
 20   9  42  1   
 21  10  13  1   
 22  10  14  ar  
 23  11  14  ar  
 24  11  43  1   
 25  12  15  1   
 26  12  16  1   
 27  12  44  1   
 28  13  17  1   
 29  14  18  1   
 30  15  19  1   
 31  15  45  1   
 32  15  46  1   
 33  16  47  1   
 34  16  48  1   
 35  16  49  1   
 36  17  20  1   
 37  17  50  1   
 38  17  51  1   
 39  18  52  1   
 40  18  53  1   
 41  18  54  1   
 42  19  21  ar  
 43  19  22  ar  
 44  20  23  1   
 45  20  55  1   
 46  20  56  1   
 47  21  24  ar  
 48  21  57  1   
 49  22  25  ar  
 50  22  58  1   
 51  23  26  1   
 52  23  59  1   
 53  23  60  1   
 54  24  27  ar  
 55  24  61  1   
 56  25  27  ar  
 57  25  62  1   
 58  26  28  1   
 59  26  29  1   
 60  27  30  1   
 61  28  31  2   
 62  29  32  2   
 63  29  63  1   
 64  30  33  1   
 65  31  32  1   
 66  32  33  1   
 67  33  64  1   
 68  33  65  1   
@<TRIPOS>SUBSTRUCTURE
  1 ****   1 GROUP 4 **** **** 0

# MOE 2024.06 (io_trps.svl 2023.06)
