@<TRIPOS>MOLECULE
NONAME
59 62 1 0 0 
SMALL
USER_CHARGES


@<TRIPOS>ATOM
  1 O       -0.1170     0.6460     0.3170 O.2   1 <1>  -0.5700 
  2 C        0.0360     1.8340     0.1010 C.2   1 <1>   0.5440 
  3 N        1.3020     2.3860     0.1970 N.am  1 <1>  -0.6600 
  4 C       -1.1130     2.6600    -0.2330 C.ar  1 <1>   0.0860 
  5 C        2.3180     1.7580     1.1020 C.3   1 <1>   0.1400 
  6 C        1.5750     3.7730    -0.3000 C.3   1 <1>   0.1400 
  7 C       -1.3330     3.8570     0.4410 C.ar  1 <1>  -0.1500 
  8 C       -2.0060     2.3250    -1.2480 C.ar  1 <1>  -0.1500 
  9 C        3.7680     2.1010     0.7230 C.3   1 <1>  -0.1600 
 10 C        3.0290     3.9780    -0.6930 C.3   1 <1>  -0.1600 
 11 C       -2.3070     4.7600     0.0380 C.ar  1 <1>   0.0830 
 12 C       -3.0320     3.1820    -1.6110 C.ar  1 <1>  -0.1500 
 13 C        3.9330     3.6070     0.4870 C.3   1 <1>  -0.0800 
 14 O       -2.3930     6.0020     0.5880 O.3   1 <1>  -0.3630 
 15 C       -3.1830     4.4090    -0.9820 C.ar  1 <1>  -0.1430 
 16 C        5.3850     4.0400     0.2490 C.3   1 <1>   0.1400 
 17 C       -1.2360     6.5680     1.1710 C.3   1 <1>   0.1200 
 18 C       -4.2890     5.3590    -1.4140 C.3   1 <1>  -0.0970 
 19 N        5.4350     5.5210     0.2850 N.am  1 <1>  -0.7300 
 20 C       -1.3190     8.0940     1.1110 C.3   1 <1>  -0.1600 
 21 C        5.7010     6.3210    -0.7740 C.2   1 <1>   0.5690 
 22 C       -0.0910     8.7590     1.7640 C.3   1 <1>   0.0960 
 23 O        6.1400     5.8980    -1.8140 O.2   1 <1>  -0.5700 
 24 C        5.3940     7.8010    -0.6620 C.3   1 <1>  -0.0990 
 25 N        1.1860     8.2980     1.1680 N.pl3 1 <1>   0.3140 
 26 C        3.9660     8.1250    -1.1390 C.3   1 <1>   0.0210 
 27 N        1.8670     7.2450     1.6350 N.2   1 <1>  -0.4180 
 28 C        1.8220     8.7960     0.1060 C.2   1 <1>  -0.3020 
 29 C        2.8990     8.0120    -0.0570 C.2   1 <1>   0.0460 
 30 N        2.9030     7.0690     0.8930 N.2   1 <1>  -0.2270 
 31 H        2.1970     0.6880     1.0970 H     1 <1>   0.0800 
 32 H        2.1270     2.1030     2.1040 H     1 <1>   0.0800 
 33 H        1.3390     4.4770     0.4790 H     1 <1>   0.0800 
 34 H        0.9540     3.9880    -1.1530 H     1 <1>   0.0800 
 35 H       -0.7030     4.0730     1.2820 H     1 <1>   0.1500 
 36 H       -1.8810     1.3840    -1.7550 H     1 <1>   0.1500 
 37 H        4.0380     1.5520    -0.1630 H     1 <1>   0.0800 
 38 H        4.4170     1.7790     1.5180 H     1 <1>   0.0800 
 39 H        3.1580     5.0090    -0.9670 H     1 <1>   0.0800 
 40 H        3.2620     3.3830    -1.5580 H     1 <1>   0.0800 
 41 H       -3.7070     2.8900    -2.3970 H     1 <1>   0.1500 
 42 H        3.5880     4.1170     1.3720 H     1 <1>   0.0800 
 43 H        5.7380     3.6730    -0.7010 H     1 <1>   0.0800 
 44 H        6.0220     3.6510     1.0250 H     1 <1>   0.0800 
 45 H       -0.3800     6.2360     0.6080 H     1 <1>   0.0800 
 46 H       -1.1650     6.2180     2.1860 H     1 <1>   0.0800 
 47 H       -4.9020     5.6120    -0.5670 H     1 <1>   0.0800 
 48 H       -4.9130     4.9140    -2.1680 H     1 <1>   0.0800 
 49 H       -3.8590     6.2620    -1.8100 H     1 <1>   0.0800 
 50 H        4.9140     5.9380     1.0630 H     1 <1>   0.3700 
 51 H       -2.2060     8.4170     1.6270 H     1 <1>   0.0800 
 52 H       -1.3900     8.4070     0.0840 H     1 <1>   0.0800 
 53 H       -0.0690     8.5270     2.8140 H     1 <1>   0.0800 
 54 H       -0.1510     9.8260     1.6570 H     1 <1>   0.0800 
 55 H        6.0960     8.3210    -1.2870 H     1 <1>   0.0800 
 56 H        5.5420     8.1380     0.3470 H     1 <1>   0.0800 
 57 H        3.7070     7.4770    -1.9580 H     1 <1>   0.0800 
 58 H        3.9500     9.1330    -1.5130 H     1 <1>   0.0800 
 59 H        1.4790     9.6450    -0.4540 H     1 <1>   0.1500 
@<TRIPOS>BOND
  1   1   2  2   
  2   2   3  am  
  3   2   4  1   
  4   3   5  1   
  5   3   6  1   
  6   4   7  ar  
  7   4   8  ar  
  8   5   9  1   
  9   5  31  1   
 10   5  32  1   
 11   6  10  1   
 12   6  33  1   
 13   6  34  1   
 14   7  11  ar  
 15   7  35  1   
 16   8  12  ar  
 17   8  36  1   
 18   9  13  1   
 19   9  37  1   
 20   9  38  1   
 21  10  13  1   
 22  10  39  1   
 23  10  40  1   
 24  11  14  1   
 25  11  15  ar  
 26  12  15  ar  
 27  12  41  1   
 28  13  16  1   
 29  13  42  1   
 30  14  17  1   
 31  15  18  1   
 32  16  19  1   
 33  16  43  1   
 34  16  44  1   
 35  17  20  1   
 36  17  45  1   
 37  17  46  1   
 38  18  47  1   
 39  18  48  1   
 40  18  49  1   
 41  19  21  am  
 42  19  50  1   
 43  20  22  1   
 44  20  51  1   
 45  20  52  1   
 46  21  23  2   
 47  21  24  1   
 48  22  25  1   
 49  22  53  1   
 50  22  54  1   
 51  24  26  1   
 52  24  55  1   
 53  24  56  1   
 54  25  27  1   
 55  25  28  1   
 56  26  29  1   
 57  26  57  1   
 58  26  58  1   
 59  27  30  2   
 60  28  29  2   
 61  28  59  1   
 62  29  30  1   
@<TRIPOS>SUBSTRUCTURE
  1 ****   6 GROUP 4 **** **** 0

# MOE 2024.06 (io_trps.svl 2023.06)
