@<TRIPOS>MOLECULE
NONAME
47 49 1 0 0 
SMALL
USER_CHARGES


@<TRIPOS>ATOM
  1 O       -1.2820     0.6150     1.6250 O.2   1 <1>  -0.5700 
  2 C       -0.9040     1.7500     1.7600 C.2   1 <1>   0.5690 
  3 N       -1.5760     2.7690     1.1780 N.am  1 <1>  -0.7300 
  4 C        0.3720     2.0440     2.5610 C.3   1 <1>   0.1810 
  5 C       -1.2060     4.1890     1.3620 C.3   1 <1>   0.3640 
  6 O        0.5480     3.4110     2.8820 O.3   1 <1>  -0.5600 
  7 C       -1.3870     4.9480     0.0440 C.ar  1 <1>  -0.1440 
  8 C        0.2560     4.3190     1.8380 C.3   1 <1>   0.2610 
  9 C       -1.9110     6.2330     0.0630 C.ar  1 <1>  -0.1500 
 10 C       -1.0440     4.3810    -1.1780 C.ar  1 <1>  -0.1500 
 11 C        0.5360     5.7740     2.2540 C.2   1 <1>   0.5690 
 12 C       -2.1040     6.9350    -1.1140 C.ar  1 <1>  -0.1500 
 13 C       -1.2400     5.0800    -2.3570 C.ar  1 <1>  -0.1500 
 14 O       -0.3060     6.3540     2.9010 O.2   1 <1>  -0.5700 
 15 N        1.6670     6.4470     1.8390 N.am  1 <1>  -0.6600 
 16 C       -1.7740     6.3560    -2.3260 C.ar  1 <1>  -0.1500 
 17 C        2.7210     5.9060     0.9280 C.3   1 <1>   0.1400 
 18 C        1.9180     7.8430     2.2940 C.3   1 <1>   0.1400 
 19 C        2.4060     6.1960    -0.5570 C.3   1 <1>   0.3430 
 20 C        1.4290     8.8410     1.2410 C.3   1 <1>  -0.1600 
 21 N        1.5190     7.3910    -0.7730 N.4   1 <1>  -0.9590 
 22 C        2.0320     8.6470    -0.1530 C.3   1 <1>   0.3430 
 23 C        1.2350     7.5840    -2.2250 C.3   1 <1>   0.2630 
 24 H       -2.4580     2.5660     0.7040 H     1 <1>   0.3700 
 25 H        1.2250     1.7170     1.9970 H     1 <1>   0.0800 
 26 H        0.3420     1.4940     3.4850 H     1 <1>   0.0800 
 27 H       -1.8620     4.6070     2.1080 H     1 <1>   0.0800 
 28 H        0.8860     4.0560     1.0130 H     1 <1>   0.0800 
 29 H       -2.1900     6.6930     1.0000 H     1 <1>   0.1500 
 30 H       -0.6440     3.3810    -1.2240 H     1 <1>   0.1500 
 31 H       -2.5310     7.9240    -1.0860 H     1 <1>   0.1500 
 32 H       -0.9950     4.6210    -3.3000 H     1 <1>   0.1500 
 33 H       -1.9500     6.8900    -3.2450 H     1 <1>   0.1500 
 34 H        3.6670     6.3560     1.1750 H     1 <1>   0.0800 
 35 H        2.8470     4.8480     1.0780 H     1 <1>   0.0800 
 36 H        1.4050     8.0260     3.2250 H     1 <1>   0.0800 
 37 H        2.9690     7.9820     2.4840 H     1 <1>   0.0800 
 38 H        1.9180     5.3280    -0.9700 H     1 <1>   0.0800 
 39 H        3.3340     6.3230    -1.0910 H     1 <1>   0.0800 
 40 H        1.6910     9.8260     1.5830 H     1 <1>   0.0800 
 41 H        0.3540     8.8090     1.1880 H     1 <1>   0.0800 
 42 H        0.6260     7.1790    -0.2930 H     1 <1>   0.4500 
 43 H        3.1080     8.6300    -0.0980 H     1 <1>   0.0800 
 44 H        1.7430     9.4890    -0.7610 H     1 <1>   0.0800 
 45 H        2.1370     7.8440    -2.7550 H     1 <1>   0.0800 
 46 H        0.5130     8.3720    -2.3610 H     1 <1>   0.0800 
 47 H        0.8320     6.6780    -2.6490 H     1 <1>   0.0800 
@<TRIPOS>BOND
  1   1   2  2   
  2   2   3  am  
  3   2   4  1   
  4   3   5  1   
  5   3  24  1   
  6   4   6  1   
  7   4  25  1   
  8   4  26  1   
  9   5   7  1   
 10   5   8  1   
 11   5  27  1   
 12   6   8  1   
 13   7   9  ar  
 14   7  10  ar  
 15   8  11  1   
 16   8  28  1   
 17   9  12  ar  
 18   9  29  1   
 19  10  13  ar  
 20  10  30  1   
 21  11  14  2   
 22  11  15  am  
 23  12  16  ar  
 24  12  31  1   
 25  13  16  ar  
 26  13  32  1   
 27  15  17  1   
 28  15  18  1   
 29  16  33  1   
 30  17  19  1   
 31  17  34  1   
 32  17  35  1   
 33  18  20  1   
 34  18  36  1   
 35  18  37  1   
 36  19  21  1   
 37  19  38  1   
 38  19  39  1   
 39  20  22  1   
 40  20  40  1   
 41  20  41  1   
 42  21  22  1   
 43  21  23  1   
 44  21  42  1   
 45  22  43  1   
 46  22  44  1   
 47  23  45  1   
 48  23  46  1   
 49  23  47  1   
@<TRIPOS>SUBSTRUCTURE
  1 ****   7 GROUP 4 **** **** 0

# MOE 2024.06 (io_trps.svl 2023.06)
