@<TRIPOS>MOLECULE
NONAME
45 47 1 0 0 
SMALL
USER_CHARGES


@<TRIPOS>ATOM
  1 O        0.6500    -0.9510     0.7470 O.3   1 <1>  -0.5600 
  2 C       -0.2560    -1.9850     0.9680 C.3   1 <1>   0.1200 
  3 C        0.8860    -0.6030    -0.5730 C.3   1 <1>   0.1200 
  4 C        0.4090    -3.3530     0.7200 C.3   1 <1>   0.4230 
  5 C        1.7770    -1.6570    -1.2440 C.3   1 <1>  -0.0800 
  6 N        0.3900    -3.7890    -0.7440 N.4   1 <1>  -0.9590 
  7 C        1.8370    -3.3650     1.3490 C.3   1 <1>   0.3430 
  8 C        0.9660    -2.8530    -1.7710 C.3   1 <1>   0.3430 
  9 C        3.0330    -1.9630    -0.4010 C.3   1 <1>   0.3430 
 10 C       -0.9830    -4.2260    -1.1520 C.3   1 <1>   0.5240 
 11 N        3.0080    -3.2440     0.3880 N.4   1 <1>  -0.9590 
 12 C       -1.3520    -5.3820    -0.2550 C.2   1 <1>  -0.1810 
 13 C        4.2850    -3.3380     1.1720 C.3   1 <1>   0.2630 
 14 C       -0.8090    -6.6640    -0.3090 C.2   1 <1>   0.1080 
 15 C       -2.2320    -5.4180     0.7740 C.2   1 <1>  -0.3320 
 16 N       -1.2670    -7.4160     0.6320 N.2   1 <1>  -0.7070 
 17 C        0.1880    -7.2190    -1.3060 C.3   1 <1>  -0.0590 
 18 N       -2.1680    -6.6660     1.2870 N.pl3 1 <1>   0.3000 
 19 C       -3.1780    -4.3630     1.3300 C.3   1 <1>  -0.0600 
 20 H       -0.5420    -1.9180     2.0050 H     1 <1>   0.0800 
 21 H       -1.1400    -1.8330     0.3730 H     1 <1>   0.0800 
 22 H       -0.0530    -0.4630    -1.0850 H     1 <1>   0.0800 
 23 H        1.3950     0.3480    -0.5540 H     1 <1>   0.0800 
 24 H       -0.1700    -4.0620     1.2880 H     1 <1>   0.0800 
 25 H        2.1440    -1.1620    -2.1260 H     1 <1>   0.0800 
 26 H        0.9060    -4.6750    -0.7750 H     1 <1>   0.4500 
 27 H        1.9380    -4.2860     1.9010 H     1 <1>   0.0800 
 28 H        1.8900    -2.5680     2.0740 H     1 <1>   0.0800 
 29 H        1.5880    -3.4190    -2.4460 H     1 <1>   0.0800 
 30 H        0.1590    -2.4510    -2.3650 H     1 <1>   0.0800 
 31 H        3.1930    -1.1350     0.2740 H     1 <1>   0.0800 
 32 H        3.8820    -1.9900    -1.0650 H     1 <1>   0.0800 
 33 H       -1.6930    -3.4240    -1.0370 H     1 <1>   0.0800 
 34 H       -0.9930    -4.5540    -2.1800 H     1 <1>   0.0800 
 35 H        3.0110    -4.0380    -0.2640 H     1 <1>   0.4500 
 36 H        4.3560    -2.5240     1.8770 H     1 <1>   0.0800 
 37 H        5.1390    -3.2930     0.5140 H     1 <1>   0.0800 
 38 H        4.3280    -4.2670     1.7190 H     1 <1>   0.0800 
 39 H        0.2640    -6.6020    -2.1810 H     1 <1>   0.0800 
 40 H       -0.1400    -8.1960    -1.6150 H     1 <1>   0.0800 
 41 H        1.1510    -7.3250    -0.8430 H     1 <1>   0.0800 
 42 H       -2.7260    -7.0450     2.0660 H     1 <1>   0.2700 
 43 H       -3.1300    -3.4530     0.7620 H     1 <1>   0.0800 
 44 H       -2.9390    -4.1450     2.3570 H     1 <1>   0.0800 
 45 H       -4.1920    -4.7250     1.2900 H     1 <1>   0.0800 
@<TRIPOS>BOND
  1   1   2  1   
  2   1   3  1   
  3   2   4  1   
  4   2  20  1   
  5   2  21  1   
  6   3   5  1   
  7   3  22  1   
  8   3  23  1   
  9   4   6  1   
 10   4   7  1   
 11   4  24  1   
 12   5   8  1   
 13   5   9  1   
 14   5  25  1   
 15   6   8  1   
 16   6  10  1   
 17   6  26  1   
 18   7  11  1   
 19   7  27  1   
 20   7  28  1   
 21   8  29  1   
 22   8  30  1   
 23   9  11  1   
 24   9  31  1   
 25   9  32  1   
 26  10  12  1   
 27  10  33  1   
 28  10  34  1   
 29  11  13  1   
 30  11  35  1   
 31  12  14  1   
 32  12  15  2   
 33  13  36  1   
 34  13  37  1   
 35  13  38  1   
 36  14  16  2   
 37  14  17  1   
 38  15  18  1   
 39  15  19  1   
 40  16  18  1   
 41  17  39  1   
 42  17  40  1   
 43  17  41  1   
 44  18  42  1   
 45  19  43  1   
 46  19  44  1   
 47  19  45  1   
@<TRIPOS>SUBSTRUCTURE
  1 ****   6 GROUP 4 **** **** 0

# MOE 2024.06 (io_trps.svl 2023.06)
