@<TRIPOS>MOLECULE
NONAME
48 51 1 0 0 
SMALL
USER_CHARGES


@<TRIPOS>ATOM
  1 O       -2.5000     0.5900    -1.8830 O.2   1 <1>  -0.5700 
  2 C       -2.2360     0.5700    -0.7070 C.2   1 <1>   0.5690 
  3 N       -2.0100    -0.5900    -0.0460 N.am  1 <1>  -0.7300 
  4 C       -2.1680     1.8740     0.0540 C.3   1 <1>  -0.0990 
  5 C       -2.0190    -1.9360    -0.6670 C.3   1 <1>   0.2200 
  6 C       -0.9030     2.6560    -0.3100 C.3   1 <1>   0.0210 
  7 C       -3.3080    -2.6880    -0.3570 C.3   1 <1>  -0.0800 
  8 C       -1.0080    -2.8130     0.0580 C.3   1 <1>   0.1200 
  9 C       -0.8520     3.9650     0.4540 C.2   1 <1>  -0.1810 
 10 C       -3.0320    -3.2580     1.0410 C.3   1 <1>   0.1200 
 11 C       -4.5990    -1.8510    -0.4670 C.3   1 <1>  -0.0170 
 12 O       -1.6480    -3.2030     1.2360 O.3   1 <1>  -0.5600 
 13 C       -0.5460     4.1360     1.8010 C.2   1 <1>   0.1390 
 14 C       -1.0900     5.2120    -0.0030 C.2   1 <1>  -0.3020 
 15 C       -5.9240    -2.5970    -0.2700 C.ar  1 <1>  -0.1440 
 16 N       -0.5910     5.3820     2.1610 N.2   1 <1>  -0.7070 
 17 N       -0.9270     6.0490     1.0400 N.pl3 1 <1>   0.3000 
 18 C       -7.1320    -1.8610    -0.1740 C.ar  1 <1>   0.0000 
 19 C       -6.0220    -3.9580    -0.1860 C.ar  1 <1>  -0.1500 
 20 C       -8.3350    -2.5800     0.0380 C.ar  1 <1>   0.3100 
 21 C       -7.2190    -0.4520    -0.2820 C.ar  1 <1>  -0.1500 
 22 C       -7.2650    -4.5710     0.0140 C.ar  1 <1>   0.1600 
 23 N       -8.3840    -3.9320     0.1300 N.ar  1 <1>  -0.6200 
 24 C       -9.5420    -1.8720     0.1540 C.ar  1 <1>  -0.1500 
 25 C       -8.4120     0.2070    -0.1680 C.ar  1 <1>  -0.1500 
 26 C       -9.5900    -0.5080     0.0560 C.ar  1 <1>  -0.1500 
 27 H       -1.8290    -0.6020     0.9610 H     1 <1>   0.3700 
 28 H       -3.0330     2.4610    -0.1970 H     1 <1>   0.0800 
 29 H       -2.1900     1.6830     1.1110 H     1 <1>   0.0800 
 30 H       -1.8200    -1.8690    -1.7240 H     1 <1>   0.0800 
 31 H       -0.9000     2.8600    -1.3670 H     1 <1>   0.0800 
 32 H       -0.0280     2.0720    -0.0810 H     1 <1>   0.0800 
 33 H       -3.3700    -3.5080    -1.0500 H     1 <1>   0.0800 
 34 H       -0.0950    -2.2950     0.2920 H     1 <1>   0.0800 
 35 H       -0.7920    -3.7000    -0.5110 H     1 <1>   0.0800 
 36 H       -3.3530    -4.2810     1.1350 H     1 <1>   0.0800 
 37 H       -3.4930    -2.6620     1.8100 H     1 <1>   0.0800 
 38 H       -4.6190    -1.3830    -1.4370 H     1 <1>   0.0800 
 39 H       -4.5540    -1.0680     0.2690 H     1 <1>   0.0800 
 40 H       -0.2970     3.3370     2.4790 H     1 <1>   0.1500 
 41 H       -1.3610     5.5450    -0.9890 H     1 <1>   0.1500 
 42 H       -1.0350     7.0700     1.0230 H     1 <1>   0.2700 
 43 H       -5.1750    -4.6100    -0.2680 H     1 <1>   0.1500 
 44 H       -6.3300     0.1220    -0.4640 H     1 <1>   0.1500 
 45 H       -7.2910    -5.6450     0.0770 H     1 <1>   0.1500 
 46 H      -10.4350    -2.4450     0.3220 H     1 <1>   0.1500 
 47 H       -8.4600     1.2800    -0.2520 H     1 <1>   0.1500 
 48 H      -10.5230     0.0210     0.1460 H     1 <1>   0.1500 
@<TRIPOS>BOND
  1   1   2  2   
  2   2   3  am  
  3   2   4  1   
  4   3   5  1   
  5   3  27  1   
  6   4   6  1   
  7   4  28  1   
  8   4  29  1   
  9   5   7  1   
 10   5   8  1   
 11   5  30  1   
 12   6   9  1   
 13   6  31  1   
 14   6  32  1   
 15   7  10  1   
 16   7  11  1   
 17   7  33  1   
 18   8  12  1   
 19   8  34  1   
 20   8  35  1   
 21   9  13  1   
 22   9  14  2   
 23  10  12  1   
 24  10  36  1   
 25  10  37  1   
 26  11  15  1   
 27  11  38  1   
 28  11  39  1   
 29  13  16  2   
 30  13  40  1   
 31  14  17  1   
 32  14  41  1   
 33  15  18  ar  
 34  15  19  ar  
 35  16  17  1   
 36  17  42  1   
 37  18  20  ar  
 38  18  21  ar  
 39  19  22  ar  
 40  19  43  1   
 41  20  23  ar  
 42  20  24  ar  
 43  21  25  ar  
 44  21  44  1   
 45  22  23  ar  
 46  22  45  1   
 47  24  26  ar  
 48  24  46  1   
 49  25  26  ar  
 50  25  47  1   
 51  26  48  1   
@<TRIPOS>SUBSTRUCTURE
  1 ****  11 GROUP 4 **** **** 0

# MOE 2024.06 (io_trps.svl 2023.06)
