@<TRIPOS>MOLECULE
NONAME
47 50 1 0 0 
SMALL
USER_CHARGES


@<TRIPOS>ATOM
  1 CL      -0.3090    -2.3940     3.7240 Cl    1 <1>  -0.1770 
  2 C        0.3680    -3.1730     2.3180 C.ar  1 <1>   0.1770 
  3 C       -0.4740    -3.8580     1.4600 C.ar  1 <1>  -0.1500 
  4 C        1.7290    -3.0900     2.0850 C.ar  1 <1>  -0.1500 
  5 C        0.0580    -4.4850     0.3420 C.ar  1 <1>  -0.1440 
  6 C        2.2610    -3.7170     0.9710 C.ar  1 <1>  -0.1500 
  7 C        1.4260    -4.4200     0.1150 C.ar  1 <1>   0.0830 
  8 C       -0.8200    -5.2180    -0.6450 C.3   1 <1>   0.4870 
  9 O        1.9570    -5.0450    -0.9520 O.3   1 <1>  -0.3630 
 10 N       -0.5350    -6.6760    -0.5230 N.4   1 <1>  -0.9590 
 11 C        1.9950    -6.4560    -0.9070 C.3   1 <1>   0.1200 
 12 C        0.6580    -7.0710    -1.3620 C.3   1 <1>   0.3430 
 13 C       -1.7560    -7.4750    -0.8430 C.3   1 <1>   0.3430 
 14 C       -1.6270    -8.9270    -0.3600 C.3   1 <1>  -0.0800 
 15 C       -2.9250    -9.7270    -0.5650 C.3   1 <1>   0.1400 
 16 C       -1.3170    -9.0640     1.1420 C.3   1 <1>  -0.0990 
 17 N       -2.9870   -10.6450     0.5850 N.am  1 <1>  -0.4770 
 18 C       -2.0860   -10.2890     1.5460 C.2   1 <1>   0.5690 
 19 C       -3.8440   -11.7660     0.5700 C.ar  1 <1>   0.1170 
 20 O       -1.8780   -10.8310     2.6010 O.2   1 <1>  -0.5700 
 21 C       -3.4430   -12.9830     1.1130 C.ar  1 <1>  -0.1500 
 22 C       -5.1120   -11.6900    -0.0020 C.ar  1 <1>  -0.1500 
 23 C       -4.2740   -14.0890     1.0790 C.ar  1 <1>  -0.1500 
 24 C       -5.9450   -12.7930    -0.0400 C.ar  1 <1>  -0.1500 
 25 C       -5.5270   -13.9960     0.5000 C.ar  1 <1>  -0.1500 
 26 H       -1.5270    -3.8790     1.6810 H     1 <1>   0.1500 
 27 H        2.3570    -2.5420     2.7650 H     1 <1>   0.1500 
 28 H        3.3170    -3.6630     0.7660 H     1 <1>   0.1500 
 29 H       -0.6170    -4.8730    -1.6460 H     1 <1>   0.0800 
 30 H       -1.8520    -5.0150    -0.4120 H     1 <1>   0.0800 
 31 H       -0.2910    -6.8170     0.4680 H     1 <1>   0.4500 
 32 H        2.2540    -6.7680     0.0900 H     1 <1>   0.0800 
 33 H        2.7800    -6.7700    -1.5730 H     1 <1>   0.0800 
 34 H        0.4880    -6.7940    -2.3900 H     1 <1>   0.0800 
 35 H        0.7710    -8.1410    -1.3350 H     1 <1>   0.0800 
 36 H       -1.9400    -7.4590    -1.9060 H     1 <1>   0.0800 
 37 H       -2.6090    -7.0310    -0.3530 H     1 <1>   0.0800 
 38 H       -0.8630    -9.4350    -0.9230 H     1 <1>   0.0800 
 39 H       -2.9070   -10.2850    -1.4870 H     1 <1>   0.0800 
 40 H       -3.7910    -9.0880    -0.5430 H     1 <1>   0.0800 
 41 H       -1.6930    -8.2370     1.7170 H     1 <1>   0.0800 
 42 H       -0.2690    -9.2050     1.3330 H     1 <1>   0.0800 
 43 H       -2.4740   -13.0720     1.5680 H     1 <1>   0.1500 
 44 H       -5.4630   -10.7650    -0.4170 H     1 <1>   0.1500 
 45 H       -3.9450   -15.0210     1.5060 H     1 <1>   0.1500 
 46 H       -6.9220   -12.7180    -0.4850 H     1 <1>   0.1500 
 47 H       -6.1740   -14.8560     0.4740 H     1 <1>   0.1500 
@<TRIPOS>BOND
  1   1   2  1   
  2   2   3  ar  
  3   2   4  ar  
  4   3   5  ar  
  5   3  26  1   
  6   4   6  ar  
  7   4  27  1   
  8   5   7  ar  
  9   5   8  1   
 10   6   7  ar  
 11   6  28  1   
 12   7   9  1   
 13   8  10  1   
 14   8  29  1   
 15   8  30  1   
 16   9  11  1   
 17  10  12  1   
 18  10  13  1   
 19  10  31  1   
 20  11  12  1   
 21  11  32  1   
 22  11  33  1   
 23  12  34  1   
 24  12  35  1   
 25  13  14  1   
 26  13  36  1   
 27  13  37  1   
 28  14  15  1   
 29  14  16  1   
 30  14  38  1   
 31  15  17  1   
 32  15  39  1   
 33  15  40  1   
 34  16  18  1   
 35  16  41  1   
 36  16  42  1   
 37  17  18  am  
 38  17  19  1   
 39  18  20  2   
 40  19  21  ar  
 41  19  22  ar  
 42  21  23  ar  
 43  21  43  1   
 44  22  24  ar  
 45  22  44  1   
 46  23  25  ar  
 47  23  45  1   
 48  24  25  ar  
 49  24  46  1   
 50  25  47  1   
@<TRIPOS>SUBSTRUCTURE
  1 ****  16 GROUP 4 **** **** 0

# MOE 2024.06 (io_trps.svl 2023.06)
