@<TRIPOS>MOLECULE
NONAME
38 39 1 0 0 
SMALL
USER_CHARGES


@<TRIPOS>ATOM
  1 O        2.0300    -0.0920    -0.5420 O.2   1 <1>  -0.5700 
  2 C        2.0930    -0.7280     0.4930 C.2   1 <1>   0.7150 
  3 N        2.5010    -0.0910     1.6240 N.am  1 <1>  -0.7300 
  4 C        1.7880    -2.1290     0.5710 C.2   1 <1>  -0.2370 
  5 C        2.8250     1.3510     1.7130 C.3   1 <1>   0.1400 
  6 N        0.7210    -2.7750    -0.0230 N.pl3 1 <1>   0.0480 
  7 C        2.5110    -3.0690     1.2630 C.2   1 <1>  -0.1500 
  8 C        4.2510     1.6050     1.2170 C.3   1 <1>   0.0200 
  9 C        0.8100    -4.0890     0.3110 C.2   1 <1>  -0.3020 
 10 C       -0.4190    -2.2580    -0.8400 C.3   1 <1>   0.1760 
 11 C        1.8960    -4.3020     1.0970 C.2   1 <1>  -0.1500 
 12 C        4.3820     3.0350     0.7320 C.2   1 <1>   0.0060 
 13 C        0.0070    -1.9840    -2.2870 C.3   1 <1>  -0.2400 
 14 C       -1.1070    -1.0480    -0.1940 C.3   1 <1>  -0.2400 
 15 N        4.8980     3.9910     1.4240 N.2   1 <1>  -0.3380 
 16 N        3.9670     3.4610    -0.4670 N.pl3 1 <1>   0.0480 
 17 N        4.8320     5.0940     0.6770 N.2   1 <1>  -0.3380 
 18 C        4.2780     4.7580    -0.4360 C.2   1 <1>   0.0360 
 19 C        3.3130     2.7080    -1.5560 C.3   1 <1>   0.0160 
 20 H        2.5290    -0.6350     2.4880 H     1 <1>   0.3700 
 21 H        2.7200     1.6970     2.7270 H     1 <1>   0.0800 
 22 H        2.1260     1.8970     1.1030 H     1 <1>   0.0800 
 23 H        3.4090    -2.9080     1.8350 H     1 <1>   0.1500 
 24 H        4.4950     0.9400     0.4090 H     1 <1>   0.0800 
 25 H        4.9460     1.4330     2.0190 H     1 <1>   0.0800 
 26 H        0.0950    -4.8210    -0.0240 H     1 <1>   0.1500 
 27 H       -1.1510    -3.0470    -0.8730 H     1 <1>   0.0800 
 28 H        2.2320    -5.2350     1.5180 H     1 <1>   0.1500 
 29 H        0.7050    -1.1710    -2.3420 H     1 <1>   0.0800 
 30 H       -0.8530    -1.7280    -2.8790 H     1 <1>   0.0800 
 31 H        0.4590    -2.8630    -2.7100 H     1 <1>   0.0800 
 32 H       -0.4940    -0.1690    -0.2500 H     1 <1>   0.0800 
 33 H       -1.3380    -1.2590     0.8350 H     1 <1>   0.0800 
 34 H       -2.0260    -0.8390    -0.7110 H     1 <1>   0.0800 
 35 H        4.0820     5.4310    -1.2500 H     1 <1>   0.1500 
 36 H        3.8430     1.7900    -1.7310 H     1 <1>   0.0800 
 37 H        3.3140     3.2960    -2.4560 H     1 <1>   0.0800 
 38 H        2.2990     2.4830    -1.2770 H     1 <1>   0.0800 
@<TRIPOS>BOND
  1   1   2  2   
  2   2   3  am  
  3   2   4  1   
  4   3   5  1   
  5   3  20  1   
  6   4   6  1   
  7   4   7  2   
  8   5   8  1   
  9   5  21  1   
 10   5  22  1   
 11   6   9  1   
 12   6  10  1   
 13   7  11  1   
 14   7  23  1   
 15   8  12  1   
 16   8  24  1   
 17   8  25  1   
 18   9  11  2   
 19   9  26  1   
 20  10  13  1   
 21  10  14  1   
 22  10  27  1   
 23  11  28  1   
 24  12  15  2   
 25  12  16  1   
 26  13  29  1   
 27  13  30  1   
 28  13  31  1   
 29  14  32  1   
 30  14  33  1   
 31  14  34  1   
 32  15  17  1   
 33  16  18  1   
 34  16  19  1   
 35  17  18  2   
 36  18  35  1   
 37  19  36  1   
 38  19  37  1   
 39  19  38  1   
@<TRIPOS>SUBSTRUCTURE
  1 ****   1 GROUP 4 **** **** 0

# MOE 2024.06 (io_trps.svl 2023.06)
