@<TRIPOS>MOLECULE
NONAME
45 47 1 0 0 
SMALL
USER_CHARGES


@<TRIPOS>ATOM
  1 F        0.7880     0.7710    -0.9890 F     1 <1>  -0.1900 
  2 C        1.7570    -0.0410    -0.6670 C.ar  1 <1>   0.1900 
  3 C        1.8110    -0.5410     0.6200 C.ar  1 <1>  -0.1500 
  4 C        2.6950    -0.3740    -1.6240 C.ar  1 <1>  -0.1500 
  5 C        2.8400    -1.4030     0.9520 C.ar  1 <1>  -0.1500 
  6 C        3.7190    -1.2370    -1.2750 C.ar  1 <1>  -0.1500 
  7 C        3.8070    -1.7660     0.0130 C.ar  1 <1>   0.0000 
  8 C        4.8720    -2.6740     0.3660 C.ar  1 <1>   0.0000 
  9 C        5.0350    -3.8800    -0.3090 C.ar  1 <1>  -0.1500 
 10 C        5.7620    -2.3710     1.3900 C.ar  1 <1>  -0.1500 
 11 C        6.0460    -4.7720     0.0130 C.ar  1 <1>  -0.1430 
 12 C        6.7760    -3.2450     1.7260 C.ar  1 <1>  -0.1500 
 13 C        6.9280    -4.4410     1.0430 C.ar  1 <1>   0.0830 
 14 C        6.1290    -6.0610    -0.7940 C.3   1 <1>   0.4860 
 15 O        7.9140    -5.2570     1.4680 O.3   1 <1>  -0.3630 
 16 N        6.1200    -7.2720     0.0630 N.4   1 <1>  -0.9590 
 17 C        9.0880    -5.4440     0.6710 C.3   1 <1>   0.0140 
 18 C        6.2610    -8.5180    -0.7470 C.3   1 <1>   0.3430 
 19 C        5.0920    -7.3340     1.1440 C.3   1 <1>   0.3430 
 20 C        9.0430    -6.7790    -0.0470 C.2   1 <1>   0.9060 
 21 C        5.9870    -9.7510     0.1280 C.3   1 <1>   0.1200 
 22 C        4.0840    -8.4810     0.9210 C.3   1 <1>   0.1200 
 23 O        9.0240    -6.8050    -1.2800 O.co2 1 <1>  -0.9000 
 24 O        8.7560    -7.7950     0.5980 O.co2 1 <1>  -0.9000 
 25 O        4.6950    -9.7310     0.6980 O.3   1 <1>  -0.5600 
 26 H        1.0630    -0.2580     1.3380 H     1 <1>   0.1500 
 27 H        2.6230     0.0370    -2.6150 H     1 <1>   0.1500 
 28 H        2.8990    -1.8040     1.9490 H     1 <1>   0.1500 
 29 H        4.4640    -1.5020    -2.0050 H     1 <1>   0.1500 
 30 H        4.3420    -4.1070    -1.1010 H     1 <1>   0.1500 
 31 H        5.6580    -1.4420     1.9240 H     1 <1>   0.1500 
 32 H        7.4580    -3.0080     2.5230 H     1 <1>   0.1500 
 33 H        7.0170    -6.0410    -1.4000 H     1 <1>   0.0800 
 34 H        5.2890    -6.1040    -1.4650 H     1 <1>   0.0800 
 35 H        7.0490    -7.2530     0.5550 H     1 <1>   0.4500 
 36 H        9.9360    -5.4340     1.3270 H     1 <1>   0.0800 
 37 H        9.1690    -4.6440    -0.0400 H     1 <1>   0.0800 
 38 H        7.2650    -8.5730    -1.1430 H     1 <1>   0.0800 
 39 H        5.5700    -8.5120    -1.5720 H     1 <1>   0.0800 
 40 H        4.5670    -6.3970     1.2130 H     1 <1>   0.0800 
 41 H        5.5880    -7.4980     2.0860 H     1 <1>   0.0800 
 42 H        6.7100    -9.7910     0.9260 H     1 <1>   0.0800 
 43 H        6.0760   -10.6500    -0.4550 H     1 <1>   0.0800 
 44 H        3.4690    -8.2620     0.0670 H     1 <1>   0.0800 
 45 H        3.4440    -8.5820     1.7800 H     1 <1>   0.0800 
@<TRIPOS>BOND
  1   1   2  1   
  2   2   3  ar  
  3   2   4  ar  
  4   3   5  ar  
  5   3  26  1   
  6   4   6  ar  
  7   4  27  1   
  8   5   7  ar  
  9   5  28  1   
 10   6   7  ar  
 11   6  29  1   
 12   7   8  1   
 13   8   9  ar  
 14   8  10  ar  
 15   9  11  ar  
 16   9  30  1   
 17  10  12  ar  
 18  10  31  1   
 19  11  13  ar  
 20  11  14  1   
 21  12  13  ar  
 22  12  32  1   
 23  13  15  1   
 24  14  16  1   
 25  14  33  1   
 26  14  34  1   
 27  15  17  1   
 28  16  18  1   
 29  16  19  1   
 30  16  35  1   
 31  17  20  1   
 32  17  36  1   
 33  17  37  1   
 34  18  21  1   
 35  18  38  1   
 36  18  39  1   
 37  19  22  1   
 38  19  40  1   
 39  19  41  1   
 40  20  23  ar  
 41  20  24  ar  
 42  21  25  1   
 43  21  42  1   
 44  21  43  1   
 45  22  25  1   
 46  22  44  1   
 47  22  45  1   
@<TRIPOS>SUBSTRUCTURE
  1 ****  11 GROUP 4 **** **** 0

# MOE 2024.06 (io_trps.svl 2023.06)
