@<TRIPOS>MOLECULE
NONAME
53 56 1 0 0 
SMALL
USER_CHARGES


@<TRIPOS>ATOM
  1 CL      -0.8910     0.3370     0.7610 Cl    1 <1>  -0.1770 
  2 C       -2.2750    -0.7140     0.5720 C.ar  1 <1>   0.1770 
  3 C       -2.3060    -1.9230     1.2430 C.ar  1 <1>  -0.1500 
  4 C       -3.3180    -0.3200    -0.2460 C.ar  1 <1>  -0.1500 
  5 C       -3.4040    -2.7500     1.0890 C.ar  1 <1>  -0.1500 
  6 C       -4.4120    -1.1540    -0.3940 C.ar  1 <1>  -0.1500 
  7 C       -4.4650    -2.3760     0.2720 C.ar  1 <1>   0.1000 
  8 N       -5.5540    -3.2270     0.1340 N.pl3 1 <1>  -0.8380 
  9 C       -5.6350    -3.9810    -1.1310 C.3   1 <1>   0.2090 
 10 C       -6.8440    -2.7460     0.6660 C.3   1 <1>   0.2090 
 11 C       -6.4660    -5.2340    -0.8680 C.3   1 <1>  -0.1600 
 12 C       -7.6940    -3.9750     0.9740 C.3   1 <1>  -0.1600 
 13 C       -7.8280    -4.8660    -0.2640 C.3   1 <1>   0.4230 
 14 N       -8.5740    -6.0780     0.1430 N.4   1 <1>  -0.9060 
 15 C       -9.0250    -6.9940    -0.9440 C.3   1 <1>   0.4230 
 16 C      -10.2970    -7.7320    -0.5220 C.3   1 <1>  -0.0800 
 17 C       -8.0640    -8.1780    -1.0040 C.3   1 <1>   0.1200 
 18 C       -9.7610    -8.9120     0.3060 C.3   1 <1>   0.1200 
 19 C      -11.3950    -6.9130     0.1850 C.3   1 <1>  -0.0170 
 20 O       -8.3730    -8.8800     0.1530 O.3   1 <1>  -0.5600 
 21 C      -12.6230    -7.7740     0.4290 C.ar  1 <1>  -0.1430 
 22 C      -13.5460    -8.0220    -0.5680 C.ar  1 <1>  -0.1500 
 23 C      -12.8820    -8.3530     1.6560 C.ar  1 <1>  -0.1500 
 24 C      -14.6450    -8.8200    -0.3010 C.ar  1 <1>   0.1600 
 25 C      -14.0120    -9.1370     1.8180 C.ar  1 <1>   0.1600 
 26 N      -14.8960    -9.3850     0.8680 N.ar  1 <1>  -0.6200 
 27 H       -1.4830    -2.2060     1.8730 H     1 <1>   0.1500 
 28 H       -3.2680     0.6250    -0.7560 H     1 <1>   0.1500 
 29 H       -3.4500    -3.6930     1.6010 H     1 <1>   0.1500 
 30 H       -5.2270    -0.8600    -1.0270 H     1 <1>   0.1500 
 31 H       -6.0870    -3.3670    -1.8920 H     1 <1>   0.0800 
 32 H       -4.6430    -4.2520    -1.4540 H     1 <1>   0.0800 
 33 H       -6.6740    -2.1740     1.5650 H     1 <1>   0.0800 
 34 H       -7.3250    -2.1110    -0.0590 H     1 <1>   0.0800 
 35 H       -5.9110    -5.8600    -0.1920 H     1 <1>   0.0800 
 36 H       -6.5900    -5.7480    -1.8030 H     1 <1>   0.0800 
 37 H       -8.6620    -3.6440     1.3050 H     1 <1>   0.0800 
 38 H       -7.2170    -4.5110     1.7750 H     1 <1>   0.0800 
 39 H       -8.3950    -4.3250    -1.0060 H     1 <1>   0.0800 
 40 H       -9.3810    -5.7950     0.7000 H     1 <1>   0.4500 
 41 H       -7.9900    -6.6540     0.7700 H     1 <1>   0.4500 
 42 H       -9.1320    -6.4810    -1.8860 H     1 <1>   0.0800 
 43 H      -10.7330    -8.1530    -1.4130 H     1 <1>   0.0800 
 44 H       -7.0230    -7.9100    -0.9960 H     1 <1>   0.0800 
 45 H       -8.2690    -8.8130    -1.8510 H     1 <1>   0.0800 
 46 H      -10.1300    -9.8570    -0.0610 H     1 <1>   0.0800 
 47 H       -9.9830    -8.8240     1.3560 H     1 <1>   0.0800 
 48 H      -11.6810    -6.0740    -0.4270 H     1 <1>   0.0800 
 49 H      -11.0520    -6.5340     1.1310 H     1 <1>   0.0800 
 50 H      -13.4310    -7.6060    -1.5520 H     1 <1>   0.1500 
 51 H      -12.2240    -8.2100     2.4930 H     1 <1>   0.1500 
 52 H      -15.3570    -9.0050    -1.0880 H     1 <1>   0.1500 
 53 H      -14.2010    -9.5830     2.7810 H     1 <1>   0.1500 
@<TRIPOS>BOND
  1   1   2  1   
  2   2   3  ar  
  3   2   4  ar  
  4   3   5  ar  
  5   3  27  1   
  6   4   6  ar  
  7   4  28  1   
  8   5   7  ar  
  9   5  29  1   
 10   6   7  ar  
 11   6  30  1   
 12   7   8  1   
 13   8   9  1   
 14   8  10  1   
 15   9  11  1   
 16   9  31  1   
 17   9  32  1   
 18  10  12  1   
 19  10  33  1   
 20  10  34  1   
 21  11  13  1   
 22  11  35  1   
 23  11  36  1   
 24  12  13  1   
 25  12  37  1   
 26  12  38  1   
 27  13  14  1   
 28  13  39  1   
 29  14  15  1   
 30  14  40  1   
 31  14  41  1   
 32  15  16  1   
 33  15  17  1   
 34  15  42  1   
 35  16  18  1   
 36  16  19  1   
 37  16  43  1   
 38  17  20  1   
 39  17  44  1   
 40  17  45  1   
 41  18  20  1   
 42  18  46  1   
 43  18  47  1   
 44  19  21  1   
 45  19  48  1   
 46  19  49  1   
 47  21  22  ar  
 48  21  23  ar  
 49  22  24  ar  
 50  22  50  1   
 51  23  25  ar  
 52  23  51  1   
 53  24  26  ar  
 54  24  52  1   
 55  25  26  ar  
 56  25  53  1   
@<TRIPOS>SUBSTRUCTURE
  1 ****  13 GROUP 4 **** **** 0

# MOE 2024.06 (io_trps.svl 2023.06)
