@<TRIPOS>MOLECULE
NONAME
48 51 1 0 0 
SMALL
USER_CHARGES


@<TRIPOS>ATOM
  1 O        0.2400    -0.0820    -0.8260 O.3   1 <1>  -0.5600 
  2 C        0.4140    -1.4340    -0.4920 C.3   1 <1>   0.1200 
  3 C        1.3700     0.5540    -1.3560 C.3   1 <1>   0.1200 
  4 C        1.5600    -1.6010     0.5300 C.3   1 <1>   0.5180 
  5 C        2.5610     0.4680    -0.3740 C.3   1 <1>   0.4230 
  6 N        2.8200    -0.9600     0.0480 N.4   1 <1>  -0.9590 
  7 C        1.8190    -3.0730     0.8770 C.3   1 <1>  -0.1950 
  8 C        3.8340     1.1290    -0.9650 C.3   1 <1>   0.1100 
  9 C        3.5760    -1.7140    -1.0090 C.3   1 <1>   0.3430 
 10 C        1.1620    -3.6890     2.0730 C.3   1 <1>  -0.2000 
 11 C        2.6470    -3.4670     2.0620 C.3   1 <1>  -0.2000 
 12 N        5.0520     0.3130    -0.7220 N.3   1 <1>  -0.8100 
 13 C        4.9190    -1.0210    -1.3510 C.3   1 <1>   0.1100 
 14 C        6.2940     0.9950    -1.1400 C.3   1 <1>   0.2530 
 15 C        6.4770     2.2830    -0.3570 C.ar  1 <1>  -0.1430 
 16 C        6.4630     3.5120    -1.0010 C.ar  1 <1>   0.1600 
 17 C        6.6480     2.2540     1.0140 C.ar  1 <1>  -0.1500 
 18 N        6.5870     4.6850    -0.4050 N.ar  1 <1>  -0.6200 
 19 C        6.7870     3.4660     1.6520 C.ar  1 <1>  -0.1500 
 20 C        6.7490     4.6390     0.9150 C.ar  1 <1>   0.3930 
 21 O        6.8850     5.7950     1.5980 O.3   1 <1>  -0.3620 
 22 C        6.8850     7.0400     0.9270 C.3   1 <1>   0.0400 
 23 H       -0.5100    -1.7860    -0.0660 H     1 <1>   0.0800 
 24 H        0.6080    -1.9910    -1.3920 H     1 <1>   0.0800 
 25 H        1.6080     0.0990    -2.3010 H     1 <1>   0.0800 
 26 H        1.1080     1.5840    -1.5300 H     1 <1>   0.0800 
 27 H        1.2530    -1.1030     1.4360 H     1 <1>   0.0800 
 28 H        2.2860     1.0360     0.5000 H     1 <1>   0.0800 
 29 H        3.4790    -0.8860     0.8340 H     1 <1>   0.4500 
 30 H        1.8560    -3.7040     0.0050 H     1 <1>   0.1000 
 31 H        3.9380     2.1000    -0.5100 H     1 <1>   0.0800 
 32 H        3.7140     1.2870    -2.0240 H     1 <1>   0.0800 
 33 H        3.7840    -2.7170    -0.6740 H     1 <1>   0.0800 
 34 H        2.9790    -1.7860    -1.9030 H     1 <1>   0.0800 
 35 H        0.5650    -3.0880     2.7380 H     1 <1>   0.1000 
 36 H        0.8000    -4.7030     2.0100 H     1 <1>   0.1000 
 37 H        3.2850    -4.3320     1.9980 H     1 <1>   0.1000 
 38 H        3.0410    -2.7210     2.7320 H     1 <1>   0.1000 
 39 H        5.0050    -0.9370    -2.4210 H     1 <1>   0.0800 
 40 H        5.7270    -1.6480    -1.0120 H     1 <1>   0.0800 
 41 H        7.1380     0.3540    -0.9460 H     1 <1>   0.0800 
 42 H        6.2660     1.1990    -2.1980 H     1 <1>   0.0800 
 43 H        6.3400     3.5370    -2.0700 H     1 <1>   0.1500 
 44 H        6.6690     1.3260     1.5600 H     1 <1>   0.1500 
 45 H        6.9250     3.5220     2.7160 H     1 <1>   0.1500 
 46 H        7.0090     7.8180     1.6570 H     1 <1>   0.0800 
 47 H        5.9460     7.1580     0.4150 H     1 <1>   0.0800 
 48 H        7.7000     7.0550     0.2250 H     1 <1>   0.0800 
@<TRIPOS>BOND
  1   1   2  1   
  2   1   3  1   
  3   2   4  1   
  4   2  23  1   
  5   2  24  1   
  6   3   5  1   
  7   3  25  1   
  8   3  26  1   
  9   4   6  1   
 10   4   7  1   
 11   4  27  1   
 12   5   6  1   
 13   5   8  1   
 14   5  28  1   
 15   6   9  1   
 16   6  29  1   
 17   7  10  1   
 18   7  11  1   
 19   7  30  1   
 20   8  12  1   
 21   8  31  1   
 22   8  32  1   
 23   9  13  1   
 24   9  33  1   
 25   9  34  1   
 26  10  11  1   
 27  10  35  1   
 28  10  36  1   
 29  11  37  1   
 30  11  38  1   
 31  12  13  1   
 32  12  14  1   
 33  13  39  1   
 34  13  40  1   
 35  14  15  1   
 36  14  41  1   
 37  14  42  1   
 38  15  16  ar  
 39  15  17  ar  
 40  16  18  ar  
 41  16  43  1   
 42  17  19  ar  
 43  17  44  1   
 44  18  20  ar  
 45  19  20  ar  
 46  19  45  1   
 47  20  21  1   
 48  21  22  1   
 49  22  46  1   
 50  22  47  1   
 51  22  48  1   
@<TRIPOS>SUBSTRUCTURE
  1 ****   8 GROUP 4 **** **** 0

# MOE 2024.06 (io_trps.svl 2023.06)
