@<TRIPOS>MOLECULE
NONAME
45 46 1 0 0 
SMALL
USER_CHARGES


@<TRIPOS>ATOM
  1 S       -0.0790    -0.4460    -1.0610 S.o2  1 <1>   1.3330 
  2 O       -0.5110    -1.1640    -2.2390 O.2   1 <1>  -0.6500 
  3 O       -0.8100     0.7240    -0.6310 O.2   1 <1>  -0.6500 
  4 N       -0.0550    -1.5520     0.2270 N.am  1 <1>  -0.8490 
  5 C        1.6370     0.0370    -1.2830 C.3   1 <1>  -0.0550 
  6 C       -1.3440    -1.6120     0.9230 C.3   1 <1>   0.1160 
  7 C        0.3510    -2.9040    -0.1750 C.3   1 <1>   0.1160 
  8 C        2.2550     0.8020    -0.0890 C.3   1 <1>  -0.0800 
  9 C        3.5230     1.5320    -0.5020 C.3   1 <1>   0.2760 
 10 C        2.7840    -0.1440     0.9930 C.3   1 <1>   0.1200 
 11 N        3.7620     2.6130     0.4480 N.am  1 <1>  -0.9140 
 12 C        4.5700     0.4240    -0.3570 C.3   1 <1>   0.1200 
 13 O        4.1180    -0.4060     0.6740 O.3   1 <1>  -0.5600 
 14 S        5.0530     3.6100     0.0570 S.o2  1 <1>   1.3330 
 15 O        6.0910     3.1520     0.9480 O.2   1 <1>  -0.6500 
 16 O        5.2280     3.5310    -1.3760 O.2   1 <1>  -0.6500 
 17 C        4.4680     5.2410     0.5380 C.3   1 <1>   0.0890 
 18 C        5.4920     6.3510     0.3430 C.ar  1 <1>  -0.1440 
 19 C        5.3520     7.2650    -0.6910 C.ar  1 <1>  -0.1500 
 20 C        6.5780     6.4530     1.1990 C.ar  1 <1>  -0.1500 
 21 C        6.2840     8.2730    -0.8620 C.ar  1 <1>  -0.1500 
 22 C        7.5100     7.4620     1.0280 C.ar  1 <1>  -0.1500 
 23 C        7.3630     8.3730    -0.0020 C.ar  1 <1>  -0.1500 
 24 H        2.2300    -0.8290    -1.5060 H     1 <1>   0.0800 
 25 H        1.6730     0.6760    -2.1440 H     1 <1>   0.0800 
 26 H       -1.2970    -2.3110     1.7410 H     1 <1>   0.0800 
 27 H       -2.1240    -1.9130     0.2430 H     1 <1>   0.0800 
 28 H       -1.5930    -0.6430     1.3240 H     1 <1>   0.0800 
 29 H        0.4280    -3.5400     0.6900 H     1 <1>   0.0800 
 30 H        1.3120    -2.8750    -0.6600 H     1 <1>   0.0800 
 31 H       -0.3680    -3.3270    -0.8580 H     1 <1>   0.0800 
 32 H        1.5260     1.4890     0.3080 H     1 <1>   0.0800 
 33 H        3.4580     1.9130    -1.5080 H     1 <1>   0.0800 
 34 H        2.2560    -1.0770     1.0570 H     1 <1>   0.0800 
 35 H        2.7690     0.3350     1.9560 H     1 <1>   0.0800 
 36 H        4.0820     2.1470     1.3010 H     1 <1>   0.4200 
 37 H        5.5540     0.7890    -0.1220 H     1 <1>   0.0800 
 38 H        4.6160    -0.1690    -1.2530 H     1 <1>   0.0800 
 39 H        3.5870     5.4730    -0.0280 H     1 <1>   0.0800 
 40 H        4.1860     5.2200     1.5720 H     1 <1>   0.0800 
 41 H        4.5210     7.1990    -1.3720 H     1 <1>   0.1500 
 42 H        6.7100     5.7460     2.0020 H     1 <1>   0.1500 
 43 H        6.1710     8.9800    -1.6660 H     1 <1>   0.1500 
 44 H        8.3520     7.5350     1.6950 H     1 <1>   0.1500 
 45 H        8.0890     9.1570    -0.1360 H     1 <1>   0.1500 
@<TRIPOS>BOND
  1   1   2  2   
  2   1   3  2   
  3   1   4  am  
  4   1   5  1   
  5   4   6  1   
  6   4   7  1   
  7   5   8  1   
  8   5  24  1   
  9   5  25  1   
 10   6  26  1   
 11   6  27  1   
 12   6  28  1   
 13   7  29  1   
 14   7  30  1   
 15   7  31  1   
 16   8   9  1   
 17   8  10  1   
 18   8  32  1   
 19   9  11  1   
 20   9  12  1   
 21   9  33  1   
 22  10  13  1   
 23  10  34  1   
 24  10  35  1   
 25  11  14  am  
 26  11  36  1   
 27  12  13  1   
 28  12  37  1   
 29  12  38  1   
 30  14  15  2   
 31  14  16  2   
 32  14  17  1   
 33  17  18  1   
 34  17  39  1   
 35  17  40  1   
 36  18  19  ar  
 37  18  20  ar  
 38  19  21  ar  
 39  19  41  1   
 40  20  22  ar  
 41  20  42  1   
 42  21  23  ar  
 43  21  43  1   
 44  22  23  ar  
 45  22  44  1   
 46  23  45  1   
@<TRIPOS>SUBSTRUCTURE
  1 ****  11 GROUP 4 **** **** 0

# MOE 2024.06 (io_trps.svl 2023.06)
