@<TRIPOS>MOLECULE
NONAME
45 47 1 0 0 
SMALL
USER_CHARGES


@<TRIPOS>ATOM
  1 O       -0.5100    -0.1240    -0.2720 O.2   1 <1>  -0.5700 
  2 C       -1.4170     0.5850     0.1180 C.2   1 <1>   0.7160 
  3 N       -2.5080    -0.0090     0.6750 N.am  1 <1>  -0.7300 
  4 C       -1.3670     2.0120     0.0000 C.2   1 <1>  -0.0860 
  5 C       -2.7850    -1.4550     0.7620 C.3   1 <1>   0.1400 
  6 C       -2.4700     2.8770     0.0580 C.2   1 <1>   0.3720 
  7 C       -0.3200     2.8610    -0.1990 C.2   1 <1>   0.0870 
  8 C       -4.2250    -1.7040     0.3190 C.3   1 <1>  -0.1600 
  9 N       -2.1110     4.1020    -0.0930 N.2   1 <1>  -0.4100 
 10 N       -3.8060     2.4850     0.2290 N.pl3 1 <1>  -0.8210 
 11 O       -0.8170     4.0710    -0.2500 O.3   1 <1>  -0.0190 
 12 C        1.1050     2.6810    -0.3380 C.ar  1 <1>   0.0530 
 13 C       -4.5440    -3.1960     0.3370 C.3   1 <1>   0.1200 
 14 C       -4.4800     2.1660    -1.0670 C.3   1 <1>   0.2090 
 15 C       -4.6470     3.4510     1.0050 C.3   1 <1>   0.2090 
 16 C        1.8370     3.4800    -1.2160 C.ar  1 <1>  -0.1500 
 17 C        1.8090     1.7300     0.4000 C.ar  1 <1>  -0.1500 
 18 O       -5.8490    -3.3620    -0.0820 O.3   1 <1>  -0.6800 
 19 C       -5.9270     1.6920    -0.8360 C.3   1 <1>   0.1200 
 20 C       -6.0830     2.9210     1.1640 C.3   1 <1>   0.1200 
 21 C        3.2050     3.3350    -1.3570 C.ar  1 <1>  -0.1500 
 22 C        3.1760     1.5770     0.2630 C.ar  1 <1>  -0.1500 
 23 O       -6.6500     2.6280    -0.0840 O.3   1 <1>  -0.5600 
 24 C        3.8790     2.3800    -0.6170 C.ar  1 <1>  -0.1500 
 25 H       -3.2830     0.6360     0.8860 H     1 <1>   0.3700 
 26 H       -2.6410    -1.7820     1.7780 H     1 <1>   0.0800 
 27 H       -2.1010    -1.9970     0.1270 H     1 <1>   0.0800 
 28 H       -4.3500    -1.3360    -0.6840 H     1 <1>   0.0800 
 29 H       -4.8930    -1.1860     0.9840 H     1 <1>   0.0800 
 30 H       -4.4470    -3.6140     1.3260 H     1 <1>   0.0800 
 31 H       -3.9070    -3.7350    -0.3450 H     1 <1>   0.0800 
 32 H       -3.9310     1.3960    -1.5800 H     1 <1>   0.0800 
 33 H       -4.4900     3.0420    -1.6950 H     1 <1>   0.0800 
 34 H       -4.6790     4.4020     0.4990 H     1 <1>   0.0800 
 35 H       -4.2100     3.6060     1.9770 H     1 <1>   0.0800 
 36 H        1.3240     4.2260    -1.7980 H     1 <1>   0.1500 
 37 H        1.2800     1.0990     1.0920 H     1 <1>   0.1500 
 38 H       -6.4750    -2.9710     0.5580 H     1 <1>   0.4000 
 39 H       -5.9370     0.7520    -0.3140 H     1 <1>   0.0800 
 40 H       -6.4320     1.5690    -1.7770 H     1 <1>   0.0800 
 41 H       -6.7010     3.6620     1.6380 H     1 <1>   0.0800 
 42 H       -6.0900     2.0280     1.7640 H     1 <1>   0.0800 
 43 H        3.7460     3.9630    -2.0430 H     1 <1>   0.1500 
 44 H        3.6940     0.8320     0.8410 H     1 <1>   0.1500 
 45 H        4.9430     2.2620    -0.7250 H     1 <1>   0.1500 
@<TRIPOS>BOND
  1   1   2  2   
  2   2   3  am  
  3   2   4  1   
  4   3   5  1   
  5   3  25  1   
  6   4   6  1   
  7   4   7  2   
  8   5   8  1   
  9   5  26  1   
 10   5  27  1   
 11   6   9  2   
 12   6  10  1   
 13   7  11  1   
 14   7  12  1   
 15   8  13  1   
 16   8  28  1   
 17   8  29  1   
 18   9  11  1   
 19  10  14  1   
 20  10  15  1   
 21  12  16  ar  
 22  12  17  ar  
 23  13  18  1   
 24  13  30  1   
 25  13  31  1   
 26  14  19  1   
 27  14  32  1   
 28  14  33  1   
 29  15  20  1   
 30  15  34  1   
 31  15  35  1   
 32  16  21  ar  
 33  16  36  1   
 34  17  22  ar  
 35  17  37  1   
 36  18  38  1   
 37  19  23  1   
 38  19  39  1   
 39  19  40  1   
 40  20  23  1   
 41  20  41  1   
 42  20  42  1   
 43  21  24  ar  
 44  21  43  1   
 45  22  24  ar  
 46  22  44  1   
 47  24  45  1   
@<TRIPOS>SUBSTRUCTURE
  1 ****   4 GROUP 4 **** **** 0

# MOE 2024.06 (io_trps.svl 2023.06)
