@<TRIPOS>MOLECULE
NONAME
48 50 1 0 0 
SMALL
USER_CHARGES


@<TRIPOS>ATOM
  1 S        1.2260     0.9370     0.9910 S.o2  1 <1>   1.3330 
  2 O        0.2510     0.0950     0.3350 O.2   1 <1>  -0.6500 
  3 O        0.7840     1.9450     1.9280 O.2   1 <1>  -0.6500 
  4 N        2.3050    -0.0790     1.8220 N.am  1 <1>  -0.8490 
  5 C        2.2350     1.7050    -0.2770 C.3   1 <1>  -0.0550 
  6 C        3.1940     0.6470     2.7350 C.3   1 <1>   0.1160 
  7 C        1.6020    -1.1370     2.5530 C.3   1 <1>   0.1160 
  8 C        2.7480     0.7420    -1.3720 C.3   1 <1>  -0.0800 
  9 C        3.4550     1.4210    -2.5400 C.3   1 <1>   0.2200 
 10 C        3.7870    -0.2820    -0.8960 C.3   1 <1>   0.1200 
 11 N        4.3380     2.5020    -2.0500 N.am  1 <1>  -0.7300 
 12 C        4.3150     0.2770    -3.0530 C.3   1 <1>   0.1200 
 13 O        4.7490    -0.3860    -1.9060 O.3   1 <1>  -0.5600 
 14 C        4.0020     3.8130    -1.9910 C.2   1 <1>   0.6300 
 15 O        2.9900     4.2300    -2.5040 O.2   1 <1>  -0.5700 
 16 C        4.8970     4.7480    -1.1800 C.3   1 <1>   0.0320 
 17 C        4.7980     4.4550     0.3120 C.ar  1 <1>  -0.0320 
 18 C        5.0490     6.1850    -1.5950 C.3   1 <1>  -0.2000 
 19 C        6.1910     5.2360    -1.7740 C.3   1 <1>  -0.2000 
 20 C        3.6350     4.7850     0.9910 C.ar  1 <1>  -0.1500 
 21 C        5.8340     3.8420     1.0000 C.ar  1 <1>  -0.1500 
 22 C        3.5070     4.5070     2.3410 C.ar  1 <1>  -0.1500 
 23 C        5.7130     3.5710     2.3530 C.ar  1 <1>  -0.1500 
 24 C        4.5490     3.9050     3.0240 C.ar  1 <1>  -0.1500 
 25 H        1.6480     2.4660    -0.7530 H     1 <1>   0.0800 
 26 H        3.0650     2.1920     0.1930 H     1 <1>   0.0800 
 27 H        3.8920    -0.0330     3.1910 H     1 <1>   0.0800 
 28 H        2.6260     1.1380     3.5080 H     1 <1>   0.0800 
 29 H        3.7540     1.3900     2.1940 H     1 <1>   0.0800 
 30 H        2.3070    -1.7760     3.0560 H     1 <1>   0.0800 
 31 H        1.0300    -1.7410     1.8690 H     1 <1>   0.0800 
 32 H        0.9310    -0.7070     3.2790 H     1 <1>   0.0800 
 33 H        1.9090     0.1960    -1.7660 H     1 <1>   0.0800 
 34 H        2.7720     1.7940    -3.2870 H     1 <1>   0.0800 
 35 H        3.3460    -1.2500    -0.7300 H     1 <1>   0.0800 
 36 H        4.2930     0.0430    -0.0040 H     1 <1>   0.0800 
 37 H        5.1760     2.1690    -1.5680 H     1 <1>   0.3700 
 38 H        5.1630     0.6130    -3.6240 H     1 <1>   0.0800 
 39 H        3.7290    -0.4140    -3.6340 H     1 <1>   0.0800 
 40 H        4.5070     6.5250    -2.4610 H     1 <1>   0.1000 
 41 H        5.1100     6.9350    -0.8260 H     1 <1>   0.1000 
 42 H        7.0540     5.3680    -1.1470 H     1 <1>   0.1000 
 43 H        6.4490     4.9330    -2.7740 H     1 <1>   0.1000 
 44 H        2.8230     5.2580     0.4650 H     1 <1>   0.1500 
 45 H        6.7410     3.5760     0.4870 H     1 <1>   0.1500 
 46 H        2.5960     4.7610     2.8570 H     1 <1>   0.1500 
 47 H        6.5250     3.1040     2.8830 H     1 <1>   0.1500 
 48 H        4.4530     3.6990     4.0760 H     1 <1>   0.1500 
@<TRIPOS>BOND
  1   1   2  2   
  2   1   3  2   
  3   1   4  am  
  4   1   5  1   
  5   4   6  1   
  6   4   7  1   
  7   5   8  1   
  8   5  25  1   
  9   5  26  1   
 10   6  27  1   
 11   6  28  1   
 12   6  29  1   
 13   7  30  1   
 14   7  31  1   
 15   7  32  1   
 16   8   9  1   
 17   8  10  1   
 18   8  33  1   
 19   9  11  1   
 20   9  12  1   
 21   9  34  1   
 22  10  13  1   
 23  10  35  1   
 24  10  36  1   
 25  11  14  am  
 26  11  37  1   
 27  12  13  1   
 28  12  38  1   
 29  12  39  1   
 30  14  15  2   
 31  14  16  1   
 32  16  17  1   
 33  16  18  1   
 34  16  19  1   
 35  17  20  ar  
 36  17  21  ar  
 37  18  19  1   
 38  18  40  1   
 39  18  41  1   
 40  19  42  1   
 41  19  43  1   
 42  20  22  ar  
 43  20  44  1   
 44  21  23  ar  
 45  21  45  1   
 46  22  24  ar  
 47  22  46  1   
 48  23  24  ar  
 49  23  47  1   
 50  24  48  1   
@<TRIPOS>SUBSTRUCTURE
  1 ****   5 GROUP 4 **** **** 0

# MOE 2024.06 (io_trps.svl 2023.06)
