@<TRIPOS>MOLECULE
NONAME
51 54 1 0 0 
SMALL
USER_CHARGES


@<TRIPOS>ATOM
  1 O       -0.0630    -0.2420    -0.8660 O.2   1 <1>  -0.5700 
  2 C        0.8300    -0.7070    -0.1720 C.2   1 <1>   0.7160 
  3 N        1.8110     0.0960     0.3370 N.am  1 <1>  -0.4930 
  4 C        0.8910    -2.1290     0.1200 C.2   1 <1>   0.2030 
  5 C        2.1390     1.4500     0.0760 C.2   1 <1>   0.0630 
  6 N        1.8420    -2.7230     0.8230 N.2   1 <1>  -0.7070 
  7 C       -0.0480    -3.0700    -0.3030 C.2   1 <1>  -0.1500 
  8 C        3.4520     1.9040    -0.1010 C.2   1 <1>   0.3720 
  9 C        1.3700     2.5540    -0.0480 C.2   1 <1>  -0.3320 
 10 N        1.5080    -4.0180     0.8460 N.pl3 1 <1>   0.3140 
 11 C        0.3630    -4.2720     0.1660 C.2   1 <1>  -0.2050 
 12 N        3.5090     3.1760    -0.3430 N.2   1 <1>  -0.7070 
 13 N        4.5880     1.0750    -0.0400 N.pl3 1 <1>  -0.8210 
 14 N        2.2190     3.5780    -0.3160 N.pl3 1 <1>   0.3140 
 15 C       -0.1380     2.7100     0.0840 C.3   1 <1>  -0.0600 
 16 C        2.3190    -5.0010     1.5770 C.3   1 <1>   0.0160 
 17 C       -0.2470    -5.5670     0.0180 C.ar  1 <1>   0.0530 
 18 C        5.6880     1.6460     0.7860 C.3   1 <1>   0.2090 
 19 C        5.1250     0.7970    -1.3980 C.3   1 <1>   0.2090 
 20 C        1.8660     4.9820    -0.5570 C.3   1 <1>   0.0160 
 21 C        0.4010    -6.6000    -0.6540 C.ar  1 <1>  -0.1500 
 22 C       -1.5070    -5.8200     0.5500 C.ar  1 <1>  -0.1500 
 23 C        6.8480     1.9040    -0.1650 C.3   1 <1>  -0.1600 
 24 C        6.6390     0.8960    -1.2820 C.3   1 <1>  -0.1600 
 25 C       -0.1840    -7.8470    -0.7810 C.ar  1 <1>  -0.1500 
 26 C       -2.0980    -7.0650     0.4270 C.ar  1 <1>  -0.1500 
 27 C       -1.4350    -8.0820    -0.2380 C.ar  1 <1>  -0.1500 
 28 H        2.5930    -0.4380     0.7260 H     1 <1>   0.3700 
 29 H       -0.9210    -2.8490    -0.8910 H     1 <1>   0.1500 
 30 H       -0.5660     1.8390     0.5450 H     1 <1>   0.0800 
 31 H       -0.5810     2.8340    -0.8880 H     1 <1>   0.0800 
 32 H       -0.3790     3.5600     0.6960 H     1 <1>   0.0800 
 33 H        2.9930    -4.4840     2.2350 H     1 <1>   0.0800 
 34 H        2.8800    -5.5870     0.8740 H     1 <1>   0.0800 
 35 H        1.6720    -5.6380     2.1510 H     1 <1>   0.0800 
 36 H        5.9710     0.9170     1.5240 H     1 <1>   0.0800 
 37 H        5.3880     2.5510     1.2900 H     1 <1>   0.0800 
 38 H        4.7630     1.5330    -2.0970 H     1 <1>   0.0800 
 39 H        4.8200    -0.1820    -1.7270 H     1 <1>   0.0800 
 40 H        1.1050     5.0290    -1.3120 H     1 <1>   0.0800 
 41 H        2.7390     5.5110    -0.8900 H     1 <1>   0.0800 
 42 H        1.5080     5.4150     0.3570 H     1 <1>   0.0800 
 43 H        1.3680    -6.4180    -1.0870 H     1 <1>   0.1500 
 44 H       -2.0230    -5.0300     1.0660 H     1 <1>   0.1500 
 45 H        7.8000     1.7950     0.3230 H     1 <1>   0.0800 
 46 H        6.7580     2.9050    -0.5510 H     1 <1>   0.0800 
 47 H        7.0900     1.2060    -2.2070 H     1 <1>   0.0800 
 48 H        7.0320    -0.0630    -0.9950 H     1 <1>   0.0800 
 49 H        0.3310    -8.6340    -1.3040 H     1 <1>   0.1500 
 50 H       -3.0730    -7.2420     0.8460 H     1 <1>   0.1500 
 51 H       -1.8930    -9.0510    -0.3350 H     1 <1>   0.1500 
@<TRIPOS>BOND
  1   1   2  2   
  2   2   3  am  
  3   2   4  1   
  4   3   5  1   
  5   3  28  1   
  6   4   6  2   
  7   4   7  1   
  8   5   8  1   
  9   5   9  2   
 10   6  10  1   
 11   7  11  2   
 12   7  29  1   
 13   8  12  2   
 14   8  13  1   
 15   9  14  1   
 16   9  15  1   
 17  10  11  1   
 18  10  16  1   
 19  11  17  1   
 20  12  14  1   
 21  13  18  1   
 22  13  19  1   
 23  14  20  1   
 24  15  30  1   
 25  15  31  1   
 26  15  32  1   
 27  16  33  1   
 28  16  34  1   
 29  16  35  1   
 30  17  21  ar  
 31  17  22  ar  
 32  18  23  1   
 33  18  36  1   
 34  18  37  1   
 35  19  24  1   
 36  19  38  1   
 37  19  39  1   
 38  20  40  1   
 39  20  41  1   
 40  20  42  1   
 41  21  25  ar  
 42  21  43  1   
 43  22  26  ar  
 44  22  44  1   
 45  23  24  1   
 46  23  45  1   
 47  23  46  1   
 48  24  47  1   
 49  24  48  1   
 50  25  27  ar  
 51  25  49  1   
 52  26  27  ar  
 53  26  50  1   
 54  27  51  1   
@<TRIPOS>SUBSTRUCTURE
  1 ****   2 GROUP 4 **** **** 0

# MOE 2024.06 (io_trps.svl 2023.06)
