@<TRIPOS>MOLECULE
NONAME
42 44 1 0 0 
SMALL
USER_CHARGES


@<TRIPOS>ATOM
  1 S        0.6900    -0.4900     1.3160 S.3   1 <1>  -0.2860 
  2 C       -0.4540     0.8520     0.9640 C.2   1 <1>   0.2420 
  3 C       -0.2020    -1.5520     2.5550 C.3   1 <1>   0.1310 
  4 N       -1.6220     0.9710     1.4900 N.2   1 <1>  -0.3380 
  5 N       -0.1560     1.8240     0.1050 N.pl3 1 <1>   0.0480 
  6 C       -0.5370    -2.9140     1.9630 C.2   1 <1>   0.5690 
  7 N       -2.1500     2.0770     0.9560 N.2   1 <1>  -0.3380 
  8 C       -1.2700     2.5640     0.1450 C.2   1 <1>   0.0360 
  9 C        1.0740     2.0260    -0.6820 C.3   1 <1>   0.0160 
 10 O        0.1220    -3.8580     2.3330 O.2   1 <1>  -0.5700 
 11 N       -1.5650    -3.0700     1.0700 N.am  1 <1>  -0.6600 
 12 C       -2.4630    -2.0060     0.5510 C.3   1 <1>   0.1400 
 13 C       -1.9710    -4.3930     0.5410 C.3   1 <1>   0.1400 
 14 C       -3.4950    -2.7370    -0.3120 C.3   1 <1>   0.2000 
 15 C       -3.4240    -4.2050     0.1040 C.3   1 <1>  -0.0800 
 16 O       -4.7770    -2.2520    -0.1060 O.3   1 <1>  -0.6800 
 17 C       -3.8740    -5.1590    -1.0140 C.3   1 <1>  -0.0170 
 18 C       -3.8030    -6.6110    -0.5740 C.ar  1 <1>   0.1670 
 19 N       -2.6320    -7.2130    -0.7190 N.ar  1 <1>  -0.6200 
 20 C       -4.9300    -7.2260    -0.0500 C.ar  1 <1>  -0.1500 
 21 C       -2.5810    -8.4740    -0.3230 C.ar  1 <1>   0.1600 
 22 C       -4.8640    -8.5410     0.3580 C.ar  1 <1>  -0.1500 
 23 C       -3.6490    -9.1740     0.2140 C.ar  1 <1>  -0.1500 
 24 H        0.4620    -1.6720     3.3900 H     1 <1>   0.0800 
 25 H       -1.0890    -1.0450     2.8780 H     1 <1>   0.0800 
 26 H       -1.4030     3.4590    -0.4360 H     1 <1>   0.1500 
 27 H        0.9770     2.9070    -1.2900 H     1 <1>   0.0800 
 28 H        1.2370     1.1710    -1.3130 H     1 <1>   0.0800 
 29 H        1.9080     2.1400    -0.0140 H     1 <1>   0.0800 
 30 H       -2.9350    -1.4920     1.3710 H     1 <1>   0.0800 
 31 H       -1.9060    -1.3120    -0.0520 H     1 <1>   0.0800 
 32 H       -1.3450    -4.6440    -0.2990 H     1 <1>   0.0800 
 33 H       -1.8790    -5.1610     1.2910 H     1 <1>   0.0800 
 34 H       -3.2500    -2.6140    -1.3530 H     1 <1>   0.0800 
 35 H       -4.0380    -4.3620     0.9740 H     1 <1>   0.0800 
 36 H       -4.9900    -2.2500     0.8470 H     1 <1>   0.4000 
 37 H       -3.2560    -5.0270    -1.8840 H     1 <1>   0.0800 
 38 H       -4.8840    -4.9210    -1.2970 H     1 <1>   0.0800 
 39 H       -5.8530    -6.6810     0.0410 H     1 <1>   0.1500 
 40 H       -1.6360    -8.9790    -0.4310 H     1 <1>   0.1500 
 41 H       -5.7190    -9.0480     0.7700 H     1 <1>   0.1500 
 42 H       -3.5260   -10.1990     0.5120 H     1 <1>   0.1500 
@<TRIPOS>BOND
  1   1   2  1   
  2   1   3  1   
  3   2   4  2   
  4   2   5  1   
  5   3   6  1   
  6   3  24  1   
  7   3  25  1   
  8   4   7  1   
  9   5   8  1   
 10   5   9  1   
 11   6  10  2   
 12   6  11  am  
 13   7   8  2   
 14   8  26  1   
 15   9  27  1   
 16   9  28  1   
 17   9  29  1   
 18  11  12  1   
 19  11  13  1   
 20  12  14  1   
 21  12  30  1   
 22  12  31  1   
 23  13  15  1   
 24  13  32  1   
 25  13  33  1   
 26  14  15  1   
 27  14  16  1   
 28  14  34  1   
 29  15  17  1   
 30  15  35  1   
 31  16  36  1   
 32  17  18  1   
 33  17  37  1   
 34  17  38  1   
 35  18  19  ar  
 36  18  20  ar  
 37  19  21  ar  
 38  20  22  ar  
 39  20  39  1   
 40  21  23  ar  
 41  21  40  1   
 42  22  23  ar  
 43  22  41  1   
 44  23  42  1   
@<TRIPOS>SUBSTRUCTURE
  1 ****  11 GROUP 4 **** **** 0

# MOE 2024.06 (io_trps.svl 2023.06)
