@<TRIPOS>MOLECULE
NONAME
34 34 1 0 0 
SMALL
USER_CHARGES


@<TRIPOS>ATOM
  1 F       -2.2030     1.0440     1.8040 F     1 <1>  -0.3400 
  2 C       -2.0210     0.9320     0.4930 C.3   1 <1>   1.0200 
  3 F       -2.1720    -0.3550     0.2080 F     1 <1>  -0.3400 
  4 F       -0.7410     1.2140     0.2740 F     1 <1>  -0.3400 
  5 C       -2.9870     1.8610    -0.3290 C.3   1 <1>   0.1900 
  6 N       -2.8850     1.7650    -1.8220 N.3   1 <1>  -0.9900 
  7 C       -2.8600     3.3270     0.1420 C.3   1 <1>   0.0000 
  8 C       -3.7420     4.3600    -0.5960 C.3   1 <1>   0.2250 
  9 C       -1.6230     4.1090    -0.3610 C.3   1 <1>   0.2250 
 10 N       -2.5380     5.2410    -0.7080 N.am  1 <1>  -0.5100 
 11 C       -2.4300     6.5130    -0.2390 C.2   1 <1>   0.7800 
 12 O       -1.3690     6.9720     0.1340 O.2   1 <1>  -0.5700 
 13 O       -3.5560     7.2300    -0.2000 O.3   1 <1>  -0.4300 
 14 C       -3.7060     8.5590     0.2500 C.3   1 <1>   0.2800 
 15 C       -3.3410     8.6600     1.7360 C.3   1 <1>  -0.2400 
 16 C       -2.8810     9.5120    -0.6220 C.3   1 <1>  -0.2400 
 17 C       -5.1920     8.8730     0.0740 C.3   1 <1>  -0.2400 
 18 H       -3.9780     1.5360    -0.0660 H     1 <1>   0.0800 
 19 H       -1.9310     1.9940    -2.1350 H     1 <1>   0.3600 
 20 H       -3.5260     2.4250    -2.2800 H     1 <1>   0.3600 
 21 H       -2.9800     3.4260     1.2070 H     1 <1>   0.0000 
 22 H       -4.5090     4.7890     0.0240 H     1 <1>   0.0000 
 23 H       -4.0870     4.0590    -1.5690 H     1 <1>   0.0000 
 24 H       -1.1610     3.7060    -1.2440 H     1 <1>   0.0000 
 25 H       -0.9300     4.3640     0.4200 H     1 <1>   0.0000 
 26 H       -2.2870     8.5140     1.8880 H     1 <1>   0.0800 
 27 H       -3.8860     7.9300     2.3070 H     1 <1>   0.0800 
 28 H       -3.5880     9.6370     2.1080 H     1 <1>   0.0800 
 29 H       -1.8270     9.3650    -0.4700 H     1 <1>   0.0800 
 30 H       -3.1060    10.5310    -0.3660 H     1 <1>   0.0800 
 31 H       -3.1120     9.3630    -1.6610 H     1 <1>   0.0800 
 32 H       -5.7890     8.1980     0.6600 H     1 <1>   0.0800 
 33 H       -5.4720     8.7840    -0.9600 H     1 <1>   0.0800 
 34 H       -5.4020     9.8770     0.3960 H     1 <1>   0.0800 
@<TRIPOS>BOND
  1   1   2  1   
  2   2   3  1   
  3   2   4  1   
  4   2   5  1   
  5   5   6  1   
  6   5   7  1   
  7   5  18  1   
  8   6  19  1   
  9   6  20  1   
 10   7   8  1   
 11   7   9  1   
 12   7  21  1   
 13   8  10  1   
 14   8  22  1   
 15   8  23  1   
 16   9  10  1   
 17   9  24  1   
 18   9  25  1   
 19  10  11  am  
 20  11  12  2   
 21  11  13  1   
 22  13  14  1   
 23  14  15  1   
 24  14  16  1   
 25  14  17  1   
 26  15  26  1   
 27  15  27  1   
 28  15  28  1   
 29  16  29  1   
 30  16  30  1   
 31  16  31  1   
 32  17  32  1   
 33  17  33  1   
 34  17  34  1   
@<TRIPOS>SUBSTRUCTURE
  1 ****  10 GROUP 4 **** **** 0

# MOE 2024.06 (io_trps.svl 2023.06)
