@<TRIPOS>MOLECULE
NONAME
38 40 1 0 0 
SMALL
USER_CHARGES


@<TRIPOS>ATOM
  1 O        2.2030    -0.8830    -2.9100 O.2   1 <1>  -0.5700 
  2 C        1.8930    -1.3510    -1.8250 C.2   1 <1>   0.5440 
  3 N        1.9200    -0.4820    -0.7450 N.am  1 <1>  -0.6600 
  4 C        1.5440    -2.7750    -1.7470 C.ar  1 <1>   0.3960 
  5 C        2.3910     0.9160    -0.8590 C.3   1 <1>   0.1400 
  6 C        1.6460    -0.8250     0.6710 C.3   1 <1>   0.1400 
  7 N        0.8210    -3.2580    -0.7260 N.ar  1 <1>  -0.6200 
  8 C        1.9830    -3.6150    -2.7760 C.ar  1 <1>   0.1600 
  9 C        2.7710     1.3140     0.5600 C.3   1 <1>  -0.1600 
 10 C        1.8650     0.4690     1.4490 C.3   1 <1>  -0.1600 
 11 C        0.5700    -4.5550    -0.7910 C.ar  1 <1>   0.4100 
 12 N        1.7630    -4.9200    -2.8640 N.ar  1 <1>  -0.6200 
 13 N       -0.1810    -5.0980     0.2440 N.pl3 1 <1>  -0.8380 
 14 C        1.0500    -5.3530    -1.8430 C.ar  1 <1>   0.1600 
 15 C       -1.1720    -6.1830    -0.0180 C.3   1 <1>   0.2090 
 16 C       -0.6390    -4.2850     1.4030 C.3   1 <1>   0.2090 
 17 C       -2.3860    -5.8270     0.8210 C.3   1 <1>  -0.1860 
 18 C       -1.7950    -5.0660     2.0080 C.3   1 <1>  -0.1600 
 19 C       -3.1920    -7.0630     1.1580 C.2   1 <1>   0.9060 
 20 O       -3.8070    -7.1060     2.2270 O.co2 1 <1>  -0.9000 
 21 O       -3.2170    -7.9870     0.3370 O.co2 1 <1>  -0.9000 
 22 H        1.5830     1.5270    -1.2230 H     1 <1>   0.0800 
 23 H        3.2300     0.9910    -1.5310 H     1 <1>   0.0800 
 24 H        2.3360    -1.5860     0.9940 H     1 <1>   0.0800 
 25 H        0.6350    -1.1760     0.7910 H     1 <1>   0.0800 
 26 H        2.5560    -3.1780    -3.5760 H     1 <1>   0.1500 
 27 H        2.6450     2.3690     0.7270 H     1 <1>   0.0800 
 28 H        3.8010     1.0520     0.7310 H     1 <1>   0.0800 
 29 H        2.2960     0.2850     2.4170 H     1 <1>   0.0800 
 30 H        0.9170     0.9630     1.5770 H     1 <1>   0.0800 
 31 H        0.8220    -6.4020    -1.8110 H     1 <1>   0.1500 
 32 H       -0.7600    -7.1240     0.3070 H     1 <1>   0.0800 
 33 H       -1.4410    -6.2510    -1.0580 H     1 <1>   0.0800 
 34 H       -0.9920    -3.3270     1.0600 H     1 <1>   0.0800 
 35 H        0.1600    -4.1480     2.1110 H     1 <1>   0.0800 
 36 H       -3.0180    -5.1750     0.2510 H     1 <1>   0.0800 
 37 H       -2.5210    -4.4300     2.4810 H     1 <1>   0.0800 
 38 H       -1.4150    -5.7640     2.7340 H     1 <1>   0.0800 
@<TRIPOS>BOND
  1   1   2  2   
  2   2   3  am  
  3   2   4  1   
  4   3   5  1   
  5   3   6  1   
  6   4   7  ar  
  7   4   8  ar  
  8   5   9  1   
  9   5  22  1   
 10   5  23  1   
 11   6  10  1   
 12   6  24  1   
 13   6  25  1   
 14   7  11  ar  
 15   8  12  ar  
 16   8  26  1   
 17   9  10  1   
 18   9  27  1   
 19   9  28  1   
 20  10  29  1   
 21  10  30  1   
 22  11  13  1   
 23  11  14  ar  
 24  12  14  ar  
 25  13  15  1   
 26  13  16  1   
 27  14  31  1   
 28  15  17  1   
 29  15  32  1   
 30  15  33  1   
 31  16  18  1   
 32  16  34  1   
 33  16  35  1   
 34  17  18  1   
 35  17  19  1   
 36  17  36  1   
 37  18  37  1   
 38  18  38  1   
 39  19  20  ar  
 40  19  21  ar  
@<TRIPOS>SUBSTRUCTURE
  1 ****   7 GROUP 4 **** **** 0

# MOE 2024.06 (io_trps.svl 2023.06)
