@<TRIPOS>MOLECULE
NONAME
49 51 1 0 0 
SMALL
USER_CHARGES


@<TRIPOS>ATOM
  1 O        2.2700     1.9290     1.0010 O.3   1 <1>  -0.0190 
  2 N        2.9800     0.8420     1.0030 N.2   1 <1>  -0.4100 
  3 C        1.2010     1.8130     0.2590 C.2   1 <1>  -0.0400 
  4 C        2.3480     0.0020     0.2630 C.2   1 <1>   0.1080 
  5 C        1.1860     0.5720    -0.2490 C.2   1 <1>  -0.1500 
  6 C        0.2530     2.9880     0.1100 C.3   1 <1>   0.0200 
  7 C        2.8130    -1.4120    -0.0070 C.3   1 <1>  -0.0590 
  8 C        0.9370     4.1530    -0.6330 C.3   1 <1>  -0.0800 
  9 C        0.0570     5.3810    -0.8550 C.3   1 <1>   0.2000 
 10 C        2.1720     4.6980     0.0950 C.3   1 <1>   0.3430 
 11 O       -0.6250     5.6600     0.3350 O.3   1 <1>  -0.5600 
 12 C        1.0930     6.4800    -1.0960 C.3   1 <1>   0.3430 
 13 N        2.2220     6.1680    -0.1640 N.4   1 <1>  -0.9590 
 14 C       -1.8350     6.3390     0.1790 C.3   1 <1>   0.0400 
 15 C        2.0810     6.9230     1.1060 C.3   1 <1>   0.5240 
 16 C        2.3330     8.3840     0.7900 C.2   1 <1>  -0.1810 
 17 C        3.5120     9.0130     0.5280 C.2   1 <1>  -0.3320 
 18 C        1.3310     9.3540     0.7180 C.2   1 <1>  -0.1500 
 19 N        3.2700    10.3350     0.2860 N.pl3 1 <1>   0.0480 
 20 C        4.9150     8.4180     0.5100 C.3   1 <1>  -0.0600 
 21 C        1.9240    10.5420     0.4080 C.2   1 <1>  -0.1320 
 22 C        4.2770    11.3840    -0.0080 C.3   1 <1>   0.0160 
 23 C        1.3010    11.8190     0.2330 C.1   1 <1>   0.5370 
 24 N        0.8210    12.8410     0.0770 N.1   1 <1>  -0.5570 
 25 H        0.4740     0.0940    -0.8970 H     1 <1>   0.1500 
 26 H       -0.6160     2.6720    -0.4390 H     1 <1>   0.0800 
 27 H       -0.0700     3.2940     1.0900 H     1 <1>   0.0800 
 28 H        2.0680    -2.1110     0.3250 H     1 <1>   0.0800 
 29 H        3.7300    -1.6060     0.5210 H     1 <1>   0.0800 
 30 H        2.9830    -1.5480    -1.0590 H     1 <1>   0.0800 
 31 H        1.2620     3.7920    -1.5940 H     1 <1>   0.0800 
 32 H       -0.6400     5.2550    -1.6680 H     1 <1>   0.0800 
 33 H        3.0640     4.2050    -0.2580 H     1 <1>   0.0800 
 34 H        2.0730     4.5110     1.1530 H     1 <1>   0.0800 
 35 H        0.6780     7.4590    -0.9290 H     1 <1>   0.0800 
 36 H        1.4420     6.4150    -2.1130 H     1 <1>   0.0800 
 37 H        3.1120     6.4690    -0.5780 H     1 <1>   0.4500 
 38 H       -2.2510     6.5140     1.1560 H     1 <1>   0.0800 
 39 H       -2.5150     5.7300    -0.3930 H     1 <1>   0.0800 
 40 H       -1.6640     7.2810    -0.3140 H     1 <1>   0.0800 
 41 H        1.0950     6.7900     1.5220 H     1 <1>   0.0800 
 42 H        2.8100     6.5850     1.8240 H     1 <1>   0.0800 
 43 H        0.2790     9.1900     0.8870 H     1 <1>   0.1500 
 44 H        4.9030     7.3820     0.7940 H     1 <1>   0.0800 
 45 H        5.5460     8.9440     1.2050 H     1 <1>   0.0800 
 46 H        5.3440     8.5000    -0.4730 H     1 <1>   0.0800 
 47 H        5.1700    10.9400    -0.4050 H     1 <1>   0.0800 
 48 H        4.5130    11.9120     0.8980 H     1 <1>   0.0800 
 49 H        3.8830    12.0750    -0.7310 H     1 <1>   0.0800 
@<TRIPOS>BOND
  1   1   2  1   
  2   1   3  1   
  3   2   4  2   
  4   3   5  2   
  5   3   6  1   
  6   4   5  1   
  7   4   7  1   
  8   5  25  1   
  9   6   8  1   
 10   6  26  1   
 11   6  27  1   
 12   7  28  1   
 13   7  29  1   
 14   7  30  1   
 15   8   9  1   
 16   8  10  1   
 17   8  31  1   
 18   9  11  1   
 19   9  12  1   
 20   9  32  1   
 21  10  13  1   
 22  10  33  1   
 23  10  34  1   
 24  11  14  1   
 25  12  13  1   
 26  12  35  1   
 27  12  36  1   
 28  13  15  1   
 29  13  37  1   
 30  14  38  1   
 31  14  39  1   
 32  14  40  1   
 33  15  16  1   
 34  15  41  1   
 35  15  42  1   
 36  16  17  2   
 37  16  18  1   
 38  17  19  1   
 39  17  20  1   
 40  18  21  2   
 41  18  43  1   
 42  19  21  1   
 43  19  22  1   
 44  20  44  1   
 45  20  45  1   
 46  20  46  1   
 47  21  23  1   
 48  22  47  1   
 49  22  48  1   
 50  22  49  1   
 51  23  24  3   
@<TRIPOS>SUBSTRUCTURE
  1 ****  13 GROUP 4 **** **** 0

# MOE 2024.06 (io_trps.svl 2023.06)
