@<TRIPOS>MOLECULE
NONAME
38 39 1 0 0 
SMALL
USER_CHARGES


@<TRIPOS>ATOM
  1 S        2.0840    -0.1130     1.2800 S.3   1 <1>  -0.0800 
  2 C        1.4680     0.9820     0.0510 C.2   1 <1>  -0.1400 
  3 C        1.7090    -1.5110     0.2880 C.2   1 <1>  -0.1100 
  4 C        1.0250     0.2870    -1.0150 C.2   1 <1>  -0.1500 
  5 C        1.5340     2.4710     0.3620 C.3   1 <1>   0.3800 
  6 C        1.1610    -1.1310    -0.8800 C.2   1 <1>  -0.1500 
  7 O        0.6860     3.1860    -0.5050 O.3   1 <1>  -0.5600 
  8 C        2.9730     2.9930     0.1950 C.3   1 <1>   0.2090 
  9 C       -0.6720     3.0990    -0.1930 C.3   1 <1>   0.0400 
 10 N        3.0120     4.4860     0.1340 N.pl3 1 <1>  -0.8690 
 11 C        3.9250     5.3210     0.6650 C.ar  1 <1>   0.4100 
 12 N        4.9230     4.7720     1.3290 N.ar  1 <1>  -0.6200 
 13 C        3.7970     6.7230     0.5000 C.ar  1 <1>  -0.1430 
 14 C        5.8250     5.5760     1.8410 C.ar  1 <1>   0.7710 
 15 C        4.7590     7.5100     1.0520 C.ar  1 <1>   0.2110 
 16 C        2.6010     7.2770    -0.2840 C.3   1 <1>  -0.0160 
 17 N        5.7730     6.9130     1.7240 N.ar  1 <1>  -0.1790 
 18 N        6.8240     4.9990     2.5030 N.pl3 1 <1>  -0.9000 
 19 C        2.5470     8.8060    -0.3950 C.3   1 <1>  -0.2400 
 20 H        1.9420    -2.4810     0.6900 H     1 <1>   0.1500 
 21 H        0.6040     0.7220    -1.9060 H     1 <1>   0.1500 
 22 H        1.2140     2.6510     1.3740 H     1 <1>   0.0800 
 23 H        0.8410    -1.7930    -1.6660 H     1 <1>   0.1500 
 24 H        3.3770     2.5980    -0.7210 H     1 <1>   0.0800 
 25 H        3.5780     2.6270     1.0060 H     1 <1>   0.0800 
 26 H       -1.2210     3.6620    -0.9280 H     1 <1>   0.0800 
 27 H       -0.8420     3.5170     0.7840 H     1 <1>   0.0800 
 28 H       -0.9860     2.0700    -0.2210 H     1 <1>   0.0800 
 29 H        2.2040     4.8410    -0.3940 H     1 <1>   0.4000 
 30 H        4.7580     8.5850     0.9850 H     1 <1>   0.1500 
 31 H        1.6920     6.9410     0.1870 H     1 <1>   0.0800 
 32 H        2.6180     6.8660    -1.2800 H     1 <1>   0.0800 
 33 H        6.5220     7.4440     2.1570 H     1 <1>   0.4570 
 34 H        7.6220     5.4280     2.9730 H     1 <1>   0.4000 
 35 H        6.8150     3.9750     2.5580 H     1 <1>   0.4000 
 36 H        2.4760     9.2610     0.5770 H     1 <1>   0.0800 
 37 H        1.6740     9.0930    -0.9570 H     1 <1>   0.0800 
 38 H        3.4100     9.1860    -0.9130 H     1 <1>   0.0800 
@<TRIPOS>BOND
  1   1   2  1   
  2   1   3  1   
  3   2   4  2   
  4   2   5  1   
  5   3   6  2   
  6   3  20  1   
  7   4   6  1   
  8   4  21  1   
  9   5   7  1   
 10   5   8  1   
 11   5  22  1   
 12   6  23  1   
 13   7   9  1   
 14   8  10  1   
 15   8  24  1   
 16   8  25  1   
 17   9  26  1   
 18   9  27  1   
 19   9  28  1   
 20  10  11  1   
 21  10  29  1   
 22  11  12  ar  
 23  11  13  ar  
 24  12  14  ar  
 25  13  15  ar  
 26  13  16  1   
 27  14  17  ar  
 28  14  18  1   
 29  15  17  ar  
 30  15  30  1   
 31  16  19  1   
 32  16  31  1   
 33  16  32  1   
 34  17  33  1   
 35  18  34  1   
 36  18  35  1   
 37  19  36  1   
 38  19  37  1   
 39  19  38  1   
@<TRIPOS>SUBSTRUCTURE
  1 ****  10 GROUP 4 **** **** 0

# MOE 2024.06 (io_trps.svl 2023.06)
