@<TRIPOS>MOLECULE
NONAME
49 52 1 0 0 
SMALL
USER_CHARGES


@<TRIPOS>ATOM
  1 O        0.1010    -0.0760    -0.7620 O.2   1 <1>  -0.5700 
  2 C        0.0980    -1.0520    -0.0400 C.2   1 <1>   0.5440 
  3 N       -0.7900    -1.0290     0.9770 N.am  1 <1>  -0.8000 
  4 C        1.0100    -2.1560    -0.2500 C.ar  1 <1>   0.0860 
  5 C        0.7270    -3.4850     0.1440 C.ar  1 <1>   0.4100 
  6 C        2.2420    -1.9140    -0.8460 C.ar  1 <1>  -0.1500 
  7 N        1.6010    -4.4850     0.0260 N.ar  1 <1>  -0.6200 
  8 N       -0.5060    -3.8590     0.6620 N.pl3 1 <1>  -0.8380 
  9 C        3.1260    -2.9570    -0.9880 C.ar  1 <1>  -0.1500 
 10 C        2.7600    -4.2080    -0.5310 C.ar  1 <1>   0.1600 
 11 C       -1.6930    -3.8560    -0.2390 C.3   1 <1>   0.2090 
 12 C       -0.5950    -4.8170     1.8040 C.3   1 <1>   0.2090 
 13 C       -1.9680    -5.2670    -0.7530 C.3   1 <1>  -0.1600 
 14 C       -0.9040    -6.2320     1.3090 C.3   1 <1>  -0.1600 
 15 C       -2.1400    -6.2720     0.3990 C.3   1 <1>   0.4240 
 16 O       -3.1830    -5.7840     1.2190 O.3   1 <1>  -0.5600 
 17 C       -2.4380    -7.7160    -0.1030 C.ar  1 <1>  -0.1440 
 18 C       -4.4890    -6.0890     0.8570 C.3   1 <1>   0.1200 
 19 C       -1.5260    -8.4390    -0.8840 C.ar  1 <1>   0.0830 
 20 C       -3.6480    -8.3290     0.2240 C.ar  1 <1>  -0.1440 
 21 C       -4.6880    -7.5860     1.0360 C.3   1 <1>  -0.0170 
 22 O       -0.3540    -7.8530    -1.2390 O.3   1 <1>  -0.3620 
 23 C       -1.8250    -9.7370    -1.2950 C.ar  1 <1>  -0.1500 
 24 C       -3.9330    -9.6200    -0.1870 C.ar  1 <1>  -0.1500 
 25 C        0.7090    -8.5590    -1.8370 C.3   1 <1>   0.0400 
 26 C       -3.0210   -10.3260    -0.9450 C.ar  1 <1>  -0.1500 
 27 H       -1.4610    -0.2660     1.0510 H     1 <1>   0.3700 
 28 H       -1.0000    -1.9100     1.4610 H     1 <1>   0.3700 
 29 H        2.4960    -0.9230    -1.1830 H     1 <1>   0.1500 
 30 H        4.0890    -2.8060    -1.4420 H     1 <1>   0.1500 
 31 H        3.4580    -5.0220    -0.6330 H     1 <1>   0.1500 
 32 H       -1.5180    -3.2000    -1.0750 H     1 <1>   0.0800 
 33 H       -2.5470    -3.4880     0.3030 H     1 <1>   0.0800 
 34 H       -1.3710    -4.4910     2.4750 H     1 <1>   0.0800 
 35 H        0.3350    -4.8220     2.3480 H     1 <1>   0.0800 
 36 H       -1.1370    -5.5500    -1.3700 H     1 <1>   0.0800 
 37 H       -2.8380    -5.2720    -1.3800 H     1 <1>   0.0800 
 38 H       -1.0610    -6.8850     2.1460 H     1 <1>   0.0800 
 39 H       -0.0370    -6.5860     0.7900 H     1 <1>   0.0800 
 40 H       -4.6580    -5.7910    -0.1630 H     1 <1>   0.0800 
 41 H       -5.1500    -5.5400     1.5040 H     1 <1>   0.0800 
 42 H       -5.6770    -7.8520     0.7110 H     1 <1>   0.0800 
 43 H       -4.5900    -7.8420     2.0760 H     1 <1>   0.0800 
 44 H       -1.1400   -10.3060    -1.8930 H     1 <1>   0.1500 
 45 H       -4.8670   -10.0820     0.0800 H     1 <1>   0.1500 
 46 H        1.5450    -7.8880    -1.9220 H     1 <1>   0.0800 
 47 H        0.4030    -8.8870    -2.8150 H     1 <1>   0.0800 
 48 H        0.9700    -9.3930    -1.2110 H     1 <1>   0.0800 
 49 H       -3.2450   -11.3290    -1.2630 H     1 <1>   0.1500 
@<TRIPOS>BOND
  1   1   2  2   
  2   2   3  am  
  3   2   4  1   
  4   3  27  1   
  5   3  28  1   
  6   4   5  ar  
  7   4   6  ar  
  8   5   7  ar  
  9   5   8  1   
 10   6   9  ar  
 11   6  29  1   
 12   7  10  ar  
 13   8  11  1   
 14   8  12  1   
 15   9  10  ar  
 16   9  30  1   
 17  10  31  1   
 18  11  13  1   
 19  11  32  1   
 20  11  33  1   
 21  12  14  1   
 22  12  34  1   
 23  12  35  1   
 24  13  15  1   
 25  13  36  1   
 26  13  37  1   
 27  14  15  1   
 28  14  38  1   
 29  14  39  1   
 30  15  16  1   
 31  15  17  1   
 32  16  18  1   
 33  17  19  ar  
 34  17  20  ar  
 35  18  21  1   
 36  18  40  1   
 37  18  41  1   
 38  19  22  1   
 39  19  23  ar  
 40  20  21  1   
 41  20  24  ar  
 42  21  42  1   
 43  21  43  1   
 44  22  25  1   
 45  23  26  ar  
 46  23  44  1   
 47  24  26  ar  
 48  24  45  1   
 49  25  46  1   
 50  25  47  1   
 51  25  48  1   
 52  26  49  1   
@<TRIPOS>SUBSTRUCTURE
  1 ****  13 GROUP 4 **** **** 0

# MOE 2024.06 (io_trps.svl 2023.06)
