@<TRIPOS>MOLECULE
NONAME
56 58 1 0 0 
SMALL
USER_CHARGES


@<TRIPOS>ATOM
  1 O       -0.7170    -2.1120     2.2970 O.2   1 <1>  -0.5700 
  2 C        0.2020    -2.6080     1.6910 C.2   1 <1>   0.5690 
  3 N        0.1120    -3.0220     0.3910 N.am  1 <1>  -0.6600 
  4 C        1.5320    -2.7900     2.3940 C.3   1 <1>  -0.0990 
  5 C        1.2810    -3.6400    -0.2830 C.3   1 <1>   0.1400 
  6 C       -1.1500    -2.9380    -0.3920 C.3   1 <1>   0.0600 
  7 C        2.6850    -2.3350     1.4830 C.3   1 <1>  -0.0800 
  8 C        2.5590    -2.8360     0.0240 C.3   1 <1>  -0.0800 
  9 C        4.0640    -2.7850     1.9860 C.3   1 <1>  -0.1600 
 10 C        3.8440    -3.6260    -0.2610 C.3   1 <1>  -0.1600 
 11 C        4.8640    -3.0450     0.7160 C.3   1 <1>   0.2200 
 12 N        6.0610    -3.9070     0.9640 N.am  1 <1>  -0.6600 
 13 C        7.3480    -3.4200     1.0220 C.2   1 <1>   0.5690 
 14 C        5.8310    -5.3720     1.1670 C.3   1 <1>   0.0600 
 15 O        8.3020    -4.1540     1.1280 O.2   1 <1>  -0.5700 
 16 C        7.6490    -1.9330     0.9510 C.3   1 <1>  -0.0990 
 17 C        7.8270    -1.4700    -0.5000 C.3   1 <1>  -0.0170 
 18 C        7.9960     0.0390    -0.5560 C.ar  1 <1>  -0.1440 
 19 C        9.2410     0.6090    -0.3510 C.ar  1 <1>  -0.1500 
 20 C        6.9060     0.8570    -0.8060 C.ar  1 <1>  -0.1500 
 21 C        9.4050     1.9930    -0.3940 C.ar  1 <1>   0.0820 
 22 C        7.0610     2.2310    -0.8520 C.ar  1 <1>  -0.1500 
 23 O       10.6060     2.5990    -0.1980 O.3   1 <1>  -0.3630 
 24 C        8.3040     2.8070    -0.6470 C.ar  1 <1>  -0.1440 
 25 C       11.7770     1.8580     0.0600 C.3   1 <1>   0.0400 
 26 C        8.4560     4.3200    -0.7010 C.3   1 <1>  -0.0970 
 27 H        1.5360    -2.2250     3.3080 H     1 <1>   0.0800 
 28 H        1.6300    -3.8310     2.6410 H     1 <1>   0.0800 
 29 H        1.3790    -4.6500     0.0780 H     1 <1>   0.0800 
 30 H        1.1220    -3.6760    -1.3470 H     1 <1>   0.0800 
 31 H       -0.9980    -2.3250    -1.2630 H     1 <1>   0.0800 
 32 H       -1.9350    -2.5020     0.2030 H     1 <1>   0.0800 
 33 H       -1.4570    -3.9230    -0.6960 H     1 <1>   0.0800 
 34 H        2.6690    -1.2580     1.4530 H     1 <1>   0.0800 
 35 H        2.5550    -1.9690    -0.6150 H     1 <1>   0.0800 
 36 H        3.9730    -3.6920     2.5550 H     1 <1>   0.0800 
 37 H        4.5270    -2.0290     2.5950 H     1 <1>   0.0800 
 38 H        4.1650    -3.5070    -1.2810 H     1 <1>   0.0800 
 39 H        3.6670    -4.6650    -0.0590 H     1 <1>   0.0800 
 40 H        5.1660    -2.0940     0.3160 H     1 <1>   0.0800 
 41 H        4.9400    -5.5420     1.7440 H     1 <1>   0.0800 
 42 H        6.6570    -5.8180     1.6940 H     1 <1>   0.0800 
 43 H        5.7360    -5.8580     0.2120 H     1 <1>   0.0800 
 44 H        6.8790    -1.3690     1.4400 H     1 <1>   0.0800 
 45 H        8.5610    -1.7470     1.4890 H     1 <1>   0.0800 
 46 H        6.9770    -1.7620    -1.0900 H     1 <1>   0.0800 
 47 H        8.6920    -1.9510    -0.9240 H     1 <1>   0.0800 
 48 H       10.0740    -0.0380    -0.1570 H     1 <1>   0.1500 
 49 H        5.9320     0.4310    -0.9680 H     1 <1>   0.1500 
 50 H        6.2050     2.8510    -1.0480 H     1 <1>   0.1500 
 51 H       12.5910     2.5500     0.1780 H     1 <1>   0.0800 
 52 H       11.9680     1.2060    -0.7740 H     1 <1>   0.0800 
 53 H       11.6410     1.2960     0.9670 H     1 <1>   0.0800 
 54 H        7.5170     4.8010    -0.9040 H     1 <1>   0.0800 
 55 H        9.1530     4.5870    -1.4750 H     1 <1>   0.0800 
 56 H        8.8320     4.6810     0.2390 H     1 <1>   0.0800 
@<TRIPOS>BOND
  1   1   2  2   
  2   2   3  am  
  3   2   4  1   
  4   3   5  1   
  5   3   6  1   
  6   4   7  1   
  7   4  27  1   
  8   4  28  1   
  9   5   8  1   
 10   5  29  1   
 11   5  30  1   
 12   6  31  1   
 13   6  32  1   
 14   6  33  1   
 15   7   8  1   
 16   7   9  1   
 17   7  34  1   
 18   8  10  1   
 19   8  35  1   
 20   9  11  1   
 21   9  36  1   
 22   9  37  1   
 23  10  11  1   
 24  10  38  1   
 25  10  39  1   
 26  11  12  1   
 27  11  40  1   
 28  12  13  am  
 29  12  14  1   
 30  13  15  2   
 31  13  16  1   
 32  14  41  1   
 33  14  42  1   
 34  14  43  1   
 35  16  17  1   
 36  16  44  1   
 37  16  45  1   
 38  17  18  1   
 39  17  46  1   
 40  17  47  1   
 41  18  19  ar  
 42  18  20  ar  
 43  19  21  ar  
 44  19  48  1   
 45  20  22  ar  
 46  20  49  1   
 47  21  23  1   
 48  21  24  ar  
 49  22  24  ar  
 50  22  50  1   
 51  23  25  1   
 52  24  26  1   
 53  25  51  1   
 54  25  52  1   
 55  25  53  1   
 56  26  54  1   
 57  26  55  1   
 58  26  56  1   
@<TRIPOS>SUBSTRUCTURE
  1 ****  11 GROUP 4 **** **** 0

# MOE 2024.06 (io_trps.svl 2023.06)
