@<TRIPOS>MOLECULE
NONAME
50 52 1 0 0 
SMALL
USER_CHARGES


@<TRIPOS>ATOM
  1 O       -0.5850     0.3020     1.0290 O.2   1 <1>  -0.5700 
  2 C       -1.4350     0.7920     0.3250 C.2   1 <1>   0.5690 
  3 N       -2.3800     0.0260    -0.2970 N.am  1 <1>  -0.6600 
  4 C       -1.4520     2.3010     0.1330 C.3   1 <1>  -0.0990 
  5 C       -3.5140     0.5130    -1.1210 C.3   1 <1>   0.1400 
  6 C       -2.4380    -1.4490    -0.1500 C.3   1 <1>   0.1400 
  7 C       -0.2000     3.0040     0.6840 C.3   1 <1>  -0.0220 
  8 C       -4.3020    -0.7420    -1.5010 C.3   1 <1>   0.2000 
  9 C       -3.8760    -1.8240    -0.5090 C.3   1 <1>  -0.0800 
 10 C       -0.2690     4.5130     0.4330 C.2   1 <1>  -0.1240 
 11 O       -5.6690    -0.5280    -1.4100 O.3   1 <1>  -0.6800 
 12 C       -4.0340    -3.2430    -1.0800 C.3   1 <1>  -0.0170 
 13 C       -0.8680     5.3600     1.3190 C.2   1 <1>  -0.0290 
 14 C        0.2960     5.0780    -0.7560 C.2   1 <1>   0.3750 
 15 C       -3.6170    -4.3040    -0.0750 C.ar  1 <1>   0.1670 
 16 N       -0.8700     6.6860     1.0040 N.am  1 <1>  -0.5390 
 17 C       -1.5480     5.0090     2.6330 C.3   1 <1>  -0.1020 
 18 N        0.2720     6.3320    -1.0310 N.2   1 <1>  -0.6610 
 19 C        0.9800     4.1970    -1.7870 C.3   1 <1>  -0.1790 
 20 N       -2.3240    -4.5810    -0.0160 N.ar  1 <1>  -0.6200 
 21 C       -4.5790    -4.9170     0.7150 C.ar  1 <1>  -0.1500 
 22 C       -0.3200     7.1750    -0.1380 C.2   1 <1>   0.8410 
 23 C       -1.9740    -5.5020     0.8680 C.ar  1 <1>   0.1600 
 24 C       -4.2000    -5.8750     1.6310 C.ar  1 <1>  -0.1500 
 25 O       -0.3690     8.3710    -0.3430 O.2   1 <1>  -0.5700 
 26 C       -2.8560    -6.1680     1.7020 C.ar  1 <1>  -0.1500 
 27 H       -1.5380     2.5110    -0.9160 H     1 <1>   0.0800 
 28 H       -2.3230     2.6910     0.6250 H     1 <1>   0.0800 
 29 H       -4.1190     1.1860    -0.5390 H     1 <1>   0.0800 
 30 H       -3.1490     1.0070    -2.0040 H     1 <1>   0.0800 
 31 H       -1.7390    -1.8980    -0.8370 H     1 <1>   0.0800 
 32 H       -2.1880    -1.7530     0.8530 H     1 <1>   0.0800 
 33 H        0.6810     2.5760     0.2400 H     1 <1>   0.0800 
 34 H       -0.1120     2.8070     1.7370 H     1 <1>   0.0800 
 35 H       -4.0690    -1.0240    -2.5140 H     1 <1>   0.0800 
 36 H       -4.4580    -1.7370     0.3920 H     1 <1>   0.0800 
 37 H       -5.9210    -0.3310    -0.4870 H     1 <1>   0.4000 
 38 H       -3.4360    -3.3520    -1.9690 H     1 <1>   0.0800 
 39 H       -5.0600    -3.4000    -1.3610 H     1 <1>   0.0800 
 40 H       -1.2790     7.4030     1.5990 H     1 <1>   0.3700 
 41 H       -2.5260     5.4560     2.6680 H     1 <1>   0.0800 
 42 H       -0.9680     5.3900     3.4540 H     1 <1>   0.0800 
 43 H       -1.6690     3.9510     2.7660 H     1 <1>   0.0800 
 44 H        0.3270     3.4090    -2.1070 H     1 <1>   0.0800 
 45 H        1.8790     3.7780    -1.3740 H     1 <1>   0.0800 
 46 H        1.2500     4.7770    -2.6520 H     1 <1>   0.0800 
 47 H       -5.6150    -4.6480     0.6180 H     1 <1>   0.1500 
 48 H       -0.9250    -5.7380     0.9320 H     1 <1>   0.1500 
 49 H       -4.9200    -6.3700     2.2600 H     1 <1>   0.1500 
 50 H       -2.4910    -6.9050     2.3940 H     1 <1>   0.1500 
@<TRIPOS>BOND
  1   1   2  2   
  2   2   3  am  
  3   2   4  1   
  4   3   5  1   
  5   3   6  1   
  6   4   7  1   
  7   4  27  1   
  8   4  28  1   
  9   5   8  1   
 10   5  29  1   
 11   5  30  1   
 12   6   9  1   
 13   6  31  1   
 14   6  32  1   
 15   7  10  1   
 16   7  33  1   
 17   7  34  1   
 18   8   9  1   
 19   8  11  1   
 20   8  35  1   
 21   9  12  1   
 22   9  36  1   
 23  10  13  2   
 24  10  14  1   
 25  11  37  1   
 26  12  15  1   
 27  12  38  1   
 28  12  39  1   
 29  13  16  1   
 30  13  17  1   
 31  14  18  2   
 32  14  19  1   
 33  15  20  ar  
 34  15  21  ar  
 35  16  22  am  
 36  16  40  1   
 37  17  41  1   
 38  17  42  1   
 39  17  43  1   
 40  18  22  1   
 41  19  44  1   
 42  19  45  1   
 43  19  46  1   
 44  20  23  ar  
 45  21  24  ar  
 46  21  47  1   
 47  22  25  2   
 48  23  26  ar  
 49  23  48  1   
 50  24  26  ar  
 51  24  49  1   
 52  26  50  1   
@<TRIPOS>SUBSTRUCTURE
  1 ****   2 GROUP 4 **** **** 0

# MOE 2024.06 (io_trps.svl 2023.06)
