@<TRIPOS>MOLECULE
NONAME
45 46 1 0 0 
SMALL
USER_CHARGES


@<TRIPOS>ATOM
  1 S        0.2180     0.1700     0.3600 S.o2  1 <1>   1.3330 
  2 O        0.3420    -1.2030     0.7990 O.2   1 <1>  -0.6500 
  3 O       -0.1210     1.1960     1.3200 O.2   1 <1>  -0.6500 
  4 N       -0.9310     0.2080    -0.8900 N.am  1 <1>  -0.8490 
  5 C        1.7330     0.6530    -0.4650 C.3   1 <1>  -0.0550 
  6 C       -0.9490    -1.0100    -1.7060 C.3   1 <1>   0.1160 
  7 C       -2.2790     0.5030    -0.3980 C.3   1 <1>   0.1160 
  8 C        2.9220     0.8290     0.4950 C.3   1 <1>  -0.0800 
  9 C        4.2050     1.1990    -0.2420 C.3   1 <1>   0.2200 
 10 C        3.3120    -0.4270     1.2700 C.3   1 <1>   0.1200 
 11 N        4.5150     2.6260    -0.0130 N.am  1 <1>  -0.7300 
 12 C        5.2650     0.2780     0.3660 C.3   1 <1>   0.1200 
 13 O        4.6780    -0.2980     1.4880 O.3   1 <1>  -0.5600 
 14 C        4.1240     3.6370    -0.8440 C.2   1 <1>   0.5440 
 15 O        3.5050     3.3440    -1.8480 O.2   1 <1>  -0.5700 
 16 C        4.4200     5.0120    -0.5290 C.ar  1 <1>   0.0860 
 17 C        4.1430     5.5770     0.7150 C.ar  1 <1>   0.1900 
 18 C        5.0070     5.8850    -1.4460 C.ar  1 <1>   0.1900 
 19 F        3.6050     4.8370     1.6460 F     1 <1>  -0.1900 
 20 C        4.4090     6.8950     1.0320 C.ar  1 <1>  -0.1500 
 21 F        5.3370     5.4440    -2.6290 F     1 <1>  -0.1900 
 22 C        5.2870     7.2110    -1.1730 C.ar  1 <1>  -0.1500 
 23 C        4.9840     7.7260     0.0840 C.ar  1 <1>   0.0820 
 24 O        5.2180     9.0050     0.4490 O.3   1 <1>  -0.3620 
 25 C        5.7800     9.9430    -0.4420 C.3   1 <1>   0.0400 
 26 H        1.9800    -0.0790    -1.2080 H     1 <1>   0.0800 
 27 H        1.5670     1.5860    -0.9700 H     1 <1>   0.0800 
 28 H       -1.6290    -0.8900    -2.5330 H     1 <1>   0.0800 
 29 H       -1.2620    -1.8560    -1.1150 H     1 <1>   0.0800 
 30 H        0.0320    -1.2080    -2.1010 H     1 <1>   0.0800 
 31 H       -2.9770     0.5370    -1.2170 H     1 <1>   0.0800 
 32 H       -2.2910     1.4620     0.0920 H     1 <1>   0.0800 
 33 H       -2.5930    -0.2490     0.3070 H     1 <1>   0.0800 
 34 H        2.6760     1.5890     1.2180 H     1 <1>   0.0800 
 35 H        4.1350     1.0060    -1.3000 H     1 <1>   0.0800 
 36 H        3.1490    -1.3230     0.6940 H     1 <1>   0.0800 
 37 H        2.8060    -0.5030     2.2180 H     1 <1>   0.0800 
 38 H        4.8270     2.8480     0.9360 H     1 <1>   0.3700 
 39 H        6.1560     0.8030     0.6620 H     1 <1>   0.0800 
 40 H        5.5130    -0.5150    -0.3170 H     1 <1>   0.0800 
 41 H        4.1730     7.2820     2.0080 H     1 <1>   0.1500 
 42 H        5.7370     7.8120    -1.9400 H     1 <1>   0.1500 
 43 H        5.8600    10.8850     0.0710 H     1 <1>   0.0800 
 44 H        5.1340    10.0470    -1.2960 H     1 <1>   0.0800 
 45 H        6.7580     9.6050    -0.7370 H     1 <1>   0.0800 
@<TRIPOS>BOND
  1   1   2  2   
  2   1   3  2   
  3   1   4  am  
  4   1   5  1   
  5   4   6  1   
  6   4   7  1   
  7   5   8  1   
  8   5  26  1   
  9   5  27  1   
 10   6  28  1   
 11   6  29  1   
 12   6  30  1   
 13   7  31  1   
 14   7  32  1   
 15   7  33  1   
 16   8   9  1   
 17   8  10  1   
 18   8  34  1   
 19   9  11  1   
 20   9  12  1   
 21   9  35  1   
 22  10  13  1   
 23  10  36  1   
 24  10  37  1   
 25  11  14  am  
 26  11  38  1   
 27  12  13  1   
 28  12  39  1   
 29  12  40  1   
 30  14  15  2   
 31  14  16  1   
 32  16  17  ar  
 33  16  18  ar  
 34  17  19  1   
 35  17  20  ar  
 36  18  21  1   
 37  18  22  ar  
 38  20  23  ar  
 39  20  41  1   
 40  22  23  ar  
 41  22  42  1   
 42  23  24  1   
 43  24  25  1   
 44  25  43  1   
 45  25  44  1   
 46  25  45  1   
@<TRIPOS>SUBSTRUCTURE
  1 ****  14 GROUP 4 **** **** 0

# MOE 2024.06 (io_trps.svl 2023.06)
