@<TRIPOS>MOLECULE
NONAME
36 38 1 0 0 
SMALL
USER_CHARGES


@<TRIPOS>ATOM
  1 O       -0.3050     0.6870     1.1660 O.2   1 <1>  -0.5700 
  2 C        0.6440    -0.0410     0.9620 C.2   1 <1>   0.5690 
  3 N        1.8660     0.4350     0.5930 N.am  1 <1>  -0.4930 
  4 C        0.4530    -1.5660     1.0930 C.3   1 <1>   0.3410 
  5 C        2.2980     1.7690     0.3720 C.2   1 <1>   0.0630 
  6 O        1.7090    -2.2070     0.8790 O.3   1 <1>  -0.2170 
  7 C       -0.4100    -2.1150    -0.0500 C.3   1 <1>  -0.0990 
  8 C       -0.0540    -1.9890     2.4800 C.3   1 <1>  -0.2400 
  9 C        3.4900     2.1300    -0.1620 C.2   1 <1>  -0.0680 
 10 C        1.6460     2.9740     0.6480 C.2   1 <1>   0.1390 
 11 N        1.7720    -2.8040    -0.2960 N.2   1 <1>  -0.5130 
 12 C        0.6520    -2.7950    -0.8550 C.2   1 <1>   0.3280 
 13 N        3.5030     3.4880    -0.1630 N.pl3 1 <1>   0.3140 
 14 N        4.5600     1.3390    -0.6470 N.pl3 1 <1>  -0.8530 
 15 N        2.3570     4.0170     0.3270 N.2   1 <1>  -0.7070 
 16 C        0.3160    -3.3870    -2.2040 C.3   1 <1>  -0.1790 
 17 C        4.6100     4.2870    -0.7110 C.3   1 <1>   0.0960 
 18 C        5.5900     2.0480    -1.4520 C.3   1 <1>   0.2090 
 19 C        5.8820     3.4260    -0.8370 C.3   1 <1>  -0.1600 
 20 H        2.5920    -0.2740     0.4510 H     1 <1>   0.3700 
 21 H       -0.8940    -1.3310    -0.6040 H     1 <1>   0.0800 
 22 H       -1.1380    -2.8250     0.2960 H     1 <1>   0.0800 
 23 H        0.6110    -1.6210     3.2400 H     1 <1>   0.0800 
 24 H       -0.1140    -3.0610     2.5490 H     1 <1>   0.0800 
 25 H       -1.0300    -1.5730     2.6550 H     1 <1>   0.0800 
 26 H        0.6620     3.0350     1.0790 H     1 <1>   0.1500 
 27 H        4.2540     0.4660    -1.0970 H     1 <1>   0.4000 
 28 H       -0.4390    -4.1430    -2.0950 H     1 <1>   0.0800 
 29 H        1.1950    -3.8320    -2.6340 H     1 <1>   0.0800 
 30 H       -0.0420    -2.6180    -2.8640 H     1 <1>   0.0800 
 31 H        4.7810     5.1280    -0.0640 H     1 <1>   0.0800 
 32 H        4.3050     4.6460    -1.6760 H     1 <1>   0.0800 
 33 H        5.2340     2.1610    -2.4620 H     1 <1>   0.0800 
 34 H        6.4910     1.4590    -1.4690 H     1 <1>   0.0800 
 35 H        6.3100     3.2830     0.1400 H     1 <1>   0.0800 
 36 H        6.6080     3.9440    -1.4370 H     1 <1>   0.0800 
@<TRIPOS>BOND
  1   1   2  2   
  2   2   3  am  
  3   2   4  1   
  4   3   5  1   
  5   3  20  1   
  6   4   6  1   
  7   4   7  1   
  8   4   8  1   
  9   5   9  2   
 10   5  10  1   
 11   6  11  1   
 12   7  12  1   
 13   7  21  1   
 14   7  22  1   
 15   8  23  1   
 16   8  24  1   
 17   8  25  1   
 18   9  13  1   
 19   9  14  1   
 20  10  15  2   
 21  10  26  1   
 22  11  12  2   
 23  12  16  1   
 24  13  15  1   
 25  13  17  1   
 26  14  18  1   
 27  14  27  1   
 28  16  28  1   
 29  16  29  1   
 30  16  30  1   
 31  17  19  1   
 32  17  31  1   
 33  17  32  1   
 34  18  19  1   
 35  18  33  1   
 36  18  34  1   
 37  19  35  1   
 38  19  36  1   
@<TRIPOS>SUBSTRUCTURE
  1 ****   3 GROUP 4 **** **** 0

# MOE 2024.06 (io_trps.svl 2023.06)
