@<TRIPOS>MOLECULE
NONAME
60 63 1 0 0 
SMALL
USER_CHARGES


@<TRIPOS>ATOM
  1 O        0.8720     2.8190     2.3620 O.2   1 <1>  -0.5700 
  2 C        0.4590     2.7840     1.2210 C.2   1 <1>   0.5690 
  3 N       -0.8300     2.3410     0.9920 N.am  1 <1>  -0.6600 
  4 C        1.4070     3.2360     0.0630 C.3   1 <1>   0.2040 
  5 C       -1.2900     1.6970    -0.2780 C.3   1 <1>   0.1400 
  6 C       -1.8430     2.4010     2.0760 C.3   1 <1>   0.1400 
  7 C        1.6720     2.0290    -0.8730 C.ar  1 <1>  -0.1440 
  8 C        2.8060     3.6970     0.5700 C.3   1 <1>  -0.1600 
  9 C        0.7820     4.4600    -0.6710 C.3   1 <1>  -0.1600 
 10 C       -2.8180     1.5720    -0.3490 C.3   1 <1>  -0.1600 
 11 C       -3.0920     3.1570     1.5970 C.3   1 <1>  -0.1600 
 12 C        1.5340     2.0740    -2.2590 C.ar  1 <1>  -0.1500 
 13 C        2.0660     0.8250    -0.2990 C.ar  1 <1>  -0.1500 
 14 C        2.8100     5.0040     1.3900 C.3   1 <1>  -0.1600 
 15 C        0.6900     5.7090     0.2160 C.3   1 <1>  -0.1600 
 16 C       -3.5110     2.8590     0.1350 C.3   1 <1>   0.2800 
 17 C        1.7770     0.9550    -3.0360 C.ar  1 <1>  -0.1500 
 18 C        2.3080    -0.2960    -1.0730 C.ar  1 <1>  -0.1500 
 19 C        2.0890     6.1430     0.6630 C.3   1 <1>  -0.1600 
 20 O       -3.0240     3.9380    -0.6300 O.3   1 <1>  -0.5600 
 21 C       -5.0540     2.7610    -0.0080 C.3   1 <1>  -0.1600 
 22 C        2.1630    -0.2330    -2.4450 C.ar  1 <1>  -0.1500 
 23 C       -3.5930     4.1570    -1.8870 C.3   1 <1>   0.1200 
 24 C       -5.6910     4.0880    -0.4260 C.3   1 <1>   0.2800 
 25 C       -5.0690     4.5620    -1.7450 C.3   1 <1>  -0.1600 
 26 O       -5.3760     5.0200     0.5260 O.3   1 <1>  -0.6800 
 27 C       -7.2140     4.0200    -0.4910 C.3   1 <1>  -0.2400 
 28 H       -0.8430     0.7210    -0.3610 H     1 <1>   0.0800 
 29 H       -0.9670     2.2780    -1.1190 H     1 <1>   0.0800 
 30 H       -1.4450     2.8920     2.9480 H     1 <1>   0.0800 
 31 H       -2.1040     1.3960     2.3570 H     1 <1>   0.0800 
 32 H        3.4450     3.8380    -0.2840 H     1 <1>   0.0800 
 33 H        3.2470     2.9190     1.1680 H     1 <1>   0.0800 
 34 H       -0.2030     4.2290    -1.0290 H     1 <1>   0.0800 
 35 H        1.3880     4.7190    -1.5190 H     1 <1>   0.0800 
 36 H       -3.1320     0.7460     0.2620 H     1 <1>   0.0800 
 37 H       -3.1050     1.3370    -1.3570 H     1 <1>   0.0800 
 38 H       -2.9190     4.2120     1.7150 H     1 <1>   0.0800 
 39 H       -3.8830     2.9010     2.2760 H     1 <1>   0.0800 
 40 H        1.2350     2.9710    -2.7670 H     1 <1>   0.1500 
 41 H        2.1860     0.7490     0.7690 H     1 <1>   0.1500 
 42 H        3.8260     5.2950     1.5930 H     1 <1>   0.0800 
 43 H        2.3320     4.8400     2.3400 H     1 <1>   0.0800 
 44 H        0.0750     5.5080     1.0770 H     1 <1>   0.0800 
 45 H        0.2270     6.5090    -0.3370 H     1 <1>   0.0800 
 46 H        1.6670     1.0090    -4.1050 H     1 <1>   0.1500 
 47 H        2.6100    -1.2160    -0.6040 H     1 <1>   0.1500 
 48 H        2.6650     6.4370    -0.1970 H     1 <1>   0.0800 
 49 H        2.0120     6.9950     1.3170 H     1 <1>   0.0800 
 50 H       -5.5090     2.4000     0.8960 H     1 <1>   0.0800 
 51 H       -5.2920     2.0340    -0.7630 H     1 <1>   0.0800 
 52 H        2.3520    -1.1030    -3.0490 H     1 <1>   0.1500 
 53 H       -3.4940     3.2580    -2.4690 H     1 <1>   0.0800 
 54 H       -3.0340     4.9400    -2.3700 H     1 <1>   0.0800 
 55 H       -5.6020     4.1260    -2.5710 H     1 <1>   0.0800 
 56 H       -5.1730     5.6280    -1.8390 H     1 <1>   0.0800 
 57 H       -4.3990     5.1120     0.5120 H     1 <1>   0.4000 
 58 H       -7.5250     3.2920    -1.2160 H     1 <1>   0.0800 
 59 H       -7.6150     4.9770    -0.7720 H     1 <1>   0.0800 
 60 H       -7.6140     3.7400     0.4670 H     1 <1>   0.0800 
@<TRIPOS>BOND
  1   1   2  2   
  2   2   3  am  
  3   2   4  1   
  4   3   5  1   
  5   3   6  1   
  6   4   7  1   
  7   4   8  1   
  8   4   9  1   
  9   5  10  1   
 10   5  28  1   
 11   5  29  1   
 12   6  11  1   
 13   6  30  1   
 14   6  31  1   
 15   7  12  ar  
 16   7  13  ar  
 17   8  14  1   
 18   8  32  1   
 19   8  33  1   
 20   9  15  1   
 21   9  34  1   
 22   9  35  1   
 23  10  16  1   
 24  10  36  1   
 25  10  37  1   
 26  11  16  1   
 27  11  38  1   
 28  11  39  1   
 29  12  17  ar  
 30  12  40  1   
 31  13  18  ar  
 32  13  41  1   
 33  14  19  1   
 34  14  42  1   
 35  14  43  1   
 36  15  19  1   
 37  15  44  1   
 38  15  45  1   
 39  16  20  1   
 40  16  21  1   
 41  17  22  ar  
 42  17  46  1   
 43  18  22  ar  
 44  18  47  1   
 45  19  48  1   
 46  19  49  1   
 47  20  23  1   
 48  21  24  1   
 49  21  50  1   
 50  21  51  1   
 51  22  52  1   
 52  23  25  1   
 53  23  53  1   
 54  23  54  1   
 55  24  25  1   
 56  24  26  1   
 57  24  27  1   
 58  25  55  1   
 59  25  56  1   
 60  26  57  1   
 61  27  58  1   
 62  27  59  1   
 63  27  60  1   
@<TRIPOS>SUBSTRUCTURE
  1 ****   3 GROUP 4 **** **** 0

# MOE 2024.06 (io_trps.svl 2023.06)
