@<TRIPOS>MOLECULE
NONAME
53 55 1 0 0 
SMALL
USER_CHARGES


@<TRIPOS>ATOM
  1 O        5.4940    -2.9630    -0.8330 O.2   1 <1>  -0.5700 
  2 C        4.7250    -2.8310     0.1010 C.2   1 <1>   0.5440 
  3 N        5.1390    -2.0260     1.1450 N.am  1 <1>  -0.6600 
  4 C        3.4260    -3.4620     0.0690 C.ar  1 <1>   0.0860 
  5 C        6.5980    -1.8430     1.4050 C.3   1 <1>   0.1400 
  6 C        4.2090    -1.1230     1.8720 C.3   1 <1>   0.1400 
  7 C        2.7340    -3.5980    -1.1320 C.ar  1 <1>   0.1600 
  8 C        2.7980    -3.9570     1.2090 C.ar  1 <1>  -0.1500 
  9 C        7.2360    -0.8970     0.3700 C.3   1 <1>   0.3430 
 10 C        4.6060     0.3480     1.6980 C.3   1 <1>  -0.1600 
 11 N        1.5300    -4.1170    -1.2820 N.ar  1 <1>  -0.6200 
 12 C        1.5480    -4.5090     1.0700 C.ar  1 <1>  -0.1500 
 13 N        6.7440     0.5250     0.4370 N.4   1 <1>  -0.9590 
 14 C        5.2550     0.6620     0.3460 C.3   1 <1>   0.3430 
 15 C        0.9390    -4.5760    -0.1820 C.ar  1 <1>   0.4100 
 16 C        7.4370     1.3350    -0.6090 C.3   1 <1>   0.4860 
 17 N       -0.3170    -5.1310    -0.3190 N.pl3 1 <1>  -0.8380 
 18 C        7.0610     2.8170    -0.5330 C.ar  1 <1>  -0.1430 
 19 C       -0.6140    -6.4700     0.2540 C.3   1 <1>   0.1290 
 20 C       -1.1890    -4.7330    -1.4570 C.3   1 <1>   0.1290 
 21 C        7.2770     3.5810     0.6190 C.ar  1 <1>   0.0730 
 22 C        6.5040     3.4110    -1.6570 C.ar  1 <1>  -0.1500 
 23 C        7.8090     2.9730     1.8020 C.1   1 <1>   0.4840 
 24 C        6.9370     4.9290     0.6110 C.ar  1 <1>  -0.1500 
 25 C        6.1660     4.7520    -1.6470 C.ar  1 <1>  -0.1500 
 26 N        8.1240     2.2580     2.6320 N.1   1 <1>  -0.5570 
 27 C        6.3840     5.5120    -0.5140 C.ar  1 <1>  -0.1500 
 28 H        7.0780    -2.8040     1.3260 H     1 <1>   0.0800 
 29 H        6.7620    -1.4800     2.4040 H     1 <1>   0.0800 
 30 H        4.1950    -1.3830     2.9180 H     1 <1>   0.0800 
 31 H        3.2100    -1.2550     1.4900 H     1 <1>   0.0800 
 32 H        3.2160    -3.2470    -2.0290 H     1 <1>   0.1500 
 33 H        3.2790    -3.9090     2.1690 H     1 <1>   0.1500 
 34 H        7.0500    -1.2990    -0.6130 H     1 <1>   0.0800 
 35 H        8.3020    -0.9060     0.5250 H     1 <1>   0.0800 
 36 H        5.2450     0.6580     2.5060 H     1 <1>   0.0800 
 37 H        3.7060     0.9300     1.7830 H     1 <1>   0.0800 
 38 H        1.0180    -4.8920     1.9200 H     1 <1>   0.1500 
 39 H        7.0350     0.8960     1.3570 H     1 <1>   0.4500 
 40 H        5.0030     1.6780     0.0850 H     1 <1>   0.0800 
 41 H        4.8610     0.0140    -0.4210 H     1 <1>   0.0800 
 42 H        7.1810     0.9540    -1.5840 H     1 <1>   0.0800 
 43 H        8.5050     1.2410    -0.4900 H     1 <1>   0.0800 
 44 H        0.2350    -6.8510     0.7930 H     1 <1>   0.0800 
 45 H       -0.8510    -7.1620    -0.5370 H     1 <1>   0.0800 
 46 H       -1.4530    -6.3990     0.9230 H     1 <1>   0.0800 
 47 H       -1.0320    -3.6950    -1.6970 H     1 <1>   0.0800 
 48 H       -2.2230    -4.8720    -1.1970 H     1 <1>   0.0800 
 49 H       -0.9520    -5.3280    -2.3220 H     1 <1>   0.0800 
 50 H        6.3300     2.8450    -2.5580 H     1 <1>   0.1500 
 51 H        7.1000     5.5330     1.4890 H     1 <1>   0.1500 
 52 H        5.7360     5.2100    -2.5230 H     1 <1>   0.1500 
 53 H        6.1240     6.5580    -0.5100 H     1 <1>   0.1500 
@<TRIPOS>BOND
  1   1   2  2   
  2   2   3  am  
  3   2   4  1   
  4   3   5  1   
  5   3   6  1   
  6   4   7  ar  
  7   4   8  ar  
  8   5   9  1   
  9   5  28  1   
 10   5  29  1   
 11   6  10  1   
 12   6  30  1   
 13   6  31  1   
 14   7  11  ar  
 15   7  32  1   
 16   8  12  ar  
 17   8  33  1   
 18   9  13  1   
 19   9  34  1   
 20   9  35  1   
 21  10  14  1   
 22  10  36  1   
 23  10  37  1   
 24  11  15  ar  
 25  12  15  ar  
 26  12  38  1   
 27  13  14  1   
 28  13  16  1   
 29  13  39  1   
 30  14  40  1   
 31  14  41  1   
 32  15  17  1   
 33  16  18  1   
 34  16  42  1   
 35  16  43  1   
 36  17  19  1   
 37  17  20  1   
 38  18  21  ar  
 39  18  22  ar  
 40  19  44  1   
 41  19  45  1   
 42  19  46  1   
 43  20  47  1   
 44  20  48  1   
 45  20  49  1   
 46  21  23  1   
 47  21  24  ar  
 48  22  25  ar  
 49  22  50  1   
 50  23  26  3   
 51  24  27  ar  
 52  24  51  1   
 53  25  27  ar  
 54  25  52  1   
 55  27  53  1   
@<TRIPOS>SUBSTRUCTURE
  1 ****  14 GROUP 4 **** **** 0

# MOE 2024.06 (io_trps.svl 2023.06)
