@<TRIPOS>MOLECULE
NONAME
59 62 1 0 0 
SMALL
USER_CHARGES


@<TRIPOS>ATOM
  1 O        4.9510     2.7440     1.2130 O.co2 1 <1>  -0.9000 
  2 C        4.6400     1.6280     0.7830 C.2   1 <1>   0.9060 
  3 O        5.1630     0.6170     1.2880 O.co2 1 <1>  -0.9000 
  4 C        3.5950     1.4630    -0.3490 C.3   1 <1>  -0.1060 
  5 C        3.7550     0.0510    -0.9660 C.3   1 <1>   0.4230 
  6 C        3.7760     2.5160    -1.4970 C.3   1 <1>  -0.1600 
  7 C        2.1740     1.6180     0.2440 C.3   1 <1>  -0.1600 
  8 N        3.4520    -1.0050     0.0660 N.4   1 <1>  -0.9590 
  9 C        5.1580    -0.1200    -1.6400 C.3   1 <1>   0.2090 
 10 C        4.7230     2.0810    -2.6390 C.3   1 <1>   0.2090 
 11 C        1.8580     0.4920     1.2380 C.3   1 <1>  -0.1600 
 12 C        2.0770    -0.8910     0.6240 C.3   1 <1>   0.3430 
 13 C        3.7630    -2.4060    -0.3330 C.3   1 <1>   0.2630 
 14 N        5.7740     1.1900    -2.0690 N.pl3 1 <1>  -0.8380 
 15 C        6.8230     1.7600    -1.3930 C.ar  1 <1>   0.4100 
 16 N        6.9570     3.0700    -1.4630 N.ar  1 <1>  -0.6200 
 17 C        7.5800     1.0240    -0.4600 C.ar  1 <1>  -0.1500 
 18 C        7.2750     3.6700    -0.3230 C.ar  1 <1>   0.7710 
 19 C        7.9830     1.6580     0.6670 C.ar  1 <1>   0.2180 
 20 N        7.7300     2.9840     0.7380 N.ar  1 <1>  -0.1790 
 21 N        7.1370     5.0150    -0.2230 N.pl3 1 <1>  -0.8380 
 22 C        8.6430     0.9620     1.8460 C.3   1 <1>  -0.0170 
 23 C        6.8200     5.7340     1.0380 C.3   1 <1>   0.2090 
 24 C        6.7870     5.8580    -1.3940 C.3   1 <1>   0.2090 
 25 C       10.0640     1.4800     2.1080 C.3   1 <1>  -0.2400 
 26 C        6.0780     6.9910     0.6030 C.3   1 <1>  -0.1600 
 27 C        6.5530     7.2480    -0.8210 C.3   1 <1>  -0.1600 
 28 H        3.0230    -0.0350    -1.7500 H     1 <1>   0.0800 
 29 H        4.1450     3.4360    -1.0780 H     1 <1>   0.0800 
 30 H        2.8300     2.7550    -1.9470 H     1 <1>   0.0800 
 31 H        2.0990     2.5690     0.7460 H     1 <1>   0.0800 
 32 H        1.4380     1.6020    -0.5420 H     1 <1>   0.0800 
 33 H        4.1080    -0.7090     0.8380 H     1 <1>   0.4500 
 34 H        5.0560    -0.7470    -2.5080 H     1 <1>   0.0800 
 35 H        5.8000    -0.6250    -0.9460 H     1 <1>   0.0800 
 36 H        5.1550     2.9410    -3.1240 H     1 <1>   0.0800 
 37 H        4.1740     1.5400    -3.3910 H     1 <1>   0.0800 
 38 H        0.8350     0.5770     1.5590 H     1 <1>   0.0800 
 39 H        2.4740     0.5910     2.1170 H     1 <1>   0.0800 
 40 H        1.3540    -1.0530    -0.1580 H     1 <1>   0.0800 
 41 H        1.9290    -1.6390     1.3860 H     1 <1>   0.0800 
 42 H        3.1560    -2.7000    -1.1730 H     1 <1>   0.0800 
 43 H        3.5680    -3.0750     0.4880 H     1 <1>   0.0800 
 44 H        4.8020    -2.4990    -0.6020 H     1 <1>   0.0800 
 45 H        7.7580    -0.0190    -0.6190 H     1 <1>   0.1500 
 46 H        7.7410     3.4880     1.6100 H     1 <1>   0.4570 
 47 H        8.0310     1.1020     2.7210 H     1 <1>   0.0800 
 48 H        8.6840    -0.0960     1.6550 H     1 <1>   0.0800 
 49 H        6.1980     5.1350     1.6860 H     1 <1>   0.0800 
 50 H        7.7340     6.0030     1.5400 H     1 <1>   0.0800 
 51 H        7.5790     5.8540    -2.1240 H     1 <1>   0.0800 
 52 H        5.8810     5.4850    -1.8430 H     1 <1>   0.0800 
 53 H       10.0560     2.5240     2.3670 H     1 <1>   0.0800 
 54 H       10.6790     1.3430     1.2360 H     1 <1>   0.0800 
 55 H       10.5060     0.9340     2.9230 H     1 <1>   0.0800 
 56 H        5.0210     6.7840     0.6040 H     1 <1>   0.0800 
 57 H        6.2720     7.8210     1.2590 H     1 <1>   0.0800 
 58 H        7.4860     7.7840    -0.8090 H     1 <1>   0.0800 
 59 H        5.8370     7.8020    -1.4010 H     1 <1>   0.0800 
@<TRIPOS>BOND
  1   1   2  ar  
  2   2   3  ar  
  3   2   4  1   
  4   4   5  1   
  5   4   6  1   
  6   4   7  1   
  7   5   8  1   
  8   5   9  1   
  9   5  28  1   
 10   6  10  1   
 11   6  29  1   
 12   6  30  1   
 13   7  11  1   
 14   7  31  1   
 15   7  32  1   
 16   8  12  1   
 17   8  13  1   
 18   8  33  1   
 19   9  14  1   
 20   9  34  1   
 21   9  35  1   
 22  10  14  1   
 23  10  36  1   
 24  10  37  1   
 25  11  12  1   
 26  11  38  1   
 27  11  39  1   
 28  12  40  1   
 29  12  41  1   
 30  13  42  1   
 31  13  43  1   
 32  13  44  1   
 33  14  15  1   
 34  15  16  ar  
 35  15  17  ar  
 36  16  18  ar  
 37  17  19  ar  
 38  17  45  1   
 39  18  20  ar  
 40  18  21  1   
 41  19  20  ar  
 42  19  22  1   
 43  20  46  1   
 44  21  23  1   
 45  21  24  1   
 46  22  25  1   
 47  22  47  1   
 48  22  48  1   
 49  23  26  1   
 50  23  49  1   
 51  23  50  1   
 52  24  27  1   
 53  24  51  1   
 54  24  52  1   
 55  25  53  1   
 56  25  54  1   
 57  25  55  1   
 58  26  27  1   
 59  26  56  1   
 60  26  57  1   
 61  27  58  1   
 62  27  59  1   
@<TRIPOS>SUBSTRUCTURE
  1 ****   2 GROUP 4 **** **** 0

# MOE 2024.06 (io_trps.svl 2023.06)
