@<TRIPOS>MOLECULE
NONAME
58 61 1 0 0 
SMALL
USER_CHARGES


@<TRIPOS>ATOM
  1 S       -0.0220     0.3860     1.1270 S.o2  1 <1>   1.4470 
  2 O       -1.2760     1.0380     1.4390 O.2   1 <1>  -0.6500 
  3 O        0.9090     0.1350     2.2070 O.2   1 <1>  -0.6500 
  4 N       -0.3150    -1.1120     0.3850 N.am  1 <1>  -0.8490 
  5 C        0.8100     1.3700    -0.1560 C.ar  1 <1>  -0.0090 
  6 C       -0.6830    -2.2350     1.2200 C.3   1 <1>   0.2760 
  7 C       -1.3460    -1.2540    -0.6000 C.3   1 <1>   0.2760 
  8 C        0.8360     2.7580    -0.0680 C.ar  1 <1>  -0.1500 
  9 C        1.4490     0.7850    -1.2440 C.ar  1 <1>  -0.1500 
 10 C       -0.5320    -3.4030     0.2020 C.3   1 <1>   0.0610 
 11 C       -2.1640    -1.9200     1.5300 C.3   1 <1>  -0.1600 
 12 C       -1.0230    -2.6730    -1.0890 C.3   1 <1>  -0.1600 
 13 C       -2.6460    -1.3110     0.2120 C.3   1 <1>  -0.1600 
 14 C        1.4650     3.5360    -1.0250 C.ar  1 <1>  -0.1500 
 15 C        2.0810     1.5510    -2.2070 C.ar  1 <1>  -0.1500 
 16 C       -1.3610    -4.6350     0.6290 C.2   1 <1>   0.5690 
 17 C        0.9390    -3.9160     0.1360 C.3   1 <1>  -0.0160 
 18 C        2.0950     2.9310    -2.1070 C.ar  1 <1>   0.0820 
 19 O       -1.4410    -4.8530     1.8180 O.2   1 <1>  -0.5700 
 20 N       -1.9440    -5.5120    -0.2660 N.am  1 <1>  -0.6600 
 21 C        2.0390    -2.9880    -0.3730 C.ar  1 <1>  -0.1440 
 22 O        2.7330     3.6110    -3.0900 O.3   1 <1>  -0.3630 
 23 C       -2.9260    -6.5250     0.2150 C.3   1 <1>   0.0600 
 24 C       -1.5450    -5.7230    -1.6870 C.3   1 <1>   0.0600 
 25 C        2.4420    -3.0310    -1.7000 C.ar  1 <1>  -0.1500 
 26 C        2.6850    -2.1250     0.4990 C.ar  1 <1>  -0.1500 
 27 C        2.8080     5.0190    -3.0780 C.3   1 <1>   0.0400 
 28 C        3.4700    -2.2200    -2.1490 C.ar  1 <1>  -0.1500 
 29 C        3.7140    -1.3130     0.0530 C.ar  1 <1>  -0.1500 
 30 C        4.1080    -1.3600    -1.2720 C.ar  1 <1>  -0.1500 
 31 H       -0.0680    -2.3450     2.0990 H     1 <1>   0.0800 
 32 H       -1.3260    -0.5050    -1.3740 H     1 <1>   0.0800 
 33 H        0.3510     3.2350     0.7670 H     1 <1>   0.1500 
 34 H        1.4590    -0.2870    -1.3420 H     1 <1>   0.1500 
 35 H       -2.7500    -2.7710     1.8200 H     1 <1>   0.0800 
 36 H       -2.2240    -1.2020     2.3290 H     1 <1>   0.0800 
 37 H       -1.9000    -3.1110    -1.5260 H     1 <1>   0.0800 
 38 H       -0.2550    -2.6240    -1.8380 H     1 <1>   0.0800 
 39 H       -3.0580    -0.3290     0.3600 H     1 <1>   0.0800 
 40 H       -3.3910    -1.9220    -0.2660 H     1 <1>   0.0800 
 41 H        1.4540     4.6030    -0.9110 H     1 <1>   0.1500 
 42 H        2.5720     1.0790    -3.0390 H     1 <1>   0.1500 
 43 H        1.2180    -4.2360     1.1260 H     1 <1>   0.0800 
 44 H        0.9670    -4.8040    -0.4670 H     1 <1>   0.0800 
 45 H       -3.7340    -6.6190    -0.4890 H     1 <1>   0.0800 
 46 H       -3.3380    -6.2330     1.1670 H     1 <1>   0.0800 
 47 H       -2.4390    -7.4770     0.3290 H     1 <1>   0.0800 
 48 H       -2.3510    -5.4290    -2.3370 H     1 <1>   0.0800 
 49 H       -1.3280    -6.7650    -1.8510 H     1 <1>   0.0800 
 50 H       -0.6680    -5.1580    -1.9400 H     1 <1>   0.0800 
 51 H        1.9620    -3.7000    -2.3910 H     1 <1>   0.1500 
 52 H        2.3900    -2.0750     1.5330 H     1 <1>   0.1500 
 53 H        3.3580     5.3310    -3.9480 H     1 <1>   0.0800 
 54 H        3.3230     5.3340    -2.1880 H     1 <1>   0.0800 
 55 H        1.8120     5.4220    -3.1120 H     1 <1>   0.0800 
 56 H        3.7770    -2.2580    -3.1800 H     1 <1>   0.1500 
 57 H        4.2010    -0.6440     0.7400 H     1 <1>   0.1500 
 58 H        4.9070    -0.7280    -1.6170 H     1 <1>   0.1500 
@<TRIPOS>BOND
  1   1   2  2   
  2   1   3  2   
  3   1   4  am  
  4   1   5  1   
  5   4   6  1   
  6   4   7  1   
  7   5   8  ar  
  8   5   9  ar  
  9   6  10  1   
 10   6  11  1   
 11   6  31  1   
 12   7  12  1   
 13   7  13  1   
 14   7  32  1   
 15   8  14  ar  
 16   8  33  1   
 17   9  15  ar  
 18   9  34  1   
 19  10  12  1   
 20  10  16  1   
 21  10  17  1   
 22  11  13  1   
 23  11  35  1   
 24  11  36  1   
 25  12  37  1   
 26  12  38  1   
 27  13  39  1   
 28  13  40  1   
 29  14  18  ar  
 30  14  41  1   
 31  15  18  ar  
 32  15  42  1   
 33  16  19  2   
 34  16  20  am  
 35  17  21  1   
 36  17  43  1   
 37  17  44  1   
 38  18  22  1   
 39  20  23  1   
 40  20  24  1   
 41  21  25  ar  
 42  21  26  ar  
 43  22  27  1   
 44  23  45  1   
 45  23  46  1   
 46  23  47  1   
 47  24  48  1   
 48  24  49  1   
 49  24  50  1   
 50  25  28  ar  
 51  25  51  1   
 52  26  29  ar  
 53  26  52  1   
 54  27  53  1   
 55  27  54  1   
 56  27  55  1   
 57  28  30  ar  
 58  28  56  1   
 59  29  30  ar  
 60  29  57  1   
 61  30  58  1   
@<TRIPOS>SUBSTRUCTURE
  1 ****   4 GROUP 4 **** **** 0

# MOE 2024.06 (io_trps.svl 2023.06)
