@<TRIPOS>MOLECULE
NONAME
43 44 1 0 0 
SMALL
USER_CHARGES


@<TRIPOS>ATOM
  1 F       -0.4540     0.2740    -0.2890 F     1 <1>  -0.1900 
  2 C       -1.7120     0.6320    -0.2460 C.ar  1 <1>   0.1900 
  3 C       -2.1000     1.9510     0.0110 C.ar  1 <1>   0.0830 
  4 C       -2.6420    -0.3640    -0.4700 C.ar  1 <1>  -0.1500 
  5 O       -1.2820     3.0170     0.2470 O.3   1 <1>  -0.3630 
  6 C       -3.4580     2.2280     0.0330 C.ar  1 <1>  -0.1500 
  7 C       -3.9890    -0.0520    -0.4430 C.ar  1 <1>  -0.1500 
  8 C        0.1230     2.9100     0.3120 C.3   1 <1>   0.0400 
  9 C       -4.4300     1.2490    -0.1880 C.ar  1 <1>   0.0530 
 10 C       -5.8340     1.5890    -0.1580 C.2   1 <1>   0.0870 
 11 O       -6.2170     2.8210    -0.3780 O.3   1 <1>  -0.0190 
 12 C       -6.9640     0.8630     0.0560 C.2   1 <1>  -0.0860 
 13 N       -7.5130     2.9740    -0.3220 N.2   1 <1>  -0.4100 
 14 C       -7.9900     1.8090    -0.0500 C.2   1 <1>   0.3720 
 15 C       -7.1220    -0.5280     0.3420 C.2   1 <1>   0.7160 
 16 N       -9.3610     1.5500     0.1200 N.pl3 1 <1>  -0.8210 
 17 O       -6.6030    -0.9820     1.3470 O.2   1 <1>  -0.5700 
 18 N       -7.8140    -1.3820    -0.4970 N.am  1 <1>  -0.6600 
 19 C      -10.2880     2.5660    -0.4530 C.3   1 <1>   0.1290 
 20 C       -9.7490     1.1560     1.5020 C.3   1 <1>   0.1290 
 21 C       -8.0850    -2.7940    -0.1210 C.3   1 <1>   0.1400 
 22 C       -8.4400    -0.9280    -1.7720 C.3   1 <1>   0.0600 
 23 C       -9.4640    -2.8910     0.5260 C.3   1 <1>  -0.2400 
 24 H       -2.3140    -1.3690    -0.6640 H     1 <1>   0.1500 
 25 H       -3.7630     3.2400     0.2320 H     1 <1>   0.1500 
 26 H       -4.7010    -0.8370    -0.6230 H     1 <1>   0.1500 
 27 H        0.5220     3.8820     0.5350 H     1 <1>   0.0800 
 28 H        0.4930     2.5750    -0.6410 H     1 <1>   0.0800 
 29 H        0.3860     2.2190     1.0930 H     1 <1>   0.0800 
 30 H       -9.9980     2.7950    -1.4640 H     1 <1>   0.0800 
 31 H      -10.2540     3.4700     0.1310 H     1 <1>   0.0800 
 32 H      -11.2930     2.1830    -0.4610 H     1 <1>   0.0800 
 33 H       -9.0460     0.4510     1.9100 H     1 <1>   0.0800 
 34 H      -10.7220     0.6980     1.4900 H     1 <1>   0.0800 
 35 H       -9.7730     2.0250     2.1390 H     1 <1>   0.0800 
 36 H       -7.3370    -3.1450     0.5700 H     1 <1>   0.0800 
 37 H       -8.0400    -3.4180    -0.9970 H     1 <1>   0.0800 
 38 H       -7.9300    -0.0670    -2.1650 H     1 <1>   0.0800 
 39 H       -9.4690    -0.6670    -1.5940 H     1 <1>   0.0800 
 40 H       -8.3960    -1.7120    -2.5070 H     1 <1>   0.0800 
 41 H       -9.5000    -2.2760     1.4070 H     1 <1>   0.0800 
 42 H       -9.6570    -3.9080     0.8130 H     1 <1>   0.0800 
 43 H      -10.2290    -2.5780    -0.1610 H     1 <1>   0.0800 
@<TRIPOS>BOND
  1   1   2  1   
  2   2   3  ar  
  3   2   4  ar  
  4   3   5  1   
  5   3   6  ar  
  6   4   7  ar  
  7   4  24  1   
  8   5   8  1   
  9   6   9  ar  
 10   6  25  1   
 11   7   9  ar  
 12   7  26  1   
 13   8  27  1   
 14   8  28  1   
 15   8  29  1   
 16   9  10  1   
 17  10  11  1   
 18  10  12  2   
 19  11  13  1   
 20  12  14  1   
 21  12  15  1   
 22  13  14  2   
 23  14  16  1   
 24  15  17  2   
 25  15  18  am  
 26  16  19  1   
 27  16  20  1   
 28  18  21  1   
 29  18  22  1   
 30  19  30  1   
 31  19  31  1   
 32  19  32  1   
 33  20  33  1   
 34  20  34  1   
 35  20  35  1   
 36  21  23  1   
 37  21  36  1   
 38  21  37  1   
 39  22  38  1   
 40  22  39  1   
 41  22  40  1   
 42  23  41  1   
 43  23  42  1   
 44  23  43  1   
@<TRIPOS>SUBSTRUCTURE
  1 ****  10 GROUP 4 **** **** 0

# MOE 2024.06 (io_trps.svl 2023.06)
