@<TRIPOS>MOLECULE
NONAME
58 60 1 0 0 
SMALL
USER_CHARGES


@<TRIPOS>ATOM
  1 O       -0.4240    -0.5420     0.6860 O.3   1 <1>  -0.3630 
  2 C       -0.4110    -1.8890     0.5520 C.ar  1 <1>   0.0830 
  3 C        0.3170     0.2920    -0.1810 C.3   1 <1>   0.1200 
  4 C       -1.0920    -2.6130     1.5140 C.ar  1 <1>  -0.1500 
  5 C        0.2360    -2.5630    -0.4800 C.ar  1 <1>  -0.1500 
  6 C        0.0940     1.7440     0.2380 C.3   1 <1>   0.1200 
  7 C       -1.1620    -3.9910     1.4370 C.ar  1 <1>  -0.1500 
  8 C        0.1670    -3.9440    -0.5560 C.ar  1 <1>  -0.1500 
  9 O        0.8130     2.5770    -0.6060 O.3   1 <1>  -0.6800 
 10 C       -0.5570    -4.6660     0.3860 C.ar  1 <1>  -0.1430 
 11 C       -0.6920    -6.1740     0.2760 C.3   1 <1>   0.4860 
 12 N       -1.4520    -6.5700    -0.9610 N.4   1 <1>  -0.9590 
 13 C       -2.8920    -6.1670    -1.0930 C.3   1 <1>   0.4230 
 14 C       -1.3240    -8.0450    -1.1620 C.3   1 <1>   0.2630 
 15 C       -3.0610    -4.7860    -1.7250 C.3   1 <1>  -0.1600 
 16 C       -3.7190    -6.1520     0.1970 C.3   1 <1>  -0.1600 
 17 C       -4.4150    -4.2600    -1.2330 C.3   1 <1>  -0.0800 
 18 C       -4.8380    -5.1250    -0.0430 C.3   1 <1>  -0.0800 
 19 C       -4.3920    -2.8120    -0.7160 C.3   1 <1>  -0.1600 
 20 C       -5.0920    -4.1440     1.1160 C.3   1 <1>  -0.1600 
 21 C       -5.3610    -2.7790     0.4690 C.3   1 <1>   0.4230 
 22 N       -6.7810    -2.6690     0.0000 N.4   1 <1>  -0.9590 
 23 C       -7.0410    -1.3900    -0.7400 C.3   1 <1>   0.2630 
 24 C       -7.7700    -2.7630     1.1230 C.3   1 <1>   0.2630 
 25 H        1.3560     0.0270    -0.0950 H     1 <1>   0.0800 
 26 H       -0.0380     0.1400    -1.1850 H     1 <1>   0.0800 
 27 H       -1.5580    -2.0840     2.3270 H     1 <1>   0.1500 
 28 H        0.7940    -2.0300    -1.2270 H     1 <1>   0.1500 
 29 H        0.4250     1.9130     1.2480 H     1 <1>   0.0800 
 30 H       -0.9460     2.0030     0.1440 H     1 <1>   0.0800 
 31 H       -1.6890    -4.5220     2.2100 H     1 <1>   0.1500 
 32 H        0.6820    -4.4410    -1.3600 H     1 <1>   0.1500 
 33 H        1.7700     2.5350    -0.4100 H     1 <1>   0.4000 
 34 H       -1.1830    -6.5620     1.1530 H     1 <1>   0.0800 
 35 H        0.2980    -6.5990     0.2420 H     1 <1>   0.0800 
 36 H       -0.9660    -6.1030    -1.7370 H     1 <1>   0.4500 
 37 H       -3.3790    -6.8570    -1.7640 H     1 <1>   0.0800 
 38 H       -1.8240    -8.5770    -0.3680 H     1 <1>   0.0800 
 39 H       -0.2850    -8.3360    -1.1710 H     1 <1>   0.0800 
 40 H       -1.7660    -8.3360    -2.1020 H     1 <1>   0.0800 
 41 H       -2.2830    -4.1150    -1.4300 H     1 <1>   0.0800 
 42 H       -3.0560    -4.8600    -2.7990 H     1 <1>   0.0800 
 43 H       -4.1370    -7.1250     0.3890 H     1 <1>   0.0800 
 44 H       -3.1390    -5.8590     1.0460 H     1 <1>   0.0800 
 45 H       -5.1500    -4.3580    -2.0170 H     1 <1>   0.0800 
 46 H       -5.7530    -5.6380    -0.2950 H     1 <1>   0.0800 
 47 H       -4.5980    -2.0970    -1.4900 H     1 <1>   0.0800 
 48 H       -3.4160    -2.5800    -0.3250 H     1 <1>   0.0800 
 49 H       -4.1970    -4.0330     1.7020 H     1 <1>   0.0800 
 50 H       -5.8630    -4.4870     1.7800 H     1 <1>   0.0800 
 51 H       -5.1280    -1.9700     1.1440 H     1 <1>   0.0800 
 52 H       -6.9460    -3.4550    -0.6440 H     1 <1>   0.4500 
 53 H       -6.7980    -0.5420    -0.1190 H     1 <1>   0.0800 
 54 H       -8.0800    -1.3260    -1.0180 H     1 <1>   0.0800 
 55 H       -6.4510    -1.3400    -1.6390 H     1 <1>   0.0800 
 56 H       -7.5740    -2.0010     1.8600 H     1 <1>   0.0800 
 57 H       -7.7180    -3.7270     1.6010 H     1 <1>   0.0800 
 58 H       -8.7720    -2.6300     0.7500 H     1 <1>   0.0800 
@<TRIPOS>BOND
  1   1   2  1   
  2   1   3  1   
  3   2   4  ar  
  4   2   5  ar  
  5   3   6  1   
  6   3  25  1   
  7   3  26  1   
  8   4   7  ar  
  9   4  27  1   
 10   5   8  ar  
 11   5  28  1   
 12   6   9  1   
 13   6  29  1   
 14   6  30  1   
 15   7  10  ar  
 16   7  31  1   
 17   8  10  ar  
 18   8  32  1   
 19   9  33  1   
 20  10  11  1   
 21  11  12  1   
 22  11  34  1   
 23  11  35  1   
 24  12  13  1   
 25  12  14  1   
 26  12  36  1   
 27  13  15  1   
 28  13  16  1   
 29  13  37  1   
 30  14  38  1   
 31  14  39  1   
 32  14  40  1   
 33  15  17  1   
 34  15  41  1   
 35  15  42  1   
 36  16  18  1   
 37  16  43  1   
 38  16  44  1   
 39  17  18  1   
 40  17  19  1   
 41  17  45  1   
 42  18  20  1   
 43  18  46  1   
 44  19  21  1   
 45  19  47  1   
 46  19  48  1   
 47  20  21  1   
 48  20  49  1   
 49  20  50  1   
 50  21  22  1   
 51  21  51  1   
 52  22  23  1   
 53  22  24  1   
 54  22  52  1   
 55  23  53  1   
 56  23  54  1   
 57  23  55  1   
 58  24  56  1   
 59  24  57  1   
 60  24  58  1   
@<TRIPOS>SUBSTRUCTURE
  1 ****  19 GROUP 4 **** **** 0

# MOE 2024.06 (io_trps.svl 2023.06)
