@<TRIPOS>MOLECULE
NONAME
46 48 1 0 0 
SMALL
USER_CHARGES


@<TRIPOS>ATOM
  1 O       -1.8220     0.3280     3.0110 O.2   1 <1>  -0.5700 
  2 C       -2.1110     0.9160     1.9860 C.2   1 <1>   0.5440 
  3 N       -3.0350     0.3470     1.1420 N.am  1 <1>  -0.6600 
  4 C       -1.5240     2.2050     1.7160 C.ar  1 <1>   0.0860 
  5 C       -3.5590     0.9500    -0.1110 C.3   1 <1>   0.1400 
  6 C       -3.4910    -1.0600     1.2720 C.3   1 <1>   0.1400 
  7 C       -0.6430     2.4060     0.6460 C.ar  1 <1>   0.3920 
  8 C       -1.8110     3.2950     2.5250 C.ar  1 <1>  -0.1500 
  9 C       -4.5930    -0.0560    -0.6200 C.3   1 <1>   0.2000 
 10 C       -4.1000    -1.4050    -0.0920 C.3   1 <1>  -0.0800 
 11 O       -0.3360     1.3430    -0.1270 O.3   1 <1>  -0.3630 
 12 N       -0.0840     3.5760     0.3310 N.ar  1 <1>  -0.6200 
 13 C       -1.2310     4.5050     2.2150 C.ar  1 <1>  -0.1500 
 14 O       -5.8090     0.2290    -0.0190 O.3   1 <1>  -0.6800 
 15 C       -3.0450    -2.0100    -1.0390 C.3   1 <1>   0.0210 
 16 C        0.6120     1.4230    -1.1680 C.3   1 <1>   0.1200 
 17 C       -0.3890     4.5900     1.1210 C.ar  1 <1>   0.1600 
 18 C       -2.5660    -3.3620    -0.5490 C.2   1 <1>   0.1080 
 19 C        0.7060     0.0500    -1.8280 C.3   1 <1>  -0.2400 
 20 N       -3.2890    -4.4360    -0.6310 N.2   1 <1>  -0.7070 
 21 C       -1.3270    -3.6040     0.0340 C.2   1 <1>  -0.1500 
 22 N       -2.5200    -5.4030    -0.0960 N.pl3 1 <1>   0.3000 
 23 C       -1.3270    -4.9240     0.3150 C.2   1 <1>  -0.3320 
 24 C       -0.2450    -5.7670     0.9640 C.3   1 <1>  -0.0600 
 25 H       -3.9940     1.9190     0.0630 H     1 <1>   0.0800 
 26 H       -2.7600     1.0370    -0.8260 H     1 <1>   0.0800 
 27 H       -2.6730    -1.7060     1.5420 H     1 <1>   0.0800 
 28 H       -4.2400    -1.1130     2.0420 H     1 <1>   0.0800 
 29 H       -2.4680     3.1830     3.3700 H     1 <1>   0.1500 
 30 H       -4.7280    -0.0250    -1.6880 H     1 <1>   0.0800 
 31 H       -4.9100    -2.1080     0.0080 H     1 <1>   0.0800 
 32 H       -1.4260     5.3760     2.8150 H     1 <1>   0.1500 
 33 H       -5.6790     0.2730     0.9490 H     1 <1>   0.4000 
 34 H       -2.2000    -1.3530    -1.1310 H     1 <1>   0.0800 
 35 H       -3.4740    -2.1440    -2.0160 H     1 <1>   0.0800 
 36 H        0.2860     2.1690    -1.8730 H     1 <1>   0.0800 
 37 H        1.5580     1.7120    -0.7420 H     1 <1>   0.0800 
 38 H        0.0580     5.5420     0.8870 H     1 <1>   0.1500 
 39 H       -0.2410    -0.2200    -2.2600 H     1 <1>   0.0800 
 40 H        0.9980    -0.6890    -1.1040 H     1 <1>   0.0800 
 41 H        1.4430     0.0740    -2.6100 H     1 <1>   0.0800 
 42 H       -0.5570    -2.8740     0.2130 H     1 <1>   0.1500 
 43 H       -2.8390    -6.3770    -0.0250 H     1 <1>   0.2700 
 44 H        0.6050    -5.1530     1.2060 H     1 <1>   0.0800 
 45 H        0.0740    -6.5450     0.2930 H     1 <1>   0.0800 
 46 H       -0.6140    -6.2120     1.8700 H     1 <1>   0.0800 
@<TRIPOS>BOND
  1   1   2  2   
  2   2   3  am  
  3   2   4  1   
  4   3   5  1   
  5   3   6  1   
  6   4   7  ar  
  7   4   8  ar  
  8   5   9  1   
  9   5  25  1   
 10   5  26  1   
 11   6  10  1   
 12   6  27  1   
 13   6  28  1   
 14   7  11  1   
 15   7  12  ar  
 16   8  13  ar  
 17   8  29  1   
 18   9  10  1   
 19   9  14  1   
 20   9  30  1   
 21  10  15  1   
 22  10  31  1   
 23  11  16  1   
 24  12  17  ar  
 25  13  17  ar  
 26  13  32  1   
 27  14  33  1   
 28  15  18  1   
 29  15  34  1   
 30  15  35  1   
 31  16  19  1   
 32  16  36  1   
 33  16  37  1   
 34  17  38  1   
 35  18  20  2   
 36  18  21  1   
 37  19  39  1   
 38  19  40  1   
 39  19  41  1   
 40  20  22  1   
 41  21  23  2   
 42  21  42  1   
 43  22  23  1   
 44  22  43  1   
 45  23  24  1   
 46  24  44  1   
 47  24  45  1   
 48  24  46  1   
@<TRIPOS>SUBSTRUCTURE
  1 ****   3 GROUP 4 **** **** 0

# MOE 2024.06 (io_trps.svl 2023.06)
