@<TRIPOS>MOLECULE
NONAME
49 52 1 0 0 
SMALL
USER_CHARGES


@<TRIPOS>ATOM
  1 O        2.1560     0.0060     1.7180 O.2   1 <1>  -0.5700 
  2 C        2.6040    -0.3570     0.6540 C.2   1 <1>   0.5690 
  3 N        3.3080     0.5110    -0.1450 N.am  1 <1>  -0.6600 
  4 C        2.3820    -1.8100     0.2320 C.3   1 <1>  -0.0190 
  5 C        3.9850     0.1710    -1.4390 C.3   1 <1>   0.1400 
  6 C        3.4860     1.9320     0.2620 C.3   1 <1>   0.1400 
  7 C        1.3570    -2.5570     1.0740 C.3   1 <1>   0.1200 
  8 C        3.6140    -2.7020     0.3690 C.3   1 <1>  -0.1600 
  9 C        5.5060     0.0170    -1.2790 C.3   1 <1>   0.1400 
 10 C        4.6830     2.0950     1.2090 C.3   1 <1>  -0.1600 
 11 O        1.6780    -3.8970     0.8960 O.3   1 <1>  -0.5600 
 12 C        3.0590    -4.0440     0.8440 C.3   1 <1>   0.1200 
 13 N        6.1380     1.2050    -0.6230 N.am  1 <1>  -0.6600 
 14 C        5.9220     1.2630     0.8520 C.3   1 <1>   0.1400 
 15 C        6.8420     2.1230    -1.3660 C.2   1 <1>   0.5690 
 16 O        6.8560     2.0620    -2.5740 O.2   1 <1>  -0.5700 
 17 C        7.5950     3.2710    -0.7230 C.3   1 <1>   0.0810 
 18 C        8.9930     2.8520    -0.3290 C.2   1 <1>   0.2980 
 19 O        9.1440     1.8240     0.4930 O.3   1 <1>  -0.2800 
 20 N       10.0800     3.4170    -0.7000 N.2   1 <1>  -0.5650 
 21 C       10.4450     1.7020     0.6610 C.ar  1 <1>   0.1400 
 22 C       11.0470     2.6890    -0.0780 C.ar  1 <1>   0.2270 
 23 C       11.1720     0.7910     1.4170 C.ar  1 <1>  -0.1500 
 24 C       12.4330     2.8000    -0.0870 C.ar  1 <1>  -0.1500 
 25 C       12.5490     0.9020     1.4070 C.ar  1 <1>  -0.1500 
 26 C       13.1770     1.9030     0.6580 C.ar  1 <1>  -0.1500 
 27 H        2.0220    -1.8310    -0.7790 H     1 <1>   0.0800 
 28 H        3.7920     0.9490    -2.1570 H     1 <1>   0.0800 
 29 H        3.5860    -0.7360    -1.8510 H     1 <1>   0.0800 
 30 H        2.5920     2.2860     0.7480 H     1 <1>   0.0800 
 31 H        3.6380     2.5380    -0.6140 H     1 <1>   0.0800 
 32 H        0.3460    -2.3820     0.7510 H     1 <1>   0.0800 
 33 H        1.4550    -2.3310     2.1230 H     1 <1>   0.0800 
 34 H        4.2920    -2.3170     1.1110 H     1 <1>   0.0800 
 35 H        4.1350    -2.8110    -0.5640 H     1 <1>   0.0800 
 36 H        5.9400    -0.1390    -2.2520 H     1 <1>   0.0800 
 37 H        5.7190    -0.8630    -0.7000 H     1 <1>   0.0800 
 38 H        4.3700     1.8220     2.2010 H     1 <1>   0.0800 
 39 H        4.9470     3.1350     1.2460 H     1 <1>   0.0800 
 40 H        3.4070    -4.2850     1.8340 H     1 <1>   0.0800 
 41 H        3.2900    -4.8470     0.1650 H     1 <1>   0.0800 
 42 H        5.7840     0.2610     1.2230 H     1 <1>   0.0800 
 43 H        6.7860     1.6640     1.3500 H     1 <1>   0.0800 
 44 H        7.0730     3.6370     0.1360 H     1 <1>   0.0800 
 45 H        7.6640     4.0750    -1.4320 H     1 <1>   0.0800 
 46 H       10.6630     0.0320     1.9820 H     1 <1>   0.1500 
 47 H       12.8910     3.5760    -0.6710 H     1 <1>   0.1500 
 48 H       13.1500     0.2150     1.9790 H     1 <1>   0.1500 
 49 H       14.2510     1.9710     0.6640 H     1 <1>   0.1500 
@<TRIPOS>BOND
  1   1   2  2   
  2   2   3  am  
  3   2   4  1   
  4   3   5  1   
  5   3   6  1   
  6   4   7  1   
  7   4   8  1   
  8   4  27  1   
  9   5   9  1   
 10   5  28  1   
 11   5  29  1   
 12   6  10  1   
 13   6  30  1   
 14   6  31  1   
 15   7  11  1   
 16   7  32  1   
 17   7  33  1   
 18   8  12  1   
 19   8  34  1   
 20   8  35  1   
 21   9  13  1   
 22   9  36  1   
 23   9  37  1   
 24  10  14  1   
 25  10  38  1   
 26  10  39  1   
 27  11  12  1   
 28  12  40  1   
 29  12  41  1   
 30  13  14  1   
 31  13  15  am  
 32  14  42  1   
 33  14  43  1   
 34  15  16  2   
 35  15  17  1   
 36  17  18  1   
 37  17  44  1   
 38  17  45  1   
 39  18  19  1   
 40  18  20  2   
 41  19  21  1   
 42  20  22  1   
 43  21  22  ar  
 44  21  23  ar  
 45  22  24  ar  
 46  23  25  ar  
 47  23  46  1   
 48  24  26  ar  
 49  24  47  1   
 50  25  26  ar  
 51  25  48  1   
 52  26  49  1   
@<TRIPOS>SUBSTRUCTURE
  1 ****  13 GROUP 4 **** **** 0

# MOE 2024.06 (io_trps.svl 2023.06)
