@<TRIPOS>MOLECULE
NONAME
50 52 1 0 0 
SMALL
USER_CHARGES


@<TRIPOS>ATOM
  1 O        3.1680     0.5690    -1.4690 O.2   1 <1>  -0.5700 
  2 C        2.7250     0.0640    -0.4550 C.2   1 <1>   0.5440 
  3 N        2.3350     0.8910     0.5630 N.am  1 <1>  -0.7300 
  4 C        2.6070    -1.3790    -0.3300 C.ar  1 <1>   0.0860 
  5 C        2.3670     2.3700     0.5090 C.3   1 <1>   0.1400 
  6 C        2.4330    -2.1820    -1.4570 C.ar  1 <1>  -0.1500 
  7 C        2.6610    -2.0240     0.9080 C.ar  1 <1>  -0.1500 
  8 C        3.7620     2.8640     0.8780 C.3   1 <1>  -0.0990 
  9 C        2.3060    -3.5560    -1.3560 C.ar  1 <1>  -0.1500 
 10 C        2.5330    -3.3970     1.0140 C.ar  1 <1>  -0.1500 
 11 C        3.8310     4.3690     0.7090 C.2   1 <1>   0.5690 
 12 C        2.3510    -4.1720    -0.1180 C.ar  1 <1>  -0.1430 
 13 O        3.2350     5.0200     1.5330 O.2   1 <1>  -0.5700 
 14 N        4.5060     4.9690    -0.3230 N.am  1 <1>  -0.6600 
 15 C        2.2130    -5.6800    -0.0060 C.3   1 <1>  -0.0970 
 16 C        4.5850     6.4680    -0.3780 C.3   1 <1>   0.3210 
 17 C        5.2480     4.2680    -1.4090 C.3   1 <1>   0.1400 
 18 C        5.9000     7.0130     0.1830 C.2   1 <1>   0.3350 
 19 C        4.2900     3.9050    -2.5390 C.3   1 <1>  -0.2400 
 20 N        6.0170     7.6350     1.2890 N.2   1 <1>  -0.4100 
 21 N        7.0510     6.8890    -0.4740 N.2   1 <1>  -0.5650 
 22 O        7.2710     7.9420     1.4270 O.3   1 <1>  -0.0190 
 23 C        7.8350     7.4690     0.3430 C.2   1 <1>   0.3930 
 24 C        9.3350     7.6420     0.1440 C.3   1 <1>  -0.0150 
 25 C       10.2920     7.5640     1.2950 C.3   1 <1>  -0.2000 
 26 C       10.0510     8.8750     0.6060 C.3   1 <1>  -0.2000 
 27 H        1.8960     0.4870     1.3910 H     1 <1>   0.3700 
 28 H        1.6380     2.7770     1.1890 H     1 <1>   0.0800 
 29 H        2.1150     2.6950    -0.4870 H     1 <1>   0.0800 
 30 H        2.3990    -1.7150    -2.4260 H     1 <1>   0.1500 
 31 H        2.8130    -1.4480     1.8020 H     1 <1>   0.1500 
 32 H        4.4920     2.3610     0.2770 H     1 <1>   0.0800 
 33 H        3.9610     2.6330     1.9070 H     1 <1>   0.0800 
 34 H        2.1730    -4.1430    -2.2490 H     1 <1>   0.1500 
 35 H        2.5790    -3.8640     1.9830 H     1 <1>   0.1500 
 36 H        1.5870    -6.0590    -0.7930 H     1 <1>   0.0800 
 37 H        1.7710    -5.9490     0.9370 H     1 <1>   0.0800 
 38 H        3.1810    -6.1400    -0.0800 H     1 <1>   0.0800 
 39 H        3.7730     6.9030     0.1780 H     1 <1>   0.0800 
 40 H        4.4830     6.7920    -1.3970 H     1 <1>   0.0800 
 41 H        5.7350     3.3860    -1.0320 H     1 <1>   0.0800 
 42 H        6.0220     4.9080    -1.7970 H     1 <1>   0.0800 
 43 H        3.5490     3.2050    -2.1980 H     1 <1>   0.0800 
 44 H        4.8380     3.4410    -3.3390 H     1 <1>   0.0800 
 45 H        3.8050     4.7840    -2.9220 H     1 <1>   0.0800 
 46 H        9.6580     7.2120    -0.7880 H     1 <1>   0.1000 
 47 H       11.2330     7.0630     1.1480 H     1 <1>   0.1000 
 48 H        9.9020     7.4240     2.2890 H     1 <1>   0.1000 
 49 H        9.4960     9.6370     1.1270 H     1 <1>   0.1000 
 50 H       10.8250     9.2850    -0.0190 H     1 <1>   0.1000 
@<TRIPOS>BOND
  1   1   2  2   
  2   2   3  am  
  3   2   4  1   
  4   3   5  1   
  5   3  27  1   
  6   4   6  ar  
  7   4   7  ar  
  8   5   8  1   
  9   5  28  1   
 10   5  29  1   
 11   6   9  ar  
 12   6  30  1   
 13   7  10  ar  
 14   7  31  1   
 15   8  11  1   
 16   8  32  1   
 17   8  33  1   
 18   9  12  ar  
 19   9  34  1   
 20  10  12  ar  
 21  10  35  1   
 22  11  13  2   
 23  11  14  am  
 24  12  15  1   
 25  14  16  1   
 26  14  17  1   
 27  15  36  1   
 28  15  37  1   
 29  15  38  1   
 30  16  18  1   
 31  16  39  1   
 32  16  40  1   
 33  17  19  1   
 34  17  41  1   
 35  17  42  1   
 36  18  20  2   
 37  18  21  1   
 38  19  43  1   
 39  19  44  1   
 40  19  45  1   
 41  20  22  1   
 42  21  23  2   
 43  22  23  1   
 44  23  24  1   
 45  24  25  1   
 46  24  26  1   
 47  24  46  1   
 48  25  26  1   
 49  25  47  1   
 50  25  48  1   
 51  26  49  1   
 52  26  50  1   
@<TRIPOS>SUBSTRUCTURE
  1 ****   8 GROUP 4 **** **** 0

# MOE 2024.06 (io_trps.svl 2023.06)
