@<TRIPOS>MOLECULE
NONAME
34 36 1 0 0 
SMALL
USER_CHARGES


@<TRIPOS>ATOM
  1 CL      -1.4520    -0.5940    -1.6250 Cl    1 <1>  -0.1770 
  2 C       -2.1510     0.5000    -0.4510 C.ar  1 <1>   0.1770 
  3 C       -2.8040    -0.0220     0.6650 C.ar  1 <1>   0.0860 
  4 C       -2.0370     1.8680    -0.6670 C.ar  1 <1>  -0.1440 
  5 C       -2.9300    -1.4440     0.8850 C.2   1 <1>   0.5440 
  6 C       -3.3430     0.8860     1.5760 C.ar  1 <1>  -0.1500 
  7 C       -2.5860     2.7410     0.2590 C.ar  1 <1>  -0.1500 
  8 C       -1.3290     2.4140    -1.8980 C.3   1 <1>  -0.0960 
  9 O       -1.9570    -2.0830     1.2440 O.2   1 <1>  -0.5700 
 10 N       -4.1450    -2.0670     0.7650 N.am  1 <1>  -0.6600 
 11 C       -3.2370     2.2500     1.3780 C.ar  1 <1>  -0.1500 
 12 C       -5.4290    -1.4300     0.4920 C.3   1 <1>   0.2350 
 13 C       -4.3830    -3.5030     0.8900 C.3   1 <1>   0.2350 
 14 C       -6.2870    -2.4260    -0.2820 C.3   1 <1>  -0.2420 
 15 C       -5.5750    -3.8500    -0.0080 C.3   1 <1>  -0.2420 
 16 C       -7.3010    -1.4430    -0.8690 C.2   1 <1>   0.9470 
 17 C       -6.8170    -3.6980    -0.7700 C.3   1 <1>  -0.2000 
 18 C       -5.3670    -5.3630    -0.1170 C.2   1 <1>   0.9470 
 19 O       -7.1360    -0.9880    -2.0070 O.co2 1 <1>  -0.9000 
 20 O       -8.2150    -1.0350    -0.1380 O.co2 1 <1>  -0.9000 
 21 O       -4.8210    -5.8510    -1.1160 O.co2 1 <1>  -0.9000 
 22 O       -5.7010    -6.0720     0.8430 O.co2 1 <1>  -0.9000 
 23 H       -3.8520     0.5050     2.4440 H     1 <1>   0.1500 
 24 H       -2.5150     3.8050     0.1140 H     1 <1>   0.1500 
 25 H       -1.3360     3.4890    -1.9050 H     1 <1>   0.0800 
 26 H       -1.8240     2.0650    -2.7880 H     1 <1>   0.0800 
 27 H       -0.3080     2.0780    -1.9150 H     1 <1>   0.0800 
 28 H       -3.6640     2.9330     2.0920 H     1 <1>   0.1500 
 29 H       -5.9100    -1.2280     1.4340 H     1 <1>   0.0800 
 30 H       -5.3060    -0.5040    -0.0450 H     1 <1>   0.0800 
 31 H       -3.5000    -4.0660     0.6330 H     1 <1>   0.0800 
 32 H       -4.6450    -3.7140     1.9130 H     1 <1>   0.0800 
 33 H       -6.7880    -3.8870    -1.8310 H     1 <1>   0.1000 
 34 H       -7.7270    -4.0680    -0.3310 H     1 <1>   0.1000 
@<TRIPOS>BOND
  1   1   2  1   
  2   2   3  ar  
  3   2   4  ar  
  4   3   5  1   
  5   3   6  ar  
  6   4   7  ar  
  7   4   8  1   
  8   5   9  2   
  9   5  10  am  
 10   6  11  ar  
 11   6  23  1   
 12   7  11  ar  
 13   7  24  1   
 14   8  25  1   
 15   8  26  1   
 16   8  27  1   
 17  10  12  1   
 18  10  13  1   
 19  11  28  1   
 20  12  14  1   
 21  12  29  1   
 22  12  30  1   
 23  13  15  1   
 24  13  31  1   
 25  13  32  1   
 26  14  15  1   
 27  14  16  1   
 28  14  17  1   
 29  15  17  1   
 30  15  18  1   
 31  16  19  ar  
 32  16  20  ar  
 33  17  33  1   
 34  17  34  1   
 35  18  21  ar  
 36  18  22  ar  
@<TRIPOS>SUBSTRUCTURE
  1 ****  10 GROUP 4 **** **** 0

# MOE 2024.06 (io_trps.svl 2023.06)
