@<TRIPOS>MOLECULE
NONAME
49 51 1 0 0 
SMALL
USER_CHARGES


@<TRIPOS>ATOM
  1 F        0.5780    -1.2830     1.0070 F     1 <1>  -0.1900 
  2 C       -0.2260    -2.2010     0.5330 C.ar  1 <1>   0.1900 
  3 C        0.1150    -2.9870    -0.5740 C.ar  1 <1>   0.0820 
  4 C       -1.4360    -2.3530     1.1820 C.ar  1 <1>  -0.1500 
  5 O        1.2720    -2.9310    -1.2950 O.3   1 <1>  -0.3630 
  6 C       -0.8070    -3.9290    -1.0000 C.ar  1 <1>  -0.1500 
  7 C       -2.3330    -3.3020     0.7280 C.ar  1 <1>  -0.1500 
  8 C        2.3440    -2.0770    -0.9630 C.3   1 <1>   0.0400 
  9 C       -2.0410    -4.1140    -0.3700 C.ar  1 <1>   0.0530 
 10 C       -2.9730    -5.1090    -0.8490 C.2   1 <1>   0.0870 
 11 O       -2.9030    -5.5440    -2.0850 O.3   1 <1>  -0.0190 
 12 C       -4.0080    -5.7640    -0.2660 C.2   1 <1>  -0.2330 
 13 N       -3.8210    -6.4340    -2.3640 N.2   1 <1>  -0.4100 
 14 C       -4.5020    -6.5810    -1.2830 C.2   1 <1>   0.3720 
 15 C       -4.5150    -5.6880     1.0610 C.2   1 <1>   1.0330 
 16 N       -5.5880    -7.4560    -1.2010 N.pl3 1 <1>  -0.8210 
 17 O       -4.0840    -6.4430     1.9500 O.co2 1 <1>  -0.9000 
 18 O       -5.3870    -4.8530     1.3540 O.co2 1 <1>  -0.9000 
 19 C       -5.3900    -8.5540    -0.2200 C.3   1 <1>   0.2090 
 20 C       -6.8820    -6.7660    -0.9800 C.3   1 <1>   0.2090 
 21 C       -6.4790    -9.6250    -0.4030 C.3   1 <1>  -0.0800 
 22 C       -8.0170    -7.7680    -1.2030 C.3   1 <1>  -0.1600 
 23 C       -7.8810    -8.9900    -0.2790 C.3   1 <1>  -0.1600 
 24 C       -6.2600   -10.7580     0.6180 C.3   1 <1>  -0.1600 
 25 C       -7.2030   -11.9550     0.4220 C.3   1 <1>  -0.1600 
 26 C       -6.8450   -13.0870     1.3830 C.3   1 <1>   0.1200 
 27 O       -7.7130   -14.1380     1.1600 O.3   1 <1>  -0.6800 
 28 H       -1.6760    -1.7390     2.0310 H     1 <1>   0.1500 
 29 H       -0.5560    -4.5410    -1.8470 H     1 <1>   0.1500 
 30 H       -3.2760    -3.4080     1.2370 H     1 <1>   0.1500 
 31 H        3.1400    -2.2520    -1.6630 H     1 <1>   0.0800 
 32 H        2.6780    -2.3050     0.0340 H     1 <1>   0.0800 
 33 H        2.0130    -1.0560    -1.0350 H     1 <1>   0.0800 
 34 H       -5.4390    -8.1650     0.7820 H     1 <1>   0.0800 
 35 H       -4.4150    -8.9850    -0.3660 H     1 <1>   0.0800 
 36 H       -6.9710    -5.9420    -1.6670 H     1 <1>   0.0800 
 37 H       -6.9280    -6.3780     0.0250 H     1 <1>   0.0800 
 38 H       -6.3650   -10.0280    -1.3950 H     1 <1>   0.0800 
 39 H       -7.9960    -8.0830    -2.2310 H     1 <1>   0.0800 
 40 H       -8.9580    -7.2800    -1.0230 H     1 <1>   0.0800 
 41 H       -8.0380    -8.6740     0.7380 H     1 <1>   0.0800 
 42 H       -8.6420    -9.7040    -0.5340 H     1 <1>   0.0800 
 43 H       -6.3770   -10.3650     1.6150 H     1 <1>   0.0800 
 44 H       -5.2440   -11.1040     0.5260 H     1 <1>   0.0800 
 45 H       -7.1170   -12.3120    -0.5900 H     1 <1>   0.0800 
 46 H       -8.2180   -11.6490     0.6020 H     1 <1>   0.0800 
 47 H       -6.9420   -12.7760     2.4090 H     1 <1>   0.0800 
 48 H       -5.8430   -13.4410     1.2080 H     1 <1>   0.0800 
 49 H       -8.6370   -13.8530     1.2980 H     1 <1>   0.4000 
@<TRIPOS>BOND
  1   1   2  1   
  2   2   3  ar  
  3   2   4  ar  
  4   3   5  1   
  5   3   6  ar  
  6   4   7  ar  
  7   4  28  1   
  8   5   8  1   
  9   6   9  ar  
 10   6  29  1   
 11   7   9  ar  
 12   7  30  1   
 13   8  31  1   
 14   8  32  1   
 15   8  33  1   
 16   9  10  1   
 17  10  11  1   
 18  10  12  2   
 19  11  13  1   
 20  12  14  1   
 21  12  15  1   
 22  13  14  2   
 23  14  16  1   
 24  15  17  ar  
 25  15  18  ar  
 26  16  19  1   
 27  16  20  1   
 28  19  21  1   
 29  19  34  1   
 30  19  35  1   
 31  20  22  1   
 32  20  36  1   
 33  20  37  1   
 34  21  23  1   
 35  21  24  1   
 36  21  38  1   
 37  22  23  1   
 38  22  39  1   
 39  22  40  1   
 40  23  41  1   
 41  23  42  1   
 42  24  25  1   
 43  24  43  1   
 44  24  44  1   
 45  25  26  1   
 46  25  45  1   
 47  25  46  1   
 48  26  27  1   
 49  26  47  1   
 50  26  48  1   
 51  27  49  1   
@<TRIPOS>SUBSTRUCTURE
  1 ****  12 GROUP 4 **** **** 0

# MOE 2024.06 (io_trps.svl 2023.06)
