@<TRIPOS>MOLECULE
NONAME
58 60 1 0 0 
SMALL
USER_CHARGES


@<TRIPOS>ATOM
  1 O        0.8280     0.2060    -0.0340 O.2   1 <1>  -0.5700 
  2 C        1.8240    -0.2790    -0.5210 C.2   1 <1>   0.5690 
  3 N        2.9150     0.4920    -0.8440 N.am  1 <1>  -0.6600 
  4 C        1.8470    -1.7830    -0.7560 C.3   1 <1>  -0.0990 
  5 C        4.1540    -0.0350    -1.4960 C.3   1 <1>   0.1400 
  6 C        2.8870     1.9630    -0.5890 C.3   1 <1>   0.1400 
  7 C        0.5490    -2.4970    -0.3520 C.3   1 <1>   0.0200 
  8 C        5.2210    -0.4080    -0.4540 C.3   1 <1>   0.1100 
  9 C        4.2340     2.5430    -0.1350 C.3   1 <1>  -0.1600 
 10 C        0.6910    -3.9960    -0.5600 C.2   1 <1>  -0.3320 
 11 N        5.9130     0.7570     0.1350 N.3   1 <1>  -0.8100 
 12 C        4.9980     1.6620     0.8570 C.3   1 <1>   0.1100 
 13 N        1.2130    -4.8640     0.3380 N.pl3 1 <1>   0.3140 
 14 C        0.3370    -4.7230    -1.6410 C.2   1 <1>  -0.1500 
 15 C        7.0140     0.2940     1.0390 C.3   1 <1>   0.1710 
 16 N        1.2130    -6.1200    -0.1390 N.2   1 <1>  -0.7070 
 17 C        1.7120    -4.5690     1.6870 C.3   1 <1>   0.0160 
 18 C        0.6850    -6.0290    -1.3210 C.2   1 <1>   0.1390 
 19 C        8.0770     1.3550     1.3490 C.2   1 <1>   0.5690 
 20 O        8.8120     1.2010     2.2950 O.2   1 <1>  -0.5700 
 21 N        8.1660     2.4340     0.5320 N.am  1 <1>  -0.7300 
 22 C        9.1200     3.5650     0.6740 C.3   1 <1>   0.1400 
 23 C       10.5540     3.1470     0.3200 C.3   1 <1>   0.2000 
 24 O       11.3620     4.2770     0.2680 O.3   1 <1>  -0.5600 
 25 C       10.7230     2.5140    -1.0560 C.3   1 <1>  -0.1600 
 26 C       12.5180     3.9960    -0.4510 C.3   1 <1>   0.1200 
 27 C       12.1450     2.8930    -1.4400 C.3   1 <1>  -0.1600 
 28 H        2.6650    -2.2020    -0.2020 H     1 <1>   0.0800 
 29 H        2.0120    -1.9680    -1.8000 H     1 <1>   0.0800 
 30 H        4.5540     0.6940    -2.1780 H     1 <1>   0.0800 
 31 H        3.9180    -0.9070    -2.0760 H     1 <1>   0.0800 
 32 H        2.1620     2.1730     0.1800 H     1 <1>   0.0800 
 33 H        2.5610     2.4660    -1.4820 H     1 <1>   0.0800 
 34 H       -0.2590    -2.1280    -0.9610 H     1 <1>   0.0800 
 35 H        0.3030    -2.2850     0.6750 H     1 <1>   0.0800 
 36 H        5.9560    -1.0170    -0.9530 H     1 <1>   0.0800 
 37 H        4.7740    -1.0050     0.3230 H     1 <1>   0.0800 
 38 H        4.0270     3.4840     0.3400 H     1 <1>   0.0800 
 39 H        4.8530     2.7590    -0.9870 H     1 <1>   0.0800 
 40 H        4.3190     1.1050     1.4830 H     1 <1>   0.0800 
 41 H        5.5720     2.3130     1.4950 H     1 <1>   0.0800 
 42 H       -0.1150    -4.3970    -2.5600 H     1 <1>   0.1500 
 43 H        7.5310    -0.5270     0.5790 H     1 <1>   0.0800 
 44 H        6.6000    -0.0590     1.9670 H     1 <1>   0.0800 
 45 H        2.5140    -3.8600     1.6230 H     1 <1>   0.0800 
 46 H        2.0690    -5.4780     2.1350 H     1 <1>   0.0800 
 47 H        0.9100    -4.1690     2.2790 H     1 <1>   0.0800 
 48 H        0.5380    -6.8760    -1.9700 H     1 <1>   0.1500 
 49 H        7.4790     2.4760    -0.2280 H     1 <1>   0.3700 
 50 H        9.1020     3.9130     1.6930 H     1 <1>   0.0800 
 51 H        8.8120     4.3670     0.0270 H     1 <1>   0.0800 
 52 H       10.9500     2.5010     1.0870 H     1 <1>   0.0800 
 53 H       10.0230     2.9500    -1.7460 H     1 <1>   0.0800 
 54 H       10.5710     1.4500    -1.0190 H     1 <1>   0.0800 
 55 H       13.2700     3.6610     0.2430 H     1 <1>   0.0800 
 56 H       12.8430     4.8950    -0.9450 H     1 <1>   0.0800 
 57 H       12.1980     3.2490    -2.4530 H     1 <1>   0.0800 
 58 H       12.8160     2.0600    -1.3240 H     1 <1>   0.0800 
@<TRIPOS>BOND
  1   1   2  2   
  2   2   3  am  
  3   2   4  1   
  4   3   5  1   
  5   3   6  1   
  6   4   7  1   
  7   4  28  1   
  8   4  29  1   
  9   5   8  1   
 10   5  30  1   
 11   5  31  1   
 12   6   9  1   
 13   6  32  1   
 14   6  33  1   
 15   7  10  1   
 16   7  34  1   
 17   7  35  1   
 18   8  11  1   
 19   8  36  1   
 20   8  37  1   
 21   9  12  1   
 22   9  38  1   
 23   9  39  1   
 24  10  13  1   
 25  10  14  2   
 26  11  12  1   
 27  11  15  1   
 28  12  40  1   
 29  12  41  1   
 30  13  16  1   
 31  13  17  1   
 32  14  18  1   
 33  14  42  1   
 34  15  19  1   
 35  15  43  1   
 36  15  44  1   
 37  16  18  2   
 38  17  45  1   
 39  17  46  1   
 40  17  47  1   
 41  18  48  1   
 42  19  20  2   
 43  19  21  am  
 44  21  22  1   
 45  21  49  1   
 46  22  23  1   
 47  22  50  1   
 48  22  51  1   
 49  23  24  1   
 50  23  25  1   
 51  23  52  1   
 52  24  26  1   
 53  25  27  1   
 54  25  53  1   
 55  25  54  1   
 56  26  27  1   
 57  26  55  1   
 58  26  56  1   
 59  27  57  1   
 60  27  58  1   
@<TRIPOS>SUBSTRUCTURE
  1 ****   8 GROUP 4 **** **** 0

# MOE 2024.06 (io_trps.svl 2023.06)
