@<TRIPOS>MOLECULE
NONAME
51 54 1 0 0 
SMALL
USER_CHARGES


@<TRIPOS>ATOM
  1 O       -0.8180     0.0690     2.7410 O.2   1 <1>  -0.5700 
  2 C       -1.4590     0.8010     2.0240 C.2   1 <1>   0.5690 
  3 N       -2.5470     0.3430     1.3310 N.am  1 <1>  -0.6600 
  4 C       -1.0360     2.2600     1.9240 C.3   1 <1>   0.0820 
  5 C       -3.4550     1.1420     0.4680 C.3   1 <1>   0.1400 
  6 C       -2.9290    -1.0920     1.2910 C.3   1 <1>   0.1400 
  7 C       -0.5810     2.6630     0.5260 C.2   1 <1>  -0.1810 
  8 C       -4.6680     0.2380     0.2600 C.3   1 <1>   0.2000 
  9 C       -4.0970    -1.1820     0.2950 C.3   1 <1>  -0.0800 
 10 C       -0.4560     3.9890     0.0370 C.ar  1 <1>   0.0000 
 11 C       -0.2270     1.8490    -0.4880 C.2   1 <1>  -0.0100 
 12 O       -5.5130     0.3850     1.3480 O.3   1 <1>  -0.6800 
 13 C       -3.6300    -1.6180    -1.1090 C.3   1 <1>  -0.0170 
 14 C       -0.6350     5.2910     0.5280 C.ar  1 <1>  -0.1440 
 15 C       -0.0400     3.8260    -1.2760 C.ar  1 <1>   0.1400 
 16 O        0.0930     2.5350    -1.5760 O.3   1 <1>  -0.2800 
 17 C       -3.1930    -3.0730    -1.1370 C.ar  1 <1>   0.1670 
 18 C       -0.4030     6.3590    -0.3200 C.ar  1 <1>  -0.1500 
 19 C       -1.0680     5.5470     1.9620 C.3   1 <1>  -0.0970 
 20 C        0.1930     4.8970    -2.1270 C.ar  1 <1>  -0.1500 
 21 N       -1.8950    -3.3030    -1.0210 N.ar  1 <1>  -0.6200 
 22 C       -4.1470    -4.0700    -1.2790 C.ar  1 <1>  -0.1500 
 23 C        0.0070     6.1750    -1.6430 C.ar  1 <1>  -0.1440 
 24 C       -1.5320    -4.5760    -1.0440 C.ar  1 <1>   0.1600 
 25 C       -3.7560    -5.3920    -1.3030 C.ar  1 <1>  -0.1500 
 26 C        0.2460     7.3860    -2.5260 C.3   1 <1>  -0.0970 
 27 C       -2.4060    -5.6410    -1.1800 C.ar  1 <1>  -0.1500 
 28 H       -1.8730     2.8600     2.2230 H     1 <1>   0.0800 
 29 H       -0.2350     2.4400     2.6170 H     1 <1>   0.0800 
 30 H       -3.7310     2.0780     0.9210 H     1 <1>   0.0800 
 31 H       -2.9730     1.3260    -0.4770 H     1 <1>   0.0800 
 32 H       -2.0860    -1.6960     1.0010 H     1 <1>   0.0800 
 33 H       -3.2480    -1.3950     2.2730 H     1 <1>   0.0800 
 34 H       -5.2230     0.4690    -0.6330 H     1 <1>   0.0800 
 35 H       -4.8380    -1.8840     0.6380 H     1 <1>   0.0800 
 36 H       -0.1760     0.7740    -0.5350 H     1 <1>   0.1500 
 37 H       -4.9920     0.2670     2.1680 H     1 <1>   0.4000 
 38 H       -2.8150    -0.9980    -1.4420 H     1 <1>   0.0800 
 39 H       -4.4360    -1.4940    -1.8090 H     1 <1>   0.0800 
 40 H       -0.5380     7.3650     0.0370 H     1 <1>   0.1500 
 41 H       -1.0170     6.5950     2.1950 H     1 <1>   0.0800 
 42 H       -0.4220     5.0220     2.6420 H     1 <1>   0.0800 
 43 H       -2.0810     5.2190     2.1030 H     1 <1>   0.0800 
 44 H        0.5110     4.7040    -3.1340 H     1 <1>   0.1500 
 45 H       -5.1880    -3.8180    -1.3700 H     1 <1>   0.1500 
 46 H       -0.4790    -4.7810    -0.9490 H     1 <1>   0.1500 
 47 H       -4.4690    -6.1910    -1.4110 H     1 <1>   0.1500 
 48 H        1.0160     8.0040    -2.1000 H     1 <1>   0.0800 
 49 H       -0.6580     7.9630    -2.6080 H     1 <1>   0.0800 
 50 H        0.5520     7.0880    -3.5120 H     1 <1>   0.0800 
 51 H       -2.0320    -6.6480    -1.1900 H     1 <1>   0.1500 
@<TRIPOS>BOND
  1   1   2  2   
  2   2   3  am  
  3   2   4  1   
  4   3   5  1   
  5   3   6  1   
  6   4   7  1   
  7   4  28  1   
  8   4  29  1   
  9   5   8  1   
 10   5  30  1   
 11   5  31  1   
 12   6   9  1   
 13   6  32  1   
 14   6  33  1   
 15   7  10  1   
 16   7  11  2   
 17   8   9  1   
 18   8  12  1   
 19   8  34  1   
 20   9  13  1   
 21   9  35  1   
 22  10  14  ar  
 23  10  15  ar  
 24  11  16  1   
 25  11  36  1   
 26  12  37  1   
 27  13  17  1   
 28  13  38  1   
 29  13  39  1   
 30  14  18  ar  
 31  14  19  1   
 32  15  16  1   
 33  15  20  ar  
 34  17  21  ar  
 35  17  22  ar  
 36  18  23  ar  
 37  18  40  1   
 38  19  41  1   
 39  19  42  1   
 40  19  43  1   
 41  20  23  ar  
 42  20  44  1   
 43  21  24  ar  
 44  22  25  ar  
 45  22  45  1   
 46  23  26  1   
 47  24  27  ar  
 48  24  46  1   
 49  25  27  ar  
 50  25  47  1   
 51  26  48  1   
 52  26  49  1   
 53  26  50  1   
 54  27  51  1   
@<TRIPOS>SUBSTRUCTURE
  1 ****   5 GROUP 4 **** **** 0

# MOE 2024.06 (io_trps.svl 2023.06)
