@<TRIPOS>MOLECULE
NONAME
54 55 1 0 0 
SMALL
USER_CHARGES


@<TRIPOS>ATOM
  1 O       -1.8050    -0.5940     2.1650 O.2   1 <1>  -0.5700 
  2 C       -1.8190     0.1200     1.1890 C.2   1 <1>   0.5690 
  3 N       -2.1130    -0.3840    -0.0530 N.am  1 <1>  -0.6600 
  4 C       -1.5170     1.6180     1.3820 C.3   1 <1>  -0.0190 
  5 C       -2.4490    -1.8370    -0.2260 C.3   1 <1>   0.3640 
  6 C       -2.2820     0.4600    -1.2760 C.3   1 <1>   0.1400 
  7 C       -0.4450     1.8250     2.4810 C.3   1 <1>  -0.1600 
  8 C       -2.8320     2.3840     1.6710 C.3   1 <1>  -0.1600 
  9 C       -1.2300    -2.5810    -0.8020 C.ar  1 <1>  -0.1440 
 10 C       -3.7680    -1.9760    -1.0420 C.3   1 <1>   0.2000 
 11 C       -2.7500    -0.3390    -2.5040 C.3   1 <1>   0.1200 
 12 C        0.0440     3.2710     2.6350 C.3   1 <1>  -0.2400 
 13 C       -2.9140     3.7480     0.9700 C.3   1 <1>  -0.2400 
 14 C       -0.0520    -2.5710    -0.0650 C.ar  1 <1>  -0.1500 
 15 C       -1.2440    -3.2800    -2.0080 C.ar  1 <1>  -0.1500 
 16 O       -3.8360    -1.1750    -2.2090 O.3   1 <1>  -0.5600 
 17 C       -4.9940    -1.6190    -0.1900 C.3   1 <1>   0.1200 
 18 C        1.0840    -3.2260    -0.5090 C.ar  1 <1>   0.0820 
 19 C       -0.1100    -3.9290    -2.4660 C.ar  1 <1>  -0.1500 
 20 O       -5.2380    -2.6150     0.7510 O.3   1 <1>  -0.6800 
 21 O        2.1800    -3.1930     0.2860 O.3   1 <1>  -0.3630 
 22 C        1.0630    -3.8960    -1.7350 C.ar  1 <1>   0.0820 
 23 C        2.4990    -4.4040     0.9330 C.3   1 <1>   0.0400 
 24 O        2.1430    -4.5290    -2.2590 O.3   1 <1>  -0.3630 
 25 C        3.2770    -3.7350    -2.5320 C.3   1 <1>   0.0400 
 26 H       -1.0910     1.9860     0.4690 H     1 <1>   0.0800 
 27 H       -2.6370    -2.2780     0.7380 H     1 <1>   0.0800 
 28 H       -3.0040     1.2310    -1.0750 H     1 <1>   0.0800 
 29 H       -1.3440     0.9300    -1.5140 H     1 <1>   0.0800 
 30 H       -0.8280     1.4830     3.4270 H     1 <1>   0.0800 
 31 H        0.4030     1.2060     2.2430 H     1 <1>   0.0800 
 32 H       -3.6670     1.7950     1.3310 H     1 <1>   0.0800 
 33 H       -2.9560     2.5080     2.7330 H     1 <1>   0.0800 
 34 H       -3.8850    -2.9950    -1.3610 H     1 <1>   0.0800 
 35 H       -1.9450    -0.9380    -2.8900 H     1 <1>   0.0800 
 36 H       -3.0600     0.3340    -3.2830 H     1 <1>   0.0800 
 37 H       -0.7340     3.8940     3.0360 H     1 <1>   0.0800 
 38 H        0.3650     3.6670     1.6880 H     1 <1>   0.0800 
 39 H        0.8760     3.3000     3.3160 H     1 <1>   0.0800 
 40 H       -2.8560     3.6280    -0.0970 H     1 <1>   0.0800 
 41 H       -2.1210     4.4000     1.2840 H     1 <1>   0.0800 
 42 H       -3.8510     4.2220     1.2060 H     1 <1>   0.0800 
 43 H       -0.0080    -2.0550     0.8780 H     1 <1>   0.1500 
 44 H       -2.1290    -3.3290    -2.6170 H     1 <1>   0.1500 
 45 H       -5.8700    -1.5270    -0.8080 H     1 <1>   0.0800 
 46 H       -4.8280    -0.6970     0.3400 H     1 <1>   0.0800 
 47 H       -0.1290    -4.4620    -3.4000 H     1 <1>   0.1500 
 48 H       -5.6140    -3.4120     0.3290 H     1 <1>   0.4000 
 49 H        3.3530    -4.2350     1.5630 H     1 <1>   0.0800 
 50 H        2.7270    -5.1510     0.1930 H     1 <1>   0.0800 
 51 H        1.6560    -4.7110     1.5270 H     1 <1>   0.0800 
 52 H        3.9600    -4.3180    -3.1230 H     1 <1>   0.0800 
 53 H        3.7460    -3.4510    -1.6080 H     1 <1>   0.0800 
 54 H        2.9680    -2.8620    -3.0790 H     1 <1>   0.0800 
@<TRIPOS>BOND
  1   1   2  2   
  2   2   3  am  
  3   2   4  1   
  4   3   5  1   
  5   3   6  1   
  6   4   7  1   
  7   4   8  1   
  8   4  26  1   
  9   5   9  1   
 10   5  10  1   
 11   5  27  1   
 12   6  11  1   
 13   6  28  1   
 14   6  29  1   
 15   7  12  1   
 16   7  30  1   
 17   7  31  1   
 18   8  13  1   
 19   8  32  1   
 20   8  33  1   
 21   9  14  ar  
 22   9  15  ar  
 23  10  16  1   
 24  10  17  1   
 25  10  34  1   
 26  11  16  1   
 27  11  35  1   
 28  11  36  1   
 29  12  37  1   
 30  12  38  1   
 31  12  39  1   
 32  13  40  1   
 33  13  41  1   
 34  13  42  1   
 35  14  18  ar  
 36  14  43  1   
 37  15  19  ar  
 38  15  44  1   
 39  17  20  1   
 40  17  45  1   
 41  17  46  1   
 42  18  21  1   
 43  18  22  ar  
 44  19  22  ar  
 45  19  47  1   
 46  20  48  1   
 47  21  23  1   
 48  22  24  1   
 49  23  49  1   
 50  23  50  1   
 51  23  51  1   
 52  24  25  1   
 53  25  52  1   
 54  25  53  1   
 55  25  54  1   
@<TRIPOS>SUBSTRUCTURE
  1 ****   3 GROUP 4 **** **** 0

# MOE 2024.06 (io_trps.svl 2023.06)
