@<TRIPOS>MOLECULE
NONAME
57 58 1 0 0 
SMALL
USER_CHARGES


@<TRIPOS>ATOM
  1 O       -0.2210     0.5550     1.4400 O.2   1 <1>  -0.5700 
  2 C       -0.7710     0.9760     0.4480 C.2   1 <1>   0.5690 
  3 N       -1.6480     0.2070    -0.2790 N.am  1 <1>  -0.6600 
  4 C       -0.4730     2.4100     0.0250 C.3   1 <1>  -0.0990 
  5 C       -2.3310     0.6650    -1.5220 C.3   1 <1>   0.1400 
  6 C       -1.9770    -1.1800     0.1520 C.3   1 <1>   0.1400 
  7 C        0.4570     3.1650     0.9940 C.3   1 <1>  -0.0990 
  8 C       -3.7240     1.1990    -1.1750 C.3   1 <1>  -0.1600 
  9 C       -3.4500    -1.3150     0.5560 C.3   1 <1>  -0.1600 
 10 C        0.6540     4.6070     0.5810 C.2   1 <1>   0.5690 
 11 C       -4.8330     0.1340    -1.0890 C.3   1 <1>  -0.1600 
 12 C       -4.4160    -1.2760    -0.6390 C.3   1 <1>  -0.1600 
 13 O        1.0260     4.8600    -0.5390 O.2   1 <1>  -0.5700 
 14 N        0.4140     5.5850     1.4910 N.am  1 <1>  -0.7300 
 15 C        0.5370     7.0350     1.2000 C.3   1 <1>   0.1400 
 16 C        2.0080     7.4420     1.1520 C.3   1 <1>   0.0960 
 17 N        2.0990     8.8360     0.6990 N.pl3 1 <1>   0.3140 
 18 N        2.0120     9.8520     1.5730 N.2   1 <1>  -0.7070 
 19 C        2.2210     9.2810    -0.5720 C.2   1 <1>  -0.3320 
 20 C        2.0940    10.9210     0.8470 C.2   1 <1>   0.1080 
 21 C        2.2220    10.6310    -0.5090 C.2   1 <1>  -0.1810 
 22 C        2.3320     8.3650    -1.7840 C.3   1 <1>  -0.0600 
 23 C        2.0440    12.3040     1.4560 C.3   1 <1>  -0.0590 
 24 C        2.3340    11.6340    -1.6450 C.3   1 <1>   0.0210 
 25 C        3.8020    11.9640    -1.9210 C.3   1 <1>  -0.2400 
 26 H       -1.4010     2.9440    -0.0510 H     1 <1>   0.0800 
 27 H       -0.0100     2.3900    -0.9450 H     1 <1>   0.0800 
 28 H       -2.3990    -0.1450    -2.2280 H     1 <1>   0.0800 
 29 H       -1.7580     1.4440    -1.9920 H     1 <1>   0.0800 
 30 H       -1.3660    -1.4580     0.9940 H     1 <1>   0.0800 
 31 H       -1.7460    -1.8630    -0.6460 H     1 <1>   0.0800 
 32 H        1.4180     2.6840     1.0160 H     1 <1>   0.0800 
 33 H        0.0450     3.1280     1.9860 H     1 <1>   0.0800 
 34 H       -4.0110     1.9130    -1.9260 H     1 <1>   0.0800 
 35 H       -3.6680     1.7330    -0.2430 H     1 <1>   0.0800 
 36 H       -3.7050    -0.5660     1.2860 H     1 <1>   0.0800 
 37 H       -3.5580    -2.2720     1.0340 H     1 <1>   0.0800 
 38 H       -5.2960     0.0420    -2.0570 H     1 <1>   0.0800 
 39 H       -5.5910     0.5000    -0.4180 H     1 <1>   0.0800 
 40 H       -5.3120    -1.8100    -0.3710 H     1 <1>   0.0800 
 41 H       -3.9780    -1.8050    -1.4680 H     1 <1>   0.0800 
 42 H        0.1180     5.3380     2.4380 H     1 <1>   0.3700 
 43 H        0.0250     7.6040     1.9570 H     1 <1>   0.0800 
 44 H        0.0800     7.2370     0.2450 H     1 <1>   0.0800 
 45 H        2.5510     6.8190     0.4680 H     1 <1>   0.0800 
 46 H        2.4470     7.3730     2.1290 H     1 <1>   0.0800 
 47 H        1.4660     7.7300    -1.8530 H     1 <1>   0.0800 
 48 H        3.2080     7.7480    -1.7020 H     1 <1>   0.0800 
 49 H        2.4070     8.9380    -2.6900 H     1 <1>   0.0800 
 50 H        2.1750    12.2370     2.5200 H     1 <1>   0.0800 
 51 H        1.0920    12.7540     1.2490 H     1 <1>   0.0800 
 52 H        2.8270    12.9140     1.0480 H     1 <1>   0.0800 
 53 H        1.7970    12.5310    -1.3920 H     1 <1>   0.0800 
 54 H        1.8830    11.2250    -2.5310 H     1 <1>   0.0800 
 55 H        4.2590    12.3840    -1.0430 H     1 <1>   0.0800 
 56 H        3.8800    12.6700    -2.7270 H     1 <1>   0.0800 
 57 H        4.3340    11.0680    -2.1880 H     1 <1>   0.0800 
@<TRIPOS>BOND
  1   1   2  2   
  2   2   3  am  
  3   2   4  1   
  4   3   5  1   
  5   3   6  1   
  6   4   7  1   
  7   4  26  1   
  8   4  27  1   
  9   5   8  1   
 10   5  28  1   
 11   5  29  1   
 12   6   9  1   
 13   6  30  1   
 14   6  31  1   
 15   7  10  1   
 16   7  32  1   
 17   7  33  1   
 18   8  11  1   
 19   8  34  1   
 20   8  35  1   
 21   9  12  1   
 22   9  36  1   
 23   9  37  1   
 24  10  13  2   
 25  10  14  am  
 26  11  12  1   
 27  11  38  1   
 28  11  39  1   
 29  12  40  1   
 30  12  41  1   
 31  14  15  1   
 32  14  42  1   
 33  15  16  1   
 34  15  43  1   
 35  15  44  1   
 36  16  17  1   
 37  16  45  1   
 38  16  46  1   
 39  17  18  1   
 40  17  19  1   
 41  18  20  2   
 42  19  21  2   
 43  19  22  1   
 44  20  21  1   
 45  20  23  1   
 46  21  24  1   
 47  22  47  1   
 48  22  48  1   
 49  22  49  1   
 50  23  50  1   
 51  23  51  1   
 52  23  52  1   
 53  24  25  1   
 54  24  53  1   
 55  24  54  1   
 56  25  55  1   
 57  25  56  1   
 58  25  57  1   
@<TRIPOS>SUBSTRUCTURE
  1 ****  10 GROUP 4 **** **** 0

# MOE 2024.06 (io_trps.svl 2023.06)
