@<TRIPOS>MOLECULE
NONAME
45 48 1 0 0 
SMALL
USER_CHARGES


@<TRIPOS>ATOM
  1 O       -0.4760     0.3310     0.2310 O.2   1 <1>  -0.5700 
  2 C       -1.5450     0.8950     0.1230 C.2   1 <1>   0.5440 
  3 N       -2.6930     0.1400     0.0690 N.am  1 <1>  -0.6600 
  4 C       -1.5750     2.3320     0.0410 C.ar  1 <1>   0.0860 
  5 C       -4.0270     0.6070    -0.4030 C.3   1 <1>   0.1400 
  6 C       -2.6660    -1.3490     0.0960 C.3   1 <1>   0.1400 
  7 C       -0.7990     3.0240    -0.8660 C.ar  1 <1>   0.1600 
  8 C       -2.3640     3.1140     0.8600 C.ar  1 <1>   0.1600 
  9 C       -4.9510    -0.5860    -0.1690 C.3   1 <1>   0.2000 
 10 C       -4.0410    -1.7910    -0.4160 C.3   1 <1>  -0.0800 
 11 N       -0.8230     4.3350    -0.9820 N.ar  1 <1>  -0.6200 
 12 N       -2.4160     4.4260     0.7740 N.ar  1 <1>  -0.6200 
 13 O       -5.3430    -0.5640     1.1620 O.3   1 <1>  -0.6800 
 14 C       -4.5250    -3.1270     0.1760 C.3   1 <1>   0.0210 
 15 C       -1.6340     4.9690    -0.1470 C.ar  1 <1>   0.5880 
 16 C       -3.5290    -4.2340    -0.1100 C.2   1 <1>   0.1080 
 17 C       -1.6770     6.4870    -0.2660 C.3   1 <1>  -0.0680 
 18 N       -3.1720    -4.5670    -1.3110 N.2   1 <1>  -0.7070 
 19 C       -2.8860    -4.9950     0.8600 C.2   1 <1>  -0.1500 
 20 C       -0.4250     7.3100    -0.1610 C.3   1 <1>  -0.2000 
 21 C       -1.4490     7.3690     0.9290 C.3   1 <1>  -0.2000 
 22 N       -2.2820    -5.5630    -1.1380 N.pl3 1 <1>   0.3000 
 23 C       -2.0910    -5.8380     0.1700 C.2   1 <1>  -0.3320 
 24 C       -1.1440    -6.9070     0.6860 C.3   1 <1>  -0.0600 
 25 H       -4.3750     1.4760     0.1260 H     1 <1>   0.0800 
 26 H       -3.9700     0.8220    -1.4560 H     1 <1>   0.0800 
 27 H       -1.8780    -1.7340    -0.5310 H     1 <1>   0.0800 
 28 H       -2.5030    -1.6800     1.1070 H     1 <1>   0.0800 
 29 H       -0.1420     2.4700    -1.5160 H     1 <1>   0.1500 
 30 H       -2.9720     2.6380     1.6100 H     1 <1>   0.1500 
 31 H       -5.8300    -0.5750    -0.7900 H     1 <1>   0.0800 
 32 H       -3.9530    -1.9180    -1.4820 H     1 <1>   0.0800 
 33 H       -4.5450    -0.4840     1.7200 H     1 <1>   0.4000 
 34 H       -5.4700    -3.3930    -0.2620 H     1 <1>   0.0800 
 35 H       -4.6620    -3.0460     1.2380 H     1 <1>   0.0800 
 36 H       -2.4170     6.8020    -0.9790 H     1 <1>   0.1000 
 37 H       -3.0140    -4.9100     1.9250 H     1 <1>   0.1500 
 38 H        0.5060     6.8020     0.0250 H     1 <1>   0.1000 
 39 H       -0.3110     8.1520    -0.8210 H     1 <1>   0.1000 
 40 H       -2.0520     8.2530     1.0340 H     1 <1>   0.1000 
 41 H       -1.2300     6.9030     1.8740 H     1 <1>   0.1000 
 42 H       -1.8240    -6.0300    -1.9290 H     1 <1>   0.2700 
 43 H       -1.1680    -6.9330     1.7610 H     1 <1>   0.0800 
 44 H       -0.1380    -6.6950     0.3710 H     1 <1>   0.0800 
 45 H       -1.4350    -7.8730     0.3130 H     1 <1>   0.0800 
@<TRIPOS>BOND
  1   1   2  2   
  2   2   3  am  
  3   2   4  1   
  4   3   5  1   
  5   3   6  1   
  6   4   7  ar  
  7   4   8  ar  
  8   5   9  1   
  9   5  25  1   
 10   5  26  1   
 11   6  10  1   
 12   6  27  1   
 13   6  28  1   
 14   7  11  ar  
 15   7  29  1   
 16   8  12  ar  
 17   8  30  1   
 18   9  10  1   
 19   9  13  1   
 20   9  31  1   
 21  10  14  1   
 22  10  32  1   
 23  11  15  ar  
 24  12  15  ar  
 25  13  33  1   
 26  14  16  1   
 27  14  34  1   
 28  14  35  1   
 29  15  17  1   
 30  16  18  2   
 31  16  19  1   
 32  17  20  1   
 33  17  21  1   
 34  17  36  1   
 35  18  22  1   
 36  19  23  2   
 37  19  37  1   
 38  20  21  1   
 39  20  38  1   
 40  20  39  1   
 41  21  40  1   
 42  21  41  1   
 43  22  23  1   
 44  22  42  1   
 45  23  24  1   
 46  24  43  1   
 47  24  44  1   
 48  24  45  1   
@<TRIPOS>SUBSTRUCTURE
  1 ****   3 GROUP 4 **** **** 0

# MOE 2024.06 (io_trps.svl 2023.06)
