@<TRIPOS>MOLECULE
NONAME
37 38 1 0 0 
SMALL
USER_CHARGES


@<TRIPOS>ATOM
  1 O       -0.8460     1.4340    -1.1240 O.3   1 <1>  -0.2890 
  2 C        0.2160     1.4360    -0.3410 C.2   1 <1>  -0.0510 
  3 C       -1.8220     0.8380    -0.4690 C.2   1 <1>  -0.0210 
  4 C       -0.0630     0.8350     0.8350 C.2   1 <1>  -0.1600 
  5 C        1.5050     2.0530    -0.8500 C.3   1 <1>   0.0090 
  6 C       -1.4050     0.4440     0.7520 C.2   1 <1>  -0.1600 
  7 C        1.5390     3.5900    -0.7160 C.3   1 <1>  -0.0900 
  8 C        0.3580     4.2330    -1.4850 C.3   1 <1>   0.1100 
  9 C        2.9290     4.0820    -1.1670 C.3   1 <1>   0.1580 
 10 O        0.3560     5.6240    -1.3720 O.3   1 <1>  -0.6850 
 11 N        3.0260     5.5340    -0.9430 N.pl3 1 <1>  -0.7190 
 12 C        3.9580     6.2680    -0.3340 C.cat 1 <1>   1.0690 
 13 N        5.1690     5.8660    -0.0290 N.pl3 1 <1>  -0.7050 
 14 N        3.8470     7.5300     0.0700 N.pl3 1 <1>  -0.4640 
 15 C        5.7850     6.9240     0.5680 C.2   1 <1>   0.4780 
 16 N        5.0170     7.9440     0.6450 N.2   1 <1>  -0.2690 
 17 C        2.6820     8.4440    -0.0210 C.3   1 <1>   0.2650 
 18 C        7.2120     6.8440     1.0620 C.3   1 <1>  -0.0820 
 19 H       -2.7810     0.7350    -0.9450 H     1 <1>   0.1400 
 20 H        0.5790     0.6680     1.6810 H     1 <1>   0.1400 
 21 H        1.6410     1.7620    -1.8770 H     1 <1>   0.0700 
 22 H        2.3150     1.6310    -0.2810 H     1 <1>   0.0700 
 23 H       -1.9570    -0.0660     1.5210 H     1 <1>   0.1400 
 24 H        1.4140     3.8120     0.3300 H     1 <1>   0.0700 
 25 H       -0.5780     3.8860    -1.0820 H     1 <1>   0.0700 
 26 H        0.3980     3.9790    -2.5320 H     1 <1>   0.0700 
 27 H        3.0630     3.8760    -2.2170 H     1 <1>   0.0700 
 28 H        3.6980     3.5700    -0.6140 H     1 <1>   0.0700 
 29 H       -0.5060     5.9610    -1.7050 H     1 <1>   0.3930 
 30 H        2.1000     5.9610    -1.1060 H     1 <1>   0.4430 
 31 H        5.5580     4.9520    -0.2250 H     1 <1>   0.4430 
 32 H        1.8110     7.9220    -0.3750 H     1 <1>   0.0700 
 33 H        2.9100     9.2510    -0.6960 H     1 <1>   0.0700 
 34 H        2.4720     8.8540     0.9520 H     1 <1>   0.0700 
 35 H        7.3030     6.0760     1.8080 H     1 <1>   0.0700 
 36 H        7.5030     7.7830     1.4980 H     1 <1>   0.0700 
 37 H        7.8740     6.6250     0.2440 H     1 <1>   0.0700 
@<TRIPOS>BOND
  1   1   2  1   
  2   1   3  1   
  3   2   4  2   
  4   2   5  1   
  5   3   6  2   
  6   3  19  1   
  7   4   6  1   
  8   4  20  1   
  9   5   7  1   
 10   5  21  1   
 11   5  22  1   
 12   6  23  1   
 13   7   8  1   
 14   7   9  1   
 15   7  24  1   
 16   8  10  1   
 17   8  25  1   
 18   8  26  1   
 19   9  11  1   
 20   9  27  1   
 21   9  28  1   
 22  10  29  1   
 23  11  12  ar  
 24  11  30  1   
 25  12  13  ar  
 26  12  14  ar  
 27  13  15  1   
 28  13  31  1   
 29  14  16  1   
 30  14  17  1   
 31  15  16  2   
 32  15  18  1   
 33  17  32  1   
 34  17  33  1   
 35  17  34  1   
 36  18  35  1   
 37  18  36  1   
 38  18  37  1   
@<TRIPOS>SUBSTRUCTURE
  1 ****   7 GROUP 4 **** **** 0

# MOE 2024.06 (io_trps.svl 2023.06)
