@<TRIPOS>MOLECULE
NONAME
47 49 1 0 0 
SMALL
USER_CHARGES


@<TRIPOS>ATOM
  1 O        1.8490    -1.3160     1.8720 O.co2 1 <1>  -0.9000 
  2 C        2.6230    -1.1300     0.9370 C.2   1 <1>   0.9060 
  3 O        3.0760    -2.0340     0.2240 O.co2 1 <1>  -0.9000 
  4 C        3.0740     0.2840     0.6490 C.3   1 <1>  -0.1860 
  5 C        4.6060     0.3450     0.6590 C.3   1 <1>   0.2000 
  6 C        2.4690     0.8400    -0.6680 C.3   1 <1>  -0.1600 
  7 O        5.0860    -0.4710    -0.3540 O.3   1 <1>  -0.6800 
  8 C        5.0900     1.7840     0.3990 C.3   1 <1>   0.3430 
  9 C        3.4610     1.6560    -1.5020 C.3   1 <1>   0.3430 
 10 N        4.2520     2.5460    -0.6090 N.4   1 <1>  -0.9590 
 11 C        5.0660     3.5140    -1.3740 C.3   1 <1>   0.4860 
 12 C        5.6470     4.5230    -0.4030 C.ar  1 <1>  -0.1440 
 13 C        4.7930     5.4510     0.1460 C.ar  1 <1>   0.0820 
 14 C        7.0240     4.4970    -0.0680 C.ar  1 <1>   0.0000 
 15 O        3.4790     5.3930    -0.2050 O.3   1 <1>  -0.3630 
 16 C        5.2860     6.4040     1.0540 C.ar  1 <1>  -0.1500 
 17 C        7.5030     5.4550     0.8550 C.ar  1 <1>   0.0000 
 18 C        7.9590     3.5670    -0.5880 C.ar  1 <1>  -0.1500 
 19 C        2.5710     6.4610    -0.0060 C.3   1 <1>   0.1200 
 20 C        6.6070     6.3990     1.3940 C.ar  1 <1>  -0.1500 
 21 C        8.8630     5.4470     1.2200 C.ar  1 <1>  -0.1500 
 22 C        9.2740     3.5830    -0.2160 C.ar  1 <1>  -0.1500 
 23 C        2.8830     7.5900    -0.9890 C.3   1 <1>  -0.2400 
 24 C        9.7340     4.5330     0.6990 C.ar  1 <1>  -0.1500 
 25 H        2.7210     0.8880     1.4640 H     1 <1>   0.0800 
 26 H        4.9980    -0.0310     1.5890 H     1 <1>   0.0800 
 27 H        1.6000     1.4320    -0.4400 H     1 <1>   0.0800 
 28 H        2.1340     0.0180    -1.2790 H     1 <1>   0.0800 
 29 H        4.5230    -1.3070    -0.3160 H     1 <1>   0.4000 
 30 H        6.1130     1.7270     0.0700 H     1 <1>   0.0800 
 31 H        5.0790     2.3230     1.3310 H     1 <1>   0.0800 
 32 H        2.9260     2.2310    -2.2390 H     1 <1>   0.0800 
 33 H        4.1280     0.9780    -2.0120 H     1 <1>   0.0800 
 34 H        3.5830     3.1180    -0.0750 H     1 <1>   0.4500 
 35 H        5.8360     3.0060    -1.9260 H     1 <1>   0.0800 
 36 H        4.4380     4.0370    -2.0770 H     1 <1>   0.0800 
 37 H        4.6390     7.1400     1.4910 H     1 <1>   0.1500 
 38 H        7.6520     2.8210    -1.2950 H     1 <1>   0.1500 
 39 H        1.5830     6.0790    -0.1950 H     1 <1>   0.0800 
 40 H        2.6140     6.7870     1.0180 H     1 <1>   0.0800 
 41 H        6.9900     7.1260     2.0880 H     1 <1>   0.1500 
 42 H        9.2120     6.1820     1.9230 H     1 <1>   0.1500 
 43 H        9.9760     2.8720    -0.6190 H     1 <1>   0.1500 
 44 H        2.8200     7.2320    -2.0010 H     1 <1>   0.0800 
 45 H        3.8640     7.9950    -0.8140 H     1 <1>   0.0800 
 46 H        2.1670     8.3820    -0.8660 H     1 <1>   0.0800 
 47 H       10.7730     4.5330     0.9810 H     1 <1>   0.1500 
@<TRIPOS>BOND
  1   1   2  ar  
  2   2   3  ar  
  3   2   4  1   
  4   4   5  1   
  5   4   6  1   
  6   4  25  1   
  7   5   7  1   
  8   5   8  1   
  9   5  26  1   
 10   6   9  1   
 11   6  27  1   
 12   6  28  1   
 13   7  29  1   
 14   8  10  1   
 15   8  30  1   
 16   8  31  1   
 17   9  10  1   
 18   9  32  1   
 19   9  33  1   
 20  10  11  1   
 21  10  34  1   
 22  11  12  1   
 23  11  35  1   
 24  11  36  1   
 25  12  13  ar  
 26  12  14  ar  
 27  13  15  1   
 28  13  16  ar  
 29  14  17  ar  
 30  14  18  ar  
 31  15  19  1   
 32  16  20  ar  
 33  16  37  1   
 34  17  20  ar  
 35  17  21  ar  
 36  18  22  ar  
 37  18  38  1   
 38  19  23  1   
 39  19  39  1   
 40  19  40  1   
 41  20  41  1   
 42  21  24  ar  
 43  21  42  1   
 44  22  24  ar  
 45  22  43  1   
 46  23  44  1   
 47  23  45  1   
 48  23  46  1   
 49  24  47  1   
@<TRIPOS>SUBSTRUCTURE
  1 ****  10 GROUP 4 **** **** 0

# MOE 2024.06 (io_trps.svl 2023.06)
