@<TRIPOS>MOLECULE
NONAME
46 48 1 0 0 
SMALL
USER_CHARGES


@<TRIPOS>ATOM
  1 F        1.0200     0.4130     2.2720 F     1 <1>  -0.1900 
  2 C        1.8610     0.8190     1.3560 C.ar  1 <1>   0.1900 
  3 C        2.5370    -0.1130     0.5820 C.ar  1 <1>  -0.1440 
  4 C        2.0300     2.1820     1.2070 C.ar  1 <1>  -0.1500 
  5 C        3.4330     0.3620    -0.3730 C.ar  1 <1>   0.0830 
  6 C        2.3140    -1.6100     0.7800 C.3   1 <1>   0.2540 
  7 C        2.9140     2.6420     0.2480 C.ar  1 <1>  -0.1500 
  8 O        4.1130    -0.5530    -1.1120 O.3   1 <1>  -0.3630 
  9 C        3.6120     1.7370    -0.5350 C.ar  1 <1>  -0.1500 
 10 N        1.3750    -2.1650    -0.2210 N.3   1 <1>  -0.8100 
 11 C        4.9620    -0.1810    -2.1730 C.3   1 <1>   0.0400 
 12 C        1.2730    -3.6440    -0.1250 C.3   1 <1>   0.3330 
 13 C        0.0340    -1.5560    -0.1100 C.3   1 <1>   0.1100 
 14 C        2.6370    -4.3040    -0.3380 C.ar  1 <1>  -0.1430 
 15 C        0.2340    -4.1930    -1.1440 C.3   1 <1>   0.2000 
 16 C       -0.9550    -2.1800    -1.1080 C.3   1 <1>   0.1200 
 17 C        3.0900    -5.2740     0.5460 C.ar  1 <1>  -0.1500 
 18 C        3.4290    -3.9580    -1.4230 C.ar  1 <1>  -0.1500 
 19 O       -1.0070    -3.5670    -0.9420 O.3   1 <1>  -0.5600 
 20 C        0.0010    -5.7090    -1.0350 C.3   1 <1>   0.1200 
 21 C        4.3090    -5.8960     0.3400 C.ar  1 <1>  -0.1500 
 22 C        4.6480    -4.5790    -1.6310 C.ar  1 <1>  -0.1500 
 23 O        1.0590    -6.4270    -1.5900 O.3   1 <1>  -0.6800 
 24 C        5.0870    -5.5510    -0.7500 C.ar  1 <1>  -0.1500 
 25 H        1.4810     2.8650     1.8300 H     1 <1>   0.1500 
 26 H        1.9460    -1.8070     1.7720 H     1 <1>   0.0800 
 27 H        3.2710    -2.0960     0.6950 H     1 <1>   0.0800 
 28 H        3.0610     3.7000     0.1130 H     1 <1>   0.1500 
 29 H        4.2950     2.1230    -1.2670 H     1 <1>   0.1500 
 30 H        5.3420    -1.0800    -2.6240 H     1 <1>   0.0800 
 31 H        5.7750     0.4030    -1.7810 H     1 <1>   0.0800 
 32 H        4.3940     0.3780    -2.8940 H     1 <1>   0.0800 
 33 H        0.9230    -3.8970     0.8610 H     1 <1>   0.0800 
 34 H       -0.3490    -1.6790     0.8890 H     1 <1>   0.0800 
 35 H        0.0990    -0.5020    -0.3170 H     1 <1>   0.0800 
 36 H        0.5520    -3.9660    -2.1470 H     1 <1>   0.0800 
 37 H       -0.6570    -1.9610    -2.1190 H     1 <1>   0.0800 
 38 H       -1.9440    -1.7900    -0.9450 H     1 <1>   0.0800 
 39 H        2.4960    -5.5540     1.3990 H     1 <1>   0.1500 
 40 H        3.0940    -3.1930    -2.1050 H     1 <1>   0.1500 
 41 H       -0.8860    -5.9820    -1.5790 H     1 <1>   0.0800 
 42 H       -0.1050    -6.0050    -0.0070 H     1 <1>   0.0800 
 43 H        4.6530    -6.6490     1.0270 H     1 <1>   0.1500 
 44 H        5.2530    -4.3030    -2.4760 H     1 <1>   0.1500 
 45 H        1.9220    -6.0910    -1.2550 H     1 <1>   0.4000 
 46 H        6.0350    -6.0350    -0.9120 H     1 <1>   0.1500 
@<TRIPOS>BOND
  1   1   2  1   
  2   2   3  ar  
  3   2   4  ar  
  4   3   5  ar  
  5   3   6  1   
  6   4   7  ar  
  7   4  25  1   
  8   5   8  1   
  9   5   9  ar  
 10   6  10  1   
 11   6  26  1   
 12   6  27  1   
 13   7   9  ar  
 14   7  28  1   
 15   8  11  1   
 16   9  29  1   
 17  10  12  1   
 18  10  13  1   
 19  11  30  1   
 20  11  31  1   
 21  11  32  1   
 22  12  14  1   
 23  12  15  1   
 24  12  33  1   
 25  13  16  1   
 26  13  34  1   
 27  13  35  1   
 28  14  17  ar  
 29  14  18  ar  
 30  15  19  1   
 31  15  20  1   
 32  15  36  1   
 33  16  19  1   
 34  16  37  1   
 35  16  38  1   
 36  17  21  ar  
 37  17  39  1   
 38  18  22  ar  
 39  18  40  1   
 40  20  23  1   
 41  20  41  1   
 42  20  42  1   
 43  21  24  ar  
 44  21  43  1   
 45  22  24  ar  
 46  22  44  1   
 47  23  45  1   
 48  24  46  1   
@<TRIPOS>SUBSTRUCTURE
  1 ****  10 GROUP 4 **** **** 0

# MOE 2024.06 (io_trps.svl 2023.06)
