@<TRIPOS>MOLECULE
NONAME
54 56 1 0 0 
SMALL
USER_CHARGES


@<TRIPOS>ATOM
  1 O        2.2810    -1.3970    -0.8370 O.co2 1 <1>  -0.9000 
  2 C        1.7820    -0.6960     0.0560 C.2   1 <1>   0.9060 
  3 O        1.0530    -1.1820     0.9290 O.co2 1 <1>  -0.9000 
  4 C        2.1270     0.8100     0.0350 C.3   1 <1>  -0.1060 
  5 C        3.4250     0.4430     0.9220 C.3   1 <1>   0.2000 
  6 C        2.5210     2.3820    -0.0550 C.3   1 <1>  -0.1600 
  7 C        0.7890     1.0790    -0.8140 C.3   1 <1>  -0.0160 
  8 O        3.5630     1.1810     2.1030 O.3   1 <1>  -0.6800 
  9 C        4.7280     0.5940     0.1220 C.3   1 <1>   0.1400 
 10 C        3.8090     2.6530    -0.8480 C.3   1 <1>   0.1400 
 11 C       -0.2770     1.9250    -0.0990 C.ar  1 <1>  -0.1440 
 12 N        4.9760     2.0310    -0.1870 N.am  1 <1>  -0.6600 
 13 C       -0.5820     1.6960     1.2330 C.ar  1 <1>  -0.1500 
 14 C       -0.9520     2.9260    -0.7830 C.ar  1 <1>  -0.1500 
 15 C        6.1770     2.6370     0.0850 C.2   1 <1>   0.5690 
 16 C       -1.5360     2.4630     1.8790 C.ar  1 <1>  -0.1500 
 17 C       -1.9070     3.6960    -0.1400 C.ar  1 <1>  -0.1500 
 18 O        7.0780     2.0430     0.6280 O.2   1 <1>  -0.5700 
 19 C        6.3940     4.0990    -0.2970 C.3   1 <1>  -0.0990 
 20 C       -2.1980     3.4660     1.1930 C.ar  1 <1>  -0.1500 
 21 C        7.8060     4.6410    -0.0010 C.3   1 <1>  -0.1600 
 22 C        7.9490     6.1120    -0.4120 C.3   1 <1>  -0.0170 
 23 C        9.3470     6.6230    -0.1070 C.ar  1 <1>  -0.1430 
 24 C        9.6330     7.1870     1.1270 C.ar  1 <1>  -0.1500 
 25 C       10.3510     6.5300    -1.0590 C.ar  1 <1>  -0.1500 
 26 C       10.9060     7.6560     1.4050 C.ar  1 <1>  -0.1500 
 27 C       11.6240     6.9990    -0.7830 C.ar  1 <1>  -0.1500 
 28 C       11.9020     7.5630     0.4490 C.ar  1 <1>  -0.1500 
 29 H        3.4690    -0.5730     1.2950 H     1 <1>   0.0800 
 30 H        2.5580     2.8590     0.9050 H     1 <1>   0.0800 
 31 H        1.8330     3.0400    -0.5540 H     1 <1>   0.0800 
 32 H        1.0470     1.5220    -1.7610 H     1 <1>   0.0800 
 33 H        0.2290     0.2120    -1.1430 H     1 <1>   0.0800 
 34 H        4.0580     1.9890     1.8680 H     1 <1>   0.4000 
 35 H        4.6430     0.0350    -0.7940 H     1 <1>   0.0800 
 36 H        5.5400     0.1740     0.6890 H     1 <1>   0.0800 
 37 H        3.9420     3.7150    -0.9440 H     1 <1>   0.0800 
 38 H        3.7090     2.2370    -1.8360 H     1 <1>   0.0800 
 39 H       -0.0730     0.9110     1.7720 H     1 <1>   0.1500 
 40 H       -0.7350     3.1080    -1.8200 H     1 <1>   0.1500 
 41 H       -1.7580     2.2710     2.9130 H     1 <1>   0.1500 
 42 H       -2.4230     4.4710    -0.6780 H     1 <1>   0.1500 
 43 H        6.2010     4.1990    -1.3490 H     1 <1>   0.0800 
 44 H        5.6770     4.6900     0.2400 H     1 <1>   0.0800 
 45 H       -2.9390     4.0620     1.6950 H     1 <1>   0.1500 
 46 H        8.0130     4.5440     1.0520 H     1 <1>   0.0800 
 47 H        8.5350     4.0510    -0.5310 H     1 <1>   0.0800 
 48 H        7.2280     6.7100     0.1170 H     1 <1>   0.0800 
 49 H        7.7520     6.2170    -1.4640 H     1 <1>   0.0800 
 50 H        8.8670     7.2600     1.8780 H     1 <1>   0.1500 
 51 H       10.1450     6.0910    -2.0190 H     1 <1>   0.1500 
 52 H       11.1200     8.0920     2.3650 H     1 <1>   0.1500 
 53 H       12.3970     6.9230    -1.5270 H     1 <1>   0.1500 
 54 H       12.8910     7.9270     0.6640 H     1 <1>   0.1500 
@<TRIPOS>BOND
  1   1   2  ar  
  2   2   3  ar  
  3   2   4  1   
  4   4   5  1   
  5   4   6  1   
  6   4   7  1   
  7   5   8  1   
  8   5   9  1   
  9   5  29  1   
 10   6  10  1   
 11   6  30  1   
 12   6  31  1   
 13   7  11  1   
 14   7  32  1   
 15   7  33  1   
 16   8  34  1   
 17   9  12  1   
 18   9  35  1   
 19   9  36  1   
 20  10  12  1   
 21  10  37  1   
 22  10  38  1   
 23  11  13  ar  
 24  11  14  ar  
 25  12  15  am  
 26  13  16  ar  
 27  13  39  1   
 28  14  17  ar  
 29  14  40  1   
 30  15  18  2   
 31  15  19  1   
 32  16  20  ar  
 33  16  41  1   
 34  17  20  ar  
 35  17  42  1   
 36  19  21  1   
 37  19  43  1   
 38  19  44  1   
 39  20  45  1   
 40  21  22  1   
 41  21  46  1   
 42  21  47  1   
 43  22  23  1   
 44  22  48  1   
 45  22  49  1   
 46  23  24  ar  
 47  23  25  ar  
 48  24  26  ar  
 49  24  50  1   
 50  25  27  ar  
 51  25  51  1   
 52  26  28  ar  
 53  26  52  1   
 54  27  28  ar  
 55  27  53  1   
 56  28  54  1   
@<TRIPOS>SUBSTRUCTURE
  1 ****  12 GROUP 4 **** **** 0

# MOE 2024.06 (io_trps.svl 2023.06)
