@<TRIPOS>MOLECULE
NONAME
27 28 1 0 0 
SMALL
USER_CHARGES


@<TRIPOS>ATOM
  1 O        0.7210     0.6860     1.8840 O.2   1 <1>  -0.5700 
  2 C        1.5040     0.9790     1.0160 C.2   1 <1>   0.4230 
  3 C        2.6190     0.1510     0.6290 C.ar  1 <1>   0.0860 
  4 C        1.2930     2.3190     0.3170 C.3   1 <1>  -0.0990 
  5 C        2.5040    -1.2200     0.2860 C.ar  1 <1>   0.0830 
  6 C        3.9020     0.7200     0.6180 C.ar  1 <1>  -0.1500 
  7 C        0.0280     2.3350    -0.5530 C.3   1 <1>  -0.2400 
  8 O        1.3310    -1.8910     0.2340 O.3   1 <1>  -0.3630 
  9 C        3.6240    -1.9820    -0.0250 C.ar  1 <1>  -0.1500 
 10 C        4.9900    -0.0550     0.2890 C.ar  1 <1>   0.0830 
 11 C        0.2280    -1.3760    -0.4800 C.3   1 <1>   0.0400 
 12 C        4.8600    -1.3750    -0.0210 C.ar  1 <1>   0.0830 
 13 O        6.2770     0.3080     0.2240 O.3   1 <1>  -0.3630 
 14 O        6.0520    -1.9030    -0.2930 O.3   1 <1>  -0.3630 
 15 C        7.0120    -0.8600    -0.1400 C.3   1 <1>   0.4000 
 16 H        2.1390     2.5590    -0.3000 H     1 <1>   0.0800 
 17 H        1.2100     3.0790     1.0730 H     1 <1>   0.0800 
 18 H        4.0550     1.7510     0.8800 H     1 <1>   0.1500 
 19 H        0.1060     1.6120    -1.3450 H     1 <1>   0.0800 
 20 H       -0.1090     3.3090    -0.9890 H     1 <1>   0.0800 
 21 H       -0.8360     2.1030     0.0460 H     1 <1>   0.0800 
 22 H        3.5290    -3.0250    -0.2670 H     1 <1>   0.1500 
 23 H       -0.3680    -2.2070    -0.8130 H     1 <1>   0.0800 
 24 H        0.5810    -0.8160    -1.3270 H     1 <1>   0.0800 
 25 H       -0.3600    -0.7590     0.1750 H     1 <1>   0.0800 
 26 H        7.7000    -1.1150     0.6460 H     1 <1>   0.0800 
 27 H        7.5170    -0.6930    -1.0750 H     1 <1>   0.0800 
@<TRIPOS>BOND
  1   1   2  2   
  2   2   3  1   
  3   2   4  1   
  4   3   5  ar  
  5   3   6  ar  
  6   4   7  1   
  7   4  16  1   
  8   4  17  1   
  9   5   8  1   
 10   5   9  ar  
 11   6  10  ar  
 12   6  18  1   
 13   7  19  1   
 14   7  20  1   
 15   7  21  1   
 16   8  11  1   
 17   9  12  ar  
 18   9  22  1   
 19  10  12  ar  
 20  10  13  1   
 21  11  23  1   
 22  11  24  1   
 23  11  25  1   
 24  12  14  1   
 25  13  15  1   
 26  14  15  1   
 27  15  26  1   
 28  15  27  1   
@<TRIPOS>SUBSTRUCTURE
  1 ****   3 GROUP 4 **** **** 0

# MOE 2024.06 (io_trps.svl 2023.06)
