@<TRIPOS>MOLECULE
NONAME
45 47 1 0 0 
SMALL
USER_CHARGES


@<TRIPOS>ATOM
  1 CL       1.3080     0.3260    -1.3850 Cl    1 <1>  -0.1770 
  2 C        0.6380     1.7190    -0.5630 C.ar  1 <1>   0.1770 
  3 C        1.4270     2.5480     0.2290 C.ar  1 <1>  -0.1440 
  4 C       -0.7130     1.9580    -0.7360 C.ar  1 <1>  -0.1500 
  5 C        0.8180     3.6350     0.8450 C.ar  1 <1>  -0.1500 
  6 C        2.9220     2.3230     0.4490 C.3   1 <1>   0.3640 
  7 C       -1.3030     3.0430    -0.1140 C.ar  1 <1>  -0.1500 
  8 C       -0.5350     3.8800     0.6760 C.ar  1 <1>  -0.1500 
  9 N        3.1270     1.0080     1.1000 N.am  1 <1>  -0.7300 
 10 C        3.7640     2.4900    -0.8430 C.3   1 <1>   0.2610 
 11 C        4.0910     0.1380     0.7280 C.2   1 <1>   0.5690 
 12 O        5.0420     1.8870    -0.6980 O.3   1 <1>  -0.5600 
 13 C        3.8960     3.9820    -1.1480 C.2   1 <1>   0.5690 
 14 O        4.2300    -0.9100     1.3050 O.2   1 <1>  -0.5700 
 15 C        4.9980     0.4970    -0.4530 C.3   1 <1>   0.1810 
 16 O        3.0230     4.5440    -1.7640 O.2   1 <1>  -0.5700 
 17 N        4.9770     4.6610    -0.6900 N.am  1 <1>  -0.7300 
 18 C        5.1800     6.1050    -0.8300 C.3   1 <1>   0.2010 
 19 C        6.2620     6.6700     0.1120 C.2   1 <1>   0.5690 
 20 O        6.9270     5.9020     0.8060 O.2   1 <1>  -0.5700 
 21 N        6.4680     8.0220     0.1640 N.am  1 <1>  -0.6600 
 22 C        5.7570     9.0530    -0.6260 C.3   1 <1>   0.1400 
 23 C        7.5030     8.6310     1.0270 C.3   1 <1>   0.1400 
 24 C        6.2340    10.3810    -0.0480 C.3   1 <1>  -0.1600 
 25 C        7.6040    10.0750     0.5500 C.3   1 <1>  -0.1600 
 26 H       -1.2950     1.2990    -1.3550 H     1 <1>   0.1500 
 27 H        1.3910     4.3060     1.4620 H     1 <1>   0.1500 
 28 H        3.2710     3.0660     1.1450 H     1 <1>   0.0800 
 29 H       -2.3540     3.2370    -0.2450 H     1 <1>   0.1500 
 30 H       -0.9910     4.7270     1.1580 H     1 <1>   0.1500 
 31 H        2.5020     0.7500     1.8640 H     1 <1>   0.3700 
 32 H        3.2770     2.0270    -1.6800 H     1 <1>   0.0800 
 33 H        4.6450     0.0040    -1.3400 H     1 <1>   0.0800 
 34 H        6.0000     0.1680    -0.2460 H     1 <1>   0.0800 
 35 H        5.7120     4.1470    -0.2150 H     1 <1>   0.3700 
 36 H        5.4670     6.3310    -1.8570 H     1 <1>   0.0800 
 37 H        4.2430     6.6200    -0.6190 H     1 <1>   0.0800 
 38 H        6.0470     8.9710    -1.6590 H     1 <1>   0.0800 
 39 H        4.6890     8.9510    -0.5330 H     1 <1>   0.0800 
 40 H        7.1720     8.5900     2.0510 H     1 <1>   0.0800 
 41 H        8.4410     8.1100     0.9300 H     1 <1>   0.0800 
 42 H        6.2760    11.1530    -0.7970 H     1 <1>   0.0800 
 43 H        5.5570    10.6880     0.7310 H     1 <1>   0.0800 
 44 H        7.8620    10.7430     1.3530 H     1 <1>   0.0800 
 45 H        8.3600    10.1370    -0.2130 H     1 <1>   0.0800 
@<TRIPOS>BOND
  1   1   2  1   
  2   2   3  ar  
  3   2   4  ar  
  4   3   5  ar  
  5   3   6  1   
  6   4   7  ar  
  7   4  26  1   
  8   5   8  ar  
  9   5  27  1   
 10   6   9  1   
 11   6  10  1   
 12   6  28  1   
 13   7   8  ar  
 14   7  29  1   
 15   8  30  1   
 16   9  11  am  
 17   9  31  1   
 18  10  12  1   
 19  10  13  1   
 20  10  32  1   
 21  11  14  2   
 22  11  15  1   
 23  12  15  1   
 24  13  16  2   
 25  13  17  am  
 26  15  33  1   
 27  15  34  1   
 28  17  18  1   
 29  17  35  1   
 30  18  19  1   
 31  18  36  1   
 32  18  37  1   
 33  19  20  2   
 34  19  21  am  
 35  21  22  1   
 36  21  23  1   
 37  22  24  1   
 38  22  38  1   
 39  22  39  1   
 40  23  25  1   
 41  23  40  1   
 42  23  41  1   
 43  24  25  1   
 44  24  42  1   
 45  24  43  1   
 46  25  44  1   
 47  25  45  1   
@<TRIPOS>SUBSTRUCTURE
  1 ****  13 GROUP 4 **** **** 0

# MOE 2024.06 (io_trps.svl 2023.06)
