@<TRIPOS>MOLECULE
NONAME
49 51 1 0 0 
SMALL
USER_CHARGES


@<TRIPOS>ATOM
  1 O        3.8900     0.4160     0.2020 O.2   1 <1>  -0.5700 
  2 C        3.5220    -0.6990     0.4570 C.2   1 <1>   0.5690 
  3 N        4.3780    -1.5340     1.0890 N.am  1 <1>  -0.7300 
  4 C        2.1200    -1.1020     0.0470 C.3   1 <1>  -0.0990 
  5 C        4.2040    -2.9570     1.4780 C.3   1 <1>   0.1400 
  6 C        1.5540    -2.3110     0.7910 C.3   1 <1>   0.1200 
  7 C        3.4460    -3.8270     0.4260 C.3   1 <1>   0.2800 
  8 O        2.0880    -3.5150     0.3120 O.3   1 <1>  -0.5600 
  9 C        4.0330    -3.7250    -0.9910 C.3   1 <1>  -0.1600 
 10 C        3.4670    -5.3030     0.8430 C.3   1 <1>  -0.1600 
 11 C        5.4410    -4.2990    -1.0500 C.3   1 <1>   0.3430 
 12 C        4.8660    -5.9090     0.7530 C.3   1 <1>   0.3430 
 13 N        5.4310    -5.7300    -0.6200 N.4   1 <1>  -0.9590 
 14 C        6.8090    -6.3100    -0.7160 C.3   1 <1>   0.5240 
 15 C        7.7400    -5.5720     0.2260 C.2   1 <1>  -0.1810 
 16 C        8.0100    -5.9250     1.5420 C.2   1 <1>   0.1390 
 17 C        8.4730    -4.4540     0.0180 C.2   1 <1>  -0.3020 
 18 N        8.8070    -5.0850     2.1160 N.2   1 <1>  -0.7070 
 19 N        9.1160    -4.1750     1.1730 N.pl3 1 <1>   0.3140 
 20 C       10.0440    -3.0420     1.4490 C.3   1 <1>   0.1760 
 21 C        9.3090    -1.6990     1.3360 C.3   1 <1>  -0.2400 
 22 C       11.2560    -3.0870     0.5080 C.3   1 <1>  -0.2400 
 23 H        5.2330    -1.0730     1.4160 H     1 <1>   0.3700 
 24 H        2.0860    -1.2710    -1.0130 H     1 <1>   0.0800 
 25 H        1.4830    -0.2620     0.2530 H     1 <1>   0.0800 
 26 H        3.7000    -3.0090     2.4280 H     1 <1>   0.0800 
 27 H        5.1880    -3.3630     1.6300 H     1 <1>   0.0800 
 28 H        0.4930    -2.3600     0.6180 H     1 <1>   0.0800 
 29 H        1.7080    -2.2380     1.8540 H     1 <1>   0.0800 
 30 H        4.0750    -2.7020    -1.3120 H     1 <1>   0.0800 
 31 H        3.4050    -4.2540    -1.6860 H     1 <1>   0.0800 
 32 H        2.8020    -5.8690     0.2140 H     1 <1>   0.0800 
 33 H        3.1110    -5.3950     1.8540 H     1 <1>   0.0800 
 34 H        6.0840    -3.7230    -0.4030 H     1 <1>   0.0800 
 35 H        5.8190    -4.2170    -2.0570 H     1 <1>   0.0800 
 36 H        4.8160    -6.9590     0.9970 H     1 <1>   0.0800 
 37 H        5.5050    -5.4290     1.4750 H     1 <1>   0.0800 
 38 H        4.8260    -6.2420    -1.2750 H     1 <1>   0.4500 
 39 H        7.1770    -6.2130    -1.7250 H     1 <1>   0.0800 
 40 H        6.7930    -7.3570    -0.4620 H     1 <1>   0.0800 
 41 H        7.6150    -6.7870     2.0560 H     1 <1>   0.1500 
 42 H        8.5860    -3.8430    -0.8600 H     1 <1>   0.1500 
 43 H       10.3940    -3.1580     2.4610 H     1 <1>   0.0800 
 44 H        8.9580    -1.5340     0.3340 H     1 <1>   0.0800 
 45 H        9.9760    -0.8960     1.5980 H     1 <1>   0.0800 
 46 H        8.4770    -1.6770     2.0170 H     1 <1>   0.0800 
 47 H       10.9570    -2.9510    -0.5160 H     1 <1>   0.0800 
 48 H       11.7640    -4.0300     0.6080 H     1 <1>   0.0800 
 49 H       11.9490    -2.3060     0.7660 H     1 <1>   0.0800 
@<TRIPOS>BOND
  1   1   2  2   
  2   2   3  am  
  3   2   4  1   
  4   3   5  1   
  5   3  23  1   
  6   4   6  1   
  7   4  24  1   
  8   4  25  1   
  9   5   7  1   
 10   5  26  1   
 11   5  27  1   
 12   6   8  1   
 13   6  28  1   
 14   6  29  1   
 15   7   8  1   
 16   7   9  1   
 17   7  10  1   
 18   9  11  1   
 19   9  30  1   
 20   9  31  1   
 21  10  12  1   
 22  10  32  1   
 23  10  33  1   
 24  11  13  1   
 25  11  34  1   
 26  11  35  1   
 27  12  13  1   
 28  12  36  1   
 29  12  37  1   
 30  13  14  1   
 31  13  38  1   
 32  14  15  1   
 33  14  39  1   
 34  14  40  1   
 35  15  16  1   
 36  15  17  2   
 37  16  18  2   
 38  16  41  1   
 39  17  19  1   
 40  17  42  1   
 41  18  19  1   
 42  19  20  1   
 43  20  21  1   
 44  20  22  1   
 45  20  43  1   
 46  21  44  1   
 47  21  45  1   
 48  21  46  1   
 49  22  47  1   
 50  22  48  1   
 51  22  49  1   
@<TRIPOS>SUBSTRUCTURE
  1 ****  11 GROUP 4 **** **** 0

# MOE 2024.06 (io_trps.svl 2023.06)
