@<TRIPOS>MOLECULE
NONAME
45 47 1 0 0 
SMALL
USER_CHARGES


@<TRIPOS>ATOM
  1 CL       0.8450     0.5180     2.4480 Cl    1 <1>  -0.1770 
  2 C        0.6720     2.0490     1.6320 C.ar  1 <1>   0.1770 
  3 C        1.7890     2.7980     1.3110 C.ar  1 <1>   0.1600 
  4 C       -0.5800     2.5130     1.3060 C.ar  1 <1>  -0.1500 
  5 N        1.7500     3.9700     0.6970 N.ar  1 <1>  -0.6200 
  6 C       -0.6290     3.7310     0.6610 C.ar  1 <1>  -0.1500 
  7 C        0.5340     4.4520     0.3610 C.ar  1 <1>   0.3960 
  8 C        0.3910     5.7360    -0.3410 C.2   1 <1>   0.5440 
  9 O       -0.4900     5.8360    -1.1810 O.2   1 <1>  -0.5700 
 10 N        1.1660     6.8630    -0.0950 N.am  1 <1>  -0.6600 
 11 C        2.0870     6.9830     1.0750 C.3   1 <1>   0.1400 
 12 C        1.0070     8.0810    -0.9450 C.3   1 <1>   0.1400 
 13 C        3.5430     6.6890     0.6780 C.3   1 <1>   0.1100 
 14 C        2.2760     8.9320    -1.0740 C.3   1 <1>  -0.1600 
 15 N        4.2100     7.8030    -0.0330 N.3   1 <1>  -0.8100 
 16 C        3.5490     8.1180    -1.3160 C.3   1 <1>   0.1100 
 17 C        5.6300     7.4530    -0.2700 C.3   1 <1>   0.2900 
 18 C        6.4450     8.6900    -0.6010 C.2   1 <1>   0.0070 
 19 N        7.4880     8.7350    -1.3560 N.2   1 <1>  -0.3380 
 20 N        6.1430     9.8900    -0.1190 N.pl3 1 <1>   0.0330 
 21 N        7.8950    10.0090    -1.3780 N.2   1 <1>  -0.3380 
 22 C        7.0820    10.6800    -0.6370 C.2   1 <1>   0.0060 
 23 C        7.1680    12.1740    -0.3840 C.3   1 <1>   0.0200 
 24 C        7.4890    12.4790     1.0820 C.3   1 <1>  -0.2400 
 25 H        2.7550     2.4050     1.5770 H     1 <1>   0.1500 
 26 H       -1.4650     1.9480     1.5420 H     1 <1>   0.1500 
 27 H       -1.5810     4.1420     0.3730 H     1 <1>   0.1500 
 28 H        1.7880     6.2860     1.8360 H     1 <1>   0.0800 
 29 H        2.0180     7.9660     1.5060 H     1 <1>   0.0800 
 30 H        0.2080     8.6820    -0.5450 H     1 <1>   0.0800 
 31 H        0.7150     7.7740    -1.9360 H     1 <1>   0.0800 
 32 H        3.5770     5.7950     0.0790 H     1 <1>   0.0800 
 33 H        4.0870     6.4950     1.5860 H     1 <1>   0.0800 
 34 H        2.3970     9.5620    -0.2110 H     1 <1>   0.0800 
 35 H        2.1320     9.5850    -1.9150 H     1 <1>   0.0800 
 36 H        4.2090     8.7170    -1.9210 H     1 <1>   0.0800 
 37 H        3.3310     7.2160    -1.8660 H     1 <1>   0.0800 
 38 H        5.7140     6.7360    -1.0690 H     1 <1>   0.0800 
 39 H        6.0510     7.0160     0.6190 H     1 <1>   0.0800 
 40 H        5.3490    10.1050     0.4870 H     1 <1>   0.2700 
 41 H        6.2380    12.6370    -0.6630 H     1 <1>   0.0800 
 42 H        7.9410    12.5860    -1.0100 H     1 <1>   0.0800 
 43 H        6.7100    12.1140     1.7270 H     1 <1>   0.0800 
 44 H        7.5870    13.5410     1.2250 H     1 <1>   0.0800 
 45 H        8.4170    12.0080     1.3580 H     1 <1>   0.0800 
@<TRIPOS>BOND
  1   1   2  1   
  2   2   3  ar  
  3   2   4  ar  
  4   3   5  ar  
  5   3  25  1   
  6   4   6  ar  
  7   4  26  1   
  8   5   7  ar  
  9   6   7  ar  
 10   6  27  1   
 11   7   8  1   
 12   8   9  2   
 13   8  10  am  
 14  10  11  1   
 15  10  12  1   
 16  11  13  1   
 17  11  28  1   
 18  11  29  1   
 19  12  14  1   
 20  12  30  1   
 21  12  31  1   
 22  13  15  1   
 23  13  32  1   
 24  13  33  1   
 25  14  16  1   
 26  14  34  1   
 27  14  35  1   
 28  15  16  1   
 29  15  17  1   
 30  16  36  1   
 31  16  37  1   
 32  17  18  1   
 33  17  38  1   
 34  17  39  1   
 35  18  19  2   
 36  18  20  1   
 37  19  21  1   
 38  20  22  1   
 39  20  40  1   
 40  21  22  2   
 41  22  23  1   
 42  23  24  1   
 43  23  41  1   
 44  23  42  1   
 45  24  43  1   
 46  24  44  1   
 47  24  45  1   
@<TRIPOS>SUBSTRUCTURE
  1 ****  13 GROUP 4 **** **** 0

# MOE 2024.06 (io_trps.svl 2023.06)
