@<TRIPOS>MOLECULE
NONAME
47 48 1 0 0 
SMALL
USER_CHARGES


@<TRIPOS>ATOM
  1 CL      -3.0920    -0.7360     2.8330 Cl    1 <1>  -0.1770 
  2 C       -2.5650    -1.3870     1.2960 C.ar  1 <1>   0.1770 
  3 C       -1.8780    -0.5920     0.3840 C.ar  1 <1>   0.0830 
  4 C       -2.8580    -2.7070     1.0060 C.ar  1 <1>  -0.1500 
  5 O       -1.5820     0.7040     0.6280 O.3   1 <1>  -0.3630 
  6 C       -1.5000    -1.1340    -0.8340 C.ar  1 <1>  -0.1500 
  7 C       -2.4700    -3.2500    -0.2140 C.ar  1 <1>  -0.1430 
  8 C       -0.5110     0.9570     1.5090 C.3   1 <1>   0.0400 
  9 C       -1.7920    -2.4550    -1.1290 C.ar  1 <1>  -0.1500 
 10 C       -2.7900    -4.6970    -0.5590 C.3   1 <1>   0.4870 
 11 N       -4.2440    -4.9260    -0.4860 N.4   1 <1>  -0.9590 
 12 C       -4.6490    -6.3660    -0.7000 C.3   1 <1>   0.3430 
 13 C       -5.1040    -3.9720    -1.2350 C.3   1 <1>   0.3430 
 14 C       -6.1810    -6.5340    -0.8900 C.3   1 <1>   0.2000 
 15 C       -6.5510    -4.0490    -0.7060 C.3   1 <1>  -0.1600 
 16 O       -6.4600    -6.4230    -2.2530 O.3   1 <1>  -0.6800 
 17 C       -6.9350    -5.4400    -0.0940 C.3   1 <1>  -0.1060 
 18 C       -6.3710    -5.5940     1.3350 C.2   1 <1>   0.9060 
 19 C       -8.4810    -5.6250    -0.0210 C.3   1 <1>  -0.1600 
 20 O       -5.6380    -4.7080     1.8000 O.co2 1 <1>  -0.9000 
 21 O       -6.4460    -6.6980     1.8730 O.co2 1 <1>  -0.9000 
 22 C       -9.2660    -5.7400    -1.3420 C.3   1 <1>  -0.1600 
 23 C      -10.7730    -5.7260    -1.0750 C.3   1 <1>  -0.2400 
 24 H       -3.3960    -3.2900     1.7390 H     1 <1>   0.1500 
 25 H       -0.9800    -0.5140    -1.5430 H     1 <1>   0.1500 
 26 H       -0.3730     2.0220     1.5720 H     1 <1>   0.0800 
 27 H        0.3780     0.4930     1.1210 H     1 <1>   0.0800 
 28 H       -0.7460     0.5630     2.4810 H     1 <1>   0.0800 
 29 H       -1.4850    -2.8530    -2.0820 H     1 <1>   0.1500 
 30 H       -2.2870    -5.3470     0.1380 H     1 <1>   0.0800 
 31 H       -2.4380    -4.9210    -1.5520 H     1 <1>   0.0800 
 32 H       -4.5190    -4.7320     0.5130 H     1 <1>   0.4500 
 33 H       -4.1490    -6.7820    -1.5570 H     1 <1>   0.0800 
 34 H       -4.3610    -6.9320     0.1720 H     1 <1>   0.0800 
 35 H       -4.7400    -2.9630    -1.1260 H     1 <1>   0.0800 
 36 H       -5.0910    -4.2330    -2.2800 H     1 <1>   0.0800 
 37 H       -6.4810    -7.5180    -0.5710 H     1 <1>   0.0800 
 38 H       -6.6980    -3.2780     0.0310 H     1 <1>   0.0800 
 39 H       -7.1950    -3.8020    -1.5280 H     1 <1>   0.0800 
 40 H       -7.4300    -6.4660    -2.3760 H     1 <1>   0.4000 
 41 H       -8.6870    -6.5130     0.5560 H     1 <1>   0.0800 
 42 H       -8.8780    -4.8000     0.5460 H     1 <1>   0.0800 
 43 H       -9.0300    -4.9260    -2.0040 H     1 <1>   0.0800 
 44 H       -9.0270    -6.6670    -1.8320 H     1 <1>   0.0800 
 45 H      -11.0650    -4.8020    -0.6070 H     1 <1>   0.0800 
 46 H      -11.0470    -6.5410    -0.4280 H     1 <1>   0.0800 
 47 H      -11.3140    -5.8260    -1.9990 H     1 <1>   0.0800 
@<TRIPOS>BOND
  1   1   2  1   
  2   2   3  ar  
  3   2   4  ar  
  4   3   5  1   
  5   3   6  ar  
  6   4   7  ar  
  7   4  24  1   
  8   5   8  1   
  9   6   9  ar  
 10   6  25  1   
 11   7   9  ar  
 12   7  10  1   
 13   8  26  1   
 14   8  27  1   
 15   8  28  1   
 16   9  29  1   
 17  10  11  1   
 18  10  30  1   
 19  10  31  1   
 20  11  12  1   
 21  11  13  1   
 22  11  32  1   
 23  12  14  1   
 24  12  33  1   
 25  12  34  1   
 26  13  15  1   
 27  13  35  1   
 28  13  36  1   
 29  14  16  1   
 30  14  17  1   
 31  14  37  1   
 32  15  17  1   
 33  15  38  1   
 34  15  39  1   
 35  16  40  1   
 36  17  18  1   
 37  17  19  1   
 38  18  20  ar  
 39  18  21  ar  
 40  19  22  1   
 41  19  41  1   
 42  19  42  1   
 43  22  23  1   
 44  22  43  1   
 45  22  44  1   
 46  23  45  1   
 47  23  46  1   
 48  23  47  1   
@<TRIPOS>SUBSTRUCTURE
  1 ****  11 GROUP 4 **** **** 0

# MOE 2024.06 (io_trps.svl 2023.06)
