@<TRIPOS>MOLECULE
NONAME
34 35 1 0 0 
SMALL
USER_CHARGES


@<TRIPOS>ATOM
  1 O       -1.4370    -3.2600    -0.2110 O.3   1 <1>  -0.2800 
  2 C       -1.9010    -2.2930     0.5620 C.2   1 <1>  -0.0400 
  3 C       -0.4190    -2.7730    -0.8930 C.2   1 <1>  -0.0100 
  4 C       -1.1750    -1.1670     0.3890 C.2   1 <1>  -0.1500 
  5 C       -3.0880    -2.5500     1.4890 C.3   1 <1>   0.2900 
  6 C       -0.2030    -1.4810    -0.5690 C.2   1 <1>  -0.1500 
  7 N       -4.3970    -2.5250     0.7960 N.3   1 <1>  -0.8100 
  8 C       -4.5530    -3.5800    -0.2230 C.3   1 <1>   0.2900 
  9 C       -4.6770    -1.1860     0.2410 C.3   1 <1>   0.1100 
 10 C       -4.3310    -4.9600     0.3630 C.2   1 <1>  -0.3320 
 11 C       -6.1770    -0.9790    -0.0030 C.3   1 <1>   0.1200 
 12 N       -3.1310    -5.5650     0.3960 N.pl3 1 <1>   0.0330 
 13 C       -5.2040    -5.8300     0.9170 C.2   1 <1>   0.0770 
 14 O       -6.4070     0.3460    -0.3470 O.3   1 <1>  -0.6800 
 15 C       -3.3490    -6.7670     0.9700 C.2   1 <1>   0.0060 
 16 N       -4.5840    -6.9650     1.2960 N.2   1 <1>  -0.5650 
 17 C       -2.2440    -7.7720     1.2070 C.3   1 <1>  -0.0600 
 18 H        0.0980    -3.4110    -1.5890 H     1 <1>   0.1500 
 19 H       -1.2880    -0.2100     0.8670 H     1 <1>   0.1500 
 20 H       -3.0960    -1.7900     2.2510 H     1 <1>   0.0800 
 21 H       -2.9570    -3.4870     1.9990 H     1 <1>   0.0800 
 22 H        0.5460    -0.8070    -0.9460 H     1 <1>   0.1500 
 23 H       -3.8780    -3.4130    -1.0450 H     1 <1>   0.0800 
 24 H       -5.5550    -3.5500    -0.6120 H     1 <1>   0.0800 
 25 H       -4.1330    -1.0450    -0.6780 H     1 <1>   0.0800 
 26 H       -4.3520    -0.4410     0.9470 H     1 <1>   0.0800 
 27 H       -6.7420    -1.2010     0.8850 H     1 <1>   0.0800 
 28 H       -6.5220    -1.5890    -0.8180 H     1 <1>   0.0800 
 29 H       -2.2410    -5.1660     0.0730 H     1 <1>   0.2700 
 30 H       -6.2620    -5.6960     1.0660 H     1 <1>   0.1500 
 31 H       -6.2570     0.9310     0.4200 H     1 <1>   0.4000 
 32 H       -1.4920    -7.3480     1.8470 H     1 <1>   0.0800 
 33 H       -1.8000    -8.0590     0.2720 H     1 <1>   0.0800 
 34 H       -2.6470    -8.6480     1.6820 H     1 <1>   0.0800 
@<TRIPOS>BOND
  1   1   2  1   
  2   1   3  1   
  3   2   4  2   
  4   2   5  1   
  5   3   6  2   
  6   3  18  1   
  7   4   6  1   
  8   4  19  1   
  9   5   7  1   
 10   5  20  1   
 11   5  21  1   
 12   6  22  1   
 13   7   8  1   
 14   7   9  1   
 15   8  10  1   
 16   8  23  1   
 17   8  24  1   
 18   9  11  1   
 19   9  25  1   
 20   9  26  1   
 21  10  12  1   
 22  10  13  2   
 23  11  14  1   
 24  11  27  1   
 25  11  28  1   
 26  12  15  1   
 27  12  29  1   
 28  13  16  1   
 29  13  30  1   
 30  14  31  1   
 31  15  16  2   
 32  15  17  1   
 33  17  32  1   
 34  17  33  1   
 35  17  34  1   
@<TRIPOS>SUBSTRUCTURE
  1 ****   8 GROUP 4 **** **** 0

# MOE 2024.06 (io_trps.svl 2023.06)
