@<TRIPOS>MOLECULE
NONAME
51 54 1 0 0 
SMALL
USER_CHARGES


@<TRIPOS>ATOM
  1 S       -0.1690    -0.1650    -1.1900 S.o2  1 <1>   1.5010 
  2 O       -0.9500    -1.2700    -1.7080 O.2   1 <1>  -0.6500 
  3 O       -0.1230     1.0800    -1.9270 O.2   1 <1>  -0.6500 
  4 N       -0.7210     0.1580     0.3840 N.am  1 <1>  -0.8490 
  5 C        1.5110    -0.7780    -0.8760 C.2   1 <1>  -0.0630 
  6 C       -2.1000    -0.2380     0.7250 C.3   1 <1>   0.1960 
  7 C       -0.3040     1.4290     0.9740 C.3   1 <1>   0.1960 
  8 C        2.6710    -0.0800    -0.8640 C.2   1 <1>  -0.1400 
  9 C        1.7170    -2.1610    -0.5590 C.2   1 <1>  -0.1500 
 10 C       -3.1820     0.8480     0.4700 C.3   1 <1>   0.0000 
 11 C       -1.2980     2.5530     0.6620 C.3   1 <1>  -0.1600 
 12 S        4.0260    -1.1180    -0.4660 S.3   1 <1>  -0.0800 
 13 C        3.0260     1.3750    -1.1200 C.3   1 <1>  -0.0600 
 14 C        2.9960    -2.5330    -0.3100 C.2   1 <1>   0.0400 
 15 C       -4.5150     0.3280     1.0540 C.3   1 <1>   0.2000 
 16 C       -2.7200     2.1810     1.1030 C.3   1 <1>  -0.1600 
 17 C       -3.5270     0.9960    -1.0260 C.3   1 <1>  -0.1600 
 18 C        3.5990    -3.7900     0.0300 C.2   1 <1>  -0.1520 
 19 O       -5.4190     1.3660     1.2010 O.3   1 <1>  -0.6800 
 20 C       -5.0810    -0.6120    -0.0100 C.3   1 <1>  -0.1600 
 21 C       -4.5080    -0.1360    -1.3530 C.3   1 <1>  -0.1600 
 22 N        2.9220    -4.9580     0.1220 N.pl3 1 <1>   0.3000 
 23 C        4.8890    -4.1080     0.3220 C.2   1 <1>  -0.1500 
 24 N        3.7130    -5.9940     0.4590 N.2   1 <1>  -0.7070 
 25 C        4.9160    -5.4770     0.5810 C.2   1 <1>   0.1080 
 26 C        6.2130    -6.2490     0.9590 C.3   1 <1>   1.2010 
 27 F        6.1420    -6.8310     2.1530 F     1 <1>  -0.3400 
 28 F        7.2810    -5.4560     1.0070 F     1 <1>  -0.3400 
 29 F        6.5170    -7.2110     0.0920 F     1 <1>  -0.3400 
 30 H       -2.3600    -1.1520     0.2190 H     1 <1>   0.0800 
 31 H       -2.1090    -0.4630     1.7780 H     1 <1>   0.0800 
 32 H       -0.2460     1.3050     2.0430 H     1 <1>   0.0800 
 33 H        0.6780     1.6970     0.6250 H     1 <1>   0.0800 
 34 H        0.8730    -2.8270    -0.5330 H     1 <1>   0.1500 
 35 H       -0.9890     3.4440     1.1770 H     1 <1>   0.0800 
 36 H       -1.2840     2.7720    -0.3910 H     1 <1>   0.0800 
 37 H        2.1570     1.9590    -1.3550 H     1 <1>   0.0800 
 38 H        3.7100     1.4400    -1.9470 H     1 <1>   0.0800 
 39 H        3.4970     1.7960    -0.2500 H     1 <1>   0.0800 
 40 H       -4.4030    -0.1480     2.0140 H     1 <1>   0.0800 
 41 H       -3.3920     2.9800     0.8420 H     1 <1>   0.0800 
 42 H       -2.7380     2.0840     2.1750 H     1 <1>   0.0800 
 43 H       -4.0250     1.9360    -1.1880 H     1 <1>   0.0800 
 44 H       -2.6720     0.9730    -1.6720 H     1 <1>   0.0800 
 45 H       -5.5700     1.7750     0.3290 H     1 <1>   0.4000 
 46 H       -4.7320    -1.6110     0.1830 H     1 <1>   0.0800 
 47 H       -6.1580    -0.6270    -0.0050 H     1 <1>   0.0800 
 48 H       -3.9870    -0.9460    -1.8360 H     1 <1>   0.0800 
 49 H       -5.2860     0.2140    -2.0090 H     1 <1>   0.0800 
 50 H        1.9150    -5.0690    -0.0460 H     1 <1>   0.2700 
 51 H        5.7310    -3.4380     0.3500 H     1 <1>   0.1500 
@<TRIPOS>BOND
  1   1   2  2   
  2   1   3  2   
  3   1   4  am  
  4   1   5  1   
  5   4   6  1   
  6   4   7  1   
  7   5   8  2   
  8   5   9  1   
  9   6  10  1   
 10   6  30  1   
 11   6  31  1   
 12   7  11  1   
 13   7  32  1   
 14   7  33  1   
 15   8  12  1   
 16   8  13  1   
 17   9  14  2   
 18   9  34  1   
 19  10  15  1   
 20  10  16  1   
 21  10  17  1   
 22  11  16  1   
 23  11  35  1   
 24  11  36  1   
 25  12  14  1   
 26  13  37  1   
 27  13  38  1   
 28  13  39  1   
 29  14  18  1   
 30  15  19  1   
 31  15  20  1   
 32  15  40  1   
 33  16  41  1   
 34  16  42  1   
 35  17  21  1   
 36  17  43  1   
 37  17  44  1   
 38  18  22  1   
 39  18  23  2   
 40  19  45  1   
 41  20  21  1   
 42  20  46  1   
 43  20  47  1   
 44  21  48  1   
 45  21  49  1   
 46  22  24  1   
 47  22  50  1   
 48  23  25  1   
 49  23  51  1   
 50  24  25  2   
 51  25  26  1   
 52  26  27  1   
 53  26  28  1   
 54  26  29  1   
@<TRIPOS>SUBSTRUCTURE
  1 ****   9 GROUP 4 **** **** 0

# MOE 2024.06 (io_trps.svl 2023.06)
