@<TRIPOS>MOLECULE
NONAME
45 46 1 0 0 
SMALL
USER_CHARGES


@<TRIPOS>ATOM
  1 S        1.0650     0.1820     0.6420 S.o2  1 <1>   1.3330 
  2 O        1.6910     0.2070     1.9470 O.2   1 <1>  -0.6500 
  3 O        0.7320    -1.0870     0.0360 O.2   1 <1>  -0.6500 
  4 N       -0.3510     1.1100     0.7420 N.am  1 <1>  -0.8490 
  5 C        2.0730     1.1040    -0.5120 C.3   1 <1>  -0.0550 
  6 C       -1.4890     0.3260     1.2290 C.3   1 <1>   0.1160 
  7 C       -0.1980     2.3270     1.5460 C.3   1 <1>   0.1160 
  8 C        3.3510     0.3650    -0.9640 C.3   1 <1>  -0.0800 
  9 C        4.3270     1.1990    -1.7840 C.3   1 <1>   0.2200 
 10 C        4.2430    -0.1550     0.1690 C.3   1 <1>   0.1200 
 11 N        4.5420     2.5170    -1.1440 N.am  1 <1>  -0.7300 
 12 C        5.5950     0.3730    -1.6170 C.3   1 <1>   0.1200 
 13 O        5.5590    -0.1060    -0.3040 O.3   1 <1>  -0.5600 
 14 C        3.8700     3.6680    -1.4270 C.2   1 <1>   0.5440 
 15 O        3.2050     3.7080    -2.4440 O.2   1 <1>  -0.5700 
 16 C        3.9300     4.8040    -0.5260 C.ar  1 <1>   0.0860 
 17 C        3.9170     4.6700     0.8730 C.ar  1 <1>   0.0820 
 18 C        3.9960     6.0940    -1.0550 C.ar  1 <1>  -0.1500 
 19 O        3.8120     3.4230     1.4030 O.3   1 <1>  -0.3630 
 20 C        3.9950     5.7990     1.6860 C.ar  1 <1>  -0.1500 
 21 C        4.0670     7.2090    -0.2450 C.ar  1 <1>  -0.1500 
 22 C        3.6870     3.1710     2.7860 C.3   1 <1>   0.0400 
 23 C        4.0710     7.0620     1.1300 C.ar  1 <1>  -0.1500 
 24 H        1.4900     1.3340    -1.3830 H     1 <1>   0.0800 
 25 H        2.3280     2.0310    -0.0480 H     1 <1>   0.0800 
 26 H       -2.3770     0.9330     1.2540 H     1 <1>   0.0800 
 27 H       -1.2870    -0.0520     2.2180 H     1 <1>   0.0800 
 28 H       -1.6700    -0.5070     0.5710 H     1 <1>   0.0800 
 29 H       -1.1030     2.9090     1.5100 H     1 <1>   0.0800 
 30 H        0.6050     2.9320     1.1600 H     1 <1>   0.0800 
 31 H        0.0180     2.0770     2.5720 H     1 <1>   0.0800 
 32 H        3.0520    -0.4860    -1.5510 H     1 <1>   0.0800 
 33 H        4.0330     1.3140    -2.8140 H     1 <1>   0.0800 
 34 H        4.0040    -1.1690     0.4430 H     1 <1>   0.0800 
 35 H        4.1910     0.4790     1.0380 H     1 <1>   0.0800 
 36 H        4.9980     2.4530    -0.2280 H     1 <1>   0.3700 
 37 H        6.4900     0.9500    -1.7710 H     1 <1>   0.0800 
 38 H        5.5860    -0.4760    -2.2780 H     1 <1>   0.0800 
 39 H        3.9900     6.2130    -2.1260 H     1 <1>   0.1500 
 40 H        3.9990     5.7180     2.7560 H     1 <1>   0.1500 
 41 H        4.1200     8.1920    -0.6820 H     1 <1>   0.1500 
 42 H        3.5580     2.1110     2.9240 H     1 <1>   0.0800 
 43 H        2.8240     3.6920     3.1620 H     1 <1>   0.0800 
 44 H        4.5820     3.4970     3.2840 H     1 <1>   0.0800 
 45 H        4.1310     7.9310     1.7630 H     1 <1>   0.1500 
@<TRIPOS>BOND
  1   1   2  2   
  2   1   3  2   
  3   1   4  am  
  4   1   5  1   
  5   4   6  1   
  6   4   7  1   
  7   5   8  1   
  8   5  24  1   
  9   5  25  1   
 10   6  26  1   
 11   6  27  1   
 12   6  28  1   
 13   7  29  1   
 14   7  30  1   
 15   7  31  1   
 16   8   9  1   
 17   8  10  1   
 18   8  32  1   
 19   9  11  1   
 20   9  12  1   
 21   9  33  1   
 22  10  13  1   
 23  10  34  1   
 24  10  35  1   
 25  11  14  am  
 26  11  36  1   
 27  12  13  1   
 28  12  37  1   
 29  12  38  1   
 30  14  15  2   
 31  14  16  1   
 32  16  17  ar  
 33  16  18  ar  
 34  17  19  1   
 35  17  20  ar  
 36  18  21  ar  
 37  18  39  1   
 38  19  22  1   
 39  20  23  ar  
 40  20  40  1   
 41  21  23  ar  
 42  21  41  1   
 43  22  42  1   
 44  22  43  1   
 45  22  44  1   
 46  23  45  1   
@<TRIPOS>SUBSTRUCTURE
  1 ****  19 GROUP 4 **** **** 0

# MOE 2024.06 (io_trps.svl 2023.06)
