@<TRIPOS>MOLECULE
NONAME
51 53 1 0 0 
SMALL
USER_CHARGES


@<TRIPOS>ATOM
  1 O       -2.1170     0.6670    -2.3050 O.2   1 <1>  -0.5700 
  2 C       -2.1910     1.0450    -1.1630 C.2   1 <1>   0.5690 
  3 N       -2.4240     0.1910    -0.1380 N.am  1 <1>  -0.7300 
  4 C       -2.0110     2.5130    -0.8560 C.3   1 <1>  -0.0990 
  5 C       -2.5890    -1.2720    -0.2780 C.3   1 <1>   0.2200 
  6 C       -0.5280     2.8630    -0.7000 C.3   1 <1>  -0.0160 
  7 C       -4.0460    -1.6340    -0.0410 C.3   1 <1>  -0.0800 
  8 C       -1.9040    -1.9740     0.8880 C.3   1 <1>   0.1200 
  9 C       -0.3680     4.3300    -0.3390 C.ar  1 <1>  -0.1440 
 10 C       -4.1140    -1.7410     1.4880 C.3   1 <1>   0.1200 
 11 C       -4.4190    -2.9560    -0.7380 C.3   1 <1>  -0.0160 
 12 O       -2.8050    -1.9100     1.9510 O.3   1 <1>  -0.5600 
 13 C       -0.2510     4.7220     0.9850 C.ar  1 <1>  -0.1500 
 14 C       -0.3410     5.2940    -1.3340 C.ar  1 <1>  -0.1500 
 15 C       -5.8830    -3.3070    -0.5210 C.ar  1 <1>  -0.1440 
 16 C       -0.1100     6.0600     1.3090 C.ar  1 <1>  -0.1500 
 17 C       -0.2000     6.6320    -1.0100 C.ar  1 <1>  -0.1500 
 18 C       -6.8930    -2.6430    -1.1880 C.ar  1 <1>  -0.1500 
 19 C       -6.2800    -4.3040     0.3470 C.ar  1 <1>  -0.1500 
 20 C       -0.0850     7.0240     0.3140 C.ar  1 <1>  -0.1440 
 21 C       -8.2130    -2.9940    -0.9560 C.ar  1 <1>   0.1600 
 22 C       -7.6280    -4.5770     0.5070 C.ar  1 <1>   0.1600 
 23 C        0.0710     8.4930     0.6700 C.3   1 <1>  -0.0170 
 24 N       -8.6050    -3.9440    -0.1230 N.ar  1 <1>  -0.6200 
 25 C        1.5500     8.8830     0.7090 C.3   1 <1>  -0.2400 
 26 H       -2.4920     0.5300     0.8240 H     1 <1>   0.3700 
 27 H       -2.4330     3.0880    -1.6600 H     1 <1>   0.0800 
 28 H       -2.5420     2.7630     0.0440 H     1 <1>   0.0800 
 29 H       -2.2160    -1.6040    -1.2330 H     1 <1>   0.0800 
 30 H       -0.0110     2.6570    -1.6210 H     1 <1>   0.0800 
 31 H       -0.0860     2.2500     0.0660 H     1 <1>   0.0800 
 32 H       -4.7000    -0.8600    -0.4020 H     1 <1>   0.0800 
 33 H       -0.9770    -1.5060     1.1680 H     1 <1>   0.0800 
 34 H       -1.7350    -3.0120     0.6630 H     1 <1>   0.0800 
 35 H       -4.7120    -2.5690     1.8270 H     1 <1>   0.0800 
 36 H       -4.4950    -0.8300     1.9170 H     1 <1>   0.0800 
 37 H       -3.7990    -3.7580    -0.3750 H     1 <1>   0.0800 
 38 H       -4.2420    -2.8630    -1.7960 H     1 <1>   0.0800 
 39 H       -0.2690     3.9880     1.7710 H     1 <1>   0.1500 
 40 H       -0.4290     5.0060    -2.3670 H     1 <1>   0.1500 
 41 H       -0.0180     6.3490     2.3410 H     1 <1>   0.1500 
 42 H       -0.1780     7.3680    -1.7940 H     1 <1>   0.1500 
 43 H       -6.6670    -1.8570    -1.8850 H     1 <1>   0.1500 
 44 H       -5.5550    -4.8720     0.9030 H     1 <1>   0.1500 
 45 H       -8.9870    -2.4650    -1.4850 H     1 <1>   0.1500 
 46 H       -7.9190    -5.3570     1.1890 H     1 <1>   0.1500 
 47 H       -0.4430     9.0990    -0.0560 H     1 <1>   0.0800 
 48 H       -0.3790     8.6840     1.6290 H     1 <1>   0.0800 
 49 H        2.0040     8.7110    -0.2500 H     1 <1>   0.0800 
 50 H        2.0690     8.2950     1.4450 H     1 <1>   0.0800 
 51 H        1.6530     9.9230     0.9610 H     1 <1>   0.0800 
@<TRIPOS>BOND
  1   1   2  2   
  2   2   3  am  
  3   2   4  1   
  4   3   5  1   
  5   3  26  1   
  6   4   6  1   
  7   4  27  1   
  8   4  28  1   
  9   5   7  1   
 10   5   8  1   
 11   5  29  1   
 12   6   9  1   
 13   6  30  1   
 14   6  31  1   
 15   7  10  1   
 16   7  11  1   
 17   7  32  1   
 18   8  12  1   
 19   8  33  1   
 20   8  34  1   
 21   9  13  ar  
 22   9  14  ar  
 23  10  12  1   
 24  10  35  1   
 25  10  36  1   
 26  11  15  1   
 27  11  37  1   
 28  11  38  1   
 29  13  16  ar  
 30  13  39  1   
 31  14  17  ar  
 32  14  40  1   
 33  15  18  ar  
 34  15  19  ar  
 35  16  20  ar  
 36  16  41  1   
 37  17  20  ar  
 38  17  42  1   
 39  18  21  ar  
 40  18  43  1   
 41  19  22  ar  
 42  19  44  1   
 43  20  23  1   
 44  21  24  ar  
 45  21  45  1   
 46  22  24  ar  
 47  22  46  1   
 48  23  25  1   
 49  23  47  1   
 50  23  48  1   
 51  25  49  1   
 52  25  50  1   
 53  25  51  1   
@<TRIPOS>SUBSTRUCTURE
  1 ****   3 GROUP 4 **** **** 0

# MOE 2024.06 (io_trps.svl 2023.06)
