@<TRIPOS>MOLECULE
NONAME
42 44 1 0 0 
SMALL
USER_CHARGES


@<TRIPOS>ATOM
  1 O       -2.0720     0.4800    -2.0200 O.2   1 <1>  -0.5700 
  2 C       -1.9210     0.6180    -0.8230 C.2   1 <1>   0.5440 
  3 N       -1.8770    -0.5080    -0.0490 N.am  1 <1>  -0.7300 
  4 C       -1.8080     1.9360    -0.2500 C.ar  1 <1>   0.0860 
  5 C       -2.0260    -1.8970    -0.5490 C.3   1 <1>   0.2200 
  6 C       -1.9890     2.2000     1.0970 C.ar  1 <1>   0.1600 
  7 C       -1.5170     3.0470    -1.0230 C.ar  1 <1>   0.1600 
  8 C       -3.3980    -2.4600    -0.2010 C.3   1 <1>  -0.0800 
  9 C       -1.1360    -2.8070     0.2850 C.3   1 <1>   0.1200 
 10 N       -1.8880     3.3970     1.6210 N.ar  1 <1>  -0.6200 
 11 N       -1.4060     4.2580    -0.5340 N.ar  1 <1>  -0.6200 
 12 C       -3.2110    -2.9650     1.2360 C.3   1 <1>   0.1200 
 13 C       -4.5880    -1.5000    -0.3880 C.3   1 <1>  -0.0170 
 14 O       -1.8330    -2.9860     1.4790 O.3   1 <1>  -0.5600 
 15 C       -1.5980     4.3750     0.7750 C.ar  1 <1>   0.7200 
 16 C       -5.9020    -2.1890    -0.0550 C.ar  1 <1>  -0.1430 
 17 N       -1.4970     5.5940     1.3420 N.pl3 1 <1>  -0.8690 
 18 C       -6.5430    -1.9990     1.1520 C.ar  1 <1>  -0.1500 
 19 C       -6.5210    -3.0430    -0.9460 C.ar  1 <1>  -0.1500 
 20 C       -1.1950     6.8850     0.6750 C.3   1 <1>   0.1290 
 21 C       -7.7350    -2.6570     1.4060 C.ar  1 <1>   0.1600 
 22 C       -7.7140    -3.6520    -0.5940 C.ar  1 <1>   0.1600 
 23 N       -8.3340    -3.4810     0.5620 N.ar  1 <1>  -0.6200 
 24 H       -1.6840    -0.4700     0.9540 H     1 <1>   0.3700 
 25 H       -1.8030    -1.9560    -1.6010 H     1 <1>   0.0800 
 26 H       -2.2320     1.3950     1.7660 H     1 <1>   0.1500 
 27 H       -1.3720     2.9180    -2.0830 H     1 <1>   0.1500 
 28 H       -3.5650    -3.3230    -0.8220 H     1 <1>   0.0800 
 29 H       -0.1690    -2.3800     0.4850 H     1 <1>   0.0800 
 30 H       -1.0240    -3.7700    -0.1830 H     1 <1>   0.0800 
 31 H       -3.6040    -3.9590     1.3620 H     1 <1>   0.0800 
 32 H       -3.6590    -2.3030     1.9560 H     1 <1>   0.0800 
 33 H       -4.6130    -1.1580    -1.4090 H     1 <1>   0.0800 
 34 H       -4.4780    -0.6340     0.2390 H     1 <1>   0.0800 
 35 H       -1.6560     5.6040     2.3490 H     1 <1>   0.4000 
 36 H       -6.1310    -1.3450     1.8990 H     1 <1>   0.1500 
 37 H       -6.0880    -3.2390    -1.9090 H     1 <1>   0.1500 
 38 H       -1.0530     6.7480    -0.3830 H     1 <1>   0.0800 
 39 H       -0.2970     7.3060     1.0920 H     1 <1>   0.0800 
 40 H       -2.0110     7.5700     0.8270 H     1 <1>   0.0800 
 41 H       -8.2210    -2.4960     2.3530 H     1 <1>   0.1500 
 42 H       -8.1820    -4.3150    -1.3010 H     1 <1>   0.1500 
@<TRIPOS>BOND
  1   1   2  2   
  2   2   3  am  
  3   2   4  1   
  4   3   5  1   
  5   3  24  1   
  6   4   6  ar  
  7   4   7  ar  
  8   5   8  1   
  9   5   9  1   
 10   5  25  1   
 11   6  10  ar  
 12   6  26  1   
 13   7  11  ar  
 14   7  27  1   
 15   8  12  1   
 16   8  13  1   
 17   8  28  1   
 18   9  14  1   
 19   9  29  1   
 20   9  30  1   
 21  10  15  ar  
 22  11  15  ar  
 23  12  14  1   
 24  12  31  1   
 25  12  32  1   
 26  13  16  1   
 27  13  33  1   
 28  13  34  1   
 29  15  17  1   
 30  16  18  ar  
 31  16  19  ar  
 32  17  20  1   
 33  17  35  1   
 34  18  21  ar  
 35  18  36  1   
 36  19  22  ar  
 37  19  37  1   
 38  20  38  1   
 39  20  39  1   
 40  20  40  1   
 41  21  23  ar  
 42  21  41  1   
 43  22  23  ar  
 44  22  42  1   
@<TRIPOS>SUBSTRUCTURE
  1 ****   3 GROUP 4 **** **** 0

# MOE 2024.06 (io_trps.svl 2023.06)
