@<TRIPOS>MOLECULE
NONAME
24 24 1 0 0 
SMALL
USER_CHARGES


@<TRIPOS>ATOM
  1 BR      -0.4060     0.4760     2.3420 Br    1 <1>  -0.1110 
  2 C       -1.8350     1.1480     1.2460 C.ar  1 <1>   0.1110 
  3 C       -2.8240     0.2790     0.8350 C.ar  1 <1>  -0.1500 
  4 C       -1.8280     2.4850     0.9020 C.ar  1 <1>  -0.1500 
  5 C       -3.8600     0.7600     0.0420 C.ar  1 <1>  -0.1430 
  6 C       -2.8580     2.9820     0.1130 C.ar  1 <1>  -0.1430 
  7 C       -3.8590     2.1110    -0.3090 C.ar  1 <1>  -0.1500 
  8 C       -4.9910    -0.1620    -0.4520 C.3   1 <1>   1.1640 
  9 C       -2.9260     4.4460    -0.2960 C.3   1 <1>   0.5660 
 10 F       -6.1850     0.3400    -0.1680 F     1 <1>  -0.3400 
 11 F       -4.9550    -0.3180    -1.7680 F     1 <1>  -0.3400 
 12 F       -4.9560    -1.3780     0.0770 F     1 <1>  -0.3400 
 13 N       -3.1710     5.2290     0.9120 N.4   1 <1>  -0.8530 
 14 C       -1.6410     4.9390    -0.9500 C.3   1 <1>  -0.2400 
 15 H       -2.7710    -0.7560     1.1350 H     1 <1>   0.1500 
 16 H       -1.0150     3.0950     1.2560 H     1 <1>   0.1500 
 17 H       -4.6640     2.4770    -0.9300 H     1 <1>   0.1500 
 18 H       -3.7440     4.5790    -0.9880 H     1 <1>   0.0800 
 19 H       -2.3920     5.1010     1.5630 H     1 <1>   0.4500 
 20 H       -4.0210     4.8880     1.3720 H     1 <1>   0.4500 
 21 H       -3.2720     6.2240     0.6960 H     1 <1>   0.4500 
 22 H       -0.8000     4.8780    -0.2830 H     1 <1>   0.0800 
 23 H       -1.7530     5.9530    -1.2910 H     1 <1>   0.0800 
 24 H       -1.4260     4.3280    -1.8100 H     1 <1>   0.0800 
@<TRIPOS>BOND
  1   1   2  1   
  2   2   3  ar  
  3   2   4  ar  
  4   3   5  ar  
  5   3  15  1   
  6   4   6  ar  
  7   4  16  1   
  8   5   7  ar  
  9   5   8  1   
 10   6   7  ar  
 11   6   9  1   
 12   7  17  1   
 13   8  10  1   
 14   8  11  1   
 15   8  12  1   
 16   9  13  1   
 17   9  14  1   
 18   9  18  1   
 19  13  19  1   
 20  13  20  1   
 21  13  21  1   
 22  14  22  1   
 23  14  23  1   
 24  14  24  1   
@<TRIPOS>SUBSTRUCTURE
  1 ****   7 GROUP 4 **** **** 0

# MOE 2024.06 (io_trps.svl 2023.06)
