@<TRIPOS>MOLECULE
NONAME
44 46 1 0 0 
SMALL
USER_CHARGES


@<TRIPOS>ATOM
  1 O        0.6940    -1.6810    -2.0650 O.3   1 <1>  -0.6800 
  2 C        0.3980    -2.0280    -0.7580 C.3   1 <1>   0.1200 
  3 C        1.6130    -1.8610     0.2010 C.3   1 <1>   0.0000 
  4 C        2.9560    -2.4490    -0.3320 C.3   1 <1>   0.4230 
  5 C        1.8100    -0.3510     0.5270 C.3   1 <1>  -0.1600 
  6 C        1.2680    -2.6020     1.5270 C.3   1 <1>  -0.1600 
  7 N        2.8910    -3.9360    -0.6590 N.4   1 <1>  -0.9590 
  8 C        3.6490    -1.5760    -1.4080 C.3   1 <1>   0.2090 
  9 C        2.4950     0.4590    -0.5830 C.3   1 <1>   0.2090 
 10 C        1.8400    -4.0340     1.6090 C.3   1 <1>  -0.1600 
 11 C        1.9750    -4.7070     0.2400 C.3   1 <1>   0.3430 
 12 C        2.5680    -4.2240    -2.0930 C.3   1 <1>   0.2630 
 13 N        3.7950    -0.1790    -0.9130 N.pl3 1 <1>  -0.8380 
 14 C        4.9060     0.1620    -0.1710 C.ar  1 <1>   0.4100 
 15 N        5.4440    -0.7890     0.5880 N.ar  1 <1>  -0.6200 
 16 C        5.4090     1.4590    -0.2310 C.ar  1 <1>  -0.1500 
 17 C        6.5020    -0.4290     1.3000 C.ar  1 <1>   0.1600 
 18 C        6.5060     1.8130     0.5170 C.ar  1 <1>  -0.1500 
 19 C        7.0780     0.8350     1.3160 C.ar  1 <1>   0.0730 
 20 C        8.2220     1.1030     2.1320 C.1   1 <1>   0.4840 
 21 N        9.1320     1.3070     2.7870 N.1   1 <1>  -0.5570 
 22 H       -0.1270    -1.5030    -2.5730 H     1 <1>   0.4000 
 23 H       -0.4180    -1.4060    -0.4290 H     1 <1>   0.0800 
 24 H        0.0490    -3.0450    -0.7720 H     1 <1>   0.0800 
 25 H        3.6210    -2.3730     0.5120 H     1 <1>   0.0800 
 26 H        2.4290    -0.2430     1.4010 H     1 <1>   0.0800 
 27 H        0.8650     0.1070     0.7580 H     1 <1>   0.0800 
 28 H        1.6540    -2.0640     2.3770 H     1 <1>   0.0800 
 29 H        0.1990    -2.6350     1.6600 H     1 <1>   0.0800 
 30 H        3.8450    -4.2780    -0.4800 H     1 <1>   0.4500 
 31 H        3.0940    -1.5560    -2.3260 H     1 <1>   0.0800 
 32 H        4.6270    -1.9730    -1.6160 H     1 <1>   0.0800 
 33 H        2.6560     1.4690    -0.2460 H     1 <1>   0.0800 
 34 H        1.8800     0.5010    -1.4660 H     1 <1>   0.0800 
 35 H        1.2030    -4.6330     2.2370 H     1 <1>   0.0800 
 36 H        2.8090    -4.0130     2.0780 H     1 <1>   0.0800 
 37 H        0.9960    -4.7680    -0.2070 H     1 <1>   0.0800 
 38 H        2.3440    -5.7130     0.3620 H     1 <1>   0.0800 
 39 H        1.5880    -3.8490    -2.3400 H     1 <1>   0.0800 
 40 H        2.5850    -5.2870    -2.2740 H     1 <1>   0.0800 
 41 H        3.2870    -3.7570    -2.7450 H     1 <1>   0.0800 
 42 H        4.9290     2.1710    -0.8760 H     1 <1>   0.1500 
 43 H        6.9460    -1.1910     1.9190 H     1 <1>   0.1500 
 44 H        6.9100     2.8110     0.4830 H     1 <1>   0.1500 
@<TRIPOS>BOND
  1   1   2  1   
  2   1  22  1   
  3   2   3  1   
  4   2  23  1   
  5   2  24  1   
  6   3   4  1   
  7   3   5  1   
  8   3   6  1   
  9   4   7  1   
 10   4   8  1   
 11   4  25  1   
 12   5   9  1   
 13   5  26  1   
 14   5  27  1   
 15   6  10  1   
 16   6  28  1   
 17   6  29  1   
 18   7  11  1   
 19   7  12  1   
 20   7  30  1   
 21   8  13  1   
 22   8  31  1   
 23   8  32  1   
 24   9  13  1   
 25   9  33  1   
 26   9  34  1   
 27  10  11  1   
 28  10  35  1   
 29  10  36  1   
 30  11  37  1   
 31  11  38  1   
 32  12  39  1   
 33  12  40  1   
 34  12  41  1   
 35  13  14  1   
 36  14  15  ar  
 37  14  16  ar  
 38  15  17  ar  
 39  16  18  ar  
 40  16  42  1   
 41  17  19  ar  
 42  17  43  1   
 43  18  19  ar  
 44  18  44  1   
 45  19  20  1   
 46  20  21  3   
@<TRIPOS>SUBSTRUCTURE
  1 ****  13 GROUP 4 **** **** 0

# MOE 2024.06 (io_trps.svl 2023.06)
