@<TRIPOS>MOLECULE
NONAME
51 54 1 0 0 
SMALL
USER_CHARGES


@<TRIPOS>ATOM
  1 O        0.6220    -0.8280    -2.1800 O.2   1 <1>  -0.5700 
  2 C        1.4120    -1.5180    -1.5630 C.2   1 <1>   0.5440 
  3 N        1.6890    -2.7940    -2.0150 N.am  1 <1>  -0.6600 
  4 C        2.0570    -0.9800    -0.3800 C.ar  1 <1>   0.0860 
  5 C        2.7830    -3.6420    -1.4730 C.3   1 <1>   0.1400 
  6 C        0.8330    -3.4750    -3.0220 C.3   1 <1>   0.1400 
  7 C        1.6200    -1.2520     0.9250 C.ar  1 <1>  -0.1440 
  8 C        3.1770    -0.1630    -0.5370 C.ar  1 <1>  -0.1500 
  9 C        2.1760    -4.8620    -0.7810 C.3   1 <1>  -0.1600 
 10 C        0.1710    -4.6940    -2.3720 C.3   1 <1>  -0.1600 
 11 C        2.3090    -0.7360     2.0100 C.ar  1 <1>  -0.1500 
 12 C        0.3890    -2.1020     1.2230 C.3   1 <1>  -0.0970 
 13 C        3.8570     0.3520     0.5500 C.ar  1 <1>  -0.1500 
 14 C        1.2080    -5.6280    -1.7110 C.3   1 <1>  -0.0190 
 15 C        3.4240     0.0610     1.8290 C.ar  1 <1>  -0.1500 
 16 C        0.5660    -6.8720    -1.0760 C.2   1 <1>   0.5690 
 17 O        0.7280    -7.9130    -1.6740 O.2   1 <1>  -0.5700 
 18 N       -0.1490    -6.8340     0.0890 N.am  1 <1>  -0.6600 
 19 C       -0.4530    -5.6590     0.9510 C.3   1 <1>   0.2350 
 20 C       -0.7720    -8.0460     0.6950 C.3   1 <1>   0.2350 
 21 C       -1.6800    -6.0280     1.7590 C.3   1 <1>  -0.2420 
 22 C       -1.8550    -7.5210     1.6250 C.3   1 <1>  -0.2420 
 23 C       -1.8750    -5.0320     2.9120 C.2   1 <1>   0.9470 
 24 C       -2.9130    -6.5910     1.0930 C.3   1 <1>  -0.2000 
 25 C       -2.2140    -8.5660     2.6800 C.2   1 <1>   0.9470 
 26 O       -3.0090    -4.6420     3.2210 O.co2 1 <1>  -0.9000 
 27 O       -0.8700    -4.4910     3.4010 O.co2 1 <1>  -0.9000 
 28 O       -3.3230    -9.1160     2.6320 O.co2 1 <1>  -0.9000 
 29 O       -1.3340    -8.9560     3.4590 O.co2 1 <1>  -0.9000 
 30 H        3.4150    -3.9580    -2.2850 H     1 <1>   0.0800 
 31 H        3.3900    -3.0930    -0.7740 H     1 <1>   0.0800 
 32 H        0.0740    -2.8080    -3.3940 H     1 <1>   0.0800 
 33 H        1.4440    -3.7820    -3.8530 H     1 <1>   0.0800 
 34 H        3.5110     0.0660    -1.5340 H     1 <1>   0.1500 
 35 H        2.9630    -5.5230    -0.4630 H     1 <1>   0.0800 
 36 H        1.6790    -4.5120     0.1000 H     1 <1>   0.0800 
 37 H       -0.5460    -4.3450    -1.6550 H     1 <1>   0.0800 
 38 H       -0.3710    -5.2420    -3.1210 H     1 <1>   0.0800 
 39 H        1.9690    -0.9580     3.0090 H     1 <1>   0.1500 
 40 H        0.6660    -2.9600     1.8100 H     1 <1>   0.0800 
 41 H       -0.1030    -2.4430     0.3320 H     1 <1>   0.0800 
 42 H       -0.3230    -1.5340     1.7950 H     1 <1>   0.0800 
 43 H        4.7200     0.9790     0.4020 H     1 <1>   0.1500 
 44 H        1.8170    -6.0010    -2.5150 H     1 <1>   0.0800 
 45 H        3.9470     0.4550     2.6830 H     1 <1>   0.1500 
 46 H        0.3770    -5.4980     1.6160 H     1 <1>   0.0800 
 47 H       -0.6460    -4.7710     0.3840 H     1 <1>   0.0800 
 48 H       -1.1920    -8.6880    -0.0590 H     1 <1>   0.0800 
 49 H       -0.0290    -8.5840     1.2580 H     1 <1>   0.0800 
 50 H       -3.0400    -6.4810     0.0330 H     1 <1>   0.1000 
 51 H       -3.8470    -6.5530     1.6280 H     1 <1>   0.1000 
@<TRIPOS>BOND
  1   1   2  2   
  2   2   3  am  
  3   2   4  1   
  4   3   5  1   
  5   3   6  1   
  6   4   7  ar  
  7   4   8  ar  
  8   5   9  1   
  9   5  30  1   
 10   5  31  1   
 11   6  10  1   
 12   6  32  1   
 13   6  33  1   
 14   7  11  ar  
 15   7  12  1   
 16   8  13  ar  
 17   8  34  1   
 18   9  14  1   
 19   9  35  1   
 20   9  36  1   
 21  10  14  1   
 22  10  37  1   
 23  10  38  1   
 24  11  15  ar  
 25  11  39  1   
 26  12  40  1   
 27  12  41  1   
 28  12  42  1   
 29  13  15  ar  
 30  13  43  1   
 31  14  16  1   
 32  14  44  1   
 33  15  45  1   
 34  16  17  2   
 35  16  18  am  
 36  18  19  1   
 37  18  20  1   
 38  19  21  1   
 39  19  46  1   
 40  19  47  1   
 41  20  22  1   
 42  20  48  1   
 43  20  49  1   
 44  21  22  1   
 45  21  23  1   
 46  21  24  1   
 47  22  24  1   
 48  22  25  1   
 49  23  26  ar  
 50  23  27  ar  
 51  24  50  1   
 52  24  51  1   
 53  25  28  ar  
 54  25  29  ar  
@<TRIPOS>SUBSTRUCTURE
  1 ****  19 GROUP 4 **** **** 0

# MOE 2024.06 (io_trps.svl 2023.06)
