@<TRIPOS>MOLECULE
NONAME
43 45 1 0 0 
SMALL
USER_CHARGES


@<TRIPOS>ATOM
  1 CL       1.2630     0.0880    -2.0030 Cl    1 <1>  -0.1770 
  2 C        1.8400     1.0770    -0.6810 C.ar  1 <1>   0.1770 
  3 C        1.1790     2.2450    -0.3170 C.ar  1 <1>  -0.1440 
  4 C        2.9800     0.6490    -0.0200 C.ar  1 <1>  -0.1500 
  5 C        1.7110     2.9700     0.7420 C.ar  1 <1>   0.1770 
  6 C       -0.0900     2.7180    -1.0290 C.3   1 <1>   0.0450 
  7 C        3.4890     1.3910     1.0310 C.ar  1 <1>  -0.1500 
  8 CL       0.9540     4.4550     1.2710 Cl    1 <1>  -0.1770 
  9 C        2.8500     2.5580     1.4130 C.ar  1 <1>  -0.1500 
 10 C       -1.3460     2.3540    -0.2420 C.2   1 <1>   0.5690 
 11 O       -1.4870     1.1900     0.0550 O.2   1 <1>  -0.5700 
 12 N       -2.2850     3.2970     0.1080 N.am  1 <1>  -0.6600 
 13 C       -3.4340     2.9290     0.9880 C.3   1 <1>   0.1400 
 14 C       -2.3030     4.7120    -0.3770 C.3   1 <1>   0.1400 
 15 C       -4.7700     3.0530     0.2210 C.3   1 <1>   0.0000 
 16 C       -3.7120     5.3290    -0.3100 C.3   1 <1>  -0.1600 
 17 C       -5.9410     3.0340     1.2200 C.3   1 <1>   0.2000 
 18 C       -4.7780     4.3010    -0.7200 C.3   1 <1>  -0.1600 
 19 C       -5.0760     1.7920    -0.6040 C.3   1 <1>  -0.1600 
 20 O       -6.1890     4.2760     1.7760 O.3   1 <1>  -0.6800 
 21 C       -7.1610     2.5350     0.4430 C.3   1 <1>  -0.1600 
 22 C       -6.5990     1.7810    -0.7710 C.3   1 <1>  -0.1600 
 23 H        3.4600    -0.2610    -0.3310 H     1 <1>   0.1500 
 24 H       -0.1750     2.2720    -2.0010 H     1 <1>   0.0800 
 25 H       -0.0180     3.7740    -1.1850 H     1 <1>   0.0800 
 26 H        4.3740     1.0620     1.5490 H     1 <1>   0.1500 
 27 H        3.2290     3.1480     2.2280 H     1 <1>   0.1500 
 28 H       -3.3190     1.9340     1.3820 H     1 <1>   0.0800 
 29 H       -3.4410     3.6000     1.8300 H     1 <1>   0.0800 
 30 H       -1.6200     5.3020     0.2100 H     1 <1>   0.0800 
 31 H       -1.9800     4.7320    -1.4030 H     1 <1>   0.0800 
 32 H       -3.9020     5.6770     0.6900 H     1 <1>   0.0800 
 33 H       -3.7530     6.1840    -0.9610 H     1 <1>   0.0800 
 34 H       -5.7290     2.3480     2.0240 H     1 <1>   0.0800 
 35 H       -4.5500     3.9960    -1.7260 H     1 <1>   0.0800 
 36 H       -5.7490     4.7620    -0.7550 H     1 <1>   0.0800 
 37 H       -4.5560     1.7660    -1.5460 H     1 <1>   0.0800 
 38 H       -4.7850     0.9170    -0.0470 H     1 <1>   0.0800 
 39 H       -6.3400     4.9240     1.0640 H     1 <1>   0.4000 
 40 H       -7.7450     1.8780     1.0630 H     1 <1>   0.0800 
 41 H       -7.7760     3.3530     0.1110 H     1 <1>   0.0800 
 42 H       -6.9760     0.7740    -0.8250 H     1 <1>   0.0800 
 43 H       -6.8680     2.3010    -1.6750 H     1 <1>   0.0800 
@<TRIPOS>BOND
  1   1   2  1   
  2   2   3  ar  
  3   2   4  ar  
  4   3   5  ar  
  5   3   6  1   
  6   4   7  ar  
  7   4  23  1   
  8   5   8  1   
  9   5   9  ar  
 10   6  10  1   
 11   6  24  1   
 12   6  25  1   
 13   7   9  ar  
 14   7  26  1   
 15   9  27  1   
 16  10  11  2   
 17  10  12  am  
 18  12  13  1   
 19  12  14  1   
 20  13  15  1   
 21  13  28  1   
 22  13  29  1   
 23  14  16  1   
 24  14  30  1   
 25  14  31  1   
 26  15  17  1   
 27  15  18  1   
 28  15  19  1   
 29  16  18  1   
 30  16  32  1   
 31  16  33  1   
 32  17  20  1   
 33  17  21  1   
 34  17  34  1   
 35  18  35  1   
 36  18  36  1   
 37  19  22  1   
 38  19  37  1   
 39  19  38  1   
 40  20  39  1   
 41  21  22  1   
 42  21  40  1   
 43  21  41  1   
 44  22  42  1   
 45  22  43  1   
@<TRIPOS>SUBSTRUCTURE
  1 ****  10 GROUP 4 **** **** 0

# MOE 2024.06 (io_trps.svl 2023.06)
