@<TRIPOS>MOLECULE
NONAME
47 48 1 0 0 
SMALL
USER_CHARGES


@<TRIPOS>ATOM
  1 S        1.7230     1.5170     1.2090 S.o2  1 <1>   1.3330 
  2 O        1.8060     2.4180     2.3360 O.2   1 <1>  -0.6500 
  3 O        0.4530     0.9170     0.8670 O.2   1 <1>  -0.6500 
  4 N        2.8290     0.2580     1.4900 N.am  1 <1>  -0.8490 
  5 C        2.3570     2.3350    -0.2570 C.3   1 <1>  -0.0550 
  6 C        4.0760     0.7110     2.1160 C.3   1 <1>   0.1160 
  7 C        2.2380    -0.8200     2.2880 C.3   1 <1>   0.1160 
  8 C        2.3040     1.4910    -1.5510 C.3   1 <1>  -0.0800 
  9 C        2.6570     2.2530    -2.8250 C.3   1 <1>   0.2200 
 10 C        3.2750     0.3030    -1.5790 C.3   1 <1>   0.1200 
 11 N        3.7820     3.1810    -2.5690 N.am  1 <1>  -0.7300 
 12 C        3.1450     1.1180    -3.7120 C.3   1 <1>   0.1200 
 13 O        3.8450     0.2720    -2.8550 O.3   1 <1>  -0.5600 
 14 C        3.6630     4.5240    -2.4220 C.2   1 <1>   0.5690 
 15 O        2.6390     5.1050    -2.6900 O.2   1 <1>  -0.5700 
 16 C        4.8290     5.2970    -1.8360 C.3   1 <1>   0.0440 
 17 C        5.0430     4.8860    -0.3840 C.ar  1 <1>  -0.1440 
 18 C        6.1720     4.1840     0.0080 C.ar  1 <1>  -0.1500 
 19 C        4.0750     5.1940     0.5640 C.ar  1 <1>  -0.1500 
 20 C        6.2980     3.8010     1.3310 C.ar  1 <1>   0.1900 
 21 C        4.2170     4.7970     1.8840 C.ar  1 <1>  -0.1500 
 22 F        7.3670     3.1320     1.6740 F     1 <1>  -0.1900 
 23 C        5.3380     4.0910     2.2890 C.ar  1 <1>  -0.1440 
 24 C        5.4860     3.6650     3.7430 C.3   1 <1>  -0.0970 
 25 H        1.7810     3.2250    -0.4170 H     1 <1>   0.0800 
 26 H        3.3670     2.6380    -0.0700 H     1 <1>   0.0800 
 27 H        4.7650    -0.1110     2.2070 H     1 <1>   0.0800 
 28 H        3.8810     1.1150     3.0960 H     1 <1>   0.0800 
 29 H        4.5390     1.4730     1.5140 H     1 <1>   0.0800 
 30 H        2.9540    -1.6100     2.4370 H     1 <1>   0.0800 
 31 H        1.3840    -1.2320     1.7770 H     1 <1>   0.0800 
 32 H        1.9180    -0.4440     3.2460 H     1 <1>   0.0800 
 33 H        1.3070     1.1010    -1.6650 H     1 <1>   0.0800 
 34 H        1.8160     2.7760    -3.2490 H     1 <1>   0.0800 
 35 H        2.7680    -0.6300    -1.4000 H     1 <1>   0.0800 
 36 H        4.0780     0.4190    -0.8720 H     1 <1>   0.0800 
 37 H        4.6550     2.7060    -2.3310 H     1 <1>   0.3700 
 38 H        3.7910     1.4550    -4.5040 H     1 <1>   0.0800 
 39 H        2.3160     0.5670    -4.1210 H     1 <1>   0.0800 
 40 H        5.7070     5.1080    -2.4230 H     1 <1>   0.0800 
 41 H        4.6150     6.3500    -1.8850 H     1 <1>   0.0800 
 42 H        6.9490     3.9290    -0.6900 H     1 <1>   0.1500 
 43 H        3.1930     5.7430     0.2740 H     1 <1>   0.1500 
 44 H        3.4430     5.0390     2.5940 H     1 <1>   0.1500 
 45 H        4.5230     3.6110     4.2210 H     1 <1>   0.0800 
 46 H        6.0930     4.3800     4.2690 H     1 <1>   0.0800 
 47 H        5.9530     2.7000     3.8120 H     1 <1>   0.0800 
@<TRIPOS>BOND
  1   1   2  2   
  2   1   3  2   
  3   1   4  am  
  4   1   5  1   
  5   4   6  1   
  6   4   7  1   
  7   5   8  1   
  8   5  25  1   
  9   5  26  1   
 10   6  27  1   
 11   6  28  1   
 12   6  29  1   
 13   7  30  1   
 14   7  31  1   
 15   7  32  1   
 16   8   9  1   
 17   8  10  1   
 18   8  33  1   
 19   9  11  1   
 20   9  12  1   
 21   9  34  1   
 22  10  13  1   
 23  10  35  1   
 24  10  36  1   
 25  11  14  am  
 26  11  37  1   
 27  12  13  1   
 28  12  38  1   
 29  12  39  1   
 30  14  15  2   
 31  14  16  1   
 32  16  17  1   
 33  16  40  1   
 34  16  41  1   
 35  17  18  ar  
 36  17  19  ar  
 37  18  20  ar  
 38  18  42  1   
 39  19  21  ar  
 40  19  43  1   
 41  20  22  1   
 42  20  23  ar  
 43  21  23  ar  
 44  21  44  1   
 45  23  24  1   
 46  24  45  1   
 47  24  46  1   
 48  24  47  1   
@<TRIPOS>SUBSTRUCTURE
  1 ****   5 GROUP 4 **** **** 0

# MOE 2024.06 (io_trps.svl 2023.06)
