@<TRIPOS>MOLECULE
NONAME
44 46 1 0 0 
SMALL
USER_CHARGES


@<TRIPOS>ATOM
  1 O       -0.4810     0.0300     0.0890 O.2   1 <1>  -0.5700 
  2 C       -1.4930     0.6430    -0.1950 C.2   1 <1>   0.5440 
  3 N       -2.6930    -0.0310    -0.1920 N.am  1 <1>  -0.6600 
  4 C       -1.4060     2.0600    -0.5030 C.ar  1 <1>   0.0860 
  5 C       -4.0300     0.5990    -0.1220 C.3   1 <1>   0.1400 
  6 C       -2.7860    -1.4800     0.0910 C.3   1 <1>   0.1400 
  7 C       -0.6260     2.9040     0.2860 C.ar  1 <1>  -0.1500 
  8 C       -2.0770     2.6270    -1.5880 C.ar  1 <1>  -0.1500 
  9 C       -4.9070    -0.4050     0.6370 C.3   1 <1>  -0.0800 
 10 C       -4.2710    -1.7740     0.3270 C.3   1 <1>  -0.0800 
 11 C       -0.5410     4.2570     0.0100 C.ar  1 <1>   0.0830 
 12 C       -1.9960     3.9820    -1.8640 C.ar  1 <1>  -0.1500 
 13 C       -6.4430    -0.3170     0.3740 C.3   1 <1>   0.2800 
 14 C       -4.9420    -2.4300    -0.8890 C.3   1 <1>  -0.1600 
 15 O        0.2130     5.0560     0.7790 O.3   1 <1>  -0.5330 
 16 C       -1.2260     4.8020    -1.0600 C.ar  1 <1>  -0.1500 
 17 O       -6.6870     0.2040    -0.8840 O.3   1 <1>  -0.6800 
 18 C       -7.0650    -1.7250     0.3900 C.3   1 <1>  -0.1600 
 19 C       -7.1720     0.5940     1.3870 C.3   1 <1>  -0.1600 
 20 C       -6.4390    -2.6910    -0.6390 C.3   1 <1>  -0.1600 
 21 C       -6.7090     2.0610     1.4180 C.3   1 <1>  -0.2400 
 22 H       -3.9880     1.5480     0.3830 H     1 <1>   0.0800 
 23 H       -4.3810     0.7440    -1.1280 H     1 <1>   0.0800 
 24 H       -2.3880    -2.0460    -0.7340 H     1 <1>   0.0800 
 25 H       -2.2150    -1.7020     0.9770 H     1 <1>   0.0800 
 26 H       -0.0890     2.4810     1.1150 H     1 <1>   0.1500 
 27 H       -2.6670     1.9920    -2.2260 H     1 <1>   0.1500 
 28 H       -4.7420    -0.2340     1.6860 H     1 <1>   0.0800 
 29 H       -4.3690    -2.4370     1.1690 H     1 <1>   0.0800 
 30 H       -2.5270     4.3960    -2.7040 H     1 <1>   0.1500 
 31 H       -4.8380    -1.7720    -1.7360 H     1 <1>   0.0800 
 32 H       -4.4500    -3.3550    -1.1350 H     1 <1>   0.0800 
 33 H        0.6840     4.5750     1.4830 H     1 <1>   0.4500 
 34 H       -1.1500     5.8570    -1.2580 H     1 <1>   0.1500 
 35 H       -7.6430     0.1710    -1.0640 H     1 <1>   0.4000 
 36 H       -6.9160    -2.1390     1.3720 H     1 <1>   0.0800 
 37 H       -8.1280    -1.6720     0.2350 H     1 <1>   0.0800 
 38 H       -8.2270     0.5730     1.1760 H     1 <1>   0.0800 
 39 H       -7.0460     0.1810     2.3720 H     1 <1>   0.0800 
 40 H       -6.5750    -3.7000    -0.2920 H     1 <1>   0.0800 
 41 H       -6.9580    -2.6000    -1.5780 H     1 <1>   0.0800 
 42 H       -6.7650     2.5010     0.4380 H     1 <1>   0.0800 
 43 H       -5.6990     2.1370     1.7770 H     1 <1>   0.0800 
 44 H       -7.3410     2.6280     2.0790 H     1 <1>   0.0800 
@<TRIPOS>BOND
  1   1   2  2   
  2   2   3  am  
  3   2   4  1   
  4   3   5  1   
  5   3   6  1   
  6   4   7  ar  
  7   4   8  ar  
  8   5   9  1   
  9   5  22  1   
 10   5  23  1   
 11   6  10  1   
 12   6  24  1   
 13   6  25  1   
 14   7  11  ar  
 15   7  26  1   
 16   8  12  ar  
 17   8  27  1   
 18   9  10  1   
 19   9  13  1   
 20   9  28  1   
 21  10  14  1   
 22  10  29  1   
 23  11  15  1   
 24  11  16  ar  
 25  12  16  ar  
 26  12  30  1   
 27  13  17  1   
 28  13  18  1   
 29  13  19  1   
 30  14  20  1   
 31  14  31  1   
 32  14  32  1   
 33  15  33  1   
 34  16  34  1   
 35  17  35  1   
 36  18  20  1   
 37  18  36  1   
 38  18  37  1   
 39  19  21  1   
 40  19  38  1   
 41  19  39  1   
 42  20  40  1   
 43  20  41  1   
 44  21  42  1   
 45  21  43  1   
 46  21  44  1   
@<TRIPOS>SUBSTRUCTURE
  1 ****   5 GROUP 4 **** **** 0

# MOE 2024.06 (io_trps.svl 2023.06)
