@<TRIPOS>MOLECULE
NONAME
52 55 1 0 0 
SMALL
USER_CHARGES


@<TRIPOS>ATOM
  1 F        0.0110    -0.5490     0.4840 F     1 <1>  -0.1900 
  2 C       -0.6300    -1.6900     0.4450 C.ar  1 <1>   0.1900 
  3 C       -0.0350    -2.8600    -0.0410 C.ar  1 <1>   0.0830 
  4 C       -1.9290    -1.6820     0.9140 C.ar  1 <1>  -0.1500 
  5 O        1.2330    -2.9950    -0.5280 O.3   1 <1>  -0.3630 
  6 C       -0.7980    -4.0170    -0.0370 C.ar  1 <1>  -0.1500 
  7 C       -2.6590    -2.8560     0.9050 C.ar  1 <1>  -0.1500 
  8 C        2.1230    -1.9100    -0.6630 C.3   1 <1>   0.0400 
  9 C       -2.1160    -4.0500     0.4270 C.ar  1 <1>   0.0530 
 10 C       -2.8690    -5.2830     0.4100 C.2   1 <1>   0.0870 
 11 O       -2.2380    -6.4320     0.4700 O.3   1 <1>  -0.0190 
 12 C       -4.1940    -5.5710     0.3290 C.2   1 <1>  -0.2330 
 13 N       -3.0450    -7.4590     0.4370 N.2   1 <1>  -0.4100 
 14 C       -4.2330    -6.9670     0.3460 C.2   1 <1>   0.3720 
 15 C       -5.3210    -4.6990     0.2390 C.2   1 <1>   1.0330 
 16 N       -5.3870    -7.7650     0.2900 N.pl3 1 <1>  -0.8210 
 17 O       -5.8980    -4.5210    -0.8500 O.co2 1 <1>  -0.9000 
 18 O       -5.7310    -4.0830     1.2370 O.co2 1 <1>  -0.9000 
 19 C       -5.2310    -9.2310     0.3550 C.3   1 <1>   0.2090 
 20 C       -6.3670    -7.4300    -0.7720 C.3   1 <1>   0.2090 
 21 C       -6.5830    -9.7690    -0.1250 C.3   1 <1>   0.0000 
 22 C       -6.9410    -8.7680    -1.2360 C.3   1 <1>  -0.1600 
 23 C       -7.6080    -9.7090     1.0290 C.3   1 <1>  -0.1600 
 24 C       -6.4900   -11.2130    -0.6480 C.3   1 <1>  -0.1600 
 25 C       -8.9610   -10.2960     0.6350 C.3   1 <1>   0.3430 
 26 C       -7.8660   -11.7610    -1.0290 C.3   1 <1>   0.3430 
 27 N       -8.7800   -11.6970     0.1500 N.4   1 <1>  -0.9590 
 28 C      -10.0980   -12.3300    -0.1570 C.3   1 <1>   0.2630 
 29 H       -2.3670    -0.7720     1.2820 H     1 <1>   0.1500 
 30 H       -0.3540    -4.9210    -0.4110 H     1 <1>   0.1500 
 31 H       -3.6680    -2.8410     1.2790 H     1 <1>   0.1500 
 32 H        3.0350    -2.2780    -1.0970 H     1 <1>   0.0800 
 33 H        2.3240    -1.4990     0.3110 H     1 <1>   0.0800 
 34 H        1.6820    -1.1740    -1.3100 H     1 <1>   0.0800 
 35 H       -4.9920    -9.5380     1.3580 H     1 <1>   0.0800 
 36 H       -4.4400    -9.5350    -0.3110 H     1 <1>   0.0800 
 37 H       -5.8930    -6.9090    -1.5880 H     1 <1>   0.0800 
 38 H       -7.1360    -6.8010    -0.3550 H     1 <1>   0.0800 
 39 H       -6.4410    -9.0270    -2.1530 H     1 <1>   0.0800 
 40 H       -7.9920    -8.6810    -1.4370 H     1 <1>   0.0800 
 41 H       -7.7510    -8.6880     1.3420 H     1 <1>   0.0800 
 42 H       -7.2310   -10.2430     1.8830 H     1 <1>   0.0800 
 43 H       -6.0510   -11.8470     0.1020 H     1 <1>   0.0800 
 44 H       -5.8470   -11.2480    -1.5100 H     1 <1>   0.0800 
 45 H       -9.4030    -9.6920    -0.1420 H     1 <1>   0.0800 
 46 H       -9.6190   -10.2800     1.4890 H     1 <1>   0.0800 
 47 H       -7.7650   -12.7810    -1.3640 H     1 <1>   0.0800 
 48 H       -8.2730   -11.1760    -1.8390 H     1 <1>   0.0800 
 49 H       -8.3300   -12.2210     0.9140 H     1 <1>   0.4500 
 50 H      -10.5930   -11.7970    -0.9520 H     1 <1>   0.0800 
 51 H      -10.7320   -12.3160     0.7150 H     1 <1>   0.0800 
 52 H       -9.9590   -13.3550    -0.4630 H     1 <1>   0.0800 
@<TRIPOS>BOND
  1   1   2  1   
  2   2   3  ar  
  3   2   4  ar  
  4   3   5  1   
  5   3   6  ar  
  6   4   7  ar  
  7   4  29  1   
  8   5   8  1   
  9   6   9  ar  
 10   6  30  1   
 11   7   9  ar  
 12   7  31  1   
 13   8  32  1   
 14   8  33  1   
 15   8  34  1   
 16   9  10  1   
 17  10  11  1   
 18  10  12  2   
 19  11  13  1   
 20  12  14  1   
 21  12  15  1   
 22  13  14  2   
 23  14  16  1   
 24  15  17  ar  
 25  15  18  ar  
 26  16  19  1   
 27  16  20  1   
 28  19  21  1   
 29  19  35  1   
 30  19  36  1   
 31  20  22  1   
 32  20  37  1   
 33  20  38  1   
 34  21  22  1   
 35  21  23  1   
 36  21  24  1   
 37  22  39  1   
 38  22  40  1   
 39  23  25  1   
 40  23  41  1   
 41  23  42  1   
 42  24  26  1   
 43  24  43  1   
 44  24  44  1   
 45  25  27  1   
 46  25  45  1   
 47  25  46  1   
 48  26  27  1   
 49  26  47  1   
 50  26  48  1   
 51  27  28  1   
 52  27  49  1   
 53  28  50  1   
 54  28  51  1   
 55  28  52  1   
@<TRIPOS>SUBSTRUCTURE
  1 ****  14 GROUP 4 **** **** 0

# MOE 2024.06 (io_trps.svl 2023.06)
