@<TRIPOS>MOLECULE
NONAME
43 45 1 0 0 
SMALL
USER_CHARGES


@<TRIPOS>ATOM
  1 F        0.3070     1.7810    -1.4420 F     1 <1>  -0.1900 
  2 C        1.3950     1.7550    -0.7210 C.ar  1 <1>   0.1900 
  3 C        2.0880     0.5550    -0.5550 C.ar  1 <1>   0.0860 
  4 C        1.7810     2.9460    -0.1400 C.ar  1 <1>  -0.1500 
  5 C        3.2190     0.5980     0.2760 C.ar  1 <1>   0.0830 
  6 C        1.6500    -0.6620    -1.2040 C.2   1 <1>   0.5440 
  7 C        2.9060     2.9660     0.6620 C.ar  1 <1>  -0.1500 
  8 O        3.9060    -0.5550     0.4790 O.3   1 <1>  -0.3630 
  9 C        3.6180     1.7970     0.8700 C.ar  1 <1>  -0.1500 
 10 O        1.3650    -0.6840    -2.3860 O.2   1 <1>  -0.5700 
 11 N        1.5590    -1.8260    -0.4980 N.am  1 <1>  -0.7300 
 12 C        5.1040    -0.6200     1.2230 C.3   1 <1>   0.0400 
 13 C        1.2410    -3.1540    -1.0660 C.3   1 <1>   0.2200 
 14 C        0.0880    -3.7630    -0.2890 C.3   1 <1>  -0.0800 
 15 C        2.3800    -4.1230    -0.7600 C.3   1 <1>   0.1200 
 16 C        0.8110    -4.3760     0.9130 C.3   1 <1>   0.1200 
 17 C       -0.6580    -4.8210    -1.1240 C.3   1 <1>  -0.0170 
 18 O        2.1110    -4.6780     0.4960 O.3   1 <1>  -0.5600 
 19 C       -1.8310    -5.4100    -0.3550 C.ar  1 <1>  -0.1430 
 20 C       -1.7880    -6.6760     0.1940 C.ar  1 <1>  -0.1500 
 21 C       -3.0020    -4.7040    -0.1680 C.ar  1 <1>  -0.1500 
 22 C       -2.8850    -7.1590     0.8880 C.ar  1 <1>   0.1600 
 23 C       -4.0420    -5.2800     0.5430 C.ar  1 <1>   0.1600 
 24 N       -4.0110    -6.4900     1.0770 N.ar  1 <1>  -0.6200 
 25 H        1.2070     3.8390    -0.3120 H     1 <1>   0.1500 
 26 H        3.2240     3.8860     1.1230 H     1 <1>   0.1500 
 27 H        4.4840     1.8450     1.5020 H     1 <1>   0.1500 
 28 H        2.0330    -1.8600     0.4090 H     1 <1>   0.3700 
 29 H        5.4560    -1.6360     1.2010 H     1 <1>   0.0800 
 30 H        4.9040    -0.3270     2.2380 H     1 <1>   0.0800 
 31 H        5.8340     0.0270     0.7700 H     1 <1>   0.0800 
 32 H        1.0470    -3.0790    -2.1230 H     1 <1>   0.0800 
 33 H       -0.6110    -3.0080     0.0230 H     1 <1>   0.0800 
 34 H        3.3400    -3.6370    -0.7440 H     1 <1>   0.0800 
 35 H        2.3930    -4.9280    -1.4730 H     1 <1>   0.0800 
 36 H        0.3420    -5.2710     1.2820 H     1 <1>   0.0800 
 37 H        0.8870    -3.6590     1.7120 H     1 <1>   0.0800 
 38 H        0.0150    -5.6090    -1.4160 H     1 <1>   0.0800 
 39 H       -1.0320    -4.3640    -2.0240 H     1 <1>   0.0800 
 40 H       -0.9120    -7.2910     0.0910 H     1 <1>   0.1500 
 41 H       -3.1150    -3.7130    -0.5670 H     1 <1>   0.1500 
 42 H       -2.8330    -8.1480     1.3100 H     1 <1>   0.1500 
 43 H       -4.9480    -4.7140     0.6790 H     1 <1>   0.1500 
@<TRIPOS>BOND
  1   1   2  1   
  2   2   3  ar  
  3   2   4  ar  
  4   3   5  ar  
  5   3   6  1   
  6   4   7  ar  
  7   4  25  1   
  8   5   8  1   
  9   5   9  ar  
 10   6  10  2   
 11   6  11  am  
 12   7   9  ar  
 13   7  26  1   
 14   8  12  1   
 15   9  27  1   
 16  11  13  1   
 17  11  28  1   
 18  12  29  1   
 19  12  30  1   
 20  12  31  1   
 21  13  14  1   
 22  13  15  1   
 23  13  32  1   
 24  14  16  1   
 25  14  17  1   
 26  14  33  1   
 27  15  18  1   
 28  15  34  1   
 29  15  35  1   
 30  16  18  1   
 31  16  36  1   
 32  16  37  1   
 33  17  19  1   
 34  17  38  1   
 35  17  39  1   
 36  19  20  ar  
 37  19  21  ar  
 38  20  22  ar  
 39  20  40  1   
 40  21  23  ar  
 41  21  41  1   
 42  22  24  ar  
 43  22  42  1   
 44  23  24  ar  
 45  23  43  1   
@<TRIPOS>SUBSTRUCTURE
  1 ****  11 GROUP 4 **** **** 0

# MOE 2024.06 (io_trps.svl 2023.06)
