@<TRIPOS>MOLECULE
NONAME
48 50 1 0 0 
SMALL
USER_CHARGES


@<TRIPOS>ATOM
  1 O        1.9120    -0.3270     3.5390 O.2   1 <1>  -0.5700 
  2 C        2.4130    -0.7880     2.5280 C.2   1 <1>   0.5440 
  3 N        3.4670    -0.1130     1.9390 N.am  1 <1>  -0.6600 
  4 C        1.8590    -1.8820     1.8020 C.ar  1 <1>   0.0860 
  5 C        3.2010     1.1930     1.2580 C.3   1 <1>   0.1400 
  6 C        4.8200    -0.7270     1.8320 C.3   1 <1>   0.1400 
  7 C        2.5730    -3.0660     1.5900 C.ar  1 <1>  -0.1500 
  8 C        0.7320    -1.6550     1.0120 C.ar  1 <1>  -0.1500 
  9 C        3.6530     1.3600    -0.2300 C.3   1 <1>   0.4230 
 10 C        5.2560    -1.0000     0.3740 C.3   1 <1>  -0.0800 
 11 C        2.4550    -3.7330     0.3970 C.ar  1 <1>   0.0830 
 12 C        0.5870    -2.3110    -0.1820 C.ar  1 <1>   0.0830 
 13 N        3.5580     0.1570    -1.1440 N.4   1 <1>  -0.9590 
 14 C        5.0600     1.9920    -0.3380 C.3   1 <1>   0.1200 
 15 C        6.3320    -0.0180    -0.1170 C.3   1 <1>   0.1200 
 16 C        4.0720    -1.1330    -0.5950 C.3   1 <1>   0.3430 
 17 O        3.2520    -4.8340     0.2370 O.3   1 <1>  -0.3630 
 18 C        1.6080    -3.1960    -0.6090 C.ar  1 <1>  -0.1710 
 19 O       -0.5010    -1.9720    -0.9390 O.3   1 <1>  -0.3630 
 20 C        2.1620    -0.1100    -1.6180 C.3   1 <1>   0.2630 
 21 O        6.0620     1.2780     0.3200 O.3   1 <1>  -0.5600 
 22 C        2.9040    -5.7510    -0.7770 C.3   1 <1>   0.0400 
 23 O        1.8740    -3.3290    -1.8370 O.3   1 <1>  -0.8290 
 24 C       -0.9600    -2.9330    -1.8660 C.3   1 <1>   0.0400 
 25 H        2.1400     1.3720     1.2940 H     1 <1>   0.0800 
 26 H        3.6540     1.9710     1.8480 H     1 <1>   0.0800 
 27 H        5.5330    -0.0910     2.3300 H     1 <1>   0.0800 
 28 H        4.8140    -1.6580     2.3720 H     1 <1>   0.0800 
 29 H        3.2720    -3.4120     2.3270 H     1 <1>   0.1500 
 30 H        0.0190    -0.9080     1.3050 H     1 <1>   0.1500 
 31 H        2.9960     2.1070    -0.6420 H     1 <1>   0.0800 
 32 H        5.7220    -1.9690     0.3830 H     1 <1>   0.0800 
 33 H        4.1200     0.3410    -1.9790 H     1 <1>   0.4500 
 34 H        5.0380     2.9680     0.1160 H     1 <1>   0.0800 
 35 H        5.3480     2.1160    -1.3670 H     1 <1>   0.0800 
 36 H        6.4380    -0.0260    -1.1880 H     1 <1>   0.0800 
 37 H        7.2800    -0.2910     0.3160 H     1 <1>   0.0800 
 38 H        3.2720    -1.6130    -0.0790 H     1 <1>   0.0800 
 39 H        4.3350    -1.7880    -1.4110 H     1 <1>   0.0800 
 40 H        1.4880    -0.1570    -0.7810 H     1 <1>   0.0800 
 41 H        2.1120    -1.0580    -2.1350 H     1 <1>   0.0800 
 42 H        1.8270     0.6650    -2.2850 H     1 <1>   0.0800 
 43 H        3.4170    -6.6750    -0.5930 H     1 <1>   0.0800 
 44 H        3.2030    -5.3440    -1.7270 H     1 <1>   0.0800 
 45 H        1.8390    -5.9020    -0.7620 H     1 <1>   0.0800 
 46 H       -1.9680    -2.6870    -2.1410 H     1 <1>   0.0800 
 47 H       -0.9220    -3.9060    -1.4090 H     1 <1>   0.0800 
 48 H       -0.3240    -2.9100    -2.7320 H     1 <1>   0.0800 
@<TRIPOS>BOND
  1   1   2  2   
  2   2   3  am  
  3   2   4  1   
  4   3   5  1   
  5   3   6  1   
  6   4   7  ar  
  7   4   8  ar  
  8   5   9  1   
  9   5  25  1   
 10   5  26  1   
 11   6  10  1   
 12   6  27  1   
 13   6  28  1   
 14   7  11  ar  
 15   7  29  1   
 16   8  12  ar  
 17   8  30  1   
 18   9  13  1   
 19   9  14  1   
 20   9  31  1   
 21  10  15  1   
 22  10  16  1   
 23  10  32  1   
 24  11  17  1   
 25  11  18  ar  
 26  12  18  ar  
 27  12  19  1   
 28  13  16  1   
 29  13  20  1   
 30  13  33  1   
 31  14  21  1   
 32  14  34  1   
 33  14  35  1   
 34  15  21  1   
 35  15  36  1   
 36  15  37  1   
 37  16  38  1   
 38  16  39  1   
 39  17  22  1   
 40  18  23  1   
 41  19  24  1   
 42  20  40  1   
 43  20  41  1   
 44  20  42  1   
 45  22  43  1   
 46  22  44  1   
 47  22  45  1   
 48  24  46  1   
 49  24  47  1   
 50  24  48  1   
@<TRIPOS>SUBSTRUCTURE
  1 ****  16 GROUP 4 **** **** 0

# MOE 2024.06 (io_trps.svl 2023.06)
