@<TRIPOS>MOLECULE
NONAME
50 52 1 0 0 
SMALL
USER_CHARGES


@<TRIPOS>ATOM
  1 O        2.0450    -0.6930     2.0590 O.co2 1 <1>  -0.9000 
  2 C        1.7690     0.3450     1.4340 C.2   1 <1>   0.9060 
  3 O        1.0380     1.2100     1.9130 O.co2 1 <1>  -0.9000 
  4 C        2.3690     0.5510     0.0300 C.3   1 <1>  -0.1060 
  5 C        3.7390    -0.1620    -0.0370 C.3   1 <1>   0.4230 
  6 C        2.5890     2.0650    -0.2520 C.3   1 <1>  -0.1600 
  7 C        1.4320    -0.0300    -1.0560 C.3   1 <1>  -0.1600 
  8 N        3.5640    -1.6450     0.1310 N.4   1 <1>  -0.9590 
  9 C        4.7210     0.4840     0.9680 C.3   1 <1>   0.1400 
 10 C        3.5960     2.6940     0.7230 C.3   1 <1>   0.1400 
 11 C        1.3370    -1.5600    -0.9530 C.3   1 <1>  -0.1600 
 12 C        2.7120    -2.2320    -0.9340 C.3   1 <1>   0.3430 
 13 C        4.8150    -2.4190     0.3500 C.3   1 <1>   0.2630 
 14 N        4.8770     1.9320     0.6360 N.am  1 <1>  -0.6600 
 15 C        6.0580     2.4220     0.1450 C.2   1 <1>   0.5690 
 16 O        6.9660     1.6800    -0.1520 O.2   1 <1>  -0.5700 
 17 C        6.2420     3.9120    -0.0690 C.3   1 <1>  -0.0990 
 18 C        7.7140     4.2990    -0.2580 C.3   1 <1>   0.0960 
 19 N        7.8350     5.7440    -0.5180 N.pl3 1 <1>   0.3140 
 20 N        7.4680     6.6660     0.3910 N.2   1 <1>  -0.7070 
 21 C        8.2860     6.3250    -1.6470 C.2   1 <1>  -0.3020 
 22 C        7.6980     7.8070    -0.1780 C.2   1 <1>   0.1080 
 23 C        8.2120     7.6590    -1.4600 C.2   1 <1>  -0.1500 
 24 C        7.4240     9.1230     0.5100 C.3   1 <1>  -0.0590 
 25 H        4.1520     0.0090    -1.0160 H     1 <1>   0.0800 
 26 H        1.6520     2.5880    -0.1580 H     1 <1>   0.0800 
 27 H        2.9420     2.2170    -1.2570 H     1 <1>   0.0800 
 28 H        0.4490     0.3980    -0.9430 H     1 <1>   0.0800 
 29 H        1.7970     0.2350    -2.0340 H     1 <1>   0.0800 
 30 H        2.9860    -1.6710     1.0160 H     1 <1>   0.4500 
 31 H        5.6770    -0.0010     0.9180 H     1 <1>   0.0800 
 32 H        4.3510     0.3930     1.9750 H     1 <1>   0.0800 
 33 H        3.2170     2.6450     1.7320 H     1 <1>   0.0800 
 34 H        3.7320     3.7310     0.4760 H     1 <1>   0.0800 
 35 H        0.7690    -1.9390    -1.7840 H     1 <1>   0.0800 
 36 H        0.8030    -1.8310    -0.0570 H     1 <1>   0.0800 
 37 H        3.1900    -2.1000    -1.8910 H     1 <1>   0.0800 
 38 H        2.5840    -3.2870    -0.7580 H     1 <1>   0.0800 
 39 H        5.4730    -2.3150    -0.4980 H     1 <1>   0.0800 
 40 H        4.5840    -3.4620     0.4900 H     1 <1>   0.0800 
 41 H        5.3220    -2.0650     1.2320 H     1 <1>   0.0800 
 42 H        5.6810     4.2040    -0.9370 H     1 <1>   0.0800 
 43 H        5.8610     4.4340     0.7900 H     1 <1>   0.0800 
 44 H        8.1400     3.7630    -1.0860 H     1 <1>   0.0800 
 45 H        8.2740     4.0670     0.6290 H     1 <1>   0.0800 
 46 H        8.6280     5.7710    -2.5010 H     1 <1>   0.1500 
 47 H        8.4830     8.4520    -2.1340 H     1 <1>   0.1500 
 48 H        7.6870     9.9440    -0.1310 H     1 <1>   0.0800 
 49 H        8.0030     9.1800     1.4130 H     1 <1>   0.0800 
 50 H        6.3810     9.1870     0.7580 H     1 <1>   0.0800 
@<TRIPOS>BOND
  1   1   2  ar  
  2   2   3  ar  
  3   2   4  1   
  4   4   5  1   
  5   4   6  1   
  6   4   7  1   
  7   5   8  1   
  8   5   9  1   
  9   5  25  1   
 10   6  10  1   
 11   6  26  1   
 12   6  27  1   
 13   7  11  1   
 14   7  28  1   
 15   7  29  1   
 16   8  12  1   
 17   8  13  1   
 18   8  30  1   
 19   9  14  1   
 20   9  31  1   
 21   9  32  1   
 22  10  14  1   
 23  10  33  1   
 24  10  34  1   
 25  11  12  1   
 26  11  35  1   
 27  11  36  1   
 28  12  37  1   
 29  12  38  1   
 30  13  39  1   
 31  13  40  1   
 32  13  41  1   
 33  14  15  am  
 34  15  16  2   
 35  15  17  1   
 36  17  18  1   
 37  17  42  1   
 38  17  43  1   
 39  18  19  1   
 40  18  44  1   
 41  18  45  1   
 42  19  20  1   
 43  19  21  1   
 44  20  22  2   
 45  21  23  2   
 46  21  46  1   
 47  22  23  1   
 48  22  24  1   
 49  23  47  1   
 50  24  48  1   
 51  24  49  1   
 52  24  50  1   
@<TRIPOS>SUBSTRUCTURE
  1 ****  14 GROUP 4 **** **** 0

# MOE 2024.06 (io_trps.svl 2023.06)
