@<TRIPOS>MOLECULE
NONAME
53 55 1 0 0 
SMALL
USER_CHARGES


@<TRIPOS>ATOM
  1 O       -0.5910     0.3720     0.1670 O.2   1 <1>  -0.5700 
  2 C       -1.5820     0.9920    -0.1690 C.2   1 <1>   0.5440 
  3 N       -2.7130     0.2930    -0.5370 N.am  1 <1>  -0.6600 
  4 C       -1.5510     2.4420    -0.1570 C.ar  1 <1>   0.0860 
  5 C       -4.0960     0.8490    -0.4430 C.3   1 <1>   0.1400 
  6 C       -2.6980    -1.1860    -0.7610 C.3   1 <1>   0.1400 
  7 C       -1.0740     3.1410     0.9490 C.ar  1 <1>  -0.1500 
  8 C       -1.9890     3.1950    -1.2470 C.ar  1 <1>  -0.1500 
  9 C       -4.9460     0.0250     0.5500 C.3   1 <1>   0.2000 
 10 C       -3.6340    -1.9060     0.2320 C.3   1 <1>   0.2000 
 11 C       -1.0560     4.5220     0.9780 C.ar  1 <1>  -0.1500 
 12 C       -1.9720     4.5770    -1.2260 C.ar  1 <1>  -0.1500 
 13 O       -4.9090    -1.3280     0.1920 O.3   1 <1>  -0.5600 
 14 C       -6.4280     0.4610     0.6340 C.3   1 <1>  -0.0800 
 15 C       -3.8160    -3.3970    -0.0810 C.3   1 <1>  -0.1600 
 16 C       -1.5100     5.2680    -0.1070 C.ar  1 <1>  -0.0230 
 17 C       -7.1850     0.3390    -0.7000 C.3   1 <1>  -0.2400 
 18 C       -6.5760     1.8890     1.1820 C.3   1 <1>  -0.2400 
 19 C       -2.5170    -4.2060     0.0680 C.3   1 <1>  -0.1600 
 20 N       -1.4980     6.6940    -0.0690 N.pl3 1 <1>   0.5930 
 21 C       -2.7710    -5.7000    -0.1600 C.3   1 <1>  -0.1600 
 22 N       -0.6670     7.4290     0.6570 N.2   1 <1>  -0.4180 
 23 C       -2.2850     7.5540    -0.7020 C.2   1 <1>   0.0360 
 24 C       -1.4790    -6.5080    -0.0150 C.3   1 <1>  -0.2400 
 25 N       -0.9630     8.6590     0.4420 N.2   1 <1>   0.0000 
 26 N       -1.9770     8.7570    -0.4090 N.2   1 <1>  -0.3380 
 27 H       -4.0700     1.8700    -0.1130 H     1 <1>   0.0800 
 28 H       -4.5480     0.8200    -1.4170 H     1 <1>   0.0800 
 29 H       -3.0220    -1.3920    -1.7650 H     1 <1>   0.0800 
 30 H       -1.6990    -1.5700    -0.6560 H     1 <1>   0.0800 
 31 H       -0.7110     2.5810     1.7950 H     1 <1>   0.1500 
 32 H       -2.3410     2.6760    -2.1230 H     1 <1>   0.1500 
 33 H       -4.5140     0.1120     1.5320 H     1 <1>   0.0800 
 34 H       -3.2490    -1.7980     1.2320 H     1 <1>   0.0800 
 35 H       -0.6790     5.0240     1.8550 H     1 <1>   0.1500 
 36 H       -2.3130     5.1110    -2.0960 H     1 <1>   0.1500 
 37 H       -6.9000    -0.2010     1.3410 H     1 <1>   0.0800 
 38 H       -4.5490    -3.7930     0.6000 H     1 <1>   0.0800 
 39 H       -4.1940    -3.5040    -1.0820 H     1 <1>   0.0800 
 40 H       -6.8120     1.0340    -1.4290 H     1 <1>   0.0800 
 41 H       -8.2320     0.5360    -0.5490 H     1 <1>   0.0800 
 42 H       -7.0880    -0.6580    -1.0920 H     1 <1>   0.0800 
 43 H       -6.1860     2.6150     0.4920 H     1 <1>   0.0800 
 44 H       -6.0570     1.9860     2.1200 H     1 <1>   0.0800 
 45 H       -7.6150     2.1100     1.3520 H     1 <1>   0.0800 
 46 H       -1.7860    -3.8640    -0.6440 H     1 <1>   0.0800 
 47 H       -2.1150    -4.0600     1.0570 H     1 <1>   0.0800 
 48 H       -3.4940    -6.0580     0.5540 H     1 <1>   0.0800 
 49 H       -3.1750    -5.8530    -1.1470 H     1 <1>   0.0800 
 50 H       -3.0720     7.2560    -1.3650 H     1 <1>   0.1500 
 51 H       -1.0690    -6.3880     0.9720 H     1 <1>   0.0800 
 52 H       -0.7490    -6.1830    -0.7360 H     1 <1>   0.0800 
 53 H       -1.6780    -7.5530    -0.1770 H     1 <1>   0.0800 
@<TRIPOS>BOND
  1   1   2  2   
  2   2   3  am  
  3   2   4  1   
  4   3   5  1   
  5   3   6  1   
  6   4   7  ar  
  7   4   8  ar  
  8   5   9  1   
  9   5  27  1   
 10   5  28  1   
 11   6  10  1   
 12   6  29  1   
 13   6  30  1   
 14   7  11  ar  
 15   7  31  1   
 16   8  12  ar  
 17   8  32  1   
 18   9  13  1   
 19   9  14  1   
 20   9  33  1   
 21  10  13  1   
 22  10  15  1   
 23  10  34  1   
 24  11  16  ar  
 25  11  35  1   
 26  12  16  ar  
 27  12  36  1   
 28  14  17  1   
 29  14  18  1   
 30  14  37  1   
 31  15  19  1   
 32  15  38  1   
 33  15  39  1   
 34  16  20  1   
 35  17  40  1   
 36  17  41  1   
 37  17  42  1   
 38  18  43  1   
 39  18  44  1   
 40  18  45  1   
 41  19  21  1   
 42  19  46  1   
 43  19  47  1   
 44  20  22  1   
 45  20  23  1   
 46  21  24  1   
 47  21  48  1   
 48  21  49  1   
 49  22  25  2   
 50  23  26  2   
 51  23  50  1   
 52  24  51  1   
 53  24  52  1   
 54  24  53  1   
 55  25  26  1   
@<TRIPOS>SUBSTRUCTURE
  1 ****   2 GROUP 4 **** **** 0

# MOE 2024.06 (io_trps.svl 2023.06)
