@<TRIPOS>MOLECULE
NONAME
43 44 1 0 0 
SMALL
USER_CHARGES


@<TRIPOS>ATOM
  1 O       -3.9280    -2.8000     0.7260 O.2   1 <1>  -0.5700 
  2 C       -3.1620    -1.9100     0.4970 C.2   1 <1>   0.4480 
  3 C       -1.9260    -2.1730    -0.3610 C.3   1 <1>  -0.0190 
  4 C       -3.3920    -0.5060     1.0360 C.3   1 <1>  -0.0990 
  5 C       -2.3220    -3.1380    -1.4940 C.3   1 <1>   0.3430 
  6 C       -0.7670    -2.7360     0.5040 C.3   1 <1>  -0.1600 
  7 C       -2.3430    -0.0740     2.0720 C.3   1 <1>  -0.2400 
  8 N       -2.4400    -4.5060    -0.9220 N.4   1 <1>  -0.9590 
  9 C       -0.1170    -3.9840    -0.1210 C.3   1 <1>  -0.1600 
 10 C       -1.1380    -5.0840    -0.4610 C.3   1 <1>   0.3430 
 11 C       -3.2320    -5.4410    -1.7580 C.3   1 <1>   0.4860 
 12 C       -3.5180    -6.6830    -0.9370 C.ar  1 <1>  -0.1440 
 13 C       -4.3490    -6.6100     0.1710 C.ar  1 <1>  -0.1500 
 14 C       -2.9410    -7.8960    -1.2790 C.ar  1 <1>  -0.1500 
 15 C       -4.6120    -7.7250     0.9620 C.ar  1 <1>   0.0280 
 16 C       -3.1920    -9.0160    -0.5100 C.ar  1 <1>  -0.1500 
 17 C       -4.0160    -8.9290     0.5960 C.ar  1 <1>  -0.1500 
 18 C       -5.4770    -7.6070     2.1170 C.2   1 <1>  -0.1780 
 19 C       -5.7280    -8.5220     3.0680 C.2   1 <1>  -0.3000 
 20 H       -1.6190    -1.2470    -0.8140 H     1 <1>   0.0800 
 21 H       -4.3630    -0.4780     1.5000 H     1 <1>   0.0800 
 22 H       -3.4050     0.1940     0.2200 H     1 <1>   0.0800 
 23 H       -1.5720    -3.1290    -2.2680 H     1 <1>   0.0800 
 24 H       -3.2630    -2.8250    -1.9180 H     1 <1>   0.0800 
 25 H       -1.1390    -3.0070     1.4800 H     1 <1>   0.0800 
 26 H       -0.0190    -1.9750     0.6520 H     1 <1>   0.0800 
 27 H       -2.3130    -0.7750     2.8890 H     1 <1>   0.0800 
 28 H       -2.5970     0.8940     2.4680 H     1 <1>   0.0800 
 29 H       -1.3640    -0.0090     1.6300 H     1 <1>   0.0800 
 30 H       -3.0140    -4.3660    -0.0670 H     1 <1>   0.4500 
 31 H        0.6180    -4.3890     0.5530 H     1 <1>   0.0800 
 32 H        0.4060    -3.7050    -1.0190 H     1 <1>   0.0800 
 33 H       -0.7230    -5.7230    -1.2250 H     1 <1>   0.0800 
 34 H       -1.3170    -5.6930     0.4120 H     1 <1>   0.0800 
 35 H       -2.6860    -5.7020    -2.6500 H     1 <1>   0.0800 
 36 H       -4.1650    -4.9840    -2.0440 H     1 <1>   0.0800 
 37 H       -4.8110    -5.6750     0.4420 H     1 <1>   0.1500 
 38 H       -2.2980    -7.9870    -2.1380 H     1 <1>   0.1500 
 39 H       -2.7490    -9.9630    -0.7720 H     1 <1>   0.1500 
 40 H       -4.2010    -9.8130     1.1780 H     1 <1>   0.1500 
 41 H       -5.9670    -6.6500     2.1930 H     1 <1>   0.1500 
 42 H       -6.3910    -8.3470     3.8970 H     1 <1>   0.1500 
 43 H       -5.2990    -9.5070     3.1040 H     1 <1>   0.1500 
@<TRIPOS>BOND
  1   1   2  2   
  2   2   3  1   
  3   2   4  1   
  4   3   5  1   
  5   3   6  1   
  6   3  20  1   
  7   4   7  1   
  8   4  21  1   
  9   4  22  1   
 10   5   8  1   
 11   5  23  1   
 12   5  24  1   
 13   6   9  1   
 14   6  25  1   
 15   6  26  1   
 16   7  27  1   
 17   7  28  1   
 18   7  29  1   
 19   8  10  1   
 20   8  11  1   
 21   8  30  1   
 22   9  10  1   
 23   9  31  1   
 24   9  32  1   
 25  10  33  1   
 26  10  34  1   
 27  11  12  1   
 28  11  35  1   
 29  11  36  1   
 30  12  13  ar  
 31  12  14  ar  
 32  13  15  ar  
 33  13  37  1   
 34  14  16  ar  
 35  14  38  1   
 36  15  17  ar  
 37  15  18  1   
 38  16  17  ar  
 39  16  39  1   
 40  17  40  1   
 41  18  19  2   
 42  18  41  1   
 43  19  42  1   
 44  19  43  1   
@<TRIPOS>SUBSTRUCTURE
  1 ****   8 GROUP 4 **** **** 0

# MOE 2024.06 (io_trps.svl 2023.06)
