@<TRIPOS>MOLECULE
NONAME
59 62 1 0 0 
SMALL
USER_CHARGES


@<TRIPOS>ATOM
  1 O       -0.3640    -0.2870     0.0130 O.3   1 <1>  -0.3630 
  2 C       -1.4570     0.4300     0.3780 C.ar  1 <1>   0.0830 
  3 C        0.9320     0.2660    -0.0150 C.3   1 <1>   0.0400 
  4 C       -2.6930    -0.2250     0.3690 C.ar  1 <1>   0.0000 
  5 C       -1.3770     1.7690     0.7540 C.ar  1 <1>  -0.1500 
  6 C       -2.8140    -1.6100    -0.0200 C.ar  1 <1>   0.6200 
  7 C       -3.8250     0.4960     0.7500 C.ar  1 <1>  -0.1500 
  8 C       -2.5150     2.4620     1.1250 C.ar  1 <1>  -0.1500 
  9 N       -2.8430    -2.5180     0.9580 N.ar  1 <1>  -0.6200 
 10 N       -2.9230    -1.8730    -1.3250 N.ar  1 <1>  -0.6200 
 11 C       -3.7420     1.8230     1.1230 C.ar  1 <1>  -0.1500 
 12 C       -2.9530    -3.7720     0.5890 C.ar  1 <1>   0.1600 
 13 C       -3.0300    -3.1350    -1.6610 C.ar  1 <1>   0.1600 
 14 C       -3.0490    -4.1460    -0.7300 C.ar  1 <1>  -0.1430 
 15 C       -3.1720    -5.6040    -1.1340 C.3   1 <1>   0.2530 
 16 N       -4.2430    -6.2730    -0.3690 N.3   1 <1>  -0.8100 
 17 C       -4.2160    -7.7330    -0.5550 C.3   1 <1>   0.1100 
 18 C       -5.5670    -5.6980    -0.6770 C.3   1 <1>   0.1100 
 19 C       -5.2750    -8.4220     0.3430 C.3   1 <1>   0.4230 
 20 C       -6.6220    -6.3220     0.2410 C.3   1 <1>  -0.1600 
 21 N       -5.1990    -9.9440     0.3360 N.4   1 <1>  -0.9590 
 22 C       -6.7070    -7.8650     0.1020 C.3   1 <1>   0.0000 
 23 C       -6.4340   -10.6190     0.8550 C.3   1 <1>   0.3430 
 24 C       -4.7970   -10.5630    -0.9700 C.3   1 <1>   0.2630 
 25 C       -7.6660    -8.4170     1.1970 C.3   1 <1>  -0.1600 
 26 C       -7.2120    -8.2590    -1.3150 C.3   1 <1>   0.1200 
 27 C       -7.1760    -9.7250     1.8470 C.3   1 <1>  -0.1600 
 28 O       -8.3680    -7.5780    -1.6570 O.3   1 <1>  -0.6800 
 29 H        1.6130    -0.5010    -0.3350 H     1 <1>   0.0800 
 30 H        1.1910     0.5960     0.9750 H     1 <1>   0.0800 
 31 H        0.9470     1.0830    -0.7140 H     1 <1>   0.0800 
 32 H       -0.4400     2.2900     0.7660 H     1 <1>   0.1500 
 33 H       -4.7790    -0.0010     0.7500 H     1 <1>   0.1500 
 34 H       -2.4480     3.4960     1.4150 H     1 <1>   0.1500 
 35 H       -4.6290     2.3590     1.4130 H     1 <1>   0.1500 
 36 H       -2.9730    -4.5230     1.3600 H     1 <1>   0.1500 
 37 H       -3.1060    -3.3620    -2.7110 H     1 <1>   0.1500 
 38 H       -2.2300    -6.0870    -0.9340 H     1 <1>   0.0800 
 39 H       -3.3730    -5.6820    -2.1900 H     1 <1>   0.0800 
 40 H       -4.3850    -7.9570    -1.5930 H     1 <1>   0.0800 
 41 H       -3.2410    -8.0930    -0.2760 H     1 <1>   0.0800 
 42 H       -5.5580    -4.6340    -0.5030 H     1 <1>   0.0800 
 43 H       -5.8210    -5.8590    -1.7120 H     1 <1>   0.0800 
 44 H       -5.0260    -8.1140     1.3440 H     1 <1>   0.0800 
 45 H       -6.3650    -6.0520     1.2520 H     1 <1>   0.0800 
 46 H       -7.5740    -5.8660     0.0340 H     1 <1>   0.0800 
 47 H       -4.4540   -10.1670     1.0130 H     1 <1>   0.4500 
 48 H       -7.0990   -10.8430     0.0360 H     1 <1>   0.0800 
 49 H       -6.1710   -11.5520     1.3300 H     1 <1>   0.0800 
 50 H       -5.5170   -10.3310    -1.7360 H     1 <1>   0.0800 
 51 H       -4.7360   -11.6360    -0.8710 H     1 <1>   0.0800 
 52 H       -3.8310   -10.1990    -1.2810 H     1 <1>   0.0800 
 53 H       -7.7960    -7.6950     1.9860 H     1 <1>   0.0800 
 54 H       -8.6450    -8.5780     0.7800 H     1 <1>   0.0800 
 55 H       -7.4300    -9.3100    -1.3770 H     1 <1>   0.0800 
 56 H       -6.4870    -8.0200    -2.0720 H     1 <1>   0.0800 
 57 H       -8.0230   -10.2600     2.2420 H     1 <1>   0.0800 
 58 H       -6.5280    -9.5060     2.6780 H     1 <1>   0.0800 
 59 H       -9.0930    -7.7370    -1.0210 H     1 <1>   0.4000 
@<TRIPOS>BOND
  1   1   2  1   
  2   1   3  1   
  3   2   4  ar  
  4   2   5  ar  
  5   3  29  1   
  6   3  30  1   
  7   3  31  1   
  8   4   6  1   
  9   4   7  ar  
 10   5   8  ar  
 11   5  32  1   
 12   6   9  ar  
 13   6  10  ar  
 14   7  11  ar  
 15   7  33  1   
 16   8  11  ar  
 17   8  34  1   
 18   9  12  ar  
 19  10  13  ar  
 20  11  35  1   
 21  12  14  ar  
 22  12  36  1   
 23  13  14  ar  
 24  13  37  1   
 25  14  15  1   
 26  15  16  1   
 27  15  38  1   
 28  15  39  1   
 29  16  17  1   
 30  16  18  1   
 31  17  19  1   
 32  17  40  1   
 33  17  41  1   
 34  18  20  1   
 35  18  42  1   
 36  18  43  1   
 37  19  21  1   
 38  19  22  1   
 39  19  44  1   
 40  20  22  1   
 41  20  45  1   
 42  20  46  1   
 43  21  23  1   
 44  21  24  1   
 45  21  47  1   
 46  22  25  1   
 47  22  26  1   
 48  23  27  1   
 49  23  48  1   
 50  23  49  1   
 51  24  50  1   
 52  24  51  1   
 53  24  52  1   
 54  25  27  1   
 55  25  53  1   
 56  25  54  1   
 57  26  28  1   
 58  26  55  1   
 59  26  56  1   
 60  27  57  1   
 61  27  58  1   
 62  28  59  1   
@<TRIPOS>SUBSTRUCTURE
  1 ****  14 GROUP 4 **** **** 0

# MOE 2024.06 (io_trps.svl 2023.06)
