@<TRIPOS>MOLECULE
NONAME
38 40 1 0 0 
SMALL
USER_CHARGES


@<TRIPOS>ATOM
  1 S        0.1590     0.1880     1.1970 S.o2  1 <1>   1.5000 
  2 O       -0.5110     1.2810     1.8650 O.2   1 <1>  -0.6500 
  3 O        0.6730    -0.9160     1.9750 O.2   1 <1>  -0.6500 
  4 N        1.5370     0.8860     0.4800 N.am  1 <1>  -0.8490 
  5 C       -0.8380    -0.3570    -0.2120 C.2   1 <1>  -0.0220 
  6 C        2.2310     1.7400     1.4730 C.3   1 <1>   0.1960 
  7 C        2.4200    -0.1260    -0.1160 C.3   1 <1>   0.1960 
  8 S       -0.7390    -2.0470    -0.7050 S.3   1 <1>  -0.0800 
  9 C       -1.6800     0.2980    -1.0410 C.2   1 <1>  -0.1500 
 10 C        3.5760     2.3860     1.0420 C.3   1 <1>   0.4230 
 11 C        3.4200     0.4860    -1.1220 C.3   1 <1>  -0.0800 
 12 C       -1.8610    -1.7960    -2.0280 C.2   1 <1>  -0.1100 
 13 C       -2.2610    -0.5130    -2.0670 C.2   1 <1>  -0.1500 
 14 N        3.6090     2.9190    -0.3750 N.4   1 <1>  -0.9590 
 15 C        4.7800     1.4380     1.2730 C.3   1 <1>   0.1200 
 16 C        4.8930     0.1970    -0.7560 C.3   1 <1>   0.1200 
 17 C        3.1280     1.9670    -1.4320 C.3   1 <1>   0.3430 
 18 C        2.9490     4.2500    -0.5060 C.3   1 <1>   0.2630 
 19 O        5.4520     1.1760     0.0700 O.3   1 <1>  -0.5600 
 20 H        1.5710     2.5500     1.7370 H     1 <1>   0.0800 
 21 H        2.3930     1.1760     2.3780 H     1 <1>   0.0800 
 22 H        2.9260    -0.6810     0.6580 H     1 <1>   0.0800 
 23 H        1.8200    -0.8390    -0.6560 H     1 <1>   0.0800 
 24 H       -1.9260     1.3440    -0.9660 H     1 <1>   0.1500 
 25 H        3.7330     3.2120     1.7150 H     1 <1>   0.0800 
 26 H        3.2460    -0.0510    -2.0380 H     1 <1>   0.0800 
 27 H       -2.1070    -2.6450    -2.6410 H     1 <1>   0.1500 
 28 H       -2.9520    -0.0960    -2.7800 H     1 <1>   0.1500 
 29 H        4.6260     3.0000    -0.5550 H     1 <1>   0.4500 
 30 H        4.4980     0.5090     1.7380 H     1 <1>   0.0800 
 31 H        5.4850     1.9230     1.9260 H     1 <1>   0.0800 
 32 H        5.4900     0.1810    -1.6530 H     1 <1>   0.0800 
 33 H        5.0020    -0.7610    -0.2750 H     1 <1>   0.0800 
 34 H        2.0640     2.0820    -1.5590 H     1 <1>   0.0800 
 35 H        3.5950     2.2250    -2.3690 H     1 <1>   0.0800 
 36 H        1.8920     4.1600    -0.3120 H     1 <1>   0.0800 
 37 H        3.0850     4.6370    -1.5030 H     1 <1>   0.0800 
 38 H        3.3720     4.9510     0.1940 H     1 <1>   0.0800 
@<TRIPOS>BOND
  1   1   2  2   
  2   1   3  2   
  3   1   4  am  
  4   1   5  1   
  5   4   6  1   
  6   4   7  1   
  7   5   8  1   
  8   5   9  2   
  9   6  10  1   
 10   6  20  1   
 11   6  21  1   
 12   7  11  1   
 13   7  22  1   
 14   7  23  1   
 15   8  12  1   
 16   9  13  1   
 17   9  24  1   
 18  10  14  1   
 19  10  15  1   
 20  10  25  1   
 21  11  16  1   
 22  11  17  1   
 23  11  26  1   
 24  12  13  2   
 25  12  27  1   
 26  13  28  1   
 27  14  17  1   
 28  14  18  1   
 29  14  29  1   
 30  15  19  1   
 31  15  30  1   
 32  15  31  1   
 33  16  19  1   
 34  16  32  1   
 35  16  33  1   
 36  17  34  1   
 37  17  35  1   
 38  18  36  1   
 39  18  37  1   
 40  18  38  1   
@<TRIPOS>SUBSTRUCTURE
  1 ****   4 GROUP 4 **** **** 0

# MOE 2024.06 (io_trps.svl 2023.06)
