@<TRIPOS>MOLECULE
NONAME
53 55 1 0 0 
SMALL
USER_CHARGES


@<TRIPOS>ATOM
  1 F       -1.6950     1.4290     2.0430 F     1 <1>  -0.1900 
  2 C       -0.8230     2.3080     1.6240 C.ar  1 <1>   0.1900 
  3 C       -0.8700     2.8430     0.3320 C.ar  1 <1>   0.0830 
  4 C        0.1530     2.6870     2.5260 C.ar  1 <1>  -0.1500 
  5 O       -1.7730     2.5530    -0.6470 O.3   1 <1>  -0.3630 
  6 C        0.0960     3.7720    -0.0170 C.ar  1 <1>  -0.1500 
  7 C        1.1000     3.6210     2.1460 C.ar  1 <1>  -0.1500 
  8 C       -2.7760     1.5710    -0.5010 C.3   1 <1>   0.0400 
  9 C        1.0910     4.1920     0.8700 C.ar  1 <1>   0.0860 
 10 C        2.0860     5.1810     0.4840 C.2   1 <1>   0.5440 
 11 O        3.1360     5.2950     1.0900 O.2   1 <1>  -0.5700 
 12 N        1.8700     6.0830    -0.5310 N.am  1 <1>  -0.6600 
 13 C        2.9630     6.4330    -1.4970 C.3   1 <1>   0.1400 
 14 C        0.7560     7.0580    -0.4420 C.3   1 <1>   0.1400 
 15 C        4.0350     7.3710    -0.9000 C.3   1 <1>   0.3430 
 16 C        1.1160     8.1830     0.5380 C.3   1 <1>  -0.1600 
 17 N        3.5920     8.0080     0.3810 N.4   1 <1>  -0.9590 
 18 C        2.4240     8.9200     0.2300 C.3   1 <1>   0.3430 
 19 C        4.7130     8.5620     1.2040 C.3   1 <1>   0.3430 
 20 C        5.6700     9.5070     0.4520 C.3   1 <1>  -0.0800 
 21 C        6.8080     9.9050     1.4050 C.3   1 <1>   0.1200 
 22 C        5.0020    10.7790    -0.1110 C.3   1 <1>  -0.1600 
 23 O        7.7100    10.7160     0.7260 O.3   1 <1>  -0.5600 
 24 C        6.0670    11.7280    -0.6770 C.3   1 <1>  -0.1600 
 25 C        7.2040    11.9520     0.3270 C.3   1 <1>   0.1200 
 26 H        0.1670     2.2540     3.5110 H     1 <1>   0.1500 
 27 H        0.0680     4.1740    -1.0140 H     1 <1>   0.1500 
 28 H        1.8630     3.9120     2.8480 H     1 <1>   0.1500 
 29 H       -3.3200     1.5090    -1.4260 H     1 <1>   0.0800 
 30 H       -3.4400     1.8630     0.2930 H     1 <1>   0.0800 
 31 H       -2.3120     0.6240    -0.2870 H     1 <1>   0.0800 
 32 H        2.5350     6.8920    -2.3710 H     1 <1>   0.0800 
 33 H        3.4440     5.5270    -1.8230 H     1 <1>   0.0800 
 34 H       -0.1370     6.5600    -0.1000 H     1 <1>   0.0800 
 35 H        0.5470     7.4630    -1.4190 H     1 <1>   0.0800 
 36 H        4.3080     8.1230    -1.6220 H     1 <1>   0.0800 
 37 H        4.9130     6.7770    -0.7040 H     1 <1>   0.0800 
 38 H        1.1480     7.7940     1.5400 H     1 <1>   0.0800 
 39 H        0.3170     8.9040     0.5150 H     1 <1>   0.0800 
 40 H        3.2330     7.1770     0.9020 H     1 <1>   0.4500 
 41 H        2.5220     9.7440     0.9180 H     1 <1>   0.0800 
 42 H        2.3950     9.3230    -0.7690 H     1 <1>   0.0800 
 43 H        5.2940     7.7360     1.5820 H     1 <1>   0.0800 
 44 H        4.3050     9.0790     2.0570 H     1 <1>   0.0800 
 45 H        6.1320     8.9630    -0.3530 H     1 <1>   0.0800 
 46 H        7.3500     9.0370     1.7400 H     1 <1>   0.0800 
 47 H        6.4440    10.4440     2.2640 H     1 <1>   0.0800 
 48 H        4.4660    11.2870     0.6730 H     1 <1>   0.0800 
 49 H        4.3120    10.5350    -0.8980 H     1 <1>   0.0800 
 50 H        5.6220    12.6750    -0.9290 H     1 <1>   0.0800 
 51 H        6.4870    11.3160    -1.5780 H     1 <1>   0.0800 
 52 H        8.0080    12.5050    -0.1290 H     1 <1>   0.0800 
 53 H        6.8640    12.4850     1.1980 H     1 <1>   0.0800 
@<TRIPOS>BOND
  1   1   2  1   
  2   2   3  ar  
  3   2   4  ar  
  4   3   5  1   
  5   3   6  ar  
  6   4   7  ar  
  7   4  26  1   
  8   5   8  1   
  9   6   9  ar  
 10   6  27  1   
 11   7   9  ar  
 12   7  28  1   
 13   8  29  1   
 14   8  30  1   
 15   8  31  1   
 16   9  10  1   
 17  10  11  2   
 18  10  12  am  
 19  12  13  1   
 20  12  14  1   
 21  13  15  1   
 22  13  32  1   
 23  13  33  1   
 24  14  16  1   
 25  14  34  1   
 26  14  35  1   
 27  15  17  1   
 28  15  36  1   
 29  15  37  1   
 30  16  18  1   
 31  16  38  1   
 32  16  39  1   
 33  17  18  1   
 34  17  19  1   
 35  17  40  1   
 36  18  41  1   
 37  18  42  1   
 38  19  20  1   
 39  19  43  1   
 40  19  44  1   
 41  20  21  1   
 42  20  22  1   
 43  20  45  1   
 44  21  23  1   
 45  21  46  1   
 46  21  47  1   
 47  22  24  1   
 48  22  48  1   
 49  22  49  1   
 50  23  25  1   
 51  24  25  1   
 52  24  50  1   
 53  24  51  1   
 54  25  52  1   
 55  25  53  1   
@<TRIPOS>SUBSTRUCTURE
  1 ****  12 GROUP 4 **** **** 0

# MOE 2024.06 (io_trps.svl 2023.06)
