@<TRIPOS>MOLECULE
NONAME
51 54 1 0 0 
SMALL
USER_CHARGES


@<TRIPOS>ATOM
  1 O       -1.5610    -4.5360    -0.6310 O.2   1 <1>  -0.5700 
  2 C       -0.3570    -4.5300    -0.6300 C.2   1 <1>   0.5690 
  3 N        0.3550    -5.6370    -0.9250 N.am  1 <1>  -0.7300 
  4 C        0.4140    -3.2750    -0.2820 C.3   1 <1>  -0.0990 
  5 C        1.8320    -5.6810    -0.9010 C.3   1 <1>   0.1400 
  6 C        1.6080    -3.0900    -1.2380 C.3   1 <1>  -0.0800 
  7 C        2.4070    -4.3890    -1.5170 C.3   1 <1>  -0.0800 
  8 C        2.6210    -2.0480    -0.7410 C.3   1 <1>  -0.1600 
  9 C        3.8460    -4.1020    -1.0650 C.3   1 <1>  -0.1600 
 10 C        3.9770    -2.5850    -1.1850 C.3   1 <1>   0.2200 
 11 N        5.1110    -1.9970    -0.4070 N.am  1 <1>  -0.6600 
 12 C        5.8940    -1.0050    -0.9710 C.2   1 <1>   0.5440 
 13 C        5.3120    -2.4460     1.0060 C.3   1 <1>   0.0600 
 14 O        5.5440    -0.4950    -2.0190 O.2   1 <1>  -0.5700 
 15 C        7.1040    -0.5330    -0.3360 C.ar  1 <1>   0.0860 
 16 C        8.2320    -1.3660    -0.1300 C.ar  1 <1>   0.0000 
 17 C        7.1990     0.7590     0.1080 C.ar  1 <1>  -0.1500 
 18 C        9.3370    -0.8360     0.5770 C.ar  1 <1>   0.3100 
 19 C        8.3090    -2.6940    -0.6030 C.ar  1 <1>  -0.1500 
 20 C        8.3390     1.2030     0.7770 C.ar  1 <1>   0.1670 
 21 N        9.3610     0.4480     1.0220 N.ar  1 <1>  -0.6200 
 22 C       10.4540    -1.6690     0.8220 C.ar  1 <1>  -0.1440 
 23 C        9.4030    -3.4750    -0.3600 C.ar  1 <1>  -0.1500 
 24 C        8.4130     2.6360     1.2630 C.3   1 <1>  -0.0970 
 25 C       10.4800    -2.9610     0.3630 C.ar  1 <1>  -0.1500 
 26 C       11.6480    -1.1280     1.6010 C.3   1 <1>  -0.0970 
 27 H       -0.1650    -6.4930    -1.1280 H     1 <1>   0.3700 
 28 H       -0.2410    -2.4240    -0.3380 H     1 <1>   0.0800 
 29 H        0.7530    -3.3740     0.7320 H     1 <1>   0.0800 
 30 H        2.1470    -5.7800     0.1240 H     1 <1>   0.0800 
 31 H        2.1820    -6.5380    -1.4500 H     1 <1>   0.0800 
 32 H        1.2150    -2.7530    -2.1830 H     1 <1>   0.0800 
 33 H        2.4250    -4.5250    -2.5860 H     1 <1>   0.0800 
 34 H        2.5850    -1.9740     0.3300 H     1 <1>   0.0800 
 35 H        2.4350    -1.0800    -1.1710 H     1 <1>   0.0800 
 36 H        4.5650    -4.6060    -1.6860 H     1 <1>   0.0800 
 37 H        3.9650    -4.4140    -0.0450 H     1 <1>   0.0800 
 38 H        4.0970    -2.3560    -2.2320 H     1 <1>   0.0800 
 39 H        4.3660    -2.6280     1.4830 H     1 <1>   0.0800 
 40 H        5.8310    -1.6950     1.5760 H     1 <1>   0.0800 
 41 H        5.8920    -3.3520     1.0200 H     1 <1>   0.0800 
 42 H        6.3830     1.4380    -0.0580 H     1 <1>   0.1500 
 43 H        7.4900    -3.0980    -1.1710 H     1 <1>   0.1500 
 44 H        9.4510    -4.4880    -0.7220 H     1 <1>   0.1500 
 45 H        7.5320     3.1870     0.9910 H     1 <1>   0.0800 
 46 H        9.2710     3.1160     0.8290 H     1 <1>   0.0800 
 47 H        8.5160     2.6470     2.3320 H     1 <1>   0.0800 
 48 H       11.3280    -3.5980     0.5440 H     1 <1>   0.1500 
 49 H       12.4130    -1.8740     1.7160 H     1 <1>   0.0800 
 50 H       11.3320    -0.8080     2.5780 H     1 <1>   0.0800 
 51 H       12.0670    -0.2830     1.0840 H     1 <1>   0.0800 
@<TRIPOS>BOND
  1   1   2  2   
  2   2   3  am  
  3   2   4  1   
  4   3   5  1   
  5   3  27  1   
  6   4   6  1   
  7   4  28  1   
  8   4  29  1   
  9   5   7  1   
 10   5  30  1   
 11   5  31  1   
 12   6   7  1   
 13   6   8  1   
 14   6  32  1   
 15   7   9  1   
 16   7  33  1   
 17   8  10  1   
 18   8  34  1   
 19   8  35  1   
 20   9  10  1   
 21   9  36  1   
 22   9  37  1   
 23  10  11  1   
 24  10  38  1   
 25  11  12  am  
 26  11  13  1   
 27  12  14  2   
 28  12  15  1   
 29  13  39  1   
 30  13  40  1   
 31  13  41  1   
 32  15  16  ar  
 33  15  17  ar  
 34  16  18  ar  
 35  16  19  ar  
 36  17  20  ar  
 37  17  42  1   
 38  18  21  ar  
 39  18  22  ar  
 40  19  23  ar  
 41  19  43  1   
 42  20  21  ar  
 43  20  24  1   
 44  22  25  ar  
 45  22  26  1   
 46  23  25  ar  
 47  23  44  1   
 48  24  45  1   
 49  24  46  1   
 50  24  47  1   
 51  25  48  1   
 52  26  49  1   
 53  26  50  1   
 54  26  51  1   
@<TRIPOS>SUBSTRUCTURE
  1 ****  11 GROUP 4 **** **** 0

# MOE 2024.06 (io_trps.svl 2023.06)
