@<TRIPOS>MOLECULE
NONAME
44 45 1 0 0 
SMALL
USER_CHARGES


@<TRIPOS>ATOM
  1 S        0.2750     0.1900    -0.9690 S.o2  1 <1>   1.3330 
  2 O        0.5350    -1.0310    -1.7000 O.2   1 <1>  -0.6500 
  3 O       -0.8070     1.0540    -1.3820 O.2   1 <1>  -0.6500 
  4 N       -0.0120    -0.2300     0.6530 N.am  1 <1>  -0.8490 
  5 C        1.8000     1.1340    -0.9070 C.3   1 <1>  -0.0550 
  6 C       -0.8100    -1.4550     0.7720 C.3   1 <1>   0.1160 
  7 C       -0.6410     0.8460     1.4280 C.3   1 <1>   0.1160 
  8 C        3.0420     0.3060    -0.5120 C.3   1 <1>  -0.0800 
  9 C        4.3680     1.0380    -0.6560 C.3   1 <1>   0.2200 
 10 C        3.0750    -0.1730     0.9450 C.3   1 <1>   0.1200 
 11 N        4.2620     2.4260    -0.1470 N.am  1 <1>  -0.7300 
 12 C        5.2340     0.2340     0.3020 C.3   1 <1>   0.1200 
 13 O        4.3990    -0.0490     1.3820 O.3   1 <1>  -0.5600 
 14 C        4.1640     3.5480    -0.9150 C.2   1 <1>   0.5440 
 15 O        4.0520     3.4150    -2.1160 O.2   1 <1>  -0.5700 
 16 C        4.1380     4.8650    -0.3040 C.ar  1 <1>   0.0860 
 17 C        5.1220     5.3290     0.5870 C.ar  1 <1>  -0.1440 
 18 C        3.0790     5.7170    -0.6100 C.ar  1 <1>  -0.1500 
 19 C        5.0200     6.5890     1.1640 C.ar  1 <1>  -0.1500 
 20 C        6.3410     4.4820     0.9380 C.3   1 <1>  -0.0970 
 21 C        3.0040     6.9630    -0.0260 C.ar  1 <1>   0.1900 
 22 C        3.9550     7.4180     0.8630 C.ar  1 <1>  -0.1500 
 23 F        1.9970     7.7390    -0.3210 F     1 <1>  -0.1900 
 24 H        1.9760     1.5470    -1.8820 H     1 <1>   0.0800 
 25 H        1.6810     1.9570    -0.2310 H     1 <1>   0.0800 
 26 H       -0.9660    -1.7010     1.8080 H     1 <1>   0.0800 
 27 H       -0.2940    -2.2780     0.3060 H     1 <1>   0.0800 
 28 H       -1.7650    -1.3280     0.2890 H     1 <1>   0.0800 
 29 H       -0.7180     0.5600     2.4630 H     1 <1>   0.0800 
 30 H       -1.6280     1.0570     1.0490 H     1 <1>   0.0800 
 31 H       -0.0500     1.7430     1.3670 H     1 <1>   0.0800 
 32 H        3.0820    -0.5670    -1.1420 H     1 <1>   0.0800 
 33 H        4.7470     1.0260    -1.6650 H     1 <1>   0.0800 
 34 H        2.7700    -1.2020     1.0340 H     1 <1>   0.0800 
 35 H        2.4660     0.4420     1.5840 H     1 <1>   0.0800 
 36 H        4.2760     2.4980     0.8730 H     1 <1>   0.3700 
 37 H        6.1000     0.7750     0.6400 H     1 <1>   0.0800 
 38 H        5.5320    -0.7000    -0.1420 H     1 <1>   0.0800 
 39 H        2.3180     5.4050    -1.3030 H     1 <1>   0.1500 
 40 H        5.7740     6.9380     1.8500 H     1 <1>   0.1500 
 41 H        7.1290     5.0930     1.3420 H     1 <1>   0.0800 
 42 H        6.7250     3.9910     0.0610 H     1 <1>   0.0800 
 43 H        6.0800     3.7390     1.6690 H     1 <1>   0.0800 
 44 H        3.8630     8.3960     1.3010 H     1 <1>   0.1500 
@<TRIPOS>BOND
  1   1   2  2   
  2   1   3  2   
  3   1   4  am  
  4   1   5  1   
  5   4   6  1   
  6   4   7  1   
  7   5   8  1   
  8   5  24  1   
  9   5  25  1   
 10   6  26  1   
 11   6  27  1   
 12   6  28  1   
 13   7  29  1   
 14   7  30  1   
 15   7  31  1   
 16   8   9  1   
 17   8  10  1   
 18   8  32  1   
 19   9  11  1   
 20   9  12  1   
 21   9  33  1   
 22  10  13  1   
 23  10  34  1   
 24  10  35  1   
 25  11  14  am  
 26  11  36  1   
 27  12  13  1   
 28  12  37  1   
 29  12  38  1   
 30  14  15  2   
 31  14  16  1   
 32  16  17  ar  
 33  16  18  ar  
 34  17  19  ar  
 35  17  20  1   
 36  18  21  ar  
 37  18  39  1   
 38  19  22  ar  
 39  19  40  1   
 40  20  41  1   
 41  20  42  1   
 42  20  43  1   
 43  21  22  ar  
 44  21  23  1   
 45  22  44  1   
@<TRIPOS>SUBSTRUCTURE
  1 ****  11 GROUP 4 **** **** 0

# MOE 2024.06 (io_trps.svl 2023.06)
