@<TRIPOS>MOLECULE
NONAME
45 47 1 0 0 
SMALL
USER_CHARGES


@<TRIPOS>ATOM
  1 CL      -0.4190    -0.4870    -1.5340 Cl    1 <1>  -0.1770 
  2 C        1.1090    -1.2070    -1.0500 C.ar  1 <1>   0.1770 
  3 C        1.1720    -2.3370    -0.2380 C.ar  1 <1>   0.4100 
  4 C        2.2830    -0.6620    -1.4930 C.ar  1 <1>   0.1600 
  5 N        2.3430    -2.8700     0.0680 N.ar  1 <1>  -0.6200 
  6 N        0.0530    -2.9610     0.2890 N.pl3 1 <1>  -0.8380 
  7 N        3.4580    -1.1790    -1.1760 N.ar  1 <1>  -0.6200 
  8 C        3.4120    -2.2570    -0.4110 C.ar  1 <1>   0.4770 
  9 C        0.0370    -4.4300     0.4630 C.3   1 <1>   0.2090 
 10 C       -0.8070    -2.2240     1.2490 C.3   1 <1>   0.2090 
 11 C        4.7430    -2.8680    -0.0450 C.3   1 <1>  -0.0960 
 12 C       -1.3950    -4.9340     0.2340 C.3   1 <1>  -0.0800 
 13 C       -2.2530    -2.6980     1.0770 C.3   1 <1>  -0.1600 
 14 C       -2.3780    -4.2270     1.1960 C.3   1 <1>  -0.1600 
 15 C       -1.4120    -6.4610     0.3760 C.3   1 <1>   0.3430 
 16 N       -2.7710    -7.0320     0.1280 N.4   1 <1>  -0.9590 
 17 C       -2.8290    -8.4830     0.5240 C.3   1 <1>   0.3430 
 18 C       -3.2100    -6.8670    -1.3050 C.3   1 <1>   0.3430 
 19 C       -4.1920    -9.1120     0.1760 C.3   1 <1>   0.1200 
 20 C       -4.5540    -7.5710    -1.5720 C.3   1 <1>   0.1200 
 21 O       -4.4860    -8.9100    -1.1750 O.3   1 <1>  -0.5600 
 22 H        2.2640     0.2110    -2.1210 H     1 <1>   0.1500 
 23 H        0.3810    -4.6700     1.4550 H     1 <1>   0.0800 
 24 H        0.7080    -4.8820    -0.2490 H     1 <1>   0.0800 
 25 H       -0.7420    -1.1630     1.0800 H     1 <1>   0.0800 
 26 H       -0.4680    -2.4240     2.2520 H     1 <1>   0.0800 
 27 H        4.6990    -3.2810     0.9450 H     1 <1>   0.0800 
 28 H        5.5160    -2.1210    -0.0760 H     1 <1>   0.0800 
 29 H        4.9800    -3.6480    -0.7440 H     1 <1>   0.0800 
 30 H       -1.6440    -4.6740    -0.7800 H     1 <1>   0.0800 
 31 H       -2.6000    -2.3760     0.1100 H     1 <1>   0.0800 
 32 H       -2.8690    -2.2210     1.8180 H     1 <1>   0.0800 
 33 H       -2.1610    -4.5130     2.2120 H     1 <1>   0.0800 
 34 H       -3.3950    -4.5010     0.9780 H     1 <1>   0.0800 
 35 H       -1.0930    -6.7160     1.3740 H     1 <1>   0.0800 
 36 H       -0.7060    -6.8930    -0.3170 H     1 <1>   0.0800 
 37 H       -3.4410    -6.5220     0.7170 H     1 <1>   0.4500 
 38 H       -2.6510    -8.5850     1.5820 H     1 <1>   0.0800 
 39 H       -2.0630    -9.0340     0.0040 H     1 <1>   0.0800 
 40 H       -2.4700    -7.2910    -1.9650 H     1 <1>   0.0800 
 41 H       -3.3070    -5.8210    -1.5460 H     1 <1>   0.0800 
 42 H       -4.9830    -8.6880     0.7720 H     1 <1>   0.0800 
 43 H       -4.1660   -10.1740     0.3490 H     1 <1>   0.0800 
 44 H       -4.7800    -7.5540    -2.6240 H     1 <1>   0.0800 
 45 H       -5.3590    -7.0910    -1.0410 H     1 <1>   0.0800 
@<TRIPOS>BOND
  1   1   2  1   
  2   2   3  ar  
  3   2   4  ar  
  4   3   5  ar  
  5   3   6  1   
  6   4   7  ar  
  7   4  22  1   
  8   5   8  ar  
  9   6   9  1   
 10   6  10  1   
 11   7   8  ar  
 12   8  11  1   
 13   9  12  1   
 14   9  23  1   
 15   9  24  1   
 16  10  13  1   
 17  10  25  1   
 18  10  26  1   
 19  11  27  1   
 20  11  28  1   
 21  11  29  1   
 22  12  14  1   
 23  12  15  1   
 24  12  30  1   
 25  13  14  1   
 26  13  31  1   
 27  13  32  1   
 28  14  33  1   
 29  14  34  1   
 30  15  16  1   
 31  15  35  1   
 32  15  36  1   
 33  16  17  1   
 34  16  18  1   
 35  16  37  1   
 36  17  19  1   
 37  17  38  1   
 38  17  39  1   
 39  18  20  1   
 40  18  40  1   
 41  18  41  1   
 42  19  21  1   
 43  19  42  1   
 44  19  43  1   
 45  20  21  1   
 46  20  44  1   
 47  20  45  1   
@<TRIPOS>SUBSTRUCTURE
  1 ****   9 GROUP 4 **** **** 0

# MOE 2024.06 (io_trps.svl 2023.06)
