@<TRIPOS>MOLECULE
NONAME
48 49 1 0 0 
SMALL
USER_CHARGES


@<TRIPOS>ATOM
  1 O        2.8550    -1.3920     2.1040 O.2   1 <1>  -0.5700 
  2 C        2.0490    -1.5190     1.2140 C.2   1 <1>   0.5690 
  3 N        1.6300    -0.5130     0.3900 N.am  1 <1>  -0.5470 
  4 C        1.4230    -2.8940     0.9680 C.3   1 <1>   0.1710 
  5 C        1.9390     0.8510     0.2970 C.ar  1 <1>   0.1170 
  6 N        0.0870    -2.8320     0.2990 N.3   1 <1>  -0.8100 
  7 C        2.9630     1.4550     1.0210 C.ar  1 <1>  -0.1500 
  8 C        1.1870     1.6410    -0.5660 C.ar  1 <1>  -0.1500 
  9 C       -0.2610    -4.1340    -0.3060 C.3   1 <1>   0.1100 
 10 C       -0.9530    -2.3600     1.2300 C.3   1 <1>   0.1100 
 11 C        3.2220     2.8080     0.8890 C.ar  1 <1>  -0.1500 
 12 C        1.4430     2.9940    -0.7010 C.ar  1 <1>  -0.1500 
 13 C       -1.6050    -4.0520    -1.0550 C.3   1 <1>   0.2000 
 14 C       -2.2840    -2.2080     0.4830 C.3   1 <1>  -0.1600 
 15 C        2.4630     3.5800     0.0280 C.ar  1 <1>  -0.1500 
 16 O       -1.8970    -5.2980    -1.5990 O.3   1 <1>  -0.6800 
 17 C       -2.7680    -3.5350    -0.1600 C.3   1 <1>   0.0000 
 18 C       -3.0840    -4.5850     0.9440 C.3   1 <1>   0.1200 
 19 C       -4.0660    -3.2980    -0.9870 C.3   1 <1>  -0.1600 
 20 O       -4.0500    -4.1300     1.8310 O.3   1 <1>  -0.6800 
 21 C       -3.9530    -2.3740    -2.2160 C.3   1 <1>  -0.1600 
 22 C       -5.3150    -2.2090    -2.8950 C.3   1 <1>  -0.2400 
 23 H        0.8920    -0.8480    -0.2370 H     1 <1>   0.3700 
 24 H        1.3440    -3.4140     1.9060 H     1 <1>   0.0800 
 25 H        2.1090    -3.4390     0.3450 H     1 <1>   0.0800 
 26 H        3.5660     0.8730     1.6920 H     1 <1>   0.1500 
 27 H        0.3930     1.1960    -1.1370 H     1 <1>   0.1500 
 28 H        0.5020    -4.4060    -1.0160 H     1 <1>   0.0800 
 29 H       -0.3020    -4.8900     0.4580 H     1 <1>   0.0800 
 30 H       -1.0530    -3.0450     2.0550 H     1 <1>   0.0800 
 31 H       -0.6720    -1.4010     1.6340 H     1 <1>   0.0800 
 32 H        4.0170     3.2580     1.4580 H     1 <1>   0.1500 
 33 H        0.8520     3.5920    -1.3720 H     1 <1>   0.1500 
 34 H       -1.4570    -3.3820    -1.8830 H     1 <1>   0.0800 
 35 H       -3.0270    -1.8190     1.1540 H     1 <1>   0.0800 
 36 H       -2.1320    -1.4630    -0.2760 H     1 <1>   0.0800 
 37 H        2.6650     4.6320    -0.0740 H     1 <1>   0.1500 
 38 H       -2.1350    -5.9380    -0.9040 H     1 <1>   0.4000 
 39 H       -2.2120    -4.8340     1.5200 H     1 <1>   0.0800 
 40 H       -3.4680    -5.4890     0.5040 H     1 <1>   0.0800 
 41 H       -4.4300    -4.2520    -1.3280 H     1 <1>   0.0800 
 42 H       -4.8220    -2.8940    -0.3360 H     1 <1>   0.0800 
 43 H       -3.7980    -3.2620     2.2000 H     1 <1>   0.4000 
 44 H       -3.5960    -1.4010    -1.9310 H     1 <1>   0.0800 
 45 H       -3.2680    -2.7920    -2.9330 H     1 <1>   0.0800 
 46 H       -6.0260    -1.7710    -2.2160 H     1 <1>   0.0800 
 47 H       -5.6910    -3.1640    -3.2200 H     1 <1>   0.0800 
 48 H       -5.2240    -1.5690    -3.7540 H     1 <1>   0.0800 
@<TRIPOS>BOND
  1   1   2  2   
  2   2   3  am  
  3   2   4  1   
  4   3   5  1   
  5   3  23  1   
  6   4   6  1   
  7   4  24  1   
  8   4  25  1   
  9   5   7  ar  
 10   5   8  ar  
 11   6   9  1   
 12   6  10  1   
 13   7  11  ar  
 14   7  26  1   
 15   8  12  ar  
 16   8  27  1   
 17   9  13  1   
 18   9  28  1   
 19   9  29  1   
 20  10  14  1   
 21  10  30  1   
 22  10  31  1   
 23  11  15  ar  
 24  11  32  1   
 25  12  15  ar  
 26  12  33  1   
 27  13  16  1   
 28  13  17  1   
 29  13  34  1   
 30  14  17  1   
 31  14  35  1   
 32  14  36  1   
 33  15  37  1   
 34  16  38  1   
 35  17  18  1   
 36  17  19  1   
 37  18  20  1   
 38  18  39  1   
 39  18  40  1   
 40  19  21  1   
 41  19  41  1   
 42  19  42  1   
 43  20  43  1   
 44  21  22  1   
 45  21  44  1   
 46  21  45  1   
 47  22  46  1   
 48  22  47  1   
 49  22  48  1   
@<TRIPOS>SUBSTRUCTURE
  1 ****   6 GROUP 4 **** **** 0

# MOE 2024.06 (io_trps.svl 2023.06)
