@<TRIPOS>MOLECULE
NONAME
46 47 1 0 0 
SMALL
USER_CHARGES


@<TRIPOS>ATOM
  1 S        0.6960     0.5370     0.0380 S.o2  1 <1>   1.3330 
  2 O        1.7120     0.8140     1.0290 O.2   1 <1>  -0.6500 
  3 O       -0.4300    -0.2960     0.3960 O.2   1 <1>  -0.6500 
  4 N        1.4710    -0.1790    -1.2920 N.am  1 <1>  -0.8490 
  5 C        0.0480     2.0560    -0.6600 C.3   1 <1>  -0.0550 
  6 C        1.5480    -1.6370    -1.1660 C.3   1 <1>   0.1160 
  7 C        2.8090     0.3690    -1.5440 C.3   1 <1>   0.1160 
  8 C       -0.7070     2.9390     0.3550 C.3   1 <1>  -0.0800 
  9 C       -1.4480     4.0650    -0.3650 C.3   1 <1>   0.2000 
 10 C        0.2680     3.7150     1.2420 C.3   1 <1>   0.1100 
 11 O       -2.4910     4.4840     0.4470 O.3   1 <1>  -0.6800 
 12 C       -0.4200     5.1980    -0.4760 C.3   1 <1>   0.1100 
 13 N        0.7060     4.8250     0.3990 N.3   1 <1>  -0.8100 
 14 C        1.3140     5.9320     1.1520 C.3   1 <1>   0.2530 
 15 C        2.0200     6.9010     0.2090 C.ar  1 <1>  -0.1440 
 16 C        1.4100     8.0800    -0.1930 C.ar  1 <1>   0.1900 
 17 C        3.3040     6.6310    -0.2690 C.ar  1 <1>   0.0820 
 18 F        0.2160     8.3820     0.2570 F     1 <1>  -0.1900 
 19 C        2.0400     8.9550    -1.0610 C.ar  1 <1>   0.1900 
 20 O        3.9060     5.4890     0.1590 O.3   1 <1>  -0.3630 
 21 C        3.9350     7.5200    -1.1460 C.ar  1 <1>  -0.1500 
 22 F        1.4460    10.0610    -1.4360 F     1 <1>  -0.1900 
 23 C        3.3040     8.6860    -1.5490 C.ar  1 <1>  -0.1500 
 24 C        5.1650     5.0750    -0.3220 C.3   1 <1>   0.0400 
 25 H        0.8480     2.6220    -1.0950 H     1 <1>   0.0800 
 26 H       -0.6270     1.7900    -1.4500 H     1 <1>   0.0800 
 27 H        2.0320    -2.0620    -2.0280 H     1 <1>   0.0800 
 28 H        0.5560    -2.0540    -1.0990 H     1 <1>   0.0800 
 29 H        2.0970    -1.9080    -0.2790 H     1 <1>   0.0800 
 30 H        3.2170    -0.0520    -2.4460 H     1 <1>   0.0800 
 31 H        3.4690     0.1440    -0.7220 H     1 <1>   0.0800 
 32 H        2.7580     1.4380    -1.6610 H     1 <1>   0.0800 
 33 H       -1.3810     2.3280     0.9300 H     1 <1>   0.0800 
 34 H       -1.8620     3.7780    -1.3160 H     1 <1>   0.0800 
 35 H        1.1100     3.1280     1.5660 H     1 <1>   0.0800 
 36 H       -0.2500     4.0910     2.1080 H     1 <1>   0.0800 
 37 H       -2.1270     4.8490     1.2760 H     1 <1>   0.4000 
 38 H       -0.8600     6.1380    -0.1900 H     1 <1>   0.0800 
 39 H       -0.0570     5.2730    -1.4860 H     1 <1>   0.0800 
 40 H        0.5610     6.4390     1.7310 H     1 <1>   0.0800 
 41 H        2.0380     5.5310     1.8420 H     1 <1>   0.0800 
 42 H        4.9200     7.3220    -1.5240 H     1 <1>   0.1500 
 43 H        3.7790     9.3760    -2.2230 H     1 <1>   0.1500 
 44 H        5.4010     4.1320     0.1370 H     1 <1>   0.0800 
 45 H        5.9020     5.8090    -0.0480 H     1 <1>   0.0800 
 46 H        5.1100     4.9590    -1.3890 H     1 <1>   0.0800 
@<TRIPOS>BOND
  1   1   2  2   
  2   1   3  2   
  3   1   4  am  
  4   1   5  1   
  5   4   6  1   
  6   4   7  1   
  7   5   8  1   
  8   5  25  1   
  9   5  26  1   
 10   6  27  1   
 11   6  28  1   
 12   6  29  1   
 13   7  30  1   
 14   7  31  1   
 15   7  32  1   
 16   8   9  1   
 17   8  10  1   
 18   8  33  1   
 19   9  11  1   
 20   9  12  1   
 21   9  34  1   
 22  10  13  1   
 23  10  35  1   
 24  10  36  1   
 25  11  37  1   
 26  12  13  1   
 27  12  38  1   
 28  12  39  1   
 29  13  14  1   
 30  14  15  1   
 31  14  40  1   
 32  14  41  1   
 33  15  16  ar  
 34  15  17  ar  
 35  16  18  1   
 36  16  19  ar  
 37  17  20  1   
 38  17  21  ar  
 39  19  22  1   
 40  19  23  ar  
 41  20  24  1   
 42  21  23  ar  
 43  21  42  1   
 44  23  43  1   
 45  24  44  1   
 46  24  45  1   
 47  24  46  1   
@<TRIPOS>SUBSTRUCTURE
  1 ****  13 GROUP 4 **** **** 0

# MOE 2024.06 (io_trps.svl 2023.06)
