@<TRIPOS>MOLECULE
NONAME
55 57 1 0 0 
SMALL
USER_CHARGES


@<TRIPOS>ATOM
  1 O       -0.0290     1.8690     1.4340 O.2   1 <1>  -0.5700 
  2 C        0.1050     2.8420     0.7150 C.2   1 <1>   0.5440 
  3 N       -1.0160     3.4970     0.2470 N.am  1 <1>  -0.6600 
  4 C        1.4430     3.2760     0.3660 C.ar  1 <1>   0.0860 
  5 C       -2.3750     3.2380     0.8160 C.3   1 <1>   0.1400 
  6 C       -1.0230     4.3870    -0.9470 C.3   1 <1>   0.1400 
  7 C        2.3600     2.3800    -0.1760 C.ar  1 <1>  -0.1500 
  8 C        1.8480     4.5940     0.5670 C.ar  1 <1>  -0.1500 
  9 C       -3.3190     2.6140    -0.2430 C.3   1 <1>   0.0000 
 10 C       -1.9330     3.7960    -2.0300 C.3   1 <1>  -0.1600 
 11 C        3.6410     2.7800    -0.5360 C.ar  1 <1>   0.0830 
 12 C        3.1220     5.0210     0.2150 C.ar  1 <1>   0.0830 
 13 C       -4.7310     2.3960     0.3280 C.3   1 <1>   0.2000 
 14 C       -3.3480     3.5120    -1.4990 C.3   1 <1>  -0.1600 
 15 C       -2.8890     1.1710    -0.5630 C.3   1 <1>  -0.1600 
 16 O        4.5560     1.9200    -1.0700 O.3   1 <1>  -0.3630 
 17 C        4.0180     4.1110    -0.3470 C.ar  1 <1>   0.0830 
 18 O        3.5420     6.3070     0.4020 O.3   1 <1>  -0.3630 
 19 O       -5.1310     3.4710     1.1260 O.3   1 <1>  -0.5600 
 20 C       -4.6570     1.0950     1.1350 C.3   1 <1>  -0.1600 
 21 C       -3.4650     0.3120     0.5670 C.3   1 <1>  -0.1600 
 22 C        4.2490     0.5620    -1.3000 C.3   1 <1>   0.0400 
 23 O        5.2520     4.5290    -0.7230 O.3   1 <1>  -0.3630 
 24 C        2.7020     7.2890     0.9650 C.3   1 <1>   0.0400 
 25 C       -6.4890     3.4990     1.4350 C.3   1 <1>   0.0400 
 26 C        6.2740     4.3420     0.2250 C.3   1 <1>   0.0400 
 27 H       -2.3080     2.5970     1.6780 H     1 <1>   0.0800 
 28 H       -2.7810     4.1760     1.1500 H     1 <1>   0.0800 
 29 H       -1.3860     5.3570    -0.6550 H     1 <1>   0.0800 
 30 H       -0.0320     4.5030    -1.3490 H     1 <1>   0.0800 
 31 H        2.0340     1.3640    -0.3020 H     1 <1>   0.1500 
 32 H        1.1370     5.2660     1.0070 H     1 <1>   0.1500 
 33 H       -1.9920     4.4850    -2.8530 H     1 <1>   0.0800 
 34 H       -1.4900     2.8880    -2.3990 H     1 <1>   0.0800 
 35 H       -5.4270     2.2840    -0.4860 H     1 <1>   0.0800 
 36 H       -3.9380     3.0520    -2.2720 H     1 <1>   0.0800 
 37 H       -3.8180     4.4460    -1.2420 H     1 <1>   0.0800 
 38 H       -3.3300     0.8590    -1.4940 H     1 <1>   0.0800 
 39 H       -1.8210     1.0600    -0.6360 H     1 <1>   0.0800 
 40 H       -4.4810     1.3100     2.1750 H     1 <1>   0.0800 
 41 H       -5.5680     0.5340     1.0290 H     1 <1>   0.0800 
 42 H       -2.7190     0.1840     1.3350 H     1 <1>   0.0800 
 43 H       -3.7590    -0.6570     0.2050 H     1 <1>   0.0800 
 44 H        5.1180     0.0920    -1.7230 H     1 <1>   0.0800 
 45 H        3.4280     0.5020    -1.9920 H     1 <1>   0.0800 
 46 H        4.0010     0.0960    -0.3630 H     1 <1>   0.0800 
 47 H        3.2540     8.2110     1.0100 H     1 <1>   0.0800 
 48 H        2.4220     6.9830     1.9580 H     1 <1>   0.0800 
 49 H        1.8380     7.4120     0.3380 H     1 <1>   0.0800 
 50 H       -6.6770     4.3760     2.0290 H     1 <1>   0.0800 
 51 H       -6.7480     2.6200     1.9990 H     1 <1>   0.0800 
 52 H       -7.0600     3.5500     0.5250 H     1 <1>   0.0800 
 53 H        7.1910     4.7170    -0.1920 H     1 <1>   0.0800 
 54 H        6.3660     3.2910     0.4350 H     1 <1>   0.0800 
 55 H        6.0210     4.8860     1.1170 H     1 <1>   0.0800 
@<TRIPOS>BOND
  1   1   2  2   
  2   2   3  am  
  3   2   4  1   
  4   3   5  1   
  5   3   6  1   
  6   4   7  ar  
  7   4   8  ar  
  8   5   9  1   
  9   5  27  1   
 10   5  28  1   
 11   6  10  1   
 12   6  29  1   
 13   6  30  1   
 14   7  11  ar  
 15   7  31  1   
 16   8  12  ar  
 17   8  32  1   
 18   9  13  1   
 19   9  14  1   
 20   9  15  1   
 21  10  14  1   
 22  10  33  1   
 23  10  34  1   
 24  11  16  1   
 25  11  17  ar  
 26  12  17  ar  
 27  12  18  1   
 28  13  19  1   
 29  13  20  1   
 30  13  35  1   
 31  14  36  1   
 32  14  37  1   
 33  15  21  1   
 34  15  38  1   
 35  15  39  1   
 36  16  22  1   
 37  17  23  1   
 38  18  24  1   
 39  19  25  1   
 40  20  21  1   
 41  20  40  1   
 42  20  41  1   
 43  21  42  1   
 44  21  43  1   
 45  22  44  1   
 46  22  45  1   
 47  22  46  1   
 48  23  26  1   
 49  24  47  1   
 50  24  48  1   
 51  24  49  1   
 52  25  50  1   
 53  25  51  1   
 54  25  52  1   
 55  26  53  1   
 56  26  54  1   
 57  26  55  1   
@<TRIPOS>SUBSTRUCTURE
  1 ****   2 GROUP 4 **** **** 0

# MOE 2024.06 (io_trps.svl 2023.06)
