@<TRIPOS>MOLECULE
NONAME
54 57 1 0 0 
SMALL
USER_CHARGES


@<TRIPOS>ATOM
  1 O        0.7690    -0.3290    -0.8070 O.2   1 <1>  -0.5700 
  2 C        1.3950    -1.3060    -0.4780 C.2   1 <1>   0.5690 
  3 N        0.8430    -2.3730     0.1770 N.am  1 <1>  -0.6600 
  4 C        2.8740    -1.3740    -0.7990 C.3   1 <1>  -0.0990 
  5 C        1.6840    -3.5150     0.6060 C.3   1 <1>   0.1400 
  6 C       -0.5930    -2.4120     0.5680 C.3   1 <1>   0.0600 
  7 C        3.2320    -2.7630    -1.3580 C.3   1 <1>  -0.0800 
  8 C        2.6500    -3.9290    -0.5250 C.3   1 <1>  -0.0800 
  9 C        4.7460    -2.9940    -1.4590 C.3   1 <1>  -0.1600 
 10 C        3.8590    -4.7250    -0.0160 C.3   1 <1>  -0.1600 
 11 C        4.9500    -4.4470    -1.0480 C.3   1 <1>   0.4230 
 12 N        6.3530    -4.7550    -0.6250 N.4   1 <1>  -0.9590 
 13 C        6.7460    -4.4890     0.8000 C.3   1 <1>   0.4860 
 14 C        6.6990    -6.1580    -0.9980 C.3   1 <1>   0.2630 
 15 C        6.8800    -2.9980     1.0290 C.ar  1 <1>  -0.1440 
 16 C        7.8860    -2.2590     0.3520 C.ar  1 <1>   0.0000 
 17 C        5.9970    -2.3750     1.8720 C.ar  1 <1>  -0.1500 
 18 C        7.8900    -0.8470     0.4720 C.ar  1 <1>   0.0000 
 19 C        8.8920    -2.8610    -0.4410 C.ar  1 <1>  -0.1500 
 20 C        6.0360    -0.9910     2.0330 C.ar  1 <1>  -0.1500 
 21 C        8.8350    -0.0940    -0.2730 C.ar  1 <1>  -0.1440 
 22 C        6.9500    -0.2510     1.3420 C.ar  1 <1>  -0.1500 
 23 C        9.7990    -2.1160    -1.1360 C.ar  1 <1>  -0.1500 
 24 C        9.7610    -0.7230    -1.0600 C.ar  1 <1>  -0.1500 
 25 C        8.8440     1.4280    -0.2100 C.3   1 <1>  -0.0970 
 26 H        3.1180    -0.6110    -1.5160 H     1 <1>   0.0800 
 27 H        3.4170    -1.1720     0.1060 H     1 <1>   0.0800 
 28 H        2.2340    -3.2080     1.4790 H     1 <1>   0.0800 
 29 H        1.0620    -4.3510     0.8780 H     1 <1>   0.0800 
 30 H       -1.0680    -3.2690     0.1250 H     1 <1>   0.0800 
 31 H       -1.1020    -1.5250     0.2290 H     1 <1>   0.0800 
 32 H       -0.6790    -2.4680     1.6390 H     1 <1>   0.0800 
 33 H        2.8040    -2.8290    -2.3470 H     1 <1>   0.0800 
 34 H        2.0960    -4.5600    -1.2000 H     1 <1>   0.0800 
 35 H        5.2520    -2.3170    -0.8010 H     1 <1>   0.0800 
 36 H        5.0900    -2.8210    -2.4640 H     1 <1>   0.0800 
 37 H        3.6320    -5.7740     0.0540 H     1 <1>   0.0800 
 38 H        4.1300    -4.3470     0.9490 H     1 <1>   0.0800 
 39 H        4.7170    -5.0390    -1.9200 H     1 <1>   0.0800 
 40 H        6.9410    -4.1110    -1.1760 H     1 <1>   0.4500 
 41 H        6.0230    -4.9110     1.4770 H     1 <1>   0.0800 
 42 H        7.6990    -4.9480     1.0090 H     1 <1>   0.0800 
 43 H        6.0950    -6.8550    -0.4380 H     1 <1>   0.0800 
 44 H        7.7390    -6.3580    -0.7910 H     1 <1>   0.0800 
 45 H        6.5250    -6.3200    -2.0490 H     1 <1>   0.0800 
 46 H        5.2490    -2.9180     2.4240 H     1 <1>   0.1500 
 47 H        8.9750    -3.9290    -0.4990 H     1 <1>   0.1500 
 48 H        5.3370    -0.5150     2.7010 H     1 <1>   0.1500 
 49 H        6.9550     0.8160     1.4710 H     1 <1>   0.1500 
 50 H       10.5600    -2.5770    -1.7420 H     1 <1>   0.1500 
 51 H       10.4840    -0.1620    -1.6260 H     1 <1>   0.1500 
 52 H        9.5980     1.8390    -0.8570 H     1 <1>   0.0800 
 53 H        9.0510     1.7550     0.7930 H     1 <1>   0.0800 
 54 H        7.8900     1.8170    -0.5200 H     1 <1>   0.0800 
@<TRIPOS>BOND
  1   1   2  2   
  2   2   3  am  
  3   2   4  1   
  4   3   5  1   
  5   3   6  1   
  6   4   7  1   
  7   4  26  1   
  8   4  27  1   
  9   5   8  1   
 10   5  28  1   
 11   5  29  1   
 12   6  30  1   
 13   6  31  1   
 14   6  32  1   
 15   7   8  1   
 16   7   9  1   
 17   7  33  1   
 18   8  10  1   
 19   8  34  1   
 20   9  11  1   
 21   9  35  1   
 22   9  36  1   
 23  10  11  1   
 24  10  37  1   
 25  10  38  1   
 26  11  12  1   
 27  11  39  1   
 28  12  13  1   
 29  12  14  1   
 30  12  40  1   
 31  13  15  1   
 32  13  41  1   
 33  13  42  1   
 34  14  43  1   
 35  14  44  1   
 36  14  45  1   
 37  15  16  ar  
 38  15  17  ar  
 39  16  18  ar  
 40  16  19  ar  
 41  17  20  ar  
 42  17  46  1   
 43  18  21  ar  
 44  18  22  ar  
 45  19  23  ar  
 46  19  47  1   
 47  20  22  ar  
 48  20  48  1   
 49  21  24  ar  
 50  21  25  1   
 51  22  49  1   
 52  23  24  ar  
 53  23  50  1   
 54  24  51  1   
 55  25  52  1   
 56  25  53  1   
 57  25  54  1   
@<TRIPOS>SUBSTRUCTURE
  1 ****   9 GROUP 4 **** **** 0

# MOE 2024.06 (io_trps.svl 2023.06)
