@<TRIPOS>MOLECULE
NONAME
36 38 1 0 0 
SMALL
USER_CHARGES


@<TRIPOS>ATOM
  1 S       -1.3800    -0.5310     2.2790 S.3   1 <1>  -0.0800 
  2 C       -2.0580    -1.1390     0.7910 C.2   1 <1>  -0.1400 
  3 C       -1.6440     1.0980     1.7200 C.2   1 <1>   0.2280 
  4 C       -2.4110    -0.0810     0.0290 C.2   1 <1>   0.0460 
  5 C       -2.0840    -2.6630     0.7250 C.3   1 <1>   0.0200 
  6 N       -2.1720     1.1730     0.5670 N.2   1 <1>  -0.5650 
  7 C       -3.0390    -0.0280    -1.3510 C.3   1 <1>  -0.0590 
  8 C       -2.7340    -3.2510    -0.5270 C.3   1 <1>   0.2090 
  9 N       -2.7550    -4.7470    -0.4540 N.pl3 1 <1>  -0.8380 
 10 C       -3.8200    -5.4580     0.0380 C.ar  1 <1>   0.4100 
 11 C       -1.5290    -5.3990    -1.0090 C.3   1 <1>   0.1290 
 12 N       -4.7370    -4.7540     0.7000 N.ar  1 <1>  -0.6200 
 13 C       -3.9730    -6.8730    -0.1240 C.ar  1 <1>   0.2270 
 14 C       -5.7760    -5.3780     1.2150 C.ar  1 <1>   0.7710 
 15 N       -3.2270    -7.8370    -0.7540 N.2   1 <1>  -0.5650 
 16 C       -5.0730    -7.4690     0.4280 C.ar  1 <1>   0.1560 
 17 N       -5.9810    -6.7050     1.1070 N.ar  1 <1>  -0.1260 
 18 N       -6.6460    -4.6130     1.8700 N.pl3 1 <1>  -0.9000 
 19 C       -3.8690    -8.9370    -0.5700 C.2   1 <1>   0.0360 
 20 N       -5.0120    -8.7860     0.1480 N.pl3 1 <1>   0.0330 
 21 H       -1.3490     1.8980     2.3750 H     1 <1>   0.1500 
 22 H       -2.6210    -3.0240     1.5840 H     1 <1>   0.0800 
 23 H       -1.0730    -3.0210     0.7910 H     1 <1>   0.0800 
 24 H       -3.2080    -0.9950    -1.7710 H     1 <1>   0.0800 
 25 H       -2.3930     0.5210    -2.0120 H     1 <1>   0.0800 
 26 H       -3.9790     0.4890    -1.2920 H     1 <1>   0.0800 
 27 H       -2.1840    -2.9440    -1.3990 H     1 <1>   0.0800 
 28 H       -3.7380    -2.8750    -0.6190 H     1 <1>   0.0800 
 29 H       -0.7170    -4.6960    -1.0750 H     1 <1>   0.0800 
 30 H       -1.7350    -5.7860    -1.9930 H     1 <1>   0.0800 
 31 H       -1.2180    -6.2090    -0.3720 H     1 <1>   0.0800 
 32 H       -6.8160    -7.0860     1.5410 H     1 <1>   0.4570 
 33 H       -7.5120    -4.8690     2.3470 H     1 <1>   0.4000 
 34 H       -6.4340    -3.6100     1.9220 H     1 <1>   0.4000 
 35 H       -3.5500    -9.8990    -0.9420 H     1 <1>   0.1500 
 36 H       -5.6580    -9.5430     0.3960 H     1 <1>   0.2700 
@<TRIPOS>BOND
  1   1   2  1   
  2   1   3  1   
  3   2   4  2   
  4   2   5  1   
  5   3   6  2   
  6   3  21  1   
  7   4   6  1   
  8   4   7  1   
  9   5   8  1   
 10   5  22  1   
 11   5  23  1   
 12   7  24  1   
 13   7  25  1   
 14   7  26  1   
 15   8   9  1   
 16   8  27  1   
 17   8  28  1   
 18   9  10  1   
 19   9  11  1   
 20  10  12  ar  
 21  10  13  ar  
 22  11  29  1   
 23  11  30  1   
 24  11  31  1   
 25  12  14  ar  
 26  13  15  1   
 27  13  16  ar  
 28  14  17  ar  
 29  14  18  1   
 30  15  19  2   
 31  16  17  ar  
 32  16  20  1   
 33  17  32  1   
 34  18  33  1   
 35  18  34  1   
 36  19  20  1   
 37  19  35  1   
 38  20  36  1   
@<TRIPOS>SUBSTRUCTURE
  1 ****   9 GROUP 4 **** **** 0

# MOE 2024.06 (io_trps.svl 2023.06)
