@<TRIPOS>MOLECULE
NONAME
45 47 1 0 0 
SMALL
USER_CHARGES


@<TRIPOS>ATOM
  1 O       -0.9160    -0.8100     1.8450 O.2   1 <1>  -0.5700 
  2 C       -0.6550    -1.7630     1.1370 C.2   1 <1>   0.5440 
  3 N        0.6560    -2.1360     1.0070 N.am  1 <1>  -0.7300 
  4 C       -1.7080    -2.4910     0.4660 C.ar  1 <1>   0.0860 
  5 C        1.8020    -1.4430     1.6270 C.3   1 <1>   0.1400 
  6 C       -3.0280    -2.3930     0.9050 C.ar  1 <1>   0.1600 
  7 C       -1.4830    -3.3150    -0.6350 C.ar  1 <1>  -0.1500 
  8 C        2.9780    -1.4870     0.6600 C.3   1 <1>  -0.2400 
  9 N       -4.0710    -3.0190     0.3900 N.ar  1 <1>  -0.6200 
 10 C       -2.5570    -3.9730    -1.1830 C.ar  1 <1>  -0.1500 
 11 C       -3.8330    -3.8160    -0.6460 C.ar  1 <1>   0.4100 
 12 N       -4.9040    -4.4990    -1.1830 N.pl3 1 <1>  -0.8380 
 13 C       -4.8510    -5.9790    -1.3170 C.3   1 <1>   0.2090 
 14 C       -6.2740    -3.9140    -1.1320 C.3   1 <1>   0.2090 
 15 C       -5.6450    -6.6260    -0.1840 C.3   1 <1>  -0.1600 
 16 C       -7.0780    -4.5630    -0.0050 C.3   1 <1>  -0.1600 
 17 C       -7.0780    -6.0840    -0.1530 C.3   1 <1>   0.2000 
 18 O       -7.7600    -6.6260     0.9590 O.3   1 <1>  -0.3630 
 19 C       -8.3220    -7.8450     0.9590 C.ar  1 <1>   0.7030 
 20 N       -8.2800    -8.5650    -0.1630 N.ar  1 <1>  -0.6200 
 21 N       -8.8700    -8.1930     2.1150 N.ar  1 <1>  -0.6200 
 22 C       -8.8480    -9.7470    -0.0970 C.ar  1 <1>   0.1600 
 23 C       -9.4280    -9.3800     2.1470 C.ar  1 <1>   0.1600 
 24 C       -9.4440   -10.2080     1.0510 C.ar  1 <1>  -0.1500 
 25 H        0.8850    -3.0050     0.5260 H     1 <1>   0.3700 
 26 H        2.0570    -1.9320     2.5520 H     1 <1>   0.0800 
 27 H        1.5400    -0.4190     1.8430 H     1 <1>   0.0800 
 28 H       -3.2260    -1.7500     1.7460 H     1 <1>   0.1500 
 29 H       -0.5000    -3.4260    -1.0550 H     1 <1>   0.1500 
 30 H        3.2670    -2.5030     0.4610 H     1 <1>   0.0800 
 31 H        3.8180    -0.9730     1.0930 H     1 <1>   0.0800 
 32 H        2.7190    -0.9960    -0.2610 H     1 <1>   0.0800 
 33 H       -2.4340    -4.6090    -2.0380 H     1 <1>   0.1500 
 34 H       -3.8330    -6.3230    -1.2780 H     1 <1>   0.0800 
 35 H       -5.2680    -6.2620    -2.2690 H     1 <1>   0.0800 
 36 H       -6.7610    -4.0830    -2.0760 H     1 <1>   0.0800 
 37 H       -6.2180    -2.8490    -0.9750 H     1 <1>   0.0800 
 38 H       -5.1550    -6.4100     0.7490 H     1 <1>   0.0800 
 39 H       -5.6560    -7.6910    -0.3300 H     1 <1>   0.0800 
 40 H       -8.0860    -4.1940    -0.0300 H     1 <1>   0.0800 
 41 H       -6.6340    -4.2860     0.9350 H     1 <1>   0.0800 
 42 H       -7.6070    -6.3490    -1.0530 H     1 <1>   0.0800 
 43 H       -8.8370   -10.3620    -0.9810 H     1 <1>   0.1500 
 44 H       -9.8830    -9.6970     3.0700 H     1 <1>   0.1500 
 45 H       -9.9050   -11.1770     1.0910 H     1 <1>   0.1500 
@<TRIPOS>BOND
  1   1   2  2   
  2   2   3  am  
  3   2   4  1   
  4   3   5  1   
  5   3  25  1   
  6   4   6  ar  
  7   4   7  ar  
  8   5   8  1   
  9   5  26  1   
 10   5  27  1   
 11   6   9  ar  
 12   6  28  1   
 13   7  10  ar  
 14   7  29  1   
 15   8  30  1   
 16   8  31  1   
 17   8  32  1   
 18   9  11  ar  
 19  10  11  ar  
 20  10  33  1   
 21  11  12  1   
 22  12  13  1   
 23  12  14  1   
 24  13  15  1   
 25  13  34  1   
 26  13  35  1   
 27  14  16  1   
 28  14  36  1   
 29  14  37  1   
 30  15  17  1   
 31  15  38  1   
 32  15  39  1   
 33  16  17  1   
 34  16  40  1   
 35  16  41  1   
 36  17  18  1   
 37  17  42  1   
 38  18  19  1   
 39  19  20  ar  
 40  19  21  ar  
 41  20  22  ar  
 42  21  23  ar  
 43  22  24  ar  
 44  22  43  1   
 45  23  24  ar  
 46  23  44  1   
 47  24  45  1   
@<TRIPOS>SUBSTRUCTURE
  1 ****  12 GROUP 4 **** **** 0

# MOE 2024.06 (io_trps.svl 2023.06)
