@<TRIPOS>MOLECULE
NONAME
52 54 1 0 0 
SMALL
USER_CHARGES


@<TRIPOS>ATOM
  1 O        0.0790     1.7760    -1.0380 O.2   1 <1>  -0.5700 
  2 C       -0.3470     2.9080    -0.9850 C.2   1 <1>   0.5690 
  3 N       -0.8760     3.4700     0.1440 N.am  1 <1>  -0.5090 
  4 C       -0.2860     3.7700    -2.2400 C.3   1 <1>   0.1810 
  5 C       -1.4250     4.8650     0.1100 C.3   1 <1>   0.3640 
  6 C       -0.7780     2.8200     1.4740 C.3   1 <1>   0.0490 
  7 O        0.0560     5.0910    -1.9090 O.3   1 <1>  -0.5600 
  8 C       -2.9560     4.8420     0.0220 C.ar  1 <1>  -0.1440 
  9 C       -0.8660     5.7500    -1.0460 C.3   1 <1>   0.2610 
 10 C       -1.4270     1.4850     1.6620 C.3   1 <1>  -0.2000 
 11 C       -1.9850     2.6860     2.3530 C.3   1 <1>  -0.2000 
 12 C       -3.6560     3.8360    -0.6370 C.ar  1 <1>  -0.1500 
 13 C       -3.6740     5.8720     0.6150 C.ar  1 <1>  -0.1500 
 14 C       -0.2330     7.0180    -0.4620 C.2   1 <1>   0.5690 
 15 C       -5.0390     3.8580    -0.7000 C.ar  1 <1>  -0.1500 
 16 C       -5.0550     5.8960     0.5530 C.ar  1 <1>  -0.1500 
 17 O       -0.8780     7.7130     0.2880 O.2   1 <1>  -0.5700 
 18 N        1.0470     7.3420    -0.7910 N.am  1 <1>  -0.7300 
 19 C       -5.7490     4.8930    -0.1020 C.ar  1 <1>   0.0830 
 20 C        1.7470     8.5910    -0.3990 C.3   1 <1>   0.1400 
 21 O       -7.1010     4.9900    -0.1140 O.3   1 <1>  -0.3630 
 22 C        2.2020     8.5190     1.0610 C.3   1 <1>   0.1400 
 23 C       -7.9020     4.0020    -0.7220 C.3   1 <1>   0.0400 
 24 N        2.9650     9.7410     1.4210 N.am  1 <1>  -0.7300 
 25 C        4.2910     9.8890     1.6340 C.2   1 <1>   0.5690 
 26 O        4.7340    10.9660     1.9360 O.2   1 <1>  -0.5700 
 27 C        5.2340     8.7200     1.4940 C.3   1 <1>  -0.1790 
 28 H       -1.2350     3.7670    -2.7440 H     1 <1>   0.0800 
 29 H        0.4700     3.3880    -2.9020 H     1 <1>   0.0800 
 30 H       -1.1660     5.3270     1.0470 H     1 <1>   0.0800 
 31 H        0.1830     2.9780     1.9370 H     1 <1>   0.1000 
 32 H       -1.6870     6.0710    -1.6620 H     1 <1>   0.0800 
 33 H       -1.9650     1.0580     0.8340 H     1 <1>   0.1000 
 34 H       -0.9140     0.7430     2.2470 H     1 <1>   0.1000 
 35 H       -1.8600     2.7560     3.4190 H     1 <1>   0.1000 
 36 H       -2.9470     3.0410     2.0300 H     1 <1>   0.1000 
 37 H       -3.1380     3.0170    -1.1020 H     1 <1>   0.1500 
 38 H       -3.1640     6.6690     1.1320 H     1 <1>   0.1500 
 39 H       -5.5430     3.0630    -1.2140 H     1 <1>   0.1500 
 40 H       -5.6070     6.6960     1.0140 H     1 <1>   0.1500 
 41 H        1.5270     6.7170    -1.4490 H     1 <1>   0.3700 
 42 H        2.5990     8.7330    -1.0410 H     1 <1>   0.0800 
 43 H        1.0740     9.4230    -0.5230 H     1 <1>   0.0800 
 44 H        2.8130     7.6450     1.2050 H     1 <1>   0.0800 
 45 H        1.3410     8.4440     1.7030 H     1 <1>   0.0800 
 46 H       -8.9320     4.2820    -0.5950 H     1 <1>   0.0800 
 47 H       -7.7190     3.0580    -0.2400 H     1 <1>   0.0800 
 48 H       -7.6630     3.9540    -1.7700 H     1 <1>   0.0800 
 49 H        2.4120    10.5920     1.5560 H     1 <1>   0.3700 
 50 H        5.1430     8.2920     0.5140 H     1 <1>   0.0800 
 51 H        5.0070     7.9800     2.2380 H     1 <1>   0.0800 
 52 H        6.2450     9.0540     1.6350 H     1 <1>   0.0800 
@<TRIPOS>BOND
  1   1   2  2   
  2   2   3  am  
  3   2   4  1   
  4   3   5  1   
  5   3   6  1   
  6   4   7  1   
  7   4  28  1   
  8   4  29  1   
  9   5   8  1   
 10   5   9  1   
 11   5  30  1   
 12   6  10  1   
 13   6  11  1   
 14   6  31  1   
 15   7   9  1   
 16   8  12  ar  
 17   8  13  ar  
 18   9  14  1   
 19   9  32  1   
 20  10  11  1   
 21  10  33  1   
 22  10  34  1   
 23  11  35  1   
 24  11  36  1   
 25  12  15  ar  
 26  12  37  1   
 27  13  16  ar  
 28  13  38  1   
 29  14  17  2   
 30  14  18  am  
 31  15  19  ar  
 32  15  39  1   
 33  16  19  ar  
 34  16  40  1   
 35  18  20  1   
 36  18  41  1   
 37  19  21  1   
 38  20  22  1   
 39  20  42  1   
 40  20  43  1   
 41  21  23  1   
 42  22  24  1   
 43  22  44  1   
 44  22  45  1   
 45  23  46  1   
 46  23  47  1   
 47  23  48  1   
 48  24  25  am  
 49  24  49  1   
 50  25  26  2   
 51  25  27  1   
 52  27  50  1   
 53  27  51  1   
 54  27  52  1   
@<TRIPOS>SUBSTRUCTURE
  1 ****   5 GROUP 4 **** **** 0

# MOE 2024.06 (io_trps.svl 2023.06)
