@<TRIPOS>MOLECULE
NONAME
45 47 1 0 0 
SMALL
USER_CHARGES


@<TRIPOS>ATOM
  1 S        0.0980     0.1580     0.0560 S.o2  1 <1>   1.4470 
  2 O        0.7380     0.6110    -1.1540 O.2   1 <1>  -0.6500 
  3 O        0.4110     0.7570     1.3290 O.2   1 <1>  -0.6500 
  4 N       -1.4770     0.6080    -0.1720 N.am  1 <1>  -0.9780 
  5 C        0.0340    -1.6540     0.1490 C.ar  1 <1>  -0.0090 
  6 C        0.0250    -2.4330    -1.0020 C.ar  1 <1>  -0.1500 
  7 C       -0.0300    -2.3130     1.3710 C.ar  1 <1>  -0.1500 
  8 C       -0.0490    -3.8130    -0.9350 C.ar  1 <1>  -0.1500 
  9 C       -0.1040    -3.6930     1.4390 C.ar  1 <1>  -0.1500 
 10 C       -0.1260    -4.4770     0.2880 C.ar  1 <1>   0.0860 
 11 C       -0.2270    -5.9230     0.3740 C.2   1 <1>   0.5440 
 12 O        0.4510    -6.5270     1.1830 O.2   1 <1>  -0.5700 
 13 N       -1.0970    -6.6350    -0.4200 N.am  1 <1>  -0.6600 
 14 C       -2.3390    -6.0770    -1.0160 C.3   1 <1>   0.1400 
 15 C       -1.2030    -8.1200    -0.3560 C.3   1 <1>   0.1400 
 16 C       -3.3910    -7.1500    -0.7540 C.3   1 <1>   0.2000 
 17 C       -2.6010    -8.4530    -0.8930 C.3   1 <1>  -0.0800 
 18 O       -3.8230    -7.0050     0.5560 O.3   1 <1>  -0.6800 
 19 C       -3.2380    -9.6910    -0.2360 C.3   1 <1>   0.0210 
 20 C       -2.3720   -10.9160    -0.4500 C.2   1 <1>   0.1080 
 21 N       -2.1480   -11.4240    -1.6230 N.2   1 <1>  -0.7070 
 22 C       -1.7210   -11.6170     0.5600 C.2   1 <1>  -0.1500 
 23 N       -1.3420   -12.4760    -1.3890 N.pl3 1 <1>   0.3000 
 24 C       -1.0670   -12.6130    -0.0740 C.2   1 <1>  -0.3320 
 25 C       -0.1830   -13.7020     0.5040 C.3   1 <1>  -0.0600 
 26 H       -1.4180     1.2730    -0.9390 H     1 <1>   0.4200 
 27 H       -1.6840     1.1550     0.6600 H     1 <1>   0.4200 
 28 H        0.0790    -1.9490    -1.9640 H     1 <1>   0.1500 
 29 H       -0.0190    -1.7390     2.2830 H     1 <1>   0.1500 
 30 H       -0.0420    -4.3920    -1.8430 H     1 <1>   0.1500 
 31 H       -0.1440    -4.1820     2.3980 H     1 <1>   0.1500 
 32 H       -2.6210    -5.1350    -0.5760 H     1 <1>   0.0800 
 33 H       -2.1960    -5.9550    -2.0750 H     1 <1>   0.0800 
 34 H       -0.4370    -8.5830    -0.9540 H     1 <1>   0.0800 
 35 H       -1.0980    -8.4470     0.6650 H     1 <1>   0.0800 
 36 H       -4.2420    -7.0890    -1.4100 H     1 <1>   0.0800 
 37 H       -2.4940    -8.6590    -1.9450 H     1 <1>   0.0800 
 38 H       -3.0350    -6.9540     1.1360 H     1 <1>   0.4000 
 39 H       -4.2040    -9.8710    -0.6710 H     1 <1>   0.0800 
 40 H       -3.3720    -9.5350     0.8190 H     1 <1>   0.0800 
 41 H       -1.7500   -11.3900     1.6100 H     1 <1>   0.1500 
 42 H       -0.9970   -13.0800    -2.1450 H     1 <1>   0.2700 
 43 H       -0.1180   -13.5960     1.5730 H     1 <1>   0.0800 
 44 H        0.8090   -13.6330     0.0940 H     1 <1>   0.0800 
 45 H       -0.5910   -14.6710     0.2800 H     1 <1>   0.0800 
@<TRIPOS>BOND
  1   1   2  2   
  2   1   3  2   
  3   1   4  am  
  4   1   5  1   
  5   4  26  1   
  6   4  27  1   
  7   5   6  ar  
  8   5   7  ar  
  9   6   8  ar  
 10   6  28  1   
 11   7   9  ar  
 12   7  29  1   
 13   8  10  ar  
 14   8  30  1   
 15   9  10  ar  
 16   9  31  1   
 17  10  11  1   
 18  11  12  2   
 19  11  13  am  
 20  13  14  1   
 21  13  15  1   
 22  14  16  1   
 23  14  32  1   
 24  14  33  1   
 25  15  17  1   
 26  15  34  1   
 27  15  35  1   
 28  16  17  1   
 29  16  18  1   
 30  16  36  1   
 31  17  19  1   
 32  17  37  1   
 33  18  38  1   
 34  19  20  1   
 35  19  39  1   
 36  19  40  1   
 37  20  21  2   
 38  20  22  1   
 39  21  23  1   
 40  22  24  2   
 41  22  41  1   
 42  23  24  1   
 43  23  42  1   
 44  24  25  1   
 45  25  43  1   
 46  25  44  1   
 47  25  45  1   
@<TRIPOS>SUBSTRUCTURE
  1 ****  13 GROUP 4 **** **** 0

# MOE 2024.06 (io_trps.svl 2023.06)
