@<TRIPOS>MOLECULE
NONAME
58 62 1 0 0 
SMALL
USER_CHARGES


@<TRIPOS>ATOM
  1 O       -0.4670    -0.0640     1.2480 O.2   1 <1>  -0.5700 
  2 C       -0.1060     0.9550     0.7070 C.2   1 <1>   0.5690 
  3 N       -0.8310     1.5110    -0.3240 N.am  1 <1>  -0.6600 
  4 C        1.1660     1.5940     1.2540 C.3   1 <1>  -0.0990 
  5 C       -2.0710     0.8580    -0.8520 C.3   1 <1>   0.1400 
  6 C       -0.4660     2.7120    -1.1080 C.3   1 <1>   0.1400 
  7 C        2.4940     1.0810     0.6440 C.3   1 <1>   0.0000 
  8 C       -3.3940     1.7180    -0.5460 C.3   1 <1>   0.0000 
  9 C       -1.7010     3.5900    -1.2620 C.3   1 <1>  -0.1600 
 10 C        2.6930    -0.4290     0.9240 C.3   1 <1>  -0.1600 
 11 C        2.5590     1.3050    -0.8870 C.3   1 <1>  -0.1600 
 12 C        3.6700     1.8520     1.2920 C.3   1 <1>  -0.1600 
 13 C       -4.7490     2.5180    -0.2610 C.3   1 <1>   0.2000 
 14 C       -2.9520     2.7840    -1.6710 C.3   1 <1>  -0.1600 
 15 C       -3.7610     0.6710     0.6050 C.3   1 <1>  -0.1600 
 16 C        4.0410    -0.8950     0.3580 C.3   1 <1>   0.2800 
 17 C        3.9050     0.8220    -1.4610 C.3   1 <1>  -0.0800 
 18 C        5.0250     1.3770     0.7330 C.3   1 <1>  -0.0800 
 19 O       -4.4650     3.6590     0.4820 O.3   1 <1>  -0.6800 
 20 C       -5.7950     1.7540     0.5290 C.3   1 <1>  -0.1600 
 21 C       -4.9480     1.0040     1.4900 C.3   1 <1>  -0.1600 
 22 O        4.1970    -2.2350     0.6200 O.3   1 <1>  -0.6800 
 23 C        4.0740    -0.6800    -1.1610 C.3   1 <1>  -0.1600 
 24 C        5.1890    -0.1260     1.0250 C.3   1 <1>  -0.1600 
 25 C        5.0500     1.6050    -0.7900 C.3   1 <1>  -0.1600 
 26 H        1.1050     2.6590     1.1690 H     1 <1>   0.0800 
 27 H        1.1840     1.3880     2.3090 H     1 <1>   0.0800 
 28 H       -1.9340     0.6970    -1.9070 H     1 <1>   0.0800 
 29 H       -2.0690    -0.1650    -0.5090 H     1 <1>   0.0800 
 30 H        0.3180     3.2790    -0.6440 H     1 <1>   0.0800 
 31 H       -0.1250     2.3970    -2.0790 H     1 <1>   0.0800 
 32 H       -1.8900     4.0910    -0.3290 H     1 <1>   0.0800 
 33 H       -1.4990     4.3470    -1.9980 H     1 <1>   0.0800 
 34 H        1.9040    -0.9980     0.4640 H     1 <1>   0.0800 
 35 H        2.6640    -0.6130     1.9830 H     1 <1>   0.0800 
 36 H        1.7620     0.7670    -1.3700 H     1 <1>   0.0800 
 37 H        2.4380     2.3490    -1.1100 H     1 <1>   0.0800 
 38 H        3.5620     2.9070     1.1090 H     1 <1>   0.0800 
 39 H        3.6570     1.7070     2.3590 H     1 <1>   0.0800 
 40 H       -5.2700     2.8250    -1.1540 H     1 <1>   0.0800 
 41 H       -2.7890     2.3200    -2.6300 H     1 <1>   0.0800 
 42 H       -3.6520     3.5600    -1.9350 H     1 <1>   0.0800 
 43 H       -4.0060    -0.2780     0.1530 H     1 <1>   0.0800 
 44 H       -2.9470     0.5160     1.2960 H     1 <1>   0.0800 
 45 H        3.9270     0.9850    -2.5250 H     1 <1>   0.0800 
 46 H        5.8250     1.9280     1.1990 H     1 <1>   0.0800 
 47 H       -3.9650     3.3900     1.2750 H     1 <1>   0.4000 
 48 H       -6.5140     2.3970     1.0060 H     1 <1>   0.0800 
 49 H       -6.3060     1.0670    -0.1230 H     1 <1>   0.0800 
 50 H       -4.6480     1.6360     2.3090 H     1 <1>   0.0800 
 51 H       -5.4390     0.1250     1.8740 H     1 <1>   0.0800 
 52 H        5.0440    -2.5390     0.2510 H     1 <1>   0.4000 
 53 H        5.0080    -1.0240    -1.5660 H     1 <1>   0.0800 
 54 H        3.2750    -1.2330    -1.6240 H     1 <1>   0.0800 
 55 H        5.1680    -0.2930     2.0880 H     1 <1>   0.0800 
 56 H        6.1360    -0.4650     0.6440 H     1 <1>   0.0800 
 57 H        4.9460     2.6550    -1.0020 H     1 <1>   0.0800 
 58 H        5.9960     1.2850    -1.1910 H     1 <1>   0.0800 
@<TRIPOS>BOND
  1   1   2  2   
  2   2   3  am  
  3   2   4  1   
  4   3   5  1   
  5   3   6  1   
  6   4   7  1   
  7   4  26  1   
  8   4  27  1   
  9   5   8  1   
 10   5  28  1   
 11   5  29  1   
 12   6   9  1   
 13   6  30  1   
 14   6  31  1   
 15   7  10  1   
 16   7  11  1   
 17   7  12  1   
 18   8  13  1   
 19   8  14  1   
 20   8  15  1   
 21   9  14  1   
 22   9  32  1   
 23   9  33  1   
 24  10  16  1   
 25  10  34  1   
 26  10  35  1   
 27  11  17  1   
 28  11  36  1   
 29  11  37  1   
 30  12  18  1   
 31  12  38  1   
 32  12  39  1   
 33  13  19  1   
 34  13  20  1   
 35  13  40  1   
 36  14  41  1   
 37  14  42  1   
 38  15  21  1   
 39  15  43  1   
 40  15  44  1   
 41  16  22  1   
 42  16  23  1   
 43  16  24  1   
 44  17  23  1   
 45  17  25  1   
 46  17  45  1   
 47  18  24  1   
 48  18  25  1   
 49  18  46  1   
 50  19  47  1   
 51  20  21  1   
 52  20  48  1   
 53  20  49  1   
 54  21  50  1   
 55  21  51  1   
 56  22  52  1   
 57  23  53  1   
 58  23  54  1   
 59  24  55  1   
 60  24  56  1   
 61  25  57  1   
 62  25  58  1   
@<TRIPOS>SUBSTRUCTURE
  1 ****   2 GROUP 4 **** **** 0

# MOE 2024.06 (io_trps.svl 2023.06)
