@<TRIPOS>MOLECULE
NONAME
46 48 1 0 0 
SMALL
USER_CHARGES


@<TRIPOS>ATOM
  1 CL       1.9760    -5.4270     2.7590 Cl    1 <1>  -0.1770 
  2 C        0.5200    -5.4070     1.7970 C.ar  1 <1>   0.1770 
  3 C       -0.7010    -5.6130     2.4110 C.ar  1 <1>  -0.1500 
  4 C        0.6120    -5.1860     0.4360 C.ar  1 <1>  -0.1500 
  5 C       -1.8630    -5.6040     1.6540 C.ar  1 <1>  -0.1440 
  6 C       -0.5420    -5.1790    -0.3260 C.ar  1 <1>  -0.1500 
  7 C       -1.7790    -5.3960     0.2780 C.ar  1 <1>   0.0830 
  8 C       -3.2000    -5.8360     2.3440 C.3   1 <1>  -0.0960 
  9 O       -2.9250    -5.4390    -0.4490 O.3   1 <1>  -0.3630 
 10 C       -2.9460    -6.0880    -1.7200 C.3   1 <1>   0.1810 
 11 C       -2.5630    -7.5650    -1.6300 C.2   1 <1>   0.5690 
 12 O       -2.2300    -8.1480    -2.6330 O.2   1 <1>  -0.5700 
 13 N       -2.6080    -8.1920    -0.4280 N.am  1 <1>  -0.7300 
 14 C       -2.0980    -9.5430    -0.1190 C.3   1 <1>   0.2200 
 15 C       -3.2320   -10.4840     0.2630 C.3   1 <1>  -0.0800 
 16 C       -1.3350    -9.4750     1.1970 C.3   1 <1>   0.1200 
 17 C       -3.4440   -10.1850     1.7510 C.3   1 <1>   0.1200 
 18 C       -4.5080   -10.3750    -0.5940 C.3   1 <1>  -0.0170 
 19 O       -2.3190    -9.4770     2.1880 O.3   1 <1>  -0.5600 
 20 C       -5.5360   -11.4110    -0.1690 C.ar  1 <1>  -0.1430 
 21 C       -6.5970   -11.0960     0.6550 C.ar  1 <1>  -0.1500 
 22 C       -5.4580   -12.7240    -0.5870 C.ar  1 <1>  -0.1500 
 23 C       -7.5000   -12.0830     1.0160 C.ar  1 <1>   0.1600 
 24 C       -6.4150   -13.6340    -0.1680 C.ar  1 <1>   0.1600 
 25 N       -7.4330   -13.3450     0.6260 N.ar  1 <1>  -0.6200 
 26 H       -0.7320    -5.7810     3.4720 H     1 <1>   0.1500 
 27 H        1.5750    -5.0230    -0.0140 H     1 <1>   0.1500 
 28 H       -0.4660    -4.9990    -1.3820 H     1 <1>   0.1500 
 29 H       -3.1210    -5.6540     3.4010 H     1 <1>   0.0800 
 30 H       -3.5200    -6.8520     2.1970 H     1 <1>   0.0800 
 31 H       -3.9470    -5.1720     1.9460 H     1 <1>   0.0800 
 32 H       -3.9460    -6.0130    -2.1020 H     1 <1>   0.0800 
 33 H       -2.2870    -5.5720    -2.3910 H     1 <1>   0.0800 
 34 H       -2.8010    -7.6220     0.4030 H     1 <1>   0.3700 
 35 H       -1.4950    -9.9190    -0.9290 H     1 <1>   0.0800 
 36 H       -2.8620   -11.4910     0.1870 H     1 <1>   0.0800 
 37 H       -0.7300    -8.5890     1.2850 H     1 <1>   0.0800 
 38 H       -0.7260   -10.3520     1.3330 H     1 <1>   0.0800 
 39 H       -3.5370   -11.0880     2.3300 H     1 <1>   0.0800 
 40 H       -4.3030    -9.5590     1.9130 H     1 <1>   0.0800 
 41 H       -4.2560   -10.5250    -1.6290 H     1 <1>   0.0800 
 42 H       -4.9370    -9.3930    -0.5060 H     1 <1>   0.0800 
 43 H       -6.7330   -10.0950     1.0210 H     1 <1>   0.1500 
 44 H       -4.6640   -13.0480    -1.2340 H     1 <1>   0.1500 
 45 H       -8.3220   -11.8190     1.6600 H     1 <1>   0.1500 
 46 H       -6.3380   -14.6540    -0.5040 H     1 <1>   0.1500 
@<TRIPOS>BOND
  1   1   2  1   
  2   2   3  ar  
  3   2   4  ar  
  4   3   5  ar  
  5   3  26  1   
  6   4   6  ar  
  7   4  27  1   
  8   5   7  ar  
  9   5   8  1   
 10   6   7  ar  
 11   6  28  1   
 12   7   9  1   
 13   8  29  1   
 14   8  30  1   
 15   8  31  1   
 16   9  10  1   
 17  10  11  1   
 18  10  32  1   
 19  10  33  1   
 20  11  12  2   
 21  11  13  am  
 22  13  14  1   
 23  13  34  1   
 24  14  15  1   
 25  14  16  1   
 26  14  35  1   
 27  15  17  1   
 28  15  18  1   
 29  15  36  1   
 30  16  19  1   
 31  16  37  1   
 32  16  38  1   
 33  17  19  1   
 34  17  39  1   
 35  17  40  1   
 36  18  20  1   
 37  18  41  1   
 38  18  42  1   
 39  20  21  ar  
 40  20  22  ar  
 41  21  23  ar  
 42  21  43  1   
 43  22  24  ar  
 44  22  44  1   
 45  23  25  ar  
 46  23  45  1   
 47  24  25  ar  
 48  24  46  1   
@<TRIPOS>SUBSTRUCTURE
  1 ****  13 GROUP 4 **** **** 0

# MOE 2024.06 (io_trps.svl 2023.06)
