@<TRIPOS>MOLECULE
NONAME
60 63 1 0 0 
SMALL
USER_CHARGES


@<TRIPOS>ATOM
  1 O       -0.9650     0.3360     0.8510 O.2   1 <1>  -0.5700 
  2 C       -1.8280     0.8220     0.1610 C.2   1 <1>   0.5690 
  3 N       -2.8010     0.0470    -0.4020 N.am  1 <1>  -0.6600 
  4 C       -1.8320     2.3310    -0.0650 C.3   1 <1>  -0.0990 
  5 C       -3.9870     0.5040    -1.1710 C.3   1 <1>   0.1400 
  6 C       -2.8550    -1.4240    -0.2050 C.3   1 <1>   0.1400 
  7 C       -0.4690     2.9970     0.2180 C.3   1 <1>  -0.1600 
  8 C       -4.9910    -0.6360    -1.0220 C.3   1 <1>   0.2000 
  9 C       -4.1090    -1.8900    -0.9590 C.3   1 <1>  -0.0800 
 10 C       -0.4300     4.5070    -0.0850 C.3   1 <1>  -0.0800 
 11 O       -5.6520    -0.4670     0.1860 O.3   1 <1>  -0.6800 
 12 C       -4.7960    -3.1270    -0.3420 C.3   1 <1>  -0.0170 
 13 C        1.0130     5.0220     0.0600 C.3   1 <1>  -0.1600 
 14 C       -1.3640     5.3110     0.8380 C.3   1 <1>  -0.1600 
 15 C       -4.0210    -4.4500    -0.3970 C.ar  1 <1>  -0.1440 
 16 C        1.1090     6.5350    -0.1330 C.3   1 <1>   0.3430 
 17 C       -1.2140     6.8200     0.6370 C.3   1 <1>   0.3430 
 18 C       -4.5140    -5.5790     0.3040 C.ar  1 <1>   0.0000 
 19 C       -2.8630    -4.6200    -1.1040 C.ar  1 <1>  -0.1500 
 20 N        0.2080     7.2190     0.8380 N.4   1 <1>  -0.9590 
 21 C       -3.7660    -6.7810     0.2420 C.ar  1 <1>   0.3100 
 22 C       -5.7110    -5.5900     1.0600 C.ar  1 <1>  -0.1500 
 23 C       -2.2030    -5.8550    -1.1020 C.ar  1 <1>   0.1600 
 24 C        0.3670     8.7020     0.7640 C.3   1 <1>   0.2630 
 25 N       -2.6150    -6.9020    -0.4630 N.ar  1 <1>  -0.6200 
 26 C       -4.2300    -7.9110     0.9340 C.ar  1 <1>  -0.1500 
 27 C       -6.1370    -6.7090     1.7220 C.ar  1 <1>  -0.1500 
 28 C       -5.3880    -7.8860     1.6620 C.ar  1 <1>  -0.1500 
 29 H       -2.1050     2.5240    -1.0860 H     1 <1>   0.0800 
 30 H       -2.5860     2.7460     0.5760 H     1 <1>   0.0800 
 31 H       -4.3850     1.4310    -0.7960 H     1 <1>   0.0800 
 32 H       -3.7110     0.6160    -2.2050 H     1 <1>   0.0800 
 33 H       -1.9590    -1.8850    -0.5840 H     1 <1>   0.0800 
 34 H       -2.9370    -1.6340     0.8490 H     1 <1>   0.0800 
 35 H        0.2720     2.4980    -0.3840 H     1 <1>   0.0800 
 36 H       -0.2040     2.8270     1.2490 H     1 <1>   0.0800 
 37 H       -5.7220    -0.6640    -1.8110 H     1 <1>   0.0800 
 38 H       -3.8260    -2.1190    -1.9710 H     1 <1>   0.0800 
 39 H       -0.7390     4.6570    -1.1080 H     1 <1>   0.0800 
 40 H       -4.9870    -0.3370     0.8930 H     1 <1>   0.4000 
 41 H       -5.7390    -3.2740    -0.8410 H     1 <1>   0.0800 
 42 H       -5.0090    -2.9090     0.6900 H     1 <1>   0.0800 
 43 H        1.6380     4.5420    -0.6730 H     1 <1>   0.0800 
 44 H        1.4030     4.7640     1.0300 H     1 <1>   0.0800 
 45 H       -1.1650     5.0690     1.8680 H     1 <1>   0.0800 
 46 H       -2.3870     5.0490     0.6380 H     1 <1>   0.0800 
 47 H        0.8210     6.7880    -1.1410 H     1 <1>   0.0800 
 48 H        2.1280     6.8510     0.0200 H     1 <1>   0.0800 
 49 H       -1.8470     7.3380     1.3400 H     1 <1>   0.0800 
 50 H       -1.5290     7.0830    -0.3600 H     1 <1>   0.0800 
 51 H       -2.4110    -3.8390    -1.6830 H     1 <1>   0.1500 
 52 H        0.4820     6.9020     1.7790 H     1 <1>   0.4500 
 53 H       -6.3100    -4.7000     1.1200 H     1 <1>   0.1500 
 54 H       -1.2920    -5.9380    -1.6700 H     1 <1>   0.1500 
 55 H        0.0870     9.0610    -0.2130 H     1 <1>   0.0800 
 56 H        1.3920     8.9790     0.9530 H     1 <1>   0.0800 
 57 H       -0.2580     9.1830     1.5000 H     1 <1>   0.0800 
 58 H       -3.6380    -8.8060     0.8710 H     1 <1>   0.1500 
 59 H       -7.0490    -6.6990     2.2940 H     1 <1>   0.1500 
 60 H       -5.7320    -8.7610     2.1880 H     1 <1>   0.1500 
@<TRIPOS>BOND
  1   1   2  2   
  2   2   3  am  
  3   2   4  1   
  4   3   5  1   
  5   3   6  1   
  6   4   7  1   
  7   4  29  1   
  8   4  30  1   
  9   5   8  1   
 10   5  31  1   
 11   5  32  1   
 12   6   9  1   
 13   6  33  1   
 14   6  34  1   
 15   7  10  1   
 16   7  35  1   
 17   7  36  1   
 18   8   9  1   
 19   8  11  1   
 20   8  37  1   
 21   9  12  1   
 22   9  38  1   
 23  10  13  1   
 24  10  14  1   
 25  10  39  1   
 26  11  40  1   
 27  12  15  1   
 28  12  41  1   
 29  12  42  1   
 30  13  16  1   
 31  13  43  1   
 32  13  44  1   
 33  14  17  1   
 34  14  45  1   
 35  14  46  1   
 36  15  18  ar  
 37  15  19  ar  
 38  16  20  1   
 39  16  47  1   
 40  16  48  1   
 41  17  20  1   
 42  17  49  1   
 43  17  50  1   
 44  18  21  ar  
 45  18  22  ar  
 46  19  23  ar  
 47  19  51  1   
 48  20  24  1   
 49  20  52  1   
 50  21  25  ar  
 51  21  26  ar  
 52  22  27  ar  
 53  22  53  1   
 54  23  25  ar  
 55  23  54  1   
 56  24  55  1   
 57  24  56  1   
 58  24  57  1   
 59  26  28  ar  
 60  26  58  1   
 61  27  28  ar  
 62  27  59  1   
 63  28  60  1   
@<TRIPOS>SUBSTRUCTURE
  1 ****   6 GROUP 4 **** **** 0

# MOE 2024.06 (io_trps.svl 2023.06)
