@<TRIPOS>MOLECULE
NONAME
41 42 1 0 0 
SMALL
USER_CHARGES


@<TRIPOS>ATOM
  1 O        0.1670    -1.7910     1.5400 O.2   1 <1>  -0.5700 
  2 C       -0.1970    -2.2430     0.4710 C.2   1 <1>   0.5440 
  3 N        0.6510    -2.1450    -0.5990 N.am  1 <1>  -0.7300 
  4 C       -1.5020    -2.8520     0.3380 C.ar  1 <1>   0.0860 
  5 C        2.0080    -1.5660    -0.5560 C.3   1 <1>   0.1400 
  6 C       -2.5020    -2.5950     1.2750 C.ar  1 <1>   0.1600 
  7 C       -1.8370    -3.7130    -0.7050 C.ar  1 <1>  -0.1500 
  8 C        2.9060    -2.3630    -1.4940 C.3   1 <1>  -0.2400 
  9 N       -3.7330    -3.0770     1.2580 N.ar  1 <1>  -0.6200 
 10 C       -3.1110    -4.2260    -0.7370 C.ar  1 <1>  -0.1500 
 11 C       -4.0320    -3.8880     0.2510 C.ar  1 <1>   0.4100 
 12 N       -5.3090    -4.3940     0.2030 N.pl3 1 <1>  -0.8380 
 13 C       -6.0210    -4.6740     1.4880 C.3   1 <1>   0.3890 
 14 C       -6.1950    -3.9830    -0.9200 C.3   1 <1>   0.1290 
 15 C       -6.7850    -5.9840     1.4150 C.2   1 <1>  -0.0400 
 16 O       -7.6950    -6.2450     2.3150 O.3   1 <1>  -0.0190 
 17 C       -6.7330    -7.0260     0.5700 C.2   1 <1>  -0.1500 
 18 N       -8.2580    -7.4020     2.1140 N.2   1 <1>  -0.4100 
 19 C       -7.6970    -7.8970     1.0690 C.2   1 <1>   0.1080 
 20 C       -8.0430    -9.2470     0.4700 C.3   1 <1>   0.0210 
 21 C       -8.9030    -9.0940    -0.7890 C.3   1 <1>  -0.2400 
 22 H        0.3180    -2.3980    -1.5280 H     1 <1>   0.3700 
 23 H        2.3950    -1.6070     0.4490 H     1 <1>   0.0800 
 24 H        1.9650    -0.5340    -0.8640 H     1 <1>   0.0800 
 25 H       -2.2570    -1.9390     2.0950 H     1 <1>   0.1500 
 26 H       -1.1200    -3.9810    -1.4590 H     1 <1>   0.1500 
 27 H        2.9470    -3.3910    -1.1830 H     1 <1>   0.0800 
 28 H        3.9030    -1.9600    -1.4640 H     1 <1>   0.0800 
 29 H        2.5460    -2.3030    -2.5050 H     1 <1>   0.0800 
 30 H       -3.4180    -4.8990    -1.5150 H     1 <1>   0.1500 
 31 H       -6.7020    -3.8690     1.6990 H     1 <1>   0.0800 
 32 H       -5.3190    -4.7380     2.3010 H     1 <1>   0.0800 
 33 H       -5.6100    -3.6210    -1.7480 H     1 <1>   0.0800 
 34 H       -6.8540    -3.1950    -0.5980 H     1 <1>   0.0800 
 35 H       -6.7830    -4.8210    -1.2510 H     1 <1>   0.0800 
 36 H       -6.1030    -7.1720    -0.2870 H     1 <1>   0.1500 
 37 H       -8.5790    -9.8270     1.2020 H     1 <1>   0.0800 
 38 H       -7.1350    -9.7710     0.2320 H     1 <1>   0.0800 
 39 H       -9.8130    -8.5720    -0.5490 H     1 <1>   0.0800 
 40 H       -9.1530   -10.0610    -1.1870 H     1 <1>   0.0800 
 41 H       -8.3720    -8.5360    -1.5390 H     1 <1>   0.0800 
@<TRIPOS>BOND
  1   1   2  2   
  2   2   3  am  
  3   2   4  1   
  4   3   5  1   
  5   3  22  1   
  6   4   6  ar  
  7   4   7  ar  
  8   5   8  1   
  9   5  23  1   
 10   5  24  1   
 11   6   9  ar  
 12   6  25  1   
 13   7  10  ar  
 14   7  26  1   
 15   8  27  1   
 16   8  28  1   
 17   8  29  1   
 18   9  11  ar  
 19  10  11  ar  
 20  10  30  1   
 21  11  12  1   
 22  12  13  1   
 23  12  14  1   
 24  13  15  1   
 25  13  31  1   
 26  13  32  1   
 27  14  33  1   
 28  14  34  1   
 29  14  35  1   
 30  15  16  1   
 31  15  17  2   
 32  16  18  1   
 33  17  19  1   
 34  17  36  1   
 35  18  19  2   
 36  19  20  1   
 37  20  21  1   
 38  20  37  1   
 39  20  38  1   
 40  21  39  1   
 41  21  40  1   
 42  21  41  1   
@<TRIPOS>SUBSTRUCTURE
  1 ****  11 GROUP 4 **** **** 0

# MOE 2024.06 (io_trps.svl 2023.06)
