@<TRIPOS>MOLECULE
NONAME
46 48 1 0 0 
SMALL
USER_CHARGES


@<TRIPOS>ATOM
  1 S       -0.4530    -0.2320     1.4740 S.o2  1 <1>   1.4470 
  2 O        0.1050     0.4130     2.6410 O.2   1 <1>  -0.6500 
  3 O       -1.3700    -1.3390     1.6390 O.2   1 <1>  -0.6500 
  4 N       -1.2740     0.9570     0.5850 N.am  1 <1>  -0.8490 
  5 C        0.9090    -0.7040     0.3680 C.ar  1 <1>  -0.0090 
  6 C       -2.0300     0.3840    -0.5330 C.3   1 <1>   0.1960 
  7 C       -2.1290     1.7710     1.4520 C.3   1 <1>   0.1960 
  8 C        1.7820     0.2540    -0.1330 C.ar  1 <1>  -0.1500 
  9 C        1.1150    -2.0280    -0.0010 C.ar  1 <1>  -0.1500 
 10 C       -2.6520     1.4990    -1.3760 C.3   1 <1>  -0.1600 
 11 C       -2.7690     2.9110     0.6550 C.3   1 <1>  -0.1600 
 12 C        2.8350    -0.0750    -0.9780 C.ar  1 <1>   0.0730 
 13 C        2.1550    -2.3810    -0.8410 C.ar  1 <1>  -0.1500 
 14 C       -3.5850     2.3890    -0.5440 C.3   1 <1>   0.2800 
 15 C        3.7240     0.9360    -1.4790 C.1   1 <1>   0.4840 
 16 C        3.0090    -1.4090    -1.3260 C.ar  1 <1>  -0.1500 
 17 O       -3.9110     3.4600    -1.3830 O.3   1 <1>  -0.5600 
 18 C       -4.8800     1.6190    -0.1790 C.3   1 <1>  -0.1600 
 19 N        4.4320     1.7340    -1.8810 N.1   1 <1>  -0.5570 
 20 C       -4.8630     4.3860    -0.9520 C.3   1 <1>   0.1200 
 21 C       -6.0660     2.5000     0.2250 C.3   1 <1>   0.2800 
 22 C       -6.2030     3.6820    -0.7340 C.3   1 <1>  -0.1600 
 23 O       -5.8440     2.9960     1.4860 O.3   1 <1>  -0.6800 
 24 C       -7.3600     1.6950     0.3140 C.3   1 <1>  -0.2400 
 25 H       -2.7980    -0.2760    -0.1640 H     1 <1>   0.0800 
 26 H       -1.3690    -0.1940    -1.1580 H     1 <1>   0.0800 
 27 H       -1.5360     2.2030     2.2410 H     1 <1>   0.0800 
 28 H       -2.8860     1.1540     1.9100 H     1 <1>   0.0800 
 29 H        1.6320     1.2850     0.1480 H     1 <1>   0.1500 
 30 H        0.4540    -2.7930     0.3760 H     1 <1>   0.1500 
 31 H       -3.1910     1.0660    -2.1980 H     1 <1>   0.0800 
 32 H       -1.8560     2.0970    -1.7840 H     1 <1>   0.0800 
 33 H       -1.9790     3.5450     0.2920 H     1 <1>   0.0800 
 34 H       -3.3680     3.4920     1.3240 H     1 <1>   0.0800 
 35 H        2.3000    -3.4130    -1.1150 H     1 <1>   0.1500 
 36 H        3.8190    -1.6900    -1.9790 H     1 <1>   0.1500 
 37 H       -4.6990     0.8910     0.5900 H     1 <1>   0.0800 
 38 H       -5.1820     1.0680    -1.0510 H     1 <1>   0.0800 
 39 H       -4.9590     5.1310    -1.7230 H     1 <1>   0.0800 
 40 H       -4.5110     4.8680    -0.0580 H     1 <1>   0.0800 
 41 H       -6.5490     3.3280    -1.6880 H     1 <1>   0.0800 
 42 H       -6.9340     4.3780    -0.3630 H     1 <1>   0.0800 
 43 H       -5.1030     3.6250     1.4560 H     1 <1>   0.4000 
 44 H       -7.6080     1.2790    -0.6450 H     1 <1>   0.0800 
 45 H       -8.1720     2.3260     0.6300 H     1 <1>   0.0800 
 46 H       -7.2500     0.8880     1.0160 H     1 <1>   0.0800 
@<TRIPOS>BOND
  1   1   2  2   
  2   1   3  2   
  3   1   4  am  
  4   1   5  1   
  5   4   6  1   
  6   4   7  1   
  7   5   8  ar  
  8   5   9  ar  
  9   6  10  1   
 10   6  25  1   
 11   6  26  1   
 12   7  11  1   
 13   7  27  1   
 14   7  28  1   
 15   8  12  ar  
 16   8  29  1   
 17   9  13  ar  
 18   9  30  1   
 19  10  14  1   
 20  10  31  1   
 21  10  32  1   
 22  11  14  1   
 23  11  33  1   
 24  11  34  1   
 25  12  15  1   
 26  12  16  ar  
 27  13  16  ar  
 28  13  35  1   
 29  14  17  1   
 30  14  18  1   
 31  15  19  3   
 32  16  36  1   
 33  17  20  1   
 34  18  21  1   
 35  18  37  1   
 36  18  38  1   
 37  20  22  1   
 38  20  39  1   
 39  20  40  1   
 40  21  22  1   
 41  21  23  1   
 42  21  24  1   
 43  22  41  1   
 44  22  42  1   
 45  23  43  1   
 46  24  44  1   
 47  24  45  1   
 48  24  46  1   
@<TRIPOS>SUBSTRUCTURE
  1 ****   4 GROUP 4 **** **** 0

# MOE 2024.06 (io_trps.svl 2023.06)
