@<TRIPOS>MOLECULE
NONAME
42 44 1 0 0 
SMALL
USER_CHARGES


@<TRIPOS>ATOM
  1 F       -0.1010    -0.7520    -0.6600 F     1 <1>  -0.1900 
  2 C       -0.7660    -1.8520    -0.4080 C.ar  1 <1>   0.1900 
  3 C       -0.1210    -3.0520    -0.0900 C.ar  1 <1>   0.0820 
  4 C       -2.1430    -1.7650    -0.4690 C.ar  1 <1>  -0.1500 
  5 O        1.2240    -3.2630     0.0010 O.3   1 <1>  -0.3630 
  6 C       -0.9150    -4.1590     0.1640 C.ar  1 <1>  -0.1500 
  7 C       -2.9040    -2.8890    -0.2080 C.ar  1 <1>  -0.1500 
  8 C        2.1790    -2.2660    -0.2850 C.3   1 <1>   0.0400 
  9 C       -2.3110    -4.1130     0.1120 C.ar  1 <1>   0.0530 
 10 C       -3.0990    -5.2920     0.3840 C.2   1 <1>   0.0870 
 11 O       -2.5990    -6.2750     1.0970 O.3   1 <1>  -0.0190 
 12 C       -4.3580    -5.6650     0.0430 C.2   1 <1>  -0.2330 
 13 N       -3.4380    -7.2660     1.2580 N.2   1 <1>  -0.4100 
 14 C       -4.5080    -6.9190     0.6340 C.2   1 <1>   0.3720 
 15 C       -5.3450    -4.9970    -0.7360 C.2   1 <1>   1.0330 
 16 N       -5.6420    -7.7350     0.5900 N.pl3 1 <1>  -0.8210 
 17 O       -6.1030    -4.1670    -0.2050 O.co2 1 <1>  -0.9000 
 18 O       -5.4710    -5.2370    -1.9480 O.co2 1 <1>  -0.9000 
 19 C       -5.9140    -8.2720    -0.7640 C.3   1 <1>   0.2090 
 20 C       -6.8450    -7.1090     1.1910 C.3   1 <1>   0.2090 
 21 C       -6.9630    -9.3800    -0.6500 C.3   1 <1>  -0.1600 
 22 C       -7.9200    -8.1820     1.3660 C.3   1 <1>  -0.1600 
 23 C       -8.2600    -8.8610     0.0160 C.3   1 <1>  -0.0800 
 24 C       -9.3380    -9.9580     0.1560 C.3   1 <1>   1.0200 
 25 F       -9.6640   -10.4990    -1.0120 F     1 <1>  -0.3400 
 26 F      -10.4670    -9.4940     0.6790 F     1 <1>  -0.3400 
 27 F       -8.9560   -10.9630     0.9350 F     1 <1>  -0.3400 
 28 H       -2.6160    -0.8320    -0.7160 H     1 <1>   0.1500 
 29 H       -0.4320    -5.0880     0.4070 H     1 <1>   0.1500 
 30 H       -3.9770    -2.8100    -0.2510 H     1 <1>   0.1500 
 31 H        3.1570    -2.6960    -0.1710 H     1 <1>   0.0800 
 32 H        2.0550    -1.4530     0.4090 H     1 <1>   0.0800 
 33 H        2.0440    -1.9320    -1.2990 H     1 <1>   0.0800 
 34 H       -5.0030    -8.6620    -1.1850 H     1 <1>   0.0800 
 35 H       -6.2780    -7.4900    -1.4090 H     1 <1>   0.0800 
 36 H       -7.2160    -6.3230     0.5540 H     1 <1>   0.0800 
 37 H       -6.5870    -6.6780     2.1450 H     1 <1>   0.0800 
 38 H       -6.5420   -10.1850    -0.0730 H     1 <1>   0.0800 
 39 H       -7.1750    -9.7530    -1.6360 H     1 <1>   0.0800 
 40 H       -8.7980    -7.7220     1.7820 H     1 <1>   0.0800 
 41 H       -7.5590    -8.9110     2.0710 H     1 <1>   0.0800 
 42 H       -8.6750    -8.1060    -0.6290 H     1 <1>   0.0800 
@<TRIPOS>BOND
  1   1   2  1   
  2   2   3  ar  
  3   2   4  ar  
  4   3   5  1   
  5   3   6  ar  
  6   4   7  ar  
  7   4  28  1   
  8   5   8  1   
  9   6   9  ar  
 10   6  29  1   
 11   7   9  ar  
 12   7  30  1   
 13   8  31  1   
 14   8  32  1   
 15   8  33  1   
 16   9  10  1   
 17  10  11  1   
 18  10  12  2   
 19  11  13  1   
 20  12  14  1   
 21  12  15  1   
 22  13  14  2   
 23  14  16  1   
 24  15  17  ar  
 25  15  18  ar  
 26  16  19  1   
 27  16  20  1   
 28  19  21  1   
 29  19  34  1   
 30  19  35  1   
 31  20  22  1   
 32  20  36  1   
 33  20  37  1   
 34  21  23  1   
 35  21  38  1   
 36  21  39  1   
 37  22  23  1   
 38  22  40  1   
 39  22  41  1   
 40  23  24  1   
 41  23  42  1   
 42  24  25  1   
 43  24  26  1   
 44  24  27  1   
@<TRIPOS>SUBSTRUCTURE
  1 ****  12 GROUP 4 **** **** 0

# MOE 2024.06 (io_trps.svl 2023.06)
