@<TRIPOS>MOLECULE
NONAME
47 48 1 0 0 
SMALL
USER_CHARGES


@<TRIPOS>ATOM
  1 S        0.2090     0.1040    -0.9690 S.o2  1 <1>   1.3330 
  2 O       -0.5460    -1.0740    -1.3190 O.2   1 <1>  -0.6500 
  3 O        1.3530     0.5130    -1.7540 O.2   1 <1>  -0.6500 
  4 N        0.7250    -0.0380     0.6410 N.am  1 <1>  -0.8490 
  5 C       -0.8840     1.5270    -0.9140 C.3   1 <1>  -0.0550 
  6 C        1.9750    -0.8050     0.7370 C.3   1 <1>   0.1160 
  7 C       -0.2800    -0.6740     1.5060 C.3   1 <1>   0.1160 
  8 C       -0.2040     2.7980    -0.3610 C.3   1 <1>  -0.0800 
  9 C       -1.1220     4.0120    -0.3720 C.3   1 <1>   0.2000 
 10 C        1.0080     3.2630    -1.1670 C.3   1 <1>   0.3430 
 11 O       -1.8920     4.0300     0.7790 O.3   1 <1>  -0.6800 
 12 C       -0.1980     5.2340    -0.4680 C.3   1 <1>   0.3430 
 13 N        1.1520     4.7190    -0.8790 N.4   1 <1>  -0.9590 
 14 C        2.1980     4.9810     0.1490 C.3   1 <1>   0.4860 
 15 C        2.4260     6.4790     0.2380 C.ar  1 <1>  -0.1440 
 16 C        3.1780     7.1330    -0.7290 C.ar  1 <1>  -0.1500 
 17 C        1.8940     7.2080     1.2920 C.ar  1 <1>  -0.1500 
 18 C        3.3900     8.4990    -0.6500 C.ar  1 <1>  -0.1500 
 19 C        2.1040     8.5720     1.3700 C.ar  1 <1>  -0.1500 
 20 C        2.8500     9.2290     0.4060 C.ar  1 <1>   0.0820 
 21 O        3.0050    10.5660     0.5720 O.3   1 <1>  -0.3630 
 22 C        3.7390    11.3490    -0.3420 C.3   1 <1>   0.8800 
 23 F        5.0300    11.0740    -0.1990 F     1 <1>  -0.3400 
 24 F        3.5970    12.6200     0.0030 F     1 <1>  -0.3400 
 25 H       -1.2500     1.7160    -1.9050 H     1 <1>   0.0800 
 26 H       -1.7340     1.2930    -0.3010 H     1 <1>   0.0800 
 27 H        2.2920    -0.8790     1.7630 H     1 <1>   0.0800 
 28 H        2.7560    -0.3190     0.1770 H     1 <1>   0.0800 
 29 H        1.8370    -1.7980     0.3390 H     1 <1>   0.0800 
 30 H        0.0690    -0.6970     2.5250 H     1 <1>   0.0800 
 31 H       -0.4720    -1.6860     1.1840 H     1 <1>   0.0800 
 32 H       -1.2050    -0.1250     1.4790 H     1 <1>   0.0800 
 33 H        0.1350     2.6080     0.6440 H     1 <1>   0.0800 
 34 H       -1.7900     4.0020    -1.2180 H     1 <1>   0.0800 
 35 H        0.8130     3.1200    -2.2190 H     1 <1>   0.0800 
 36 H        1.8950     2.7070    -0.9050 H     1 <1>   0.0800 
 37 H       -1.3770     3.8610     1.5930 H     1 <1>   0.4000 
 38 H       -0.1450     5.7320     0.4860 H     1 <1>   0.0800 
 39 H       -0.5780     5.9230    -1.2040 H     1 <1>   0.0800 
 40 H        1.4530     5.2150    -1.7290 H     1 <1>   0.4500 
 41 H        1.8900     4.5960     1.1070 H     1 <1>   0.0800 
 42 H        3.1220     4.5000    -0.1300 H     1 <1>   0.0800 
 43 H        3.6170     6.5900    -1.5490 H     1 <1>   0.1500 
 44 H        1.3180     6.7310     2.0670 H     1 <1>   0.1500 
 45 H        3.9880     8.9680    -1.4110 H     1 <1>   0.1500 
 46 H        1.6950     9.1410     2.1880 H     1 <1>   0.1500 
 47 H        3.4350    11.2090    -1.3630 H     1 <1>   0.0800 
@<TRIPOS>BOND
  1   1   2  2   
  2   1   3  2   
  3   1   4  am  
  4   1   5  1   
  5   4   6  1   
  6   4   7  1   
  7   5   8  1   
  8   5  25  1   
  9   5  26  1   
 10   6  27  1   
 11   6  28  1   
 12   6  29  1   
 13   7  30  1   
 14   7  31  1   
 15   7  32  1   
 16   8   9  1   
 17   8  10  1   
 18   8  33  1   
 19   9  11  1   
 20   9  12  1   
 21   9  34  1   
 22  10  13  1   
 23  10  35  1   
 24  10  36  1   
 25  11  37  1   
 26  12  13  1   
 27  12  38  1   
 28  12  39  1   
 29  13  14  1   
 30  13  40  1   
 31  14  15  1   
 32  14  41  1   
 33  14  42  1   
 34  15  16  ar  
 35  15  17  ar  
 36  16  18  ar  
 37  16  43  1   
 38  17  19  ar  
 39  17  44  1   
 40  18  20  ar  
 41  18  45  1   
 42  19  20  ar  
 43  19  46  1   
 44  20  21  1   
 45  21  22  1   
 46  22  23  1   
 47  22  24  1   
 48  22  47  1   
@<TRIPOS>SUBSTRUCTURE
  1 ****  14 GROUP 4 **** **** 0

# MOE 2024.06 (io_trps.svl 2023.06)
