@<TRIPOS>MOLECULE
NONAME
50 52 1 0 0 
SMALL
USER_CHARGES


@<TRIPOS>ATOM
  1 F        0.4260     1.2700    -0.7420 F     1 <1>  -0.1900 
  2 C        0.6760     2.5490    -0.7190 C.ar  1 <1>   0.1900 
  3 C        1.4270     3.1040    -1.7360 C.ar  1 <1>  -0.1500 
  4 C        0.1820     3.3090     0.3230 C.ar  1 <1>  -0.1500 
  5 C        1.6840     4.4630    -1.7030 C.ar  1 <1>  -0.1500 
  6 C        0.4500     4.6670     0.3410 C.ar  1 <1>  -0.1500 
  7 C        1.2000     5.2780    -0.6730 C.ar  1 <1>   0.0860 
  8 C        1.4760     6.7050    -0.6700 C.2   1 <1>   0.5440 
  9 O        2.4780     7.1450    -1.1990 O.2   1 <1>  -0.5700 
 10 N        0.6130     7.5890    -0.0810 N.am  1 <1>  -0.7300 
 11 C        0.7810     9.0610    -0.0840 C.3   1 <1>   0.1400 
 12 C        1.6310     9.4830     1.1100 C.3   1 <1>  -0.0990 
 13 C        1.8030    10.9820     1.1070 C.2   1 <1>   0.5690 
 14 O        0.9310    11.6720     1.5730 O.2   1 <1>  -0.5700 
 15 N        2.9210    11.5110     0.5690 N.am  1 <1>  -0.7300 
 16 C        3.2510    12.9630     0.5310 C.3   1 <1>   0.2840 
 17 C        4.7120    13.2360     0.1520 C.ar  1 <1>   0.4770 
 18 N        5.1570    14.4530     0.4150 N.ar  1 <1>  -0.6200 
 19 N        5.3910    12.2400    -0.4040 N.ar  1 <1>  -0.6200 
 20 C        6.4070    14.6940     0.0890 C.ar  1 <1>   0.1670 
 21 C        6.6390    12.4950    -0.7230 C.ar  1 <1>   0.1670 
 22 C        7.2090    13.7350    -0.5010 C.ar  1 <1>  -0.1430 
 23 C        6.9050    16.1010     0.3880 C.3   1 <1>  -0.0170 
 24 C        7.4010    11.3410    -1.3490 C.3   1 <1>  -0.0970 
 25 C        8.6610    14.0330    -0.8800 C.3   1 <1>  -0.0170 
 26 C        8.4320    16.2300     0.3240 C.3   1 <1>  -0.1600 
 27 C        8.9710    15.5340    -0.9280 C.3   1 <1>  -0.1600 
 28 H        1.8000     2.4830    -2.5310 H     1 <1>   0.1500 
 29 H       -0.3940     2.8400     1.1010 H     1 <1>   0.1500 
 30 H        2.2710     4.9120    -2.4870 H     1 <1>   0.1500 
 31 H        0.0790     5.2600     1.1580 H     1 <1>   0.1500 
 32 H       -0.2680     7.2460     0.3030 H     1 <1>   0.3700 
 33 H       -0.1850     9.5360    -0.0360 H     1 <1>   0.0800 
 34 H        1.2630     9.3680    -0.9980 H     1 <1>   0.0800 
 35 H        2.5950     9.0110     1.0560 H     1 <1>   0.0800 
 36 H        1.1500     9.1940     2.0250 H     1 <1>   0.0800 
 37 H        3.6640    10.9290     0.1630 H     1 <1>   0.3700 
 38 H        3.0540    13.3950     1.4970 H     1 <1>   0.0800 
 39 H        2.6160    13.4480    -0.1870 H     1 <1>   0.0800 
 40 H        6.5650    16.3980     1.3640 H     1 <1>   0.0800 
 41 H        6.4600    16.7670    -0.3290 H     1 <1>   0.0800 
 42 H        6.9200    10.4080    -1.1150 H     1 <1>   0.0800 
 43 H        8.4070    11.2980    -0.9750 H     1 <1>   0.0800 
 44 H        7.4190    11.4580    -2.4160 H     1 <1>   0.0800 
 45 H        8.8870    13.6090    -1.8420 H     1 <1>   0.0800 
 46 H        9.3020    13.5670    -0.1520 H     1 <1>   0.0800 
 47 H        8.8650    15.7790     1.2000 H     1 <1>   0.0800 
 48 H        8.7050    17.2710     0.3150 H     1 <1>   0.0800 
 49 H        8.5150    15.9660    -1.8020 H     1 <1>   0.0800 
 50 H       10.0350    15.6790    -1.0000 H     1 <1>   0.0800 
@<TRIPOS>BOND
  1   1   2  1   
  2   2   3  ar  
  3   2   4  ar  
  4   3   5  ar  
  5   3  28  1   
  6   4   6  ar  
  7   4  29  1   
  8   5   7  ar  
  9   5  30  1   
 10   6   7  ar  
 11   6  31  1   
 12   7   8  1   
 13   8   9  2   
 14   8  10  am  
 15  10  11  1   
 16  10  32  1   
 17  11  12  1   
 18  11  33  1   
 19  11  34  1   
 20  12  13  1   
 21  12  35  1   
 22  12  36  1   
 23  13  14  2   
 24  13  15  am  
 25  15  16  1   
 26  15  37  1   
 27  16  17  1   
 28  16  38  1   
 29  16  39  1   
 30  17  18  ar  
 31  17  19  ar  
 32  18  20  ar  
 33  19  21  ar  
 34  20  22  ar  
 35  20  23  1   
 36  21  22  ar  
 37  21  24  1   
 38  22  25  1   
 39  23  26  1   
 40  23  40  1   
 41  23  41  1   
 42  24  42  1   
 43  24  43  1   
 44  24  44  1   
 45  25  27  1   
 46  25  45  1   
 47  25  46  1   
 48  26  27  1   
 49  26  47  1   
 50  26  48  1   
 51  27  49  1   
 52  27  50  1   
@<TRIPOS>SUBSTRUCTURE
  1 ****  15 GROUP 4 **** **** 0

# MOE 2024.06 (io_trps.svl 2023.06)
