@<TRIPOS>MOLECULE
NONAME
48 50 1 0 0 
SMALL
USER_CHARGES


@<TRIPOS>ATOM
  1 F       -1.9590    -0.6860    -1.1510 F     1 <1>  -0.1900 
  2 C       -2.0020     0.4630    -0.5350 C.ar  1 <1>   0.1900 
  3 C       -2.6590     0.5630     0.6960 C.ar  1 <1>   0.0860 
  4 C       -1.3760     1.5300    -1.1510 C.ar  1 <1>  -0.1500 
  5 C       -3.3280    -0.5560     1.3250 C.2   1 <1>   0.5440 
  6 C       -2.6370     1.8160     1.3190 C.ar  1 <1>  -0.1500 
  7 C       -1.4020     2.7440    -0.4980 C.ar  1 <1>   0.1900 
  8 O       -3.0840    -0.7950     2.4920 O.2   1 <1>  -0.5700 
  9 N       -4.2490    -1.3570     0.6770 N.am  1 <1>  -0.6600 
 10 C       -2.0190     2.9070     0.7300 C.ar  1 <1>  -0.1500 
 11 F       -0.8260     3.7720    -1.0540 F     1 <1>  -0.1900 
 12 C       -5.1050    -0.9090    -0.4670 C.3   1 <1>   0.2200 
 13 C       -4.2480    -2.8190     0.9930 C.3   1 <1>   0.0600 
 14 C       -5.5910     0.5350    -0.3160 C.3   1 <1>  -0.1600 
 15 C       -6.4170    -1.6910    -0.5500 C.3   1 <1>  -0.1600 
 16 C       -6.8770     0.6390    -1.1480 C.3   1 <1>  -0.0800 
 17 C       -7.3910    -0.7950    -1.3250 C.3   1 <1>  -0.0800 
 18 C       -7.9950     1.4230    -0.4470 C.3   1 <1>  -0.1600 
 19 C       -8.8160    -0.8200    -0.7580 C.3   1 <1>  -0.1600 
 20 C       -8.8440     0.3450     0.2260 C.3   1 <1>   0.4230 
 21 N      -10.2300     0.7710     0.5920 N.4   1 <1>  -0.9590 
 22 C      -11.0560     1.3110    -0.5380 C.3   1 <1>   0.2630 
 23 C      -10.1940     1.7540     1.7190 C.3   1 <1>   0.2630 
 24 H       -0.8840     1.4190    -2.0990 H     1 <1>   0.1500 
 25 H       -3.1120     1.9220     2.2810 H     1 <1>   0.1500 
 26 H       -2.0090     3.8690     1.2130 H     1 <1>   0.1500 
 27 H       -4.5660    -1.0200    -1.3930 H     1 <1>   0.0800 
 28 H       -4.2250    -3.3950     0.0850 H     1 <1>   0.0800 
 29 H       -5.1230    -3.0730     1.5630 H     1 <1>   0.0800 
 30 H       -3.3790    -3.0770     1.5750 H     1 <1>   0.0800 
 31 H       -5.7980     0.7260     0.7230 H     1 <1>   0.0800 
 32 H       -4.8630     1.2390    -0.6750 H     1 <1>   0.0800 
 33 H       -6.2820    -2.6350    -1.0480 H     1 <1>   0.0800 
 34 H       -6.7880    -1.8590     0.4460 H     1 <1>   0.0800 
 35 H       -6.6500     1.0730    -2.1090 H     1 <1>   0.0800 
 36 H       -7.3840    -1.0700    -2.3680 H     1 <1>   0.0800 
 37 H       -8.5550     1.9430    -1.2020 H     1 <1>   0.0800 
 38 H       -7.6060     2.1340     0.2600 H     1 <1>   0.0800 
 39 H       -9.0440    -1.7570    -0.2830 H     1 <1>   0.0800 
 40 H       -9.4990    -0.6570    -1.5710 H     1 <1>   0.0800 
 41 H       -8.3240     0.0270     1.1160 H     1 <1>   0.0800 
 42 H      -10.7010    -0.0770     0.9380 H     1 <1>   0.4500 
 43 H      -10.6190     2.2170    -0.9270 H     1 <1>   0.0800 
 44 H      -12.0530     1.5350    -0.1960 H     1 <1>   0.0800 
 45 H      -11.1260     0.5910    -1.3360 H     1 <1>   0.0800 
 46 H       -9.7090     2.6640     1.4070 H     1 <1>   0.0800 
 47 H       -9.6520     1.3440     2.5560 H     1 <1>   0.0800 
 48 H      -11.1950     1.9910     2.0420 H     1 <1>   0.0800 
@<TRIPOS>BOND
  1   1   2  1   
  2   2   3  ar  
  3   2   4  ar  
  4   3   5  1   
  5   3   6  ar  
  6   4   7  ar  
  7   4  24  1   
  8   5   8  2   
  9   5   9  am  
 10   6  10  ar  
 11   6  25  1   
 12   7  10  ar  
 13   7  11  1   
 14   9  12  1   
 15   9  13  1   
 16  10  26  1   
 17  12  14  1   
 18  12  15  1   
 19  12  27  1   
 20  13  28  1   
 21  13  29  1   
 22  13  30  1   
 23  14  16  1   
 24  14  31  1   
 25  14  32  1   
 26  15  17  1   
 27  15  33  1   
 28  15  34  1   
 29  16  17  1   
 30  16  18  1   
 31  16  35  1   
 32  17  19  1   
 33  17  36  1   
 34  18  20  1   
 35  18  37  1   
 36  18  38  1   
 37  19  20  1   
 38  19  39  1   
 39  19  40  1   
 40  20  21  1   
 41  20  41  1   
 42  21  22  1   
 43  21  23  1   
 44  21  42  1   
 45  22  43  1   
 46  22  44  1   
 47  22  45  1   
 48  23  46  1   
 49  23  47  1   
 50  23  48  1   
@<TRIPOS>SUBSTRUCTURE
  1 ****  14 GROUP 4 **** **** 0

# MOE 2024.06 (io_trps.svl 2023.06)
