@<TRIPOS>MOLECULE
NONAME
58 60 1 0 0 
SMALL
USER_CHARGES


@<TRIPOS>ATOM
  1 O       -1.8530    -0.3500    -1.2710 O.2   1 <1>  -0.5700 
  2 C       -2.7130    -0.9990    -0.7410 C.2   1 <1>   0.5690 
  3 N       -2.3770    -2.1060    -0.0400 N.am  1 <1>  -0.7300 
  4 C       -4.1520    -0.5670    -0.8770 C.3   1 <1>  -0.1790 
  5 C       -3.2410    -3.0800     0.6560 C.3   1 <1>   0.1400 
  6 C       -3.3130    -4.3870    -0.1510 C.3   1 <1>  -0.0800 
  7 C       -4.3430    -5.3410     0.4870 C.3   1 <1>   0.3430 
  8 C       -1.9360    -5.0620    -0.3090 C.3   1 <1>  -0.1600 
  9 N       -4.0160    -6.7940     0.2820 N.4   1 <1>  -0.9590 
 10 C       -2.0520    -6.3460    -1.1510 C.3   1 <1>  -0.1600 
 11 C       -3.4260    -7.0210    -1.0760 C.3   1 <1>   0.3430 
 12 C       -5.2270    -7.6260     0.5390 C.3   1 <1>   0.3430 
 13 C       -4.8880    -9.1200     0.6800 C.3   1 <1>  -0.1600 
 14 C       -5.8030    -9.9980    -0.2110 C.3   1 <1>   0.4870 
 15 C       -5.4390    -9.6680    -1.6310 C.1   1 <1>   0.3570 
 16 C       -5.5870   -11.5110    -0.0040 C.ar  1 <1>  -0.1440 
 17 C       -7.2630    -9.6210     0.1330 C.ar  1 <1>  -0.1440 
 18 N       -5.1020    -9.2480    -2.6350 N.1   1 <1>  -0.5570 
 19 C       -6.4980   -12.3920    -0.5790 C.ar  1 <1>  -0.1500 
 20 C       -4.5260   -12.0490     0.7230 C.ar  1 <1>  -0.1500 
 21 C       -8.0880    -8.8950    -0.7270 C.ar  1 <1>  -0.1500 
 22 C       -7.7790   -10.0060     1.3670 C.ar  1 <1>  -0.1500 
 23 C       -6.3610   -13.7600    -0.4330 C.ar  1 <1>  -0.1500 
 24 C       -4.3880   -13.4180     0.8690 C.ar  1 <1>  -0.1500 
 25 C       -9.3750    -8.5550    -0.3530 C.ar  1 <1>  -0.1500 
 26 C       -9.0660    -9.6640     1.7400 C.ar  1 <1>  -0.1500 
 27 C       -5.3040   -14.2760     0.2920 C.ar  1 <1>  -0.1500 
 28 C       -9.8650    -8.9350     0.8820 C.ar  1 <1>  -0.1500 
 29 H       -1.3680    -2.2740     0.0040 H     1 <1>   0.3700 
 30 H       -4.7270    -1.3430    -1.3430 H     1 <1>   0.0800 
 31 H       -4.2040     0.3160    -1.4880 H     1 <1>   0.0800 
 32 H       -4.5570    -0.3390     0.0900 H     1 <1>   0.0800 
 33 H       -4.2270    -2.6650     0.7770 H     1 <1>   0.0800 
 34 H       -2.8350    -3.2640     1.6370 H     1 <1>   0.0800 
 35 H       -3.6800    -4.1310    -1.1320 H     1 <1>   0.0800 
 36 H       -5.3120    -5.1220     0.0680 H     1 <1>   0.0800 
 37 H       -4.3950    -5.1460     1.5470 H     1 <1>   0.0800 
 38 H       -1.5420    -5.3030     0.6640 H     1 <1>   0.0800 
 39 H       -1.2340    -4.3970    -0.7860 H     1 <1>   0.0800 
 40 H       -3.2840    -7.0400     0.9620 H     1 <1>   0.4500 
 41 H       -1.2910    -7.0440    -0.8470 H     1 <1>   0.0800 
 42 H       -1.8600    -6.1140    -2.1850 H     1 <1>   0.0800 
 43 H       -4.0770    -6.6030    -1.8280 H     1 <1>   0.0800 
 44 H       -3.3130    -8.0730    -1.2820 H     1 <1>   0.0800 
 45 H       -5.9290    -7.4780    -0.2660 H     1 <1>   0.0800 
 46 H       -5.7100    -7.2990     1.4470 H     1 <1>   0.0800 
 47 H       -5.0320    -9.3990     1.7080 H     1 <1>   0.0800 
 48 H       -3.8590    -9.3050     0.4310 H     1 <1>   0.0800 
 49 H       -7.3350   -12.0240    -1.1500 H     1 <1>   0.1500 
 50 H       -3.7800   -11.4350     1.1920 H     1 <1>   0.1500 
 51 H       -7.7650    -8.5780    -1.7050 H     1 <1>   0.1500 
 52 H       -7.1870   -10.5880     2.0540 H     1 <1>   0.1500 
 53 H       -7.0770   -14.4250    -0.8840 H     1 <1>   0.1500 
 54 H       -3.5640   -13.8220     1.4330 H     1 <1>   0.1500 
 55 H      -10.0050    -7.9970    -1.0260 H     1 <1>   0.1500 
 56 H       -9.4510    -9.9720     2.6980 H     1 <1>   0.1500 
 57 H       -5.1960   -15.3410     0.4070 H     1 <1>   0.1500 
 58 H      -10.8690    -8.6720     1.1700 H     1 <1>   0.1500 
@<TRIPOS>BOND
  1   1   2  2   
  2   2   3  am  
  3   2   4  1   
  4   3   5  1   
  5   3  29  1   
  6   4  30  1   
  7   4  31  1   
  8   4  32  1   
  9   5   6  1   
 10   5  33  1   
 11   5  34  1   
 12   6   7  1   
 13   6   8  1   
 14   6  35  1   
 15   7   9  1   
 16   7  36  1   
 17   7  37  1   
 18   8  10  1   
 19   8  38  1   
 20   8  39  1   
 21   9  11  1   
 22   9  12  1   
 23   9  40  1   
 24  10  11  1   
 25  10  41  1   
 26  10  42  1   
 27  11  43  1   
 28  11  44  1   
 29  12  13  1   
 30  12  45  1   
 31  12  46  1   
 32  13  14  1   
 33  13  47  1   
 34  13  48  1   
 35  14  15  1   
 36  14  16  1   
 37  14  17  1   
 38  15  18  3   
 39  16  19  ar  
 40  16  20  ar  
 41  17  21  ar  
 42  17  22  ar  
 43  19  23  ar  
 44  19  49  1   
 45  20  24  ar  
 46  20  50  1   
 47  21  25  ar  
 48  21  51  1   
 49  22  26  ar  
 50  22  52  1   
 51  23  27  ar  
 52  23  53  1   
 53  24  27  ar  
 54  24  54  1   
 55  25  28  ar  
 56  25  55  1   
 57  26  28  ar  
 58  26  56  1   
 59  27  57  1   
 60  28  58  1   
@<TRIPOS>SUBSTRUCTURE
  1 ****  12 GROUP 4 **** **** 0

# MOE 2024.06 (io_trps.svl 2023.06)
