@<TRIPOS>MOLECULE
NONAME
47 49 1 0 0 
SMALL
USER_CHARGES


@<TRIPOS>ATOM
  1 O       -1.8710     2.2660     2.7840 O.3   1 <1>  -0.5600 
  2 C       -0.5460     1.9870     2.4290 C.3   1 <1>   0.1200 
  3 C       -2.6290     2.6170     1.6630 C.3   1 <1>   0.1200 
  4 C       -0.3690     2.4360     0.9810 C.3   1 <1>   0.2890 
  5 C       -1.7780     2.2960     0.4330 C.3   1 <1>  -0.0800 
  6 N        0.0310     3.8630     0.9430 N.pl3 1 <1>  -0.8690 
  7 C       -2.0360     0.8770    -0.1060 C.3   1 <1>  -0.0170 
  8 C        0.4910     4.5010    -0.1800 C.ar  1 <1>   0.4100 
  9 C       -3.4380     0.7460    -0.6790 C.ar  1 <1>  -0.1430 
 10 N        0.8060     3.7490    -1.2150 N.ar  1 <1>  -0.6200 
 11 C        0.6070     5.8840    -0.2290 C.ar  1 <1>  -0.1430 
 12 C       -4.4360     0.0490    -0.0280 C.ar  1 <1>  -0.1500 
 13 C       -3.7840     1.3220    -1.8850 C.ar  1 <1>  -0.1500 
 14 C        1.2360     4.3890    -2.2830 C.ar  1 <1>   0.4770 
 15 C        1.0620     6.4250    -1.4030 C.ar  1 <1>   0.1600 
 16 C        0.2500     6.7800     0.9520 C.3   1 <1>  -0.0170 
 17 C       -5.6970    -0.0330    -0.5970 C.ar  1 <1>   0.1600 
 18 C       -5.0750     1.1800    -2.3660 C.ar  1 <1>   0.1600 
 19 N        1.3820     5.6890    -2.4480 N.ar  1 <1>  -0.6200 
 20 C        1.6080     3.5350    -3.4720 C.3   1 <1>  -0.0970 
 21 C       -1.2640     7.0210     1.0150 C.3   1 <1>  -0.1600 
 22 N       -6.0400     0.5170    -1.7510 N.ar  1 <1>  -0.6200 
 23 C       -1.6450     7.8870     2.2200 C.3   1 <1>  -0.2400 
 24 H        0.1240     2.4950     3.1000 H     1 <1>   0.0800 
 25 H       -0.4070     0.9240     2.5120 H     1 <1>   0.0800 
 26 H       -3.5630     2.0850     1.6860 H     1 <1>   0.0800 
 27 H       -2.8200     3.6750     1.7210 H     1 <1>   0.0800 
 28 H        0.3570     1.8350     0.4590 H     1 <1>   0.0800 
 29 H       -1.9600     3.0030    -0.3570 H     1 <1>   0.0800 
 30 H       -0.4270     4.4340     1.6550 H     1 <1>   0.4000 
 31 H       -1.8950     0.1500     0.6750 H     1 <1>   0.0800 
 32 H       -1.3260     0.6600    -0.8860 H     1 <1>   0.0800 
 33 H       -4.2480    -0.4290     0.9160 H     1 <1>   0.1500 
 34 H       -3.0620     1.8800    -2.4530 H     1 <1>   0.1500 
 35 H        1.1700     7.4910    -1.5020 H     1 <1>   0.1500 
 36 H        0.5930     6.3280     1.8660 H     1 <1>   0.0800 
 37 H        0.7570     7.7250     0.8550 H     1 <1>   0.0800 
 38 H       -6.4630    -0.5800    -0.0750 H     1 <1>   0.1500 
 39 H       -5.3260     1.6370    -3.3080 H     1 <1>   0.1500 
 40 H        2.6360     3.7100    -3.7270 H     1 <1>   0.0800 
 41 H        0.9870     3.7980    -4.3080 H     1 <1>   0.0800 
 42 H        1.4740     2.4930    -3.2470 H     1 <1>   0.0800 
 43 H       -1.5850     7.5090     0.1100 H     1 <1>   0.0800 
 44 H       -1.7810     6.0790     1.0790 H     1 <1>   0.0800 
 45 H       -1.1610     8.8460     2.1640 H     1 <1>   0.0800 
 46 H       -1.3570     7.4050     3.1380 H     1 <1>   0.0800 
 47 H       -2.7100     8.0440     2.2380 H     1 <1>   0.0800 
@<TRIPOS>BOND
  1   1   2  1   
  2   1   3  1   
  3   2   4  1   
  4   2  24  1   
  5   2  25  1   
  6   3   5  1   
  7   3  26  1   
  8   3  27  1   
  9   4   5  1   
 10   4   6  1   
 11   4  28  1   
 12   5   7  1   
 13   5  29  1   
 14   6   8  1   
 15   6  30  1   
 16   7   9  1   
 17   7  31  1   
 18   7  32  1   
 19   8  10  ar  
 20   8  11  ar  
 21   9  12  ar  
 22   9  13  ar  
 23  10  14  ar  
 24  11  15  ar  
 25  11  16  1   
 26  12  17  ar  
 27  12  33  1   
 28  13  18  ar  
 29  13  34  1   
 30  14  19  ar  
 31  14  20  1   
 32  15  19  ar  
 33  15  35  1   
 34  16  21  1   
 35  16  36  1   
 36  16  37  1   
 37  17  22  ar  
 38  17  38  1   
 39  18  22  ar  
 40  18  39  1   
 41  20  40  1   
 42  20  41  1   
 43  20  42  1   
 44  21  23  1   
 45  21  43  1   
 46  21  44  1   
 47  23  45  1   
 48  23  46  1   
 49  23  47  1   
@<TRIPOS>SUBSTRUCTURE
  1 ****   5 GROUP 4 **** **** 0

# MOE 2024.06 (io_trps.svl 2023.06)
