@<TRIPOS>MOLECULE
NONAME
58 61 1 0 0 
SMALL
USER_CHARGES


@<TRIPOS>ATOM
  1 O       -1.8790     1.0860     2.3990 O.2   1 <1>  -0.5700 
  2 C       -2.4740     1.2690     1.3530 C.2   1 <1>   0.5440 
  3 N       -2.1560     2.3790     0.5970 N.am  1 <1>  -0.6600 
  4 C       -3.4730     0.3120     0.9390 C.ar  1 <1>   0.0860 
  5 C       -2.2710     2.4290    -0.8920 C.3   1 <1>   0.1400 
  6 C       -1.3610     3.5140     1.1590 C.3   1 <1>   0.1400 
  7 C       -3.2620    -1.0510     1.1270 C.ar  1 <1>   0.1600 
  8 C       -4.6820     0.6810     0.3550 C.ar  1 <1>  -0.1500 
  9 C       -0.8930     2.6680    -1.5360 C.3   1 <1>   0.1200 
 10 C       -0.0360     3.6760     0.3990 C.3   1 <1>   0.1200 
 11 N       -4.0880    -2.0250     0.7800 N.ar  1 <1>  -0.6200 
 12 C       -5.5570    -0.3150    -0.0070 C.ar  1 <1>  -0.1500 
 13 O       -0.2690     3.7880    -0.9770 O.3   1 <1>  -0.5600 
 14 C       -5.2300    -1.6490     0.2170 C.ar  1 <1>   0.4100 
 15 N       -6.1070    -2.6370    -0.1510 N.pl3 1 <1>  -0.8690 
 16 C       -5.9510    -4.0420     0.2440 C.3   1 <1>   0.2890 
 17 C       -5.1140    -4.7570    -0.8110 C.3   1 <1>  -0.1600 
 18 C       -7.3230    -4.6950     0.3730 C.3   1 <1>  -0.1600 
 19 C       -4.9680    -6.2290    -0.4560 C.3   1 <1>   0.3430 
 20 C       -7.1680    -6.1760     0.7100 C.3   1 <1>   0.3430 
 21 N       -6.3160    -6.8520    -0.3160 N.4   1 <1>  -0.9590 
 22 C       -6.2050    -8.3140    -0.0560 C.3   1 <1>   0.4860 
 23 C       -7.5820    -8.9350    -0.1820 C.ar  1 <1>  -0.1440 
 24 C       -8.1720    -9.0680    -1.4300 C.ar  1 <1>  -0.1500 
 25 C       -8.2660    -9.3730     0.9450 C.ar  1 <1>  -0.1500 
 26 C       -9.4340    -9.6220    -1.5430 C.ar  1 <1>   0.0820 
 27 C       -9.5290    -9.9300     0.8250 C.ar  1 <1>  -0.1500 
 28 O       -9.9810    -9.7340    -2.7600 O.3   1 <1>  -0.5330 
 29 C      -10.1180   -10.0550    -0.4200 C.ar  1 <1>  -0.1500 
 30 H       -2.9340     3.2300    -1.1700 H     1 <1>   0.0800 
 31 H       -2.6760     1.5100    -1.2750 H     1 <1>   0.0800 
 32 H       -1.1570     3.3590     2.2040 H     1 <1>   0.0800 
 33 H       -1.9310     4.4220     1.0690 H     1 <1>   0.0800 
 34 H       -2.3380    -1.3440     1.5990 H     1 <1>   0.1500 
 35 H       -4.9180     1.7200     0.2010 H     1 <1>   0.1500 
 36 H       -1.0020     2.8450    -2.5910 H     1 <1>   0.0800 
 37 H       -0.2560     1.8120    -1.3930 H     1 <1>   0.0800 
 38 H        0.6050     2.8290     0.5760 H     1 <1>   0.0800 
 39 H        0.4720     4.5670     0.7220 H     1 <1>   0.0800 
 40 H       -6.4980    -0.0730    -0.4620 H     1 <1>   0.1500 
 41 H       -7.0330    -2.3530    -0.4740 H     1 <1>   0.4000 
 42 H       -5.4490    -4.0910     1.1980 H     1 <1>   0.0800 
 43 H       -4.1360    -4.3100    -0.8460 H     1 <1>   0.0800 
 44 H       -5.5630    -4.6540    -1.7820 H     1 <1>   0.0800 
 45 H       -7.8780    -4.5920    -0.5420 H     1 <1>   0.0800 
 46 H       -7.8720    -4.2130     1.1620 H     1 <1>   0.0800 
 47 H       -4.4240    -6.3180     0.4720 H     1 <1>   0.0800 
 48 H       -4.4050    -6.7290    -1.2280 H     1 <1>   0.0800 
 49 H       -8.1430    -6.6370     0.7440 H     1 <1>   0.0800 
 50 H       -6.7150    -6.2760     1.6840 H     1 <1>   0.0800 
 51 H       -6.8090    -6.7620    -1.2150 H     1 <1>   0.4500 
 52 H       -5.8080    -8.4910     0.9300 H     1 <1>   0.0800 
 53 H       -5.5470    -8.7710    -0.7770 H     1 <1>   0.0800 
 54 H       -7.6730    -8.7560    -2.3310 H     1 <1>   0.1500 
 55 H       -7.8280    -9.2940     1.9260 H     1 <1>   0.1500 
 56 H      -10.0560   -10.2710     1.7020 H     1 <1>   0.1500 
 57 H      -10.8490   -10.1780    -2.7580 H     1 <1>   0.4500 
 58 H      -11.0990   -10.4880    -0.5100 H     1 <1>   0.1500 
@<TRIPOS>BOND
  1   1   2  2   
  2   2   3  am  
  3   2   4  1   
  4   3   5  1   
  5   3   6  1   
  6   4   7  ar  
  7   4   8  ar  
  8   5   9  1   
  9   5  30  1   
 10   5  31  1   
 11   6  10  1   
 12   6  32  1   
 13   6  33  1   
 14   7  11  ar  
 15   7  34  1   
 16   8  12  ar  
 17   8  35  1   
 18   9  13  1   
 19   9  36  1   
 20   9  37  1   
 21  10  13  1   
 22  10  38  1   
 23  10  39  1   
 24  11  14  ar  
 25  12  14  ar  
 26  12  40  1   
 27  14  15  1   
 28  15  16  1   
 29  15  41  1   
 30  16  17  1   
 31  16  18  1   
 32  16  42  1   
 33  17  19  1   
 34  17  43  1   
 35  17  44  1   
 36  18  20  1   
 37  18  45  1   
 38  18  46  1   
 39  19  21  1   
 40  19  47  1   
 41  19  48  1   
 42  20  21  1   
 43  20  49  1   
 44  20  50  1   
 45  21  22  1   
 46  21  51  1   
 47  22  23  1   
 48  22  52  1   
 49  22  53  1   
 50  23  24  ar  
 51  23  25  ar  
 52  24  26  ar  
 53  24  54  1   
 54  25  27  ar  
 55  25  55  1   
 56  26  28  1   
 57  26  29  ar  
 58  27  29  ar  
 59  27  56  1   
 60  28  57  1   
 61  29  58  1   
@<TRIPOS>SUBSTRUCTURE
  1 ****  15 GROUP 4 **** **** 0

# MOE 2024.06 (io_trps.svl 2023.06)
