@<TRIPOS>MOLECULE
NONAME
47 50 1 0 0 
SMALL
USER_CHARGES


@<TRIPOS>ATOM
  1 O       -0.5240     0.3020     1.0520 O.2   1 <1>  -0.5700 
  2 C       -1.4980     0.9450     0.7100 C.2   1 <1>   0.5440 
  3 N       -2.6580     0.2680     0.4110 N.am  1 <1>  -0.6600 
  4 C       -1.4150     2.3870     0.6110 C.ar  1 <1>   0.0860 
  5 C       -3.8510     0.8410    -0.2630 C.3   1 <1>   0.1400 
  6 C       -2.7590    -1.2130     0.4590 C.3   1 <1>   0.1400 
  7 C       -2.2470     3.2250     1.3510 C.ar  1 <1>  -0.1500 
  8 C       -0.4910     2.9950    -0.2350 C.ar  1 <1>  -0.1500 
  9 C       -4.9000    -0.2640    -0.1650 C.3   1 <1>   0.2000 
 10 C       -4.0740    -1.5530    -0.2530 C.3   1 <1>  -0.0800 
 11 C       -2.1740     4.6000     1.2320 C.ar  1 <1>  -0.1500 
 12 C       -0.4190     4.3700    -0.3530 C.ar  1 <1>  -0.1500 
 13 O       -5.4920    -0.1770     1.0860 O.3   1 <1>  -0.6800 
 14 C       -4.7680    -2.8180     0.2860 C.3   1 <1>  -0.0170 
 15 C       -1.2620     5.2150     0.3720 C.ar  1 <1>   0.0540 
 16 C       -3.9040    -4.0490     0.0600 C.ar  1 <1>  -0.1430 
 17 C       -1.1860     6.6590     0.2330 C.2   1 <1>   0.4620 
 18 C       -3.0710    -4.5510     1.0390 C.ar  1 <1>  -0.1500 
 19 C       -3.9080    -4.7270    -1.1420 C.ar  1 <1>  -0.1500 
 20 N       -1.9440     7.4980     0.9520 N.2   1 <1>  -0.2270 
 21 N       -0.3990     7.2800    -0.5850 N.2   1 <1>  -0.7070 
 22 C       -2.3020    -5.6730     0.7750 C.ar  1 <1>   0.1600 
 23 C       -3.1000    -5.8410    -1.3030 C.ar  1 <1>   0.1600 
 24 N       -1.6360     8.6750     0.5870 N.2   1 <1>  -0.4180 
 25 N       -0.7050     8.5290    -0.3360 N.pl3 1 <1>   0.5800 
 26 N       -2.2960    -6.3290    -0.3730 N.ar  1 <1>  -0.6200 
 27 C       -0.0750     9.6570    -1.0260 C.3   1 <1>   0.0160 
 28 H       -4.1920     1.7490     0.2020 H     1 <1>   0.0800 
 29 H       -3.6110     1.0310    -1.2950 H     1 <1>   0.0800 
 30 H       -1.9160    -1.6720    -0.0310 H     1 <1>   0.0800 
 31 H       -2.7820    -1.5270     1.4890 H     1 <1>   0.0800 
 32 H       -2.9560     2.7860     2.0300 H     1 <1>   0.1500 
 33 H        0.1790     2.3710    -0.8020 H     1 <1>   0.1500 
 34 H       -5.6680    -0.1910    -0.9160 H     1 <1>   0.0800 
 35 H       -3.8400    -1.7160    -1.2910 H     1 <1>   0.0800 
 36 H       -2.8380     5.2100     1.8210 H     1 <1>   0.1500 
 37 H        0.3080     4.8030    -1.0200 H     1 <1>   0.1500 
 38 H       -4.7830    -0.1150     1.7590 H     1 <1>   0.4000 
 39 H       -5.7110    -2.9480    -0.2140 H     1 <1>   0.0800 
 40 H       -4.9750    -2.7140     1.3370 H     1 <1>   0.0800 
 41 H       -3.0110    -4.0840     2.0050 H     1 <1>   0.1500 
 42 H       -4.5310    -4.4020    -1.9550 H     1 <1>   0.1500 
 43 H       -1.6570    -6.0490     1.5510 H     1 <1>   0.1500 
 44 H       -3.1170    -6.3570    -2.2480 H     1 <1>   0.1500 
 45 H        0.9640     9.4360    -1.1810 H     1 <1>   0.0800 
 46 H       -0.1740    10.5400    -0.4240 H     1 <1>   0.0800 
 47 H       -0.5630     9.8010    -1.9710 H     1 <1>   0.0800 
@<TRIPOS>BOND
  1   1   2  2   
  2   2   3  am  
  3   2   4  1   
  4   3   5  1   
  5   3   6  1   
  6   4   7  ar  
  7   4   8  ar  
  8   5   9  1   
  9   5  28  1   
 10   5  29  1   
 11   6  10  1   
 12   6  30  1   
 13   6  31  1   
 14   7  11  ar  
 15   7  32  1   
 16   8  12  ar  
 17   8  33  1   
 18   9  10  1   
 19   9  13  1   
 20   9  34  1   
 21  10  14  1   
 22  10  35  1   
 23  11  15  ar  
 24  11  36  1   
 25  12  15  ar  
 26  12  37  1   
 27  13  38  1   
 28  14  16  1   
 29  14  39  1   
 30  14  40  1   
 31  15  17  1   
 32  16  18  ar  
 33  16  19  ar  
 34  17  20  1   
 35  17  21  2   
 36  18  22  ar  
 37  18  41  1   
 38  19  23  ar  
 39  19  42  1   
 40  20  24  2   
 41  21  25  1   
 42  22  26  ar  
 43  22  43  1   
 44  23  26  ar  
 45  23  44  1   
 46  24  25  1   
 47  25  27  1   
 48  27  45  1   
 49  27  46  1   
 50  27  47  1   
@<TRIPOS>SUBSTRUCTURE
  1 ****   2 GROUP 4 **** **** 0

# MOE 2024.06 (io_trps.svl 2023.06)
