@<TRIPOS>MOLECULE
NONAME
49 53 1 0 0 
SMALL
USER_CHARGES


@<TRIPOS>ATOM
  1 N        0.5670     0.2300     0.5940 N.ar  1 <1>  -0.6200 
  2 C       -0.4640     1.0290     0.8820 C.ar  1 <1>   0.7200 
  3 C        1.1680     0.4780    -0.5420 C.ar  1 <1>   0.1660 
  4 N       -0.9160     2.0350     0.1250 N.ar  1 <1>  -0.6200 
  5 N       -1.1220     0.7940     2.0730 N.pl3 1 <1>  -0.8380 
  6 C        0.7850     1.4800    -1.3810 C.ar  1 <1>  -0.1440 
  7 C        2.3600    -0.2880    -1.0850 C.3   1 <1>   0.1430 
  8 C       -0.2840     2.2520    -1.0040 C.ar  1 <1>   0.1600 
  9 C       -2.4440     1.4080     2.3800 C.3   1 <1>   0.1290 
 10 C       -0.5650    -0.1050     3.1220 C.3   1 <1>   0.1290 
 11 C        1.6530     1.5440    -2.6110 C.3   1 <1>  -0.0160 
 12 C        3.4350    -0.4500     0.0060 C.3   1 <1>   0.2090 
 13 C        1.9160    -1.6760    -1.6080 C.3   1 <1>  -0.1600 
 14 C        2.8380     0.6340    -2.2410 C.3   1 <1>  -0.1600 
 15 N        4.6720    -1.1360    -0.5050 N.pl3 1 <1>  -0.8220 
 16 C        3.0240    -2.7440    -1.5020 C.3   1 <1>  -0.1600 
 17 C        5.5550    -1.5170     0.5190 C.2   1 <1>   0.2700 
 18 C        4.4410    -2.1610    -1.5760 C.3   1 <1>   0.2090 
 19 N        5.6670    -2.7250     0.9940 N.2   1 <1>  -0.3380 
 20 N        6.3820    -0.6670     1.1550 N.pl3 1 <1>   0.3340 
 21 N        6.5770    -2.6980     1.9680 N.2   1 <1>  -0.3380 
 22 C        6.9990    -1.4680     2.0630 C.2   1 <1>   0.1420 
 23 C        6.6860     0.6920     1.0580 C.2   1 <1>  -0.1810 
 24 C        7.9590    -0.8980     2.9400 C.2   1 <1>  -0.1050 
 25 C        7.6050     1.2440     1.8920 C.2   1 <1>  -0.1500 
 26 C        8.2570     0.4300     2.8600 C.2   1 <1>  -0.1500 
 27 H       -0.6250     3.0550    -1.6340 H     1 <1>   0.1500 
 28 H       -2.9980     1.5830     1.4740 H     1 <1>   0.0800 
 29 H       -2.2950     2.3460     2.8850 H     1 <1>   0.0800 
 30 H       -3.0210     0.7520     3.0070 H     1 <1>   0.0800 
 31 H        0.5110    -0.0960     3.0950 H     1 <1>   0.0800 
 32 H       -0.9100    -1.1100     2.9540 H     1 <1>   0.0800 
 33 H       -0.8800     0.2230     4.0970 H     1 <1>   0.0800 
 34 H        1.9760     2.5490    -2.8210 H     1 <1>   0.0800 
 35 H        1.1150     1.1460    -3.4540 H     1 <1>   0.0800 
 36 H        3.0240    -1.0260     0.8180 H     1 <1>   0.0800 
 37 H        3.6980     0.5180     0.3940 H     1 <1>   0.0800 
 38 H        1.5820    -1.5900    -2.6270 H     1 <1>   0.0800 
 39 H        1.0740    -2.0210    -1.0320 H     1 <1>   0.0800 
 40 H        3.1930     0.0830    -3.0930 H     1 <1>   0.0800 
 41 H        3.6430     1.2550    -1.8880 H     1 <1>   0.0800 
 42 H        2.8960    -3.4770    -2.2780 H     1 <1>   0.0800 
 43 H        2.9350    -3.2590    -0.5610 H     1 <1>   0.0800 
 44 H        5.1600    -2.9590    -1.4910 H     1 <1>   0.0800 
 45 H        4.5930    -1.6990    -2.5360 H     1 <1>   0.0800 
 46 H        6.1560     1.2380     0.2990 H     1 <1>   0.1500 
 47 H        8.4270    -1.5520     3.6530 H     1 <1>   0.1500 
 48 H        7.8640     2.2890     1.8450 H     1 <1>   0.1500 
 49 H        8.9810     0.8870     3.5130 H     1 <1>   0.1500 
@<TRIPOS>BOND
  1   1   2  ar  
  2   1   3  ar  
  3   2   4  ar  
  4   2   5  1   
  5   3   6  ar  
  6   3   7  1   
  7   4   8  ar  
  8   5   9  1   
  9   5  10  1   
 10   6   8  ar  
 11   6  11  1   
 12   7  12  1   
 13   7  13  1   
 14   7  14  1   
 15   8  27  1   
 16   9  28  1   
 17   9  29  1   
 18   9  30  1   
 19  10  31  1   
 20  10  32  1   
 21  10  33  1   
 22  11  14  1   
 23  11  34  1   
 24  11  35  1   
 25  12  15  1   
 26  12  36  1   
 27  12  37  1   
 28  13  16  1   
 29  13  38  1   
 30  13  39  1   
 31  14  40  1   
 32  14  41  1   
 33  15  17  1   
 34  15  18  1   
 35  16  18  1   
 36  16  42  1   
 37  16  43  1   
 38  17  19  2   
 39  17  20  1   
 40  18  44  1   
 41  18  45  1   
 42  19  21  1   
 43  20  22  1   
 44  20  23  1   
 45  21  22  2   
 46  22  24  1   
 47  23  25  2   
 48  23  46  1   
 49  24  26  2   
 50  24  47  1   
 51  25  26  1   
 52  25  48  1   
 53  26  49  1   
@<TRIPOS>SUBSTRUCTURE
  1 ****  12 GROUP 4 **** **** 0

# MOE 2024.06 (io_trps.svl 2023.06)
