@<TRIPOS>MOLECULE
NONAME
32 33 1 0 0 
SMALL
USER_CHARGES


@<TRIPOS>ATOM
  1 S       -0.0570     0.0260    -0.4370 S.3   1 <1>  -0.0800 
  2 C       -1.2640    -0.8010     0.4910 C.2   1 <1>   0.4420 
  3 C       -0.2290     1.3580     0.6590 C.2   1 <1>   0.1980 
  4 N       -1.6810    -0.0970     1.4800 N.2   1 <1>  -0.3380 
  5 N       -1.5990    -2.0650     0.0650 N.am  1 <1>  -0.4940 
  6 N       -1.0890     1.1320     1.5690 N.2   1 <1>  -0.3380 
  7 C        0.6130     2.6130     0.4380 C.3   1 <1>   0.3800 
  8 C       -2.5440    -2.9370     0.5320 C.2   1 <1>   0.7160 
  9 O        0.4290     3.1170    -0.8540 O.3   1 <1>  -0.5600 
 10 C        2.1080     2.3440     0.6030 C.3   1 <1>  -0.2400 
 11 O       -3.3130    -2.5970     1.4080 O.2   1 <1>  -0.5700 
 12 C       -2.5990    -4.2530    -0.0680 C.2   1 <1>  -0.0860 
 13 C       -0.8210     3.6910    -1.0880 C.3   1 <1>   0.0400 
 14 C       -3.6550    -5.1260    -0.2210 C.2   1 <1>  -0.3320 
 15 C       -1.4950    -4.9200    -0.6460 C.2   1 <1>  -0.1500 
 16 N       -3.2440    -6.2510    -0.8490 N.pl3 1 <1>   0.0330 
 17 C       -5.1030    -4.9520     0.2110 C.3   1 <1>  -0.0600 
 18 C       -1.9190    -6.1190    -1.1090 C.2   1 <1>  -0.3020 
 19 H       -1.0980    -2.4060    -0.7470 H     1 <1>   0.3700 
 20 H        0.3130     3.3700     1.1420 H     1 <1>   0.0800 
 21 H        2.4460     1.6350    -0.1300 H     1 <1>   0.0800 
 22 H        2.3000     1.9490     1.5830 H     1 <1>   0.0800 
 23 H        2.6570     3.2620     0.4880 H     1 <1>   0.0800 
 24 H       -0.8320     4.0660    -2.0960 H     1 <1>   0.0800 
 25 H       -0.9780     4.5030    -0.4000 H     1 <1>   0.0800 
 26 H       -1.5900     2.9460    -0.9740 H     1 <1>   0.0800 
 27 H       -0.4890    -4.5390    -0.6920 H     1 <1>   0.1500 
 28 H       -3.8270    -7.0630    -1.0830 H     1 <1>   0.2700 
 29 H       -5.2770    -3.9650     0.5990 H     1 <1>   0.0800 
 30 H       -5.3450    -5.6640     0.9790 H     1 <1>   0.0800 
 31 H       -5.7610    -5.1030    -0.6260 H     1 <1>   0.0800 
 32 H       -1.3530    -6.8890    -1.6040 H     1 <1>   0.1500 
@<TRIPOS>BOND
  1   1   2  1   
  2   1   3  1   
  3   2   4  2   
  4   2   5  1   
  5   3   6  2   
  6   3   7  1   
  7   4   6  1   
  8   5   8  am  
  9   5  19  1   
 10   7   9  1   
 11   7  10  1   
 12   7  20  1   
 13   8  11  2   
 14   8  12  1   
 15   9  13  1   
 16  10  21  1   
 17  10  22  1   
 18  10  23  1   
 19  12  14  2   
 20  12  15  1   
 21  13  24  1   
 22  13  25  1   
 23  13  26  1   
 24  14  16  1   
 25  14  17  1   
 26  15  18  2   
 27  15  27  1   
 28  16  18  1   
 29  16  28  1   
 30  17  29  1   
 31  17  30  1   
 32  17  31  1   
 33  18  32  1   
@<TRIPOS>SUBSTRUCTURE
  1 ****   5 GROUP 4 **** **** 0

# MOE 2024.06 (io_trps.svl 2023.06)
