@<TRIPOS>MOLECULE
Untitled Document
56 61 1 0 0 
SMALL
USER_CHARGES


@<TRIPOS>ATOM
  1 O        0.1100    -0.3190     1.7220 O.2   1 <1>  -0.5700 
  2 C        0.1650    -1.3510     1.0920 C.2   1 <1>   0.9370 
  3 N       -0.9910    -1.8330     0.4710 N.pl3 1 <1>  -0.5760 
  4 C        1.3680    -2.0740     0.9720 C.2   1 <1>  -0.1360 
  5 C       -0.9310    -2.9750    -0.2490 C.cat 1 <1>   0.7390 
  6 C       -2.1880    -1.1550     0.5730 C.2   1 <1>   0.1910 
  7 C        1.4360    -3.2290     0.2640 C.2   1 <1>   0.3550 
  8 N        0.2490    -3.6420    -0.3400 N.pl3 1 <1>  -0.6450 
  9 C       -2.0860    -3.4450    -0.8890 C.2   1 <1>  -0.1800 
 10 C       -3.3450    -1.5890    -0.0420 C.2   1 <1>   0.1000 
 11 C        2.6640    -4.0000     0.1130 C.2   1 <1>   0.4210 
 12 C       -3.2750    -2.7710    -0.7950 C.2   1 <1>  -0.1500 
 13 N       -4.5730    -0.9160     0.0350 N.pl3 1 <1>  -0.8380 
 14 N        3.7930    -3.3460    -0.0700 N.2   1 <1>  -0.2420 
 15 C        2.6410    -5.4240     0.1660 C.2   1 <1>  -0.1360 
 16 C       -5.7410    -1.5920     0.6960 C.3   1 <1>   0.3040 
 17 C       -4.6350     0.5830     0.0190 C.3   1 <1>   0.2090 
 18 N        4.9230    -4.0980    -0.2170 N.pl3 1 <1>  -0.4580 
 19 C        3.7880    -6.1640     0.0170 C.2   1 <1>  -0.1290 
 20 C       -7.0850    -1.0240     0.1570 C.3   1 <1>   0.3010 
 21 C       -5.9880     1.0810    -0.5420 C.3   1 <1>   0.3430 
 22 C        4.9860    -5.4570    -0.1860 C.cat 1 <1>   0.7910 
 23 C        6.2120    -3.6480    -0.4240 C.2   1 <1>   0.2000 
 24 C        3.7810    -7.6890     0.0750 C.3   1 <1>  -0.1020 
 25 N       -7.1650     0.4560     0.1550 N.4   1 <1>  -0.7990 
 26 C       -7.7510    -1.6950    -0.9950 C.3   1 <1>  -0.2000 
 27 C       -8.3630    -1.7550     0.3800 C.3   1 <1>  -0.2000 
 28 N        6.2600    -5.8450    -0.3660 N.pl3 1 <1>  -0.7000 
 29 C        7.0260    -4.7210    -0.5150 C.2   1 <1>   0.1820 
 30 C        8.5240    -4.7970    -0.7380 C.3   1 <1>  -0.0720 
 31 H        2.2200    -1.6530     1.4730 H     1 <1>   0.1500 
 32 H       -2.2170    -0.2510     1.1630 H     1 <1>   0.1500 
 33 H        0.2530    -4.4610    -0.9570 H     1 <1>   0.4500 
 34 H       -2.0340    -4.3500    -1.4670 H     1 <1>   0.1500 
 35 H       -4.1600    -3.1260    -1.2980 H     1 <1>   0.1500 
 36 H        1.7010    -5.9200     0.3390 H     1 <1>   0.1500 
 37 H       -5.6890    -1.4370     1.7600 H     1 <1>   0.0800 
 38 H       -5.7020    -2.6540     0.5210 H     1 <1>   0.0800 
 39 H       -3.8400     0.9680    -0.5980 H     1 <1>   0.0800 
 40 H       -4.4950     0.9630     1.0160 H     1 <1>   0.0800 
 41 H       -6.0250     0.8330    -1.5900 H     1 <1>   0.0800 
 42 H       -6.0360     2.1540    -0.4560 H     1 <1>   0.0800 
 43 H        6.4520    -2.5990    -0.4910 H     1 <1>   0.1500 
 44 H        4.4090    -8.0370     0.8770 H     1 <1>   0.0800 
 45 H        4.1430    -8.1030    -0.8510 H     1 <1>   0.0800 
 46 H        2.7880    -8.0680     0.2430 H     1 <1>   0.0800 
 47 H       -7.2180     0.7860     1.1250 H     1 <1>   0.4500 
 48 H       -8.0380     0.7320    -0.3090 H     1 <1>   0.4500 
 49 H       -7.3340    -2.6040    -1.3940 H     1 <1>   0.1000 
 50 H       -8.2500    -1.1150    -1.7510 H     1 <1>   0.1000 
 51 H       -9.2770    -1.2140     0.5560 H     1 <1>   0.1000 
 52 H       -8.3570    -2.7100     0.8790 H     1 <1>   0.1000 
 53 H        6.5930    -6.8130    -0.3860 H     1 <1>   0.4500 
 54 H        8.9390    -3.8090    -0.8300 H     1 <1>   0.0800 
 55 H        8.7370    -5.3430    -1.6390 H     1 <1>   0.0800 
 56 H        8.9980    -5.2920     0.0910 H     1 <1>   0.0800 
@<TRIPOS>BOND
  1   1   2  2   
  2   2   3  1   
  3   2   4  1   
  4   3   5  ar  
  5   3   6  1   
  6   4   7  2   
  7   4  31  1   
  8   5   8  ar  
  9   5   9  1   
 10   6  10  2   
 11   6  32  1   
 12   7   8  1   
 13   7  11  1   
 14   8  33  1   
 15   9  12  2   
 16   9  34  1   
 17  10  12  1   
 18  10  13  1   
 19  11  14  2   
 20  11  15  1   
 21  12  35  1   
 22  13  16  1   
 23  13  17  1   
 24  14  18  1   
 25  15  19  2   
 26  15  36  1   
 27  16  20  1   
 28  16  37  1   
 29  16  38  1   
 30  17  21  1   
 31  17  39  1   
 32  17  40  1   
 33  18  22  ar  
 34  18  23  1   
 35  19  22  1   
 36  19  24  1   
 37  20  25  1   
 38  20  26  1   
 39  20  27  1   
 40  21  25  1   
 41  21  41  1   
 42  21  42  1   
 43  22  28  ar  
 44  23  29  2   
 45  23  43  1   
 46  24  44  1   
 47  24  45  1   
 48  24  46  1   
 49  25  47  1   
 50  25  48  1   
 51  26  27  1   
 52  26  49  1   
 53  26  50  1   
 54  27  51  1   
 55  27  52  1   
 56  28  29  1   
 57  28  53  1   
 58  29  30  1   
 59  30  54  1   
 60  30  55  1   
 61  30  56  1   
@<TRIPOS>SUBSTRUCTURE
  1 ****   5 GROUP 4 **** **** 0

# MOE 2024.06 (io_trps.svl 2023.06)
