@<TRIPOS>MOLECULE
NONAME
47 50 1 0 0 
SMALL
USER_CHARGES


@<TRIPOS>ATOM
  1 O        3.2280     0.4430     1.7580 O.2   1 <1>  -0.5700 
  2 C        2.7810    -0.1540     0.8000 C.2   1 <1>   0.5440 
  3 N        2.3490     0.6060    -0.2640 N.am  1 <1>  -0.6600 
  4 C        2.8090    -1.5960     0.7560 C.ar  1 <1>   0.0860 
  5 C        2.9870     0.4400    -1.6110 C.3   1 <1>   0.1400 
  6 C        1.6630     1.9160    -0.0500 C.3   1 <1>   0.1400 
  7 C        3.7440    -2.3330     1.4580 C.ar  1 <1>   0.1600 
  8 C        1.9160    -2.3410     0.0100 C.ar  1 <1>   0.1600 
  9 C        4.3900     1.0860    -1.6720 C.3   1 <1>   0.3430 
 10 C        2.6250     3.0470     0.3630 C.3   1 <1>  -0.1600 
 11 N        3.8130    -3.6460     1.4080 N.ar  1 <1>  -0.6200 
 12 N        1.9550    -3.6530    -0.0650 N.ar  1 <1>  -0.6200 
 13 N        4.6690     1.9430    -0.4690 N.4   1 <1>  -0.9590 
 14 C        3.8940     3.2060    -0.4780 C.3   1 <1>   0.3430 
 15 C        2.9070    -4.2400     0.6470 C.ar  1 <1>   0.5880 
 16 C        6.1210     2.0890    -0.1650 C.3   1 <1>   0.5230 
 17 C        2.9700    -5.7590     0.5740 C.3   1 <1>  -0.0680 
 18 C        6.7390     0.7460     0.2400 C.2   1 <1>   0.0070 
 19 C        1.7690    -6.6030     0.8950 C.3   1 <1>  -0.2000 
 20 C        2.9450    -6.5990     1.8200 C.3   1 <1>  -0.2000 
 21 N        6.1080    -0.3900     0.2580 N.2   1 <1>  -0.5650 
 22 N        8.0330     0.6370     0.6270 N.pl3 1 <1>   0.0330 
 23 C        7.0320    -1.2780     0.6720 C.2   1 <1>   0.0770 
 24 C        8.2120    -0.6660     0.9010 C.2   1 <1>  -0.3020 
 25 H        2.3570     0.8800    -2.3650 H     1 <1>   0.0800 
 26 H        3.0800    -0.6050    -1.8490 H     1 <1>   0.0800 
 27 H        0.9220     1.7930     0.7240 H     1 <1>   0.0800 
 28 H        1.1390     2.1930    -0.9500 H     1 <1>   0.0800 
 29 H        4.4610    -1.8140     2.0730 H     1 <1>   0.1500 
 30 H        1.1430    -1.8360    -0.5440 H     1 <1>   0.1500 
 31 H        4.4870     1.6630    -2.5770 H     1 <1>   0.0800 
 32 H        5.1120     0.2890    -1.7270 H     1 <1>   0.0800 
 33 H        2.9030     2.9180     1.3940 H     1 <1>   0.0800 
 34 H        2.0790     3.9720     0.3210 H     1 <1>   0.0800 
 35 H        4.2970     1.3820     0.3300 H     1 <1>   0.4500 
 36 H        4.4860     4.0040    -0.0590 H     1 <1>   0.0800 
 37 H        3.6350     3.4760    -1.4890 H     1 <1>   0.0800 
 38 H        6.2440     2.7780     0.6540 H     1 <1>   0.0800 
 39 H        6.6380     2.4810    -1.0240 H     1 <1>   0.0800 
 40 H        3.6040    -6.0860    -0.2280 H     1 <1>   0.1000 
 41 H        1.5790    -7.4730     0.2910 H     1 <1>   0.1000 
 42 H        0.8630    -6.1090     1.2030 H     1 <1>   0.1000 
 43 H        2.8600    -6.0980     2.7700 H     1 <1>   0.1000 
 44 H        3.5820    -7.4640     1.8650 H     1 <1>   0.1000 
 45 H        8.7470     1.3700     0.7100 H     1 <1>   0.2700 
 46 H        6.7990    -2.3260     0.7880 H     1 <1>   0.1500 
 47 H        9.1450    -1.0840     1.2390 H     1 <1>   0.1500 
@<TRIPOS>BOND
  1   1   2  2   
  2   2   3  am  
  3   2   4  1   
  4   3   5  1   
  5   3   6  1   
  6   4   7  ar  
  7   4   8  ar  
  8   5   9  1   
  9   5  25  1   
 10   5  26  1   
 11   6  10  1   
 12   6  27  1   
 13   6  28  1   
 14   7  11  ar  
 15   7  29  1   
 16   8  12  ar  
 17   8  30  1   
 18   9  13  1   
 19   9  31  1   
 20   9  32  1   
 21  10  14  1   
 22  10  33  1   
 23  10  34  1   
 24  11  15  ar  
 25  12  15  ar  
 26  13  14  1   
 27  13  16  1   
 28  13  35  1   
 29  14  36  1   
 30  14  37  1   
 31  15  17  1   
 32  16  18  1   
 33  16  38  1   
 34  16  39  1   
 35  17  19  1   
 36  17  20  1   
 37  17  40  1   
 38  18  21  2   
 39  18  22  1   
 40  19  20  1   
 41  19  41  1   
 42  19  42  1   
 43  20  43  1   
 44  20  44  1   
 45  21  23  1   
 46  22  24  1   
 47  22  45  1   
 48  23  24  2   
 49  23  46  1   
 50  24  47  1   
@<TRIPOS>SUBSTRUCTURE
  1 ****   4 GROUP 4 **** **** 0

# MOE 2024.06 (io_trps.svl 2023.06)
