@<TRIPOS>MOLECULE
NONAME
52 55 1 0 0 
SMALL
USER_CHARGES


@<TRIPOS>ATOM
  1 O       -2.9730    -1.4530     2.0950 O.2   1 <1>  -0.5700 
  2 C       -3.1990    -0.5860     1.2870 C.2   1 <1>   0.5690 
  3 N       -3.5550    -0.7840    -0.0010 N.am  1 <1>  -0.6600 
  4 C       -3.1280     0.8820     1.6000 C.3   1 <1>  -0.0990 
  5 C       -3.7760     0.4690    -0.7400 C.3   1 <1>   0.1400 
  6 C       -3.6530    -2.1030    -0.6610 C.3   1 <1>   0.1400 
  7 C       -3.7250     1.5520     0.3480 C.3   1 <1>  -0.1600 
  8 C       -5.0410    -2.6890    -0.4200 C.3   1 <1>  -0.0990 
  9 C       -5.1100    -4.0770    -1.0030 C.2   1 <1>   0.5690 
 10 O       -5.4090    -4.2120    -2.1630 O.2   1 <1>  -0.5700 
 11 N       -4.8340    -5.1330    -0.2040 N.am  1 <1>  -0.7300 
 12 C       -4.8030    -6.5490    -0.6450 C.3   1 <1>   0.2200 
 13 C       -6.0530    -7.3010    -0.2040 C.3   1 <1>  -0.0800 
 14 C       -3.7390    -7.2880     0.1540 C.3   1 <1>   0.1200 
 15 C       -5.7240    -7.6630     1.2490 C.3   1 <1>   0.1200 
 16 C       -7.3800    -6.5360    -0.3920 C.3   1 <1>  -0.0170 
 17 O       -4.3340    -7.5790     1.3820 O.3   1 <1>  -0.5600 
 18 C       -8.6690    -7.3030    -0.0740 C.ar  1 <1>  -0.1440 
 19 C       -9.9060    -6.6110    -0.0530 C.ar  1 <1>   0.0000 
 20 C       -8.7080    -8.6450     0.1890 C.ar  1 <1>  -0.1500 
 21 C      -11.0750    -7.3440     0.2710 C.ar  1 <1>   0.3100 
 22 C      -10.0540    -5.2330    -0.3410 C.ar  1 <1>  -0.1500 
 23 C       -9.9210    -9.2760     0.4890 C.ar  1 <1>   0.1600 
 24 N      -11.0650    -8.6730     0.5400 N.ar  1 <1>  -0.6200 
 25 C      -12.3090    -6.6770     0.3130 C.ar  1 <1>  -0.1500 
 26 C      -11.2730    -4.6130    -0.2940 C.ar  1 <1>  -0.1500 
 27 C      -12.4170    -5.3410     0.0400 C.ar  1 <1>  -0.1500 
 28 H       -3.6930     1.1070     2.4860 H     1 <1>   0.0800 
 29 H       -2.0990     1.1590     1.7370 H     1 <1>   0.0800 
 30 H       -2.9850     0.6060    -1.4580 H     1 <1>   0.0800 
 31 H       -4.7300     0.4550    -1.2380 H     1 <1>   0.0800 
 32 H       -3.4650    -2.0040    -1.7160 H     1 <1>   0.0800 
 33 H       -2.9070    -2.7590    -0.2420 H     1 <1>   0.0800 
 34 H       -3.1440     2.3990     0.0300 H     1 <1>   0.0800 
 35 H       -4.7280     1.8820     0.5580 H     1 <1>   0.0800 
 36 H       -5.7840    -2.0740    -0.8920 H     1 <1>   0.0800 
 37 H       -5.2410    -2.7330     0.6340 H     1 <1>   0.0800 
 38 H       -4.5960    -4.9960     0.7830 H     1 <1>   0.3700 
 39 H       -4.6340    -6.6100    -1.7070 H     1 <1>   0.0800 
 40 H       -6.0940    -8.2080    -0.7790 H     1 <1>   0.0800 
 41 H       -2.8490    -6.7030     0.3090 H     1 <1>   0.0800 
 42 H       -3.4870    -8.2210    -0.3190 H     1 <1>   0.0800 
 43 H       -6.0360    -8.6600     1.5040 H     1 <1>   0.0800 
 44 H       -6.1590    -6.9600     1.9390 H     1 <1>   0.0800 
 45 H       -7.4340    -6.1980    -1.4130 H     1 <1>   0.0800 
 46 H       -7.3540    -5.6640     0.2370 H     1 <1>   0.0800 
 47 H       -7.8350    -9.2660     0.1780 H     1 <1>   0.1500 
 48 H       -9.1920    -4.6510    -0.6090 H     1 <1>   0.1500 
 49 H       -9.9000   -10.3330     0.6920 H     1 <1>   0.1500 
 50 H      -13.1750    -7.2590     0.5690 H     1 <1>   0.1500 
 51 H      -11.3670    -3.5640    -0.5140 H     1 <1>   0.1500 
 52 H      -13.3700    -4.8430     0.0760 H     1 <1>   0.1500 
@<TRIPOS>BOND
  1   1   2  2   
  2   2   3  am  
  3   2   4  1   
  4   3   5  1   
  5   3   6  1   
  6   4   7  1   
  7   4  28  1   
  8   4  29  1   
  9   5   7  1   
 10   5  30  1   
 11   5  31  1   
 12   6   8  1   
 13   6  32  1   
 14   6  33  1   
 15   7  34  1   
 16   7  35  1   
 17   8   9  1   
 18   8  36  1   
 19   8  37  1   
 20   9  10  2   
 21   9  11  am  
 22  11  12  1   
 23  11  38  1   
 24  12  13  1   
 25  12  14  1   
 26  12  39  1   
 27  13  15  1   
 28  13  16  1   
 29  13  40  1   
 30  14  17  1   
 31  14  41  1   
 32  14  42  1   
 33  15  17  1   
 34  15  43  1   
 35  15  44  1   
 36  16  18  1   
 37  16  45  1   
 38  16  46  1   
 39  18  19  ar  
 40  18  20  ar  
 41  19  21  ar  
 42  19  22  ar  
 43  20  23  ar  
 44  20  47  1   
 45  21  24  ar  
 46  21  25  ar  
 47  22  26  ar  
 48  22  48  1   
 49  23  24  ar  
 50  23  49  1   
 51  25  27  ar  
 52  25  50  1   
 53  26  27  ar  
 54  26  51  1   
 55  27  52  1   
@<TRIPOS>SUBSTRUCTURE
  1 ****  16 GROUP 4 **** **** 0

# MOE 2024.06 (io_trps.svl 2023.06)
