@<TRIPOS>MOLECULE
NONAME
42 43 1 0 0 
SMALL
USER_CHARGES


@<TRIPOS>ATOM
  1 O       -0.5570    -0.2280    -0.1970 O.2   1 <1>  -0.5700 
  2 C       -1.0090    -1.2300     0.3170 C.2   1 <1>   0.7800 
  3 O       -0.4860    -2.4350     0.0760 O.3   1 <1>  -0.4300 
  4 N       -2.0930    -1.1870     1.1480 N.am  1 <1>  -0.6600 
  5 C        0.6590    -2.7250    -0.6980 C.3   1 <1>   0.2800 
  6 C       -2.8100    -2.3580     1.6660 C.3   1 <1>   0.1400 
  7 C       -2.8850     0.0380     1.3890 C.3   1 <1>   0.1400 
  8 C        1.8930    -2.0400    -0.0990 C.3   1 <1>  -0.2400 
  9 C        0.8320    -4.2420    -0.6030 C.3   1 <1>  -0.2400 
 10 C        0.4260    -2.3340    -2.1620 C.3   1 <1>  -0.2400 
 11 C       -4.2770    -1.9760     1.4780 C.3   1 <1>  -0.0800 
 12 C       -4.3270    -0.4500     1.6230 C.3   1 <1>  -0.0800 
 13 C       -4.7960    -2.2400     0.0560 C.3   1 <1>  -0.0800 
 14 C       -5.3390     0.0540     0.5780 C.3   1 <1>  -0.1600 
 15 C       -5.8940    -1.1890    -0.1190 C.3   1 <1>  -0.1600 
 16 C       -5.2540    -3.6870    -0.1530 C.3   1 <1>   0.3430 
 17 N       -5.7390    -3.8610    -1.5440 N.4   1 <1>  -0.8530 
 18 H       -2.5460    -3.2600     1.1420 H     1 <1>   0.0800 
 19 H       -2.5800    -2.4700     2.7130 H     1 <1>   0.0800 
 20 H       -2.5070     0.5370     2.2660 H     1 <1>   0.0800 
 21 H       -2.8050     0.7060     0.5480 H     1 <1>   0.0800 
 22 H        2.7800    -2.3740    -0.6040 H     1 <1>   0.0800 
 23 H        1.9850    -2.2790     0.9450 H     1 <1>   0.0800 
 24 H        1.8390    -0.9730    -0.2130 H     1 <1>   0.0800 
 25 H        1.6940    -4.5540    -1.1650 H     1 <1>   0.0800 
 26 H       -0.0310    -4.7440    -1.0000 H     1 <1>   0.0800 
 27 H        0.9730    -4.5370     0.4210 H     1 <1>   0.0800 
 28 H        1.2450    -2.6790    -2.7660 H     1 <1>   0.0800 
 29 H        0.3720    -1.2670    -2.2750 H     1 <1>   0.0800 
 30 H       -0.4800    -2.7770    -2.5310 H     1 <1>   0.0800 
 31 H       -4.9060    -2.4490     2.2130 H     1 <1>   0.0800 
 32 H       -4.6390    -0.1720     2.6160 H     1 <1>   0.0800 
 33 H       -4.0010    -2.0180    -0.6380 H     1 <1>   0.0800 
 34 H       -6.1300     0.6150     1.0450 H     1 <1>   0.0800 
 35 H       -4.8600     0.6900    -0.1470 H     1 <1>   0.0800 
 36 H       -6.1150    -0.9820    -1.1520 H     1 <1>   0.0800 
 37 H       -6.7940    -1.4980     0.3870 H     1 <1>   0.0800 
 38 H       -6.0430    -3.9180     0.5450 H     1 <1>   0.0800 
 39 H       -4.4280    -4.3540     0.0350 H     1 <1>   0.0800 
 40 H       -6.5190    -3.2210    -1.7300 H     1 <1>   0.4500 
 41 H       -6.0580    -4.8210    -1.7140 H     1 <1>   0.4500 
 42 H       -4.9910    -3.6450    -2.2140 H     1 <1>   0.4500 
@<TRIPOS>BOND
  1   1   2  2   
  2   2   3  1   
  3   2   4  am  
  4   3   5  1   
  5   4   6  1   
  6   4   7  1   
  7   5   8  1   
  8   5   9  1   
  9   5  10  1   
 10   6  11  1   
 11   6  18  1   
 12   6  19  1   
 13   7  12  1   
 14   7  20  1   
 15   7  21  1   
 16   8  22  1   
 17   8  23  1   
 18   8  24  1   
 19   9  25  1   
 20   9  26  1   
 21   9  27  1   
 22  10  28  1   
 23  10  29  1   
 24  10  30  1   
 25  11  12  1   
 26  11  13  1   
 27  11  31  1   
 28  12  14  1   
 29  12  32  1   
 30  13  15  1   
 31  13  16  1   
 32  13  33  1   
 33  14  15  1   
 34  14  34  1   
 35  14  35  1   
 36  15  36  1   
 37  15  37  1   
 38  16  17  1   
 39  16  38  1   
 40  16  39  1   
 41  17  40  1   
 42  17  41  1   
 43  17  42  1   
@<TRIPOS>SUBSTRUCTURE
  1 ****   4 GROUP 4 **** **** 0

# MOE 2024.06 (io_trps.svl 2023.06)
