@<TRIPOS>MOLECULE
NONAME
41 43 1 0 0 
SMALL
USER_CHARGES


@<TRIPOS>ATOM
  1 N       -0.4770     0.1760     0.2420 N.ar  1 <1>  -0.1790 
  2 C        0.8050     0.0140     0.6780 C.ar  1 <1>   0.7710 
  3 C       -1.3190    -0.8500     0.0670 C.ar  1 <1>   0.4610 
  4 N        1.3180    -1.1380     0.9930 N.ar  1 <1>  -0.5670 
  5 N        1.5680     1.1100     0.8150 N.pl3 1 <1>  -0.8690 
  6 N       -2.5750    -0.6410    -0.3630 N.pl3 1 <1>  -0.9000 
  7 C       -0.7970    -2.1140     0.3670 C.ar  1 <1>   0.0000 
  8 C        0.4980    -2.2060     0.8200 C.ar  1 <1>   0.1050 
  9 C        1.9140     2.0230    -0.2730 C.3   1 <1>   0.4270 
 10 C       -1.2440    -3.4440     0.3460 C.2   1 <1>   0.1390 
 11 N        0.7430    -3.5220     1.0360 N.pl3 1 <1>   0.3140 
 12 C        3.4310     2.1210    -0.2860 C.2   1 <1>  -0.2760 
 13 C        1.2250     3.3630    -0.0450 C.3   1 <1>  -0.2400 
 14 N       -0.3420    -4.2780     0.7390 N.2   1 <1>  -0.7070 
 15 C        1.9870    -4.1370     1.5240 C.3   1 <1>   0.0160 
 16 C        4.1630     1.5910    -1.2750 C.2   1 <1>  -0.2880 
 17 C        4.0790     2.8590     0.8910 C.3   1 <1>  -0.0220 
 18 C        5.6800     1.6620    -1.3660 C.3   1 <1>  -0.0220 
 19 C        5.5810     2.5600     0.9960 C.3   1 <1>  -0.1600 
 20 C        6.2600     2.6780    -0.3730 C.3   1 <1>  -0.1600 
 21 H       -0.7700     1.1330     0.1130 H     1 <1>   0.4570 
 22 H        2.4330     0.9110     1.3280 H     1 <1>   0.4000 
 23 H       -3.2400    -1.4150    -0.4990 H     1 <1>   0.4000 
 24 H       -3.0090     0.2610    -0.5930 H     1 <1>   0.4000 
 25 H        1.5890     1.6110    -1.2150 H     1 <1>   0.0800 
 26 H       -2.2320    -3.7470     0.0370 H     1 <1>   0.1500 
 27 H        1.4470     3.7500     0.9330 H     1 <1>   0.0800 
 28 H        0.1620     3.2720    -0.1560 H     1 <1>   0.0800 
 29 H        1.5780     4.0700    -0.7760 H     1 <1>   0.0800 
 30 H        2.7370    -3.3820     1.6670 H     1 <1>   0.0800 
 31 H        2.3280    -4.8550     0.8010 H     1 <1>   0.0800 
 32 H        1.7900    -4.6340     2.4550 H     1 <1>   0.0800 
 33 H        3.7370     1.0550    -2.1060 H     1 <1>   0.1500 
 34 H        3.6150     2.5850     1.8220 H     1 <1>   0.0800 
 35 H        3.9440     3.9180     0.7560 H     1 <1>   0.0800 
 36 H        5.9720     1.9420    -2.3640 H     1 <1>   0.0800 
 37 H        6.0840     0.6860    -1.1630 H     1 <1>   0.0800 
 38 H        5.7200     1.5610     1.3730 H     1 <1>   0.0800 
 39 H        6.0370     3.2440     1.6900 H     1 <1>   0.0800 
 40 H        6.1070     3.6720    -0.7570 H     1 <1>   0.0800 
 41 H        7.3200     2.5200    -0.2750 H     1 <1>   0.0800 
@<TRIPOS>BOND
  1   1   2  ar  
  2   1   3  ar  
  3   1  21  1   
  4   2   4  ar  
  5   2   5  1   
  6   3   6  1   
  7   3   7  ar  
  8   4   8  ar  
  9   5   9  1   
 10   5  22  1   
 11   6  23  1   
 12   6  24  1   
 13   7   8  ar  
 14   7  10  1   
 15   8  11  1   
 16   9  12  1   
 17   9  13  1   
 18   9  25  1   
 19  10  14  2   
 20  10  26  1   
 21  11  14  1   
 22  11  15  1   
 23  12  16  2   
 24  12  17  1   
 25  13  27  1   
 26  13  28  1   
 27  13  29  1   
 28  15  30  1   
 29  15  31  1   
 30  15  32  1   
 31  16  18  1   
 32  16  33  1   
 33  17  19  1   
 34  17  34  1   
 35  17  35  1   
 36  18  20  1   
 37  18  36  1   
 38  18  37  1   
 39  19  20  1   
 40  19  38  1   
 41  19  39  1   
 42  20  40  1   
 43  20  41  1   
@<TRIPOS>SUBSTRUCTURE
  1 ****   2 GROUP 4 **** **** 0

# MOE 2024.06 (io_trps.svl 2023.06)
