@<TRIPOS>MOLECULE
NONAME
43 46 1 0 0 
SMALL
USER_CHARGES


@<TRIPOS>ATOM
  1 N       -0.9280    -0.0320     0.4070 N.ar  1 <1>  -0.3100 
  2 N        0.3820     0.0500     0.4070 N.ar  1 <1>  -0.3100 
  3 C       -1.5470    -1.2200     0.4750 C.ar  1 <1>   0.4100 
  4 C        1.1060    -1.0580     0.4840 C.ar  1 <1>   0.1660 
  5 N       -2.9420    -1.2440     0.4560 N.pl3 1 <1>  -0.8380 
  6 C       -0.8210    -2.3960     0.5640 C.ar  1 <1>  -0.1500 
  7 C        0.5500    -2.3160     0.5670 C.ar  1 <1>  -0.1500 
  8 C        2.6110    -0.8800     0.4790 C.3   1 <1>  -0.0970 
  9 C       -3.7520    -0.0200     0.7680 C.3   1 <1>   0.2090 
 10 C       -3.6940    -2.3780    -0.1610 C.3   1 <1>   0.2090 
 11 C       -4.4650     0.5430    -0.4870 C.3   1 <1>   0.1440 
 12 C       -5.0510    -1.9330    -0.7300 C.3   1 <1>  -0.1600 
 13 C       -5.6140     1.4090     0.0050 C.ar  1 <1>   0.1670 
 14 C       -4.9330    -0.5810    -1.4490 C.3   1 <1>  -0.1600 
 15 C       -3.5890     1.5820    -1.2350 C.3   1 <1>  -0.1600 
 16 N       -6.7600     0.9680     0.4800 N.ar  1 <1>  -0.6200 
 17 C       -5.3160     2.7360    -0.0860 C.ar  1 <1>  -0.1430 
 18 C       -3.9370     2.9610    -0.6530 C.3   1 <1>  -0.0170 
 19 C       -7.6020     1.9210     0.8530 C.ar  1 <1>   0.4770 
 20 C       -6.2620     3.6380     0.3320 C.ar  1 <1>   0.1600 
 21 N       -7.4230     3.2350     0.8080 N.ar  1 <1>  -0.6200 
 22 C       -8.9270     1.4520     1.4010 C.3   1 <1>  -0.0970 
 23 H       -1.3170    -3.3430     0.6380 H     1 <1>   0.1500 
 24 H        1.1580    -3.1990     0.6330 H     1 <1>   0.1500 
 25 H        2.9030    -0.2730     1.3170 H     1 <1>   0.0800 
 26 H        2.9120    -0.3870    -0.4270 H     1 <1>   0.0800 
 27 H        3.1140    -1.8270     0.5440 H     1 <1>   0.0800 
 28 H       -3.1470     0.7430     1.2250 H     1 <1>   0.0800 
 29 H       -4.4960    -0.2990     1.4940 H     1 <1>   0.0800 
 30 H       -3.8460    -3.1480     0.5760 H     1 <1>   0.0800 
 31 H       -3.1020    -2.7880    -0.9620 H     1 <1>   0.0800 
 32 H       -5.7680    -1.8570     0.0690 H     1 <1>   0.0800 
 33 H       -5.4090    -2.6820    -1.4140 H     1 <1>   0.0800 
 34 H       -4.2130    -0.6970    -2.2410 H     1 <1>   0.0800 
 35 H       -5.8740    -0.3140    -1.8980 H     1 <1>   0.0800 
 36 H       -3.8570     1.5900    -2.2770 H     1 <1>   0.0800 
 37 H       -2.5390     1.3650    -1.1620 H     1 <1>   0.0800 
 38 H       -3.9300     3.7250    -1.4110 H     1 <1>   0.0800 
 39 H       -3.2540     3.2200     0.1380 H     1 <1>   0.0800 
 40 H       -6.0700     4.6950     0.2780 H     1 <1>   0.1500 
 41 H       -9.2330     0.5510     0.9020 H     1 <1>   0.0800 
 42 H       -9.6780     2.2050     1.2520 H     1 <1>   0.0800 
 43 H       -8.8250     1.2570     2.4520 H     1 <1>   0.0800 
@<TRIPOS>BOND
  1   1   2  ar  
  2   1   3  ar  
  3   2   4  ar  
  4   3   5  1   
  5   3   6  ar  
  6   4   7  ar  
  7   4   8  1   
  8   5   9  1   
  9   5  10  1   
 10   6   7  ar  
 11   6  23  1   
 12   7  24  1   
 13   8  25  1   
 14   8  26  1   
 15   8  27  1   
 16   9  11  1   
 17   9  28  1   
 18   9  29  1   
 19  10  12  1   
 20  10  30  1   
 21  10  31  1   
 22  11  13  1   
 23  11  14  1   
 24  11  15  1   
 25  12  14  1   
 26  12  32  1   
 27  12  33  1   
 28  13  16  ar  
 29  13  17  ar  
 30  14  34  1   
 31  14  35  1   
 32  15  18  1   
 33  15  36  1   
 34  15  37  1   
 35  16  19  ar  
 36  17  18  1   
 37  17  20  ar  
 38  18  38  1   
 39  18  39  1   
 40  19  21  ar  
 41  19  22  1   
 42  20  21  ar  
 43  20  40  1   
 44  22  41  1   
 45  22  42  1   
 46  22  43  1   
@<TRIPOS>SUBSTRUCTURE
  1 ****   9 GROUP 4 **** **** 0

# MOE 2024.06 (io_trps.svl 2023.06)
