@<TRIPOS>MOLECULE
NONAME
55 57 1 0 0 
SMALL
USER_CHARGES


@<TRIPOS>ATOM
  1 S        1.4500     1.0450     0.1190 S.o2  1 <1>   1.3330 
  2 O        2.5650     1.9640     0.0460 O.2   1 <1>  -0.6500 
  3 O        1.1120     0.4520     1.3890 O.2   1 <1>  -0.6500 
  4 N        1.6250    -0.1550    -1.0620 N.am  1 <1>  -0.8490 
  5 C        0.0300     1.9900    -0.4330 C.3   1 <1>  -0.0550 
  6 C        3.0180    -0.5850    -1.2250 C.3   1 <1>   0.1160 
  7 C        0.7750    -1.3310    -0.8280 C.3   1 <1>   0.1160 
  8 C       -0.5710     2.9260     0.6490 C.3   1 <1>  -0.0800 
  9 C       -1.3330     4.0700    -0.0060 C.3   1 <1>   0.2000 
 10 C        0.4790     3.6600     1.4970 C.3   1 <1>   0.3430 
 11 O       -2.2680     4.5730     0.8890 O.3   1 <1>  -0.6800 
 12 C       -0.2500     5.1220    -0.2710 C.3   1 <1>   0.3430 
 13 N        0.8000     4.9440     0.7910 N.4   1 <1>  -0.9590 
 14 C        2.2110     5.0060     0.2830 C.3   1 <1>   0.4230 
 15 C        3.1930     4.8940     1.4610 C.3   1 <1>  -0.1600 
 16 C        2.4350     6.3100    -0.5000 C.3   1 <1>  -0.1600 
 17 C        4.6290     5.0300     0.9690 C.3   1 <1>   0.2090 
 18 C        3.8910     6.4310    -0.9420 C.3   1 <1>   0.2090 
 19 N        4.7380     6.3220     0.2600 N.pl3 1 <1>  -0.8380 
 20 C        6.0110     6.8660     0.1530 C.ar  1 <1>   0.1000 
 21 C        6.2650     8.1170     0.7080 C.ar  1 <1>  -0.1500 
 22 C        7.0370     6.1870    -0.5020 C.ar  1 <1>  -0.1500 
 23 C        7.5220     8.6890     0.6160 C.ar  1 <1>  -0.1500 
 24 C        8.3000     6.7440    -0.6010 C.ar  1 <1>  -0.1500 
 25 C        8.5180     7.9880    -0.0380 C.ar  1 <1>   0.1900 
 26 F        9.7100     8.5210    -0.1290 F     1 <1>  -0.1900 
 27 H        0.3290     2.5560    -1.2940 H     1 <1>   0.0800 
 28 H       -0.7390     1.3130    -0.7520 H     1 <1>   0.0800 
 29 H        3.0910    -1.3260    -2.0040 H     1 <1>   0.0800 
 30 H        3.3940    -1.0030    -0.3050 H     1 <1>   0.0800 
 31 H        3.6360     0.2530    -1.5030 H     1 <1>   0.0800 
 32 H        0.8670    -2.0230    -1.6480 H     1 <1>   0.0800 
 33 H       -0.2570    -1.0380    -0.7480 H     1 <1>   0.0800 
 34 H        1.0640    -1.8300     0.0830 H     1 <1>   0.0800 
 35 H       -1.2070     2.3330     1.2850 H     1 <1>   0.0800 
 36 H       -1.8580     3.7880    -0.9040 H     1 <1>   0.0800 
 37 H        1.3540     3.0580     1.6730 H     1 <1>   0.0800 
 38 H        0.0460     3.8880     2.4580 H     1 <1>   0.0800 
 39 H       -1.9390     4.6510     1.8050 H     1 <1>   0.4000 
 40 H       -0.6680     6.1160    -0.2660 H     1 <1>   0.0800 
 41 H        0.1830     4.9280    -1.2380 H     1 <1>   0.0800 
 42 H        0.7080     5.7140     1.4680 H     1 <1>   0.4500 
 43 H        2.3900     4.1810    -0.3860 H     1 <1>   0.0800 
 44 H        3.0110     5.6700     2.1830 H     1 <1>   0.0800 
 45 H        3.1180     3.9410     1.9470 H     1 <1>   0.0800 
 46 H        1.8290     6.3420    -1.3850 H     1 <1>   0.0800 
 47 H        2.2020     7.1620     0.1140 H     1 <1>   0.0800 
 48 H        4.8820     4.2200     0.3040 H     1 <1>   0.0800 
 49 H        5.3110     5.0160     1.8030 H     1 <1>   0.0800 
 50 H        4.0590     7.3840    -1.4160 H     1 <1>   0.0800 
 51 H        4.1490     5.6510    -1.6400 H     1 <1>   0.0800 
 52 H        5.4690     8.6330     1.2110 H     1 <1>   0.1500 
 53 H        6.8430     5.2230    -0.9330 H     1 <1>   0.1500 
 54 H        7.7300     9.6530     1.0410 H     1 <1>   0.1500 
 55 H        9.1000     6.2310    -1.1020 H     1 <1>   0.1500 
@<TRIPOS>BOND
  1   1   2  2   
  2   1   3  2   
  3   1   4  am  
  4   1   5  1   
  5   4   6  1   
  6   4   7  1   
  7   5   8  1   
  8   5  27  1   
  9   5  28  1   
 10   6  29  1   
 11   6  30  1   
 12   6  31  1   
 13   7  32  1   
 14   7  33  1   
 15   7  34  1   
 16   8   9  1   
 17   8  10  1   
 18   8  35  1   
 19   9  11  1   
 20   9  12  1   
 21   9  36  1   
 22  10  13  1   
 23  10  37  1   
 24  10  38  1   
 25  11  39  1   
 26  12  13  1   
 27  12  40  1   
 28  12  41  1   
 29  13  14  1   
 30  13  42  1   
 31  14  15  1   
 32  14  16  1   
 33  14  43  1   
 34  15  17  1   
 35  15  44  1   
 36  15  45  1   
 37  16  18  1   
 38  16  46  1   
 39  16  47  1   
 40  17  19  1   
 41  17  48  1   
 42  17  49  1   
 43  18  19  1   
 44  18  50  1   
 45  18  51  1   
 46  19  20  1   
 47  20  21  ar  
 48  20  22  ar  
 49  21  23  ar  
 50  21  52  1   
 51  22  24  ar  
 52  22  53  1   
 53  23  25  ar  
 54  23  54  1   
 55  24  25  ar  
 56  24  55  1   
 57  25  26  1   
@<TRIPOS>SUBSTRUCTURE
  1 ****  14 GROUP 4 **** **** 0

# MOE 2024.06 (io_trps.svl 2023.06)
