@<TRIPOS>MOLECULE
NONAME
44 46 1 0 0 
SMALL
USER_CHARGES


@<TRIPOS>ATOM
  1 CL      -0.8390    -4.3500    -2.7260 Cl    1 <1>  -0.1770 
  2 C       -1.8460    -3.6490    -1.4790 C.ar  1 <1>   0.1770 
  3 C       -2.2950    -2.3370    -1.5720 C.ar  1 <1>   0.0820 
  4 C       -2.2040    -4.4470    -0.4100 C.ar  1 <1>  -0.1500 
  5 O       -1.9790    -1.5410    -2.6160 O.3   1 <1>  -0.3630 
  6 C       -3.1210    -1.8340    -0.5800 C.ar  1 <1>  -0.1500 
  7 C       -3.0400    -3.9440     0.5790 C.ar  1 <1>  -0.1430 
  8 C       -0.6910    -0.9670    -2.6100 C.3   1 <1>   0.0400 
  9 C       -3.4900    -2.6320     0.4910 C.ar  1 <1>  -0.1500 
 10 C       -3.4740    -4.8410     1.7210 C.3   1 <1>   0.4870 
 11 N       -4.5310    -5.7270     1.1830 N.4   1 <1>  -0.9590 
 12 C       -5.8610    -5.0820     0.9730 C.3   1 <1>   0.3430 
 13 C       -4.7760    -7.0010     1.8920 C.3   1 <1>   0.3430 
 14 C       -6.8880    -6.2230     1.0300 C.3   1 <1>   0.2000 
 15 C       -6.0940    -7.5100     1.3020 C.3   1 <1>  -0.0800 
 16 O       -7.7670    -6.0010     2.0830 O.3   1 <1>  -0.6800 
 17 C       -5.8960    -8.3790     0.0310 C.3   1 <1>  -0.0170 
 18 C       -4.8410    -7.8930    -0.9630 C.ar  1 <1>   0.1670 
 19 N       -5.0300    -6.7000    -1.5090 N.ar  1 <1>  -0.6200 
 20 C       -3.7390    -8.6970    -1.2530 C.ar  1 <1>   0.1600 
 21 C       -4.0880    -6.3910    -2.3910 C.ar  1 <1>   0.1600 
 22 N       -2.7720    -8.3620    -2.0870 N.ar  1 <1>  -0.6200 
 23 C       -2.9910    -7.1950    -2.6670 C.ar  1 <1>   0.1600 
 24 H       -1.8270    -5.4550    -0.3720 H     1 <1>   0.1500 
 25 H       -3.4720    -0.8190    -0.6560 H     1 <1>   0.1500 
 26 H       -0.5990    -0.3420    -3.4800 H     1 <1>   0.0800 
 27 H        0.0480    -1.7470    -2.6410 H     1 <1>   0.0800 
 28 H       -0.5770    -0.3750    -1.7190 H     1 <1>   0.0800 
 29 H       -4.1330    -2.2150     1.2480 H     1 <1>   0.1500 
 30 H       -3.8460    -4.2580     2.5480 H     1 <1>   0.0800 
 31 H       -2.6310    -5.4240     2.0540 H     1 <1>   0.0800 
 32 H       -4.2450    -5.9810     0.2170 H     1 <1>   0.4500 
 33 H       -6.0720    -4.3620     1.7450 H     1 <1>   0.0800 
 34 H       -5.8890    -4.5990     0.0090 H     1 <1>   0.0800 
 35 H       -3.9720    -7.7030     1.7400 H     1 <1>   0.0800 
 36 H       -4.8980    -6.8150     2.9470 H     1 <1>   0.0800 
 37 H       -7.4700    -6.2700     0.1230 H     1 <1>   0.0800 
 38 H       -6.6100    -8.1200     2.0250 H     1 <1>   0.0800 
 39 H       -7.3620    -6.1190     2.9640 H     1 <1>   0.4000 
 40 H       -6.8350    -8.4660    -0.4880 H     1 <1>   0.0800 
 41 H       -5.6350    -9.3740     0.3460 H     1 <1>   0.0800 
 42 H       -3.6450    -9.6580    -0.7790 H     1 <1>   0.1500 
 43 H       -4.1820    -5.4550    -2.9190 H     1 <1>   0.1500 
 44 H       -2.2680    -6.8600    -3.3930 H     1 <1>   0.1500 
@<TRIPOS>BOND
  1   1   2  1   
  2   2   3  ar  
  3   2   4  ar  
  4   3   5  1   
  5   3   6  ar  
  6   4   7  ar  
  7   4  24  1   
  8   5   8  1   
  9   6   9  ar  
 10   6  25  1   
 11   7   9  ar  
 12   7  10  1   
 13   8  26  1   
 14   8  27  1   
 15   8  28  1   
 16   9  29  1   
 17  10  11  1   
 18  10  30  1   
 19  10  31  1   
 20  11  12  1   
 21  11  13  1   
 22  11  32  1   
 23  12  14  1   
 24  12  33  1   
 25  12  34  1   
 26  13  15  1   
 27  13  35  1   
 28  13  36  1   
 29  14  15  1   
 30  14  16  1   
 31  14  37  1   
 32  15  17  1   
 33  15  38  1   
 34  16  39  1   
 35  17  18  1   
 36  17  40  1   
 37  17  41  1   
 38  18  19  ar  
 39  18  20  ar  
 40  19  21  ar  
 41  20  22  ar  
 42  20  42  1   
 43  21  23  ar  
 44  21  43  1   
 45  22  23  ar  
 46  23  44  1   
@<TRIPOS>SUBSTRUCTURE
  1 ****   4 GROUP 4 **** **** 0

# MOE 2024.06 (io_trps.svl 2023.06)
