@<TRIPOS>MOLECULE
NONAME
40 41 1 0 0 
SMALL
USER_CHARGES


@<TRIPOS>ATOM
  1 O        1.5080    -1.4310     2.2000 O.co2 1 <1>  -0.9000 
  2 C        1.7230    -0.8900     1.1180 C.2   1 <1>   0.9060 
  3 O        0.9840    -0.9960     0.1320 O.co2 1 <1>  -0.9000 
  4 C        2.9880    -0.0770     0.9630 C.3   1 <1>  -0.1860 
  5 C        3.7970    -0.6160    -0.2200 C.3   1 <1>   0.2000 
  6 C        2.7070     1.4440     0.8380 C.3   1 <1>  -0.1600 
  7 O        3.0510    -0.4500    -1.3750 O.3   1 <1>  -0.6800 
  8 C        5.1160     0.1650    -0.3780 C.3   1 <1>   0.3430 
  9 C        3.6060     2.1500    -0.1810 C.3   1 <1>   0.3430 
 10 N        5.0070     1.6410    -0.0590 N.4   1 <1>  -0.9590 
 11 C        5.9460     2.4340    -0.8860 C.3   1 <1>   0.4860 
 12 C        6.0120     3.8440    -0.3340 C.ar  1 <1>  -0.1440 
 13 C        5.3520     4.8770    -0.9810 C.ar  1 <1>  -0.1500 
 14 C        6.7270     4.1130     0.8210 C.ar  1 <1>  -0.1500 
 15 C        5.3890     6.1690    -0.4800 C.ar  1 <1>  -0.1440 
 16 C        6.7690     5.4000     1.3240 C.ar  1 <1>  -0.1500 
 17 C        6.1030     6.4320     0.6840 C.ar  1 <1>  -0.1440 
 18 C        4.6490     7.2740    -1.2210 C.3   1 <1>  -0.0970 
 19 C        6.1760     7.8350     1.2720 C.3   1 <1>  -0.0970 
 20 H        3.5650    -0.2410     1.8540 H     1 <1>   0.0800 
 21 H        3.9840    -1.6710    -0.1070 H     1 <1>   0.0800 
 22 H        2.8020     1.9080     1.8030 H     1 <1>   0.0800 
 23 H        1.6870     1.5910     0.5220 H     1 <1>   0.0800 
 24 H        2.1090    -0.7170    -1.1300 H     1 <1>   0.4000 
 25 H        5.4520     0.0250    -1.3910 H     1 <1>   0.0800 
 26 H        5.8490    -0.2760     0.2770 H     1 <1>   0.0800 
 27 H        3.5680     3.2150    -0.0130 H     1 <1>   0.0800 
 28 H        3.2380     1.9470    -1.1740 H     1 <1>   0.0800 
 29 H        5.2580     1.7840     0.9250 H     1 <1>   0.4500 
 30 H        6.9300     1.9970    -0.8520 H     1 <1>   0.0800 
 31 H        5.6130     2.4510    -1.9110 H     1 <1>   0.0800 
 32 H        4.8010     4.6820    -1.8850 H     1 <1>   0.1500 
 33 H        7.2610     3.3360     1.3400 H     1 <1>   0.1500 
 34 H        7.3300     5.5980     2.2220 H     1 <1>   0.1500 
 35 H        4.1470     6.8930    -2.0920 H     1 <1>   0.0800 
 36 H        5.3430     8.0310    -1.5390 H     1 <1>   0.0800 
 37 H        3.9140     7.7230    -0.5780 H     1 <1>   0.0800 
 38 H        6.7700     7.8490     2.1680 H     1 <1>   0.0800 
 39 H        5.1900     8.1850     1.5180 H     1 <1>   0.0800 
 40 H        6.6210     8.5090     0.5640 H     1 <1>   0.0800 
@<TRIPOS>BOND
  1   1   2  ar  
  2   2   3  ar  
  3   2   4  1   
  4   4   5  1   
  5   4   6  1   
  6   4  20  1   
  7   5   7  1   
  8   5   8  1   
  9   5  21  1   
 10   6   9  1   
 11   6  22  1   
 12   6  23  1   
 13   7  24  1   
 14   8  10  1   
 15   8  25  1   
 16   8  26  1   
 17   9  10  1   
 18   9  27  1   
 19   9  28  1   
 20  10  11  1   
 21  10  29  1   
 22  11  12  1   
 23  11  30  1   
 24  11  31  1   
 25  12  13  ar  
 26  12  14  ar  
 27  13  15  ar  
 28  13  32  1   
 29  14  16  ar  
 30  14  33  1   
 31  15  17  ar  
 32  15  18  1   
 33  16  17  ar  
 34  16  34  1   
 35  17  19  1   
 36  18  35  1   
 37  18  36  1   
 38  18  37  1   
 39  19  38  1   
 40  19  39  1   
 41  19  40  1   
@<TRIPOS>SUBSTRUCTURE
  1 ****   9 GROUP 4 **** **** 0

# MOE 2024.06 (io_trps.svl 2023.06)
