@<TRIPOS>MOLECULE
NONAME
49 52 1 0 0 
SMALL
USER_CHARGES


@<TRIPOS>ATOM
  1 F       -1.3720    -2.0870     2.3590 F     1 <1>  -0.3400 
  2 C       -2.1630    -2.2610     1.3040 C.3   1 <1>   1.1640 
  3 F       -2.5480    -3.5310     1.3710 F     1 <1>  -0.3400 
  4 F       -1.3600    -2.1510     0.2510 F     1 <1>  -0.3400 
  5 C       -3.3280    -1.2660     1.2950 C.ar  1 <1>  -0.1440 
  6 C       -4.2760    -1.3430     0.2500 C.ar  1 <1>   0.3100 
  7 C       -3.4560    -0.3100     2.2800 C.ar  1 <1>  -0.1500 
  8 N       -4.0980    -2.2570    -0.7380 N.ar  1 <1>  -0.6200 
  9 C       -5.3780    -0.4510     0.2550 C.ar  1 <1>   0.0000 
 10 C       -4.5160     0.5950     2.2620 C.ar  1 <1>  -0.1500 
 11 C       -4.9840    -2.3040    -1.6880 C.ar  1 <1>   0.1600 
 12 C       -6.3510    -0.5660    -0.7720 C.ar  1 <1>   0.1000 
 13 C       -5.4480     0.5260     1.2670 C.ar  1 <1>  -0.1500 
 14 C       -6.1100    -1.4940    -1.7500 C.ar  1 <1>  -0.1500 
 15 N       -7.5120     0.1960    -0.7960 N.pl3 1 <1>  -0.8380 
 16 C       -8.5200     0.1070     0.3070 C.3   1 <1>   0.2090 
 17 C       -7.9600     0.9250    -2.0090 C.3   1 <1>   0.2090 
 18 C       -9.8540    -0.5060    -0.1870 C.3   1 <1>   0.0000 
 19 C       -9.2750     0.3320    -2.5260 C.3   1 <1>  -0.1600 
 20 C      -10.9090    -0.5140     0.9340 C.3   1 <1>   0.2000 
 21 C      -10.3510     0.2690    -1.4280 C.3   1 <1>  -0.1600 
 22 C       -9.6890    -2.0100    -0.4670 C.3   1 <1>  -0.1600 
 23 O      -10.8660     0.6590     1.6900 O.3   1 <1>  -0.5600 
 24 C      -10.5920    -1.7400     1.7960 C.3   1 <1>  -0.1600 
 25 C       -9.8090    -2.7030     0.8940 C.3   1 <1>  -0.1600 
 26 C      -11.9770     0.8770     2.5010 C.3   1 <1>   0.0400 
 27 H       -2.7470    -0.2270     3.0870 H     1 <1>   0.1500 
 28 H       -4.5870     1.3440     3.0330 H     1 <1>   0.1500 
 29 H       -4.8360    -3.0240    -2.4750 H     1 <1>   0.1500 
 30 H       -6.2570     1.2340     1.2440 H     1 <1>   0.1500 
 31 H       -6.7980    -1.6150    -2.5620 H     1 <1>   0.1500 
 32 H       -8.1220    -0.4800     1.1160 H     1 <1>   0.0800 
 33 H       -8.6950     1.1020     0.6790 H     1 <1>   0.0800 
 34 H       -8.1040     1.9610    -1.7540 H     1 <1>   0.0800 
 35 H       -7.2010     0.8710    -2.7710 H     1 <1>   0.0800 
 36 H       -9.6320     0.9330    -3.3420 H     1 <1>   0.0800 
 37 H       -9.0850    -0.6540    -2.9100 H     1 <1>   0.0800 
 38 H      -11.8880    -0.6170     0.4960 H     1 <1>   0.0800 
 39 H      -11.2420    -0.1870    -1.8210 H     1 <1>   0.0800 
 40 H      -10.6010     1.2720    -1.1290 H     1 <1>   0.0800 
 41 H      -10.4890    -2.3510    -1.1000 H     1 <1>   0.0800 
 42 H       -8.7550    -2.2420    -0.9450 H     1 <1>   0.0800 
 43 H       -9.9790    -1.4570     2.6350 H     1 <1>   0.0800 
 44 H      -11.4980    -2.1980     2.1490 H     1 <1>   0.0800 
 45 H       -8.8270    -2.8670     1.3060 H     1 <1>   0.0800 
 46 H      -10.3080    -3.6530     0.8000 H     1 <1>   0.0800 
 47 H      -11.8360     1.8110     3.0160 H     1 <1>   0.0800 
 48 H      -12.0610     0.0790     3.2180 H     1 <1>   0.0800 
 49 H      -12.8600     0.9310     1.8880 H     1 <1>   0.0800 
@<TRIPOS>BOND
  1   1   2  1   
  2   2   3  1   
  3   2   4  1   
  4   2   5  1   
  5   5   6  ar  
  6   5   7  ar  
  7   6   8  ar  
  8   6   9  ar  
  9   7  10  ar  
 10   7  27  1   
 11   8  11  ar  
 12   9  12  ar  
 13   9  13  ar  
 14  10  13  ar  
 15  10  28  1   
 16  11  14  ar  
 17  11  29  1   
 18  12  14  ar  
 19  12  15  1   
 20  13  30  1   
 21  14  31  1   
 22  15  16  1   
 23  15  17  1   
 24  16  18  1   
 25  16  32  1   
 26  16  33  1   
 27  17  19  1   
 28  17  34  1   
 29  17  35  1   
 30  18  20  1   
 31  18  21  1   
 32  18  22  1   
 33  19  21  1   
 34  19  36  1   
 35  19  37  1   
 36  20  23  1   
 37  20  24  1   
 38  20  38  1   
 39  21  39  1   
 40  21  40  1   
 41  22  25  1   
 42  22  41  1   
 43  22  42  1   
 44  23  26  1   
 45  24  25  1   
 46  24  43  1   
 47  24  44  1   
 48  25  45  1   
 49  25  46  1   
 50  26  47  1   
 51  26  48  1   
 52  26  49  1   
@<TRIPOS>SUBSTRUCTURE
  1 ****  12 GROUP 4 **** **** 0

# MOE 2024.06 (io_trps.svl 2023.06)
