@<TRIPOS>MOLECULE
NONAME
50 53 1 0 0 
SMALL
USER_CHARGES


@<TRIPOS>ATOM
  1 O        0.1960    -0.4010     0.6990 O.3   1 <1>  -0.0190 
  2 N       -0.0410     0.8380     0.3970 N.2   1 <1>  -0.4100 
  3 C        0.7000    -1.0590    -0.3090 C.2   1 <1>  -0.0400 
  4 C        0.3300     0.9910    -0.8230 C.2   1 <1>   0.1080 
  5 C        0.8220    -0.2060    -1.3390 C.2   1 <1>  -0.1500 
  6 C        1.0320    -2.5270    -0.1420 C.3   1 <1>   0.5230 
  7 C        0.2390     2.2970    -1.5820 C.3   1 <1>  -0.0590 
  8 N       -0.2050    -3.3620    -0.2310 N.4   1 <1>  -0.9590 
  9 C       -1.1590    -3.0940     0.8880 C.3   1 <1>   0.3430 
 10 C        0.1310    -4.8090    -0.3390 C.3   1 <1>   0.3430 
 11 C       -2.4560    -3.8570     0.6440 C.3   1 <1>  -0.1600 
 12 C       -1.1380    -5.6060    -0.6160 C.3   1 <1>  -0.1600 
 13 C       -2.2160    -5.3620     0.4510 C.3   1 <1>   0.1010 
 14 C       -3.5120    -6.0470     0.0480 C.2   1 <1>   0.1080 
 15 N       -4.1300    -5.7760    -1.0600 N.2   1 <1>  -0.7070 
 16 C       -4.1720    -7.0150     0.7970 C.2   1 <1>  -0.1500 
 17 N       -5.2180    -6.5740    -1.0470 N.pl3 1 <1>   0.3000 
 18 C       -5.2610    -7.3350     0.0650 C.2   1 <1>  -0.3320 
 19 C       -6.3740    -8.3300     0.3440 C.3   1 <1>   0.1630 
 20 C       -7.6820    -7.8540    -0.2720 C.ar  1 <1>  -0.1440 
 21 C       -8.3240    -6.7380     0.2420 C.ar  1 <1>  -0.1500 
 22 C       -8.2370    -8.5180    -1.3560 C.ar  1 <1>  -0.1500 
 23 C       -9.5070    -6.2890    -0.3200 C.ar  1 <1>  -0.1500 
 24 C       -9.4200    -8.0700    -1.9190 C.ar  1 <1>  -0.1500 
 25 C      -10.0550    -6.9550    -1.4010 C.ar  1 <1>  -0.1500 
 26 H        1.1990    -0.3510    -2.3360 H     1 <1>   0.1500 
 27 H        1.5220    -2.6790     0.8060 H     1 <1>   0.0800 
 28 H        1.7140    -2.8120    -0.9250 H     1 <1>   0.0800 
 29 H       -0.1300     3.0730    -0.9360 H     1 <1>   0.0800 
 30 H       -0.4320     2.1920    -2.4140 H     1 <1>   0.0800 
 31 H        1.2100     2.5810    -1.9430 H     1 <1>   0.0800 
 32 H       -0.6930    -3.0870    -1.0950 H     1 <1>   0.4500 
 33 H       -1.3850    -2.0410     0.9470 H     1 <1>   0.0800 
 34 H       -0.7250    -3.4000     1.8260 H     1 <1>   0.0800 
 35 H        0.5800    -5.1530     0.5790 H     1 <1>   0.0800 
 36 H        0.8320    -4.9700    -1.1430 H     1 <1>   0.0800 
 37 H       -2.9440    -3.4510    -0.2260 H     1 <1>   0.0800 
 38 H       -3.1200    -3.7080     1.4770 H     1 <1>   0.0800 
 39 H       -0.9040    -6.6560    -0.6460 H     1 <1>   0.0800 
 40 H       -1.5180    -5.3390    -1.5880 H     1 <1>   0.0800 
 41 H       -1.8840    -5.7830     1.3850 H     1 <1>   0.0800 
 42 H       -3.8660    -7.4100     1.7490 H     1 <1>   0.1500 
 43 H       -5.9310    -6.5690    -1.7900 H     1 <1>   0.2700 
 44 H       -6.4970    -8.4500     1.4060 H     1 <1>   0.0800 
 45 H       -6.1010    -9.2870    -0.0650 H     1 <1>   0.0800 
 46 H       -7.9020    -6.2120     1.0810 H     1 <1>   0.1500 
 47 H       -7.7550    -9.3860    -1.7700 H     1 <1>   0.1500 
 48 H       -9.9990    -5.4220     0.0850 H     1 <1>   0.1500 
 49 H       -9.8480    -8.5890    -2.7590 H     1 <1>   0.1500 
 50 H      -10.9750    -6.6070    -1.8380 H     1 <1>   0.1500 
@<TRIPOS>BOND
  1   1   2  1   
  2   1   3  1   
  3   2   4  2   
  4   3   5  2   
  5   3   6  1   
  6   4   5  1   
  7   4   7  1   
  8   5  26  1   
  9   6   8  1   
 10   6  27  1   
 11   6  28  1   
 12   7  29  1   
 13   7  30  1   
 14   7  31  1   
 15   8   9  1   
 16   8  10  1   
 17   8  32  1   
 18   9  11  1   
 19   9  33  1   
 20   9  34  1   
 21  10  12  1   
 22  10  35  1   
 23  10  36  1   
 24  11  13  1   
 25  11  37  1   
 26  11  38  1   
 27  12  13  1   
 28  12  39  1   
 29  12  40  1   
 30  13  14  1   
 31  13  41  1   
 32  14  15  2   
 33  14  16  1   
 34  15  17  1   
 35  16  18  2   
 36  16  42  1   
 37  17  18  1   
 38  17  43  1   
 39  18  19  1   
 40  19  20  1   
 41  19  44  1   
 42  19  45  1   
 43  20  21  ar  
 44  20  22  ar  
 45  21  23  ar  
 46  21  46  1   
 47  22  24  ar  
 48  22  47  1   
 49  23  25  ar  
 50  23  48  1   
 51  24  25  ar  
 52  24  49  1   
 53  25  50  1   
@<TRIPOS>SUBSTRUCTURE
  1 ****  11 GROUP 4 **** **** 0

# MOE 2024.06 (io_trps.svl 2023.06)
