@<TRIPOS>MOLECULE
NONAME
49 52 1 0 0 
SMALL
USER_CHARGES


@<TRIPOS>ATOM
  1 O       -0.5110     5.3990     0.9990 O.2   1 <1>  -0.5700 
  2 C       -0.4760     4.2180     0.6990 C.2   1 <1>   0.6160 
  3 N       -1.6710     3.5620     0.4740 N.am  1 <1>  -0.6600 
  4 C        0.8090     3.6040     0.5090 C.2   1 <1>   0.0290 
  5 C       -2.9910     4.2090     0.7550 C.3   1 <1>   0.1400 
  6 C       -1.7690     2.2230    -0.1820 C.3   1 <1>   0.1400 
  7 C        1.1490     2.4220     1.2430 C.2   1 <1>   0.6160 
  8 C        1.7460     4.1350    -0.3470 C.2   1 <1>  -0.1500 
  9 C       -3.7410     4.5070    -0.5630 C.3   1 <1>   0.1440 
 10 C       -3.0850     2.0650    -0.9670 C.3   1 <1>  -0.1600 
 11 O        0.4170     1.8580     2.0410 O.2   1 <1>  -0.5700 
 12 N        2.3840     1.8610     1.0440 N.am  1 <1>  -0.5390 
 13 C        3.0050     3.5210    -0.5150 C.2   1 <1>  -0.1500 
 14 C       -5.2080     4.7130    -0.2240 C.ar  1 <1>   0.1670 
 15 C       -3.5180     3.3890    -1.6190 C.3   1 <1>  -0.1600 
 16 C       -3.3440     5.8950    -1.1280 C.3   1 <1>  -0.1600 
 17 C        3.3070     2.3920     0.1820 C.2   1 <1>  -0.0410 
 18 N       -6.0700     3.7650     0.0530 N.ar  1 <1>  -0.6200 
 19 C       -5.5400     6.0350    -0.2300 C.ar  1 <1>  -0.1430 
 20 C       -4.3590     6.9080    -0.5710 C.3   1 <1>  -0.0170 
 21 C       -7.3110     4.1810     0.3230 C.ar  1 <1>   0.7200 
 22 C       -6.8370     6.3690     0.0630 C.ar  1 <1>   0.1600 
 23 N       -7.7310     5.4500     0.3410 N.ar  1 <1>  -0.6200 
 24 N       -8.2470     3.2060     0.6120 N.pl3 1 <1>  -0.8380 
 25 C       -7.9930     1.7630     0.3480 C.3   1 <1>   0.1290 
 26 C       -9.5760     3.5350     1.1980 C.3   1 <1>   0.1290 
 27 H       -2.8700     5.1100     1.3300 H     1 <1>   0.0800 
 28 H       -3.5750     3.5300     1.3530 H     1 <1>   0.0800 
 29 H       -1.7020     1.4520     0.5680 H     1 <1>   0.0800 
 30 H       -0.9440     2.1040    -0.8620 H     1 <1>   0.0800 
 31 H        1.5320     5.0350    -0.8980 H     1 <1>   0.1500 
 32 H       -3.8600     1.7290    -0.2980 H     1 <1>   0.0800 
 33 H       -2.9620     1.3050    -1.7180 H     1 <1>   0.0800 
 34 H        2.5650     1.0270     1.6060 H     1 <1>   0.3700 
 35 H        3.7120     3.9630    -1.1970 H     1 <1>   0.1500 
 36 H       -2.7390     3.6860    -2.2990 H     1 <1>   0.0800 
 37 H       -4.4160     3.2440    -2.1940 H     1 <1>   0.0800 
 38 H       -3.4430     5.8880    -2.2000 H     1 <1>   0.0800 
 39 H       -2.3320     6.1640    -0.8810 H     1 <1>   0.0800 
 40 H        4.2590     1.8920     0.0840 H     1 <1>   0.1500 
 41 H       -4.6100     7.6600    -1.2990 H     1 <1>   0.0800 
 42 H       -3.9790     7.3710     0.3230 H     1 <1>   0.0800 
 43 H       -7.1450     7.4000     0.0700 H     1 <1>   0.1500 
 44 H       -7.3230     1.6450    -0.4860 H     1 <1>   0.0800 
 45 H       -8.9150     1.2620     0.1140 H     1 <1>   0.0800 
 46 H       -7.5520     1.3120     1.2190 H     1 <1>   0.0800 
 47 H       -9.5130     4.4240     1.8030 H     1 <1>   0.0800 
 48 H       -9.9180     2.7270     1.8200 H     1 <1>   0.0800 
 49 H      -10.2850     3.7020     0.4060 H     1 <1>   0.0800 
@<TRIPOS>BOND
  1   1   2  2   
  2   2   3  am  
  3   2   4  1   
  4   3   5  1   
  5   3   6  1   
  6   4   7  1   
  7   4   8  2   
  8   5   9  1   
  9   5  27  1   
 10   5  28  1   
 11   6  10  1   
 12   6  29  1   
 13   6  30  1   
 14   7  11  2   
 15   7  12  am  
 16   8  13  1   
 17   8  31  1   
 18   9  14  1   
 19   9  15  1   
 20   9  16  1   
 21  10  15  1   
 22  10  32  1   
 23  10  33  1   
 24  12  17  1   
 25  12  34  1   
 26  13  17  2   
 27  13  35  1   
 28  14  18  ar  
 29  14  19  ar  
 30  15  36  1   
 31  15  37  1   
 32  16  20  1   
 33  16  38  1   
 34  16  39  1   
 35  17  40  1   
 36  18  21  ar  
 37  19  20  1   
 38  19  22  ar  
 39  20  41  1   
 40  20  42  1   
 41  21  23  ar  
 42  21  24  1   
 43  22  23  ar  
 44  22  43  1   
 45  24  25  1   
 46  24  26  1   
 47  25  44  1   
 48  25  45  1   
 49  25  46  1   
 50  26  47  1   
 51  26  48  1   
 52  26  49  1   
@<TRIPOS>SUBSTRUCTURE
  1 ****   5 GROUP 4 **** **** 0

# MOE 2024.06 (io_trps.svl 2023.06)
