@<TRIPOS>MOLECULE
NONAME
53 56 1 0 0 
SMALL
USER_CHARGES


@<TRIPOS>ATOM
  1 O       -0.4060     0.0710    -0.5350 O.2   1 <1>  -0.5700 
  2 C       -0.3040     1.2780    -0.4190 C.2   1 <1>   0.6900 
  3 N       -1.4250     2.0670    -0.4280 N.am  1 <1>  -0.6600 
  4 N        0.9160     1.8820    -0.3080 N.am  1 <1>  -0.5470 
  5 C       -1.4660     3.4310     0.1760 C.3   1 <1>   0.1400 
  6 C       -2.7210     1.4920    -0.8920 C.3   1 <1>   0.1400 
  7 C        2.2040     1.3630    -0.1230 C.ar  1 <1>   0.1170 
  8 C       -2.8270     3.6570     0.8330 C.3   1 <1>  -0.1600 
  9 C       -3.6800     2.6040    -1.3250 C.3   1 <1>  -0.1600 
 10 C        3.2970     2.1080    -0.4960 C.ar  1 <1>  -0.1500 
 11 C        2.4260     0.1010     0.4570 C.ar  1 <1>  -0.1500 
 12 C       -3.9660     3.6360    -0.2070 C.3   1 <1>   0.2800 
 13 C        4.6160     1.6490    -0.3190 C.ar  1 <1>   0.0000 
 14 C        3.6930    -0.3740     0.6410 C.ar  1 <1>  -0.1500 
 15 O       -3.9580     4.8770    -0.8600 O.3   1 <1>  -0.5600 
 16 C       -5.3280     3.3610     0.4810 C.3   1 <1>  -0.1600 
 17 C        4.8210     0.3790     0.2610 C.ar  1 <1>   0.0000 
 18 C        5.7430     2.4070    -0.7000 C.ar  1 <1>  -0.1500 
 19 C       -4.6580     5.9570    -0.3060 C.3   1 <1>   0.1200 
 20 C       -6.5010     4.1480    -0.1180 C.3   1 <1>   0.2800 
 21 C        6.1400    -0.0820     0.4390 C.ar  1 <1>  -0.1500 
 22 C        7.0130     1.9350    -0.5160 C.ar  1 <1>  -0.1500 
 23 C       -6.1610     5.6660    -0.1110 C.3   1 <1>   0.2000 
 24 O       -6.6850     3.7410    -1.4260 O.3   1 <1>  -0.6800 
 25 C       -7.8210     3.8020     0.5850 C.3   1 <1>  -0.2400 
 26 C        7.2150     0.6750     0.0600 C.ar  1 <1>  -0.1500 
 27 O       -6.5360     6.2620     1.0990 O.3   1 <1>  -0.6800 
 28 H        0.8680     2.8720    -0.5160 H     1 <1>   0.3700 
 29 H       -0.6940     3.5290     0.9190 H     1 <1>   0.0800 
 30 H       -1.3070     4.1680    -0.5940 H     1 <1>   0.0800 
 31 H       -2.5400     0.8280    -1.7210 H     1 <1>   0.0800 
 32 H       -3.1540     0.9160    -0.0920 H     1 <1>   0.0800 
 33 H       -2.8220     4.5890     1.3670 H     1 <1>   0.0800 
 34 H       -2.9730     2.8760     1.5580 H     1 <1>   0.0800 
 35 H       -4.5920     2.1570    -1.6710 H     1 <1>   0.0800 
 36 H       -3.2350     3.0980    -2.1710 H     1 <1>   0.0800 
 37 H        3.1590     3.0750    -0.9410 H     1 <1>   0.1500 
 38 H        1.5800    -0.4900     0.7590 H     1 <1>   0.1500 
 39 H        3.8480    -1.3420     1.0830 H     1 <1>   0.1500 
 40 H       -5.5400     2.3070     0.4810 H     1 <1>   0.0800 
 41 H       -5.2510     3.6420     1.5150 H     1 <1>   0.0800 
 42 H        5.5850     3.3730    -1.1430 H     1 <1>   0.1500 
 43 H       -4.1900     6.2100     0.6280 H     1 <1>   0.0800 
 44 H       -4.5440     6.7860    -0.9810 H     1 <1>   0.0800 
 45 H        6.2870    -1.0510     0.8810 H     1 <1>   0.1500 
 46 H        7.8690     2.5180    -0.8090 H     1 <1>   0.1500 
 47 H       -6.7290     6.1580    -0.8810 H     1 <1>   0.0800 
 48 H       -6.9910     2.8180    -1.4460 H     1 <1>   0.4000 
 49 H       -7.7610     4.0260     1.6340 H     1 <1>   0.0800 
 50 H       -8.0510     2.7570     0.4830 H     1 <1>   0.0800 
 51 H       -8.6220     4.3850     0.1670 H     1 <1>   0.0800 
 52 H        8.2200     0.3170     0.1980 H     1 <1>   0.1500 
 53 H       -6.0960     5.8170     1.8470 H     1 <1>   0.4000 
@<TRIPOS>BOND
  1   1   2  2   
  2   2   3  am  
  3   2   4  am  
  4   3   5  1   
  5   3   6  1   
  6   4   7  1   
  7   4  28  1   
  8   5   8  1   
  9   5  29  1   
 10   5  30  1   
 11   6   9  1   
 12   6  31  1   
 13   6  32  1   
 14   7  10  ar  
 15   7  11  ar  
 16   8  12  1   
 17   8  33  1   
 18   8  34  1   
 19   9  12  1   
 20   9  35  1   
 21   9  36  1   
 22  10  13  ar  
 23  10  37  1   
 24  11  14  ar  
 25  11  38  1   
 26  12  15  1   
 27  12  16  1   
 28  13  17  ar  
 29  13  18  ar  
 30  14  17  ar  
 31  14  39  1   
 32  15  19  1   
 33  16  20  1   
 34  16  40  1   
 35  16  41  1   
 36  17  21  ar  
 37  18  22  ar  
 38  18  42  1   
 39  19  23  1   
 40  19  43  1   
 41  19  44  1   
 42  20  23  1   
 43  20  24  1   
 44  20  25  1   
 45  21  26  ar  
 46  21  45  1   
 47  22  26  ar  
 48  22  46  1   
 49  23  27  1   
 50  23  47  1   
 51  24  48  1   
 52  25  49  1   
 53  25  50  1   
 54  25  51  1   
 55  26  52  1   
 56  27  53  1   
@<TRIPOS>SUBSTRUCTURE
  1 ****   3 GROUP 4 **** **** 0

# MOE 2024.06 (io_trps.svl 2023.06)
