@<TRIPOS>MOLECULE
NONAME
61 64 1 0 0 
SMALL
USER_CHARGES


@<TRIPOS>ATOM
  1 O        0.7690    -0.6060    -1.8850 O.2   1 <1>  -0.5700 
  2 C        1.2840    -1.5920    -1.4170 C.2   1 <1>   0.5690 
  3 N        0.5890    -2.5530    -0.7360 N.am  1 <1>  -0.6600 
  4 C        2.7750    -1.7820    -1.5840 C.3   1 <1>  -0.0990 
  5 C        1.2850    -3.6780    -0.0650 C.3   1 <1>   0.1400 
  6 C       -0.8790    -2.4560    -0.5060 C.3   1 <1>   0.0600 
  7 C        3.0960    -3.2480    -1.9140 C.3   1 <1>  -0.0800 
  8 C        2.4420    -4.2370    -0.9250 C.3   1 <1>  -0.0800 
  9 C        4.6080    -3.5290    -1.9000 C.3   1 <1>  -0.1600 
 10 C        3.5910    -4.7800    -0.0710 C.3   1 <1>  -0.1600 
 11 C        4.8010    -4.7470    -1.0020 C.3   1 <1>   0.4230 
 12 N        6.1380    -4.8010    -0.3300 N.4   1 <1>  -0.9590 
 13 C        6.3490    -3.9550     0.8970 C.3   1 <1>   0.4860 
 14 C        6.4960    -6.2190    -0.0330 C.3   1 <1>   0.2630 
 15 C        6.6090    -2.5130     0.5130 C.ar  1 <1>  -0.1440 
 16 C        5.6990    -1.5550     0.8890 C.ar  1 <1>   0.0820 
 17 C        7.7640    -2.1730    -0.2360 C.ar  1 <1>   0.0000 
 18 O        4.6340    -1.9250     1.6420 O.3   1 <1>  -0.3620 
 19 C        5.8680    -0.2250     0.4700 C.ar  1 <1>  -0.1500 
 20 C        7.9020    -0.8380    -0.6820 C.ar  1 <1>   0.0000 
 21 C        8.7990    -3.0830    -0.5680 C.ar  1 <1>  -0.1500 
 22 C        4.0730    -1.0600     2.6090 C.3   1 <1>   0.2000 
 23 C        6.9380     0.1160    -0.3030 C.ar  1 <1>  -0.1500 
 24 C        9.0020    -0.4890    -1.4890 C.ar  1 <1>  -0.1500 
 25 C        9.8610    -2.7140    -1.3450 C.ar  1 <1>  -0.1500 
 26 C        3.8230    -1.8950     3.8630 C.3   1 <1>  -0.2400 
 27 C        2.7660    -0.4840     2.0630 C.3   1 <1>  -0.2400 
 28 C        9.9600    -1.4040    -1.8200 C.ar  1 <1>  -0.1500 
 29 H        3.1260    -1.1400    -2.3720 H     1 <1>   0.0800 
 30 H        3.2500    -1.4850    -0.6710 H     1 <1>   0.0800 
 31 H        1.6610    -3.3140     0.8750 H     1 <1>   0.0800 
 32 H        0.5840    -4.4680     0.1460 H     1 <1>   0.0800 
 33 H       -1.3660    -3.3370    -0.8840 H     1 <1>   0.0800 
 34 H       -1.2850    -1.5970    -1.0130 H     1 <1>   0.0800 
 35 H       -1.0780    -2.3600     0.5460 H     1 <1>   0.0800 
 36 H        2.7030    -3.4500    -2.8980 H     1 <1>   0.0800 
 37 H        2.0450    -5.0540    -1.5070 H     1 <1>   0.0800 
 38 H        5.1350    -2.6680    -1.5430 H     1 <1>   0.0800 
 39 H        4.9520    -3.7450    -2.8960 H     1 <1>   0.0800 
 40 H        3.3800    -5.7760     0.2760 H     1 <1>   0.0800 
 41 H        3.7240    -4.1260     0.7670 H     1 <1>   0.0800 
 42 H        4.7130    -5.6050    -1.6500 H     1 <1>   0.0800 
 43 H        6.8040    -4.4240    -1.0200 H     1 <1>   0.4500 
 44 H        5.5060    -4.0260     1.5610 H     1 <1>   0.0800 
 45 H        7.2110    -4.3100     1.4370 H     1 <1>   0.0800 
 46 H        5.8120    -6.6340     0.6910 H     1 <1>   0.0800 
 47 H        7.4970    -6.2810     0.3630 H     1 <1>   0.0800 
 48 H        6.4480    -6.8130    -0.9310 H     1 <1>   0.0800 
 49 H        5.1510     0.5280     0.7420 H     1 <1>   0.1500 
 50 H        8.7750    -4.0880    -0.1950 H     1 <1>   0.1500 
 51 H        4.7760    -0.2760     2.8390 H     1 <1>   0.0800 
 52 H        7.0650     1.1310    -0.6370 H     1 <1>   0.1500 
 53 H        9.0810     0.5250    -1.8410 H     1 <1>   0.1500 
 54 H       10.6410    -3.4130    -1.5970 H     1 <1>   0.1500 
 55 H        3.1420    -2.7000     3.6530 H     1 <1>   0.0800 
 56 H        3.3940    -1.2780     4.6320 H     1 <1>   0.0800 
 57 H        4.7510    -2.2930     4.2320 H     1 <1>   0.0800 
 58 H        2.0630    -1.2670     1.8470 H     1 <1>   0.0800 
 59 H        2.9390     0.0890     1.1710 H     1 <1>   0.0800 
 60 H        2.3240     0.1700     2.7930 H     1 <1>   0.0800 
 61 H       10.8000    -1.1290    -2.4370 H     1 <1>   0.1500 
@<TRIPOS>BOND
  1   1   2  2   
  2   2   3  am  
  3   2   4  1   
  4   3   5  1   
  5   3   6  1   
  6   4   7  1   
  7   4  29  1   
  8   4  30  1   
  9   5   8  1   
 10   5  31  1   
 11   5  32  1   
 12   6  33  1   
 13   6  34  1   
 14   6  35  1   
 15   7   8  1   
 16   7   9  1   
 17   7  36  1   
 18   8  10  1   
 19   8  37  1   
 20   9  11  1   
 21   9  38  1   
 22   9  39  1   
 23  10  11  1   
 24  10  40  1   
 25  10  41  1   
 26  11  12  1   
 27  11  42  1   
 28  12  13  1   
 29  12  14  1   
 30  12  43  1   
 31  13  15  1   
 32  13  44  1   
 33  13  45  1   
 34  14  46  1   
 35  14  47  1   
 36  14  48  1   
 37  15  16  ar  
 38  15  17  ar  
 39  16  18  1   
 40  16  19  ar  
 41  17  20  ar  
 42  17  21  ar  
 43  18  22  1   
 44  19  23  ar  
 45  19  49  1   
 46  20  23  ar  
 47  20  24  ar  
 48  21  25  ar  
 49  21  50  1   
 50  22  26  1   
 51  22  27  1   
 52  22  51  1   
 53  23  52  1   
 54  24  28  ar  
 55  24  53  1   
 56  25  28  ar  
 57  25  54  1   
 58  26  55  1   
 59  26  56  1   
 60  26  57  1   
 61  27  58  1   
 62  27  59  1   
 63  27  60  1   
 64  28  61  1   
@<TRIPOS>SUBSTRUCTURE
  1 ****  16 GROUP 4 **** **** 0

# MOE 2024.06 (io_trps.svl 2023.06)
