@<TRIPOS>MOLECULE
NONAME
51 54 1 0 0 
SMALL
USER_CHARGES


@<TRIPOS>ATOM
  1 O        0.4750     0.9200    -0.5100 O.3   1 <1>  -0.2800 
  2 C        0.5080    -0.3710    -0.2630 C.2   1 <1>   0.4250 
  3 C        1.5330     1.3090     0.1380 C.2   1 <1>   0.2980 
  4 N        1.5100    -0.7170     0.4720 N.2   1 <1>  -0.3380 
  5 C       -0.5120    -1.2420    -0.8020 C.ar  1 <1>   0.0530 
  6 N        2.1730     0.3820     0.7350 N.2   1 <1>  -0.3380 
  7 C        1.9150     2.7880     0.1450 C.3   1 <1>   0.5230 
  8 C       -1.5670    -0.7490    -1.5740 C.ar  1 <1>   0.1600 
  9 C       -0.4930    -2.6140    -0.5770 C.ar  1 <1>  -0.1500 
 10 N        3.3190     3.0260     0.6580 N.4   1 <1>  -0.9590 
 11 N       -2.5410    -1.4670    -2.1080 N.ar  1 <1>  -0.6200 
 12 C       -1.4990    -3.3800    -1.1240 C.ar  1 <1>  -0.1500 
 13 C        3.6340     4.4410     1.0450 C.3   1 <1>   0.4230 
 14 C        4.2890     2.4870    -0.3470 C.3   1 <1>   0.3430 
 15 C       -2.4870    -2.7670    -1.8720 C.ar  1 <1>   0.1600 
 16 C        5.0610     4.4980     1.6140 C.3   1 <1>  -0.1600 
 17 C        2.6350     5.0260     2.0720 C.3   1 <1>  -0.1600 
 18 C        5.7080     2.5190     0.2150 C.3   1 <1>  -0.1600 
 19 C        6.1040     3.9330     0.6440 C.3   1 <1>  -0.1600 
 20 C        1.8300     6.2220     1.5210 C.3   1 <1>   0.0960 
 21 N        1.1050     5.8440     0.2930 N.pl3 1 <1>   0.0480 
 22 C       -0.0640     5.1670     0.1780 C.2   1 <1>   0.0060 
 23 C        1.5690     5.9450    -0.9670 C.2   1 <1>  -0.3020 
 24 N       -0.3200     4.7910    -1.0300 N.2   1 <1>  -0.5650 
 25 C       -0.9900     4.8590     1.3410 C.3   1 <1>  -0.0600 
 26 C        0.6830     5.3080    -1.7600 C.2   1 <1>   0.0770 
 27 H        1.2070     3.2860     0.7780 H     1 <1>   0.0800 
 28 H        1.8090     3.1870    -0.8490 H     1 <1>   0.0800 
 29 H       -1.6100     0.3100    -1.7640 H     1 <1>   0.1500 
 30 H        0.2870    -3.0690     0.0100 H     1 <1>   0.1500 
 31 H        3.4220     2.4330     1.4940 H     1 <1>   0.4500 
 32 H       -1.5210    -4.4450    -0.9740 H     1 <1>   0.1500 
 33 H        3.6150     5.0510     0.1560 H     1 <1>   0.0800 
 34 H        4.2480     3.0790    -1.2480 H     1 <1>   0.0800 
 35 H        4.0380     1.4690    -0.6010 H     1 <1>   0.0800 
 36 H       -3.2700    -3.3730    -2.2970 H     1 <1>   0.1500 
 37 H        5.1050     3.9530     2.5420 H     1 <1>   0.0800 
 38 H        5.3170     5.5210     1.8300 H     1 <1>   0.0800 
 39 H        3.1730     5.3960     2.9280 H     1 <1>   0.0800 
 40 H        1.9690     4.2730     2.4510 H     1 <1>   0.0800 
 41 H        6.3930     2.1690    -0.5380 H     1 <1>   0.0800 
 42 H        5.7780     1.8420     1.0500 H     1 <1>   0.0800 
 43 H        7.0730     3.9130     1.1170 H     1 <1>   0.0800 
 44 H        6.1770     4.5680    -0.2230 H     1 <1>   0.0800 
 45 H        2.4890     7.0420     1.2910 H     1 <1>   0.0800 
 46 H        1.1210     6.5650     2.2550 H     1 <1>   0.0800 
 47 H        2.4720     6.4650    -1.2370 H     1 <1>   0.1500 
 48 H       -0.4970     4.2590     2.0820 H     1 <1>   0.0800 
 49 H       -1.8530     4.3230     0.9850 H     1 <1>   0.0800 
 50 H       -1.3290     5.7740     1.7910 H     1 <1>   0.0800 
 51 H        0.7080     5.1980    -2.8340 H     1 <1>   0.1500 
@<TRIPOS>BOND
  1   1   2  1   
  2   1   3  1   
  3   2   4  2   
  4   2   5  1   
  5   3   6  2   
  6   3   7  1   
  7   4   6  1   
  8   5   8  ar  
  9   5   9  ar  
 10   7  10  1   
 11   7  27  1   
 12   7  28  1   
 13   8  11  ar  
 14   8  29  1   
 15   9  12  ar  
 16   9  30  1   
 17  10  13  1   
 18  10  14  1   
 19  10  31  1   
 20  11  15  ar  
 21  12  15  ar  
 22  12  32  1   
 23  13  16  1   
 24  13  17  1   
 25  13  33  1   
 26  14  18  1   
 27  14  34  1   
 28  14  35  1   
 29  15  36  1   
 30  16  19  1   
 31  16  37  1   
 32  16  38  1   
 33  17  20  1   
 34  17  39  1   
 35  17  40  1   
 36  18  19  1   
 37  18  41  1   
 38  18  42  1   
 39  19  43  1   
 40  19  44  1   
 41  20  21  1   
 42  20  45  1   
 43  20  46  1   
 44  21  22  1   
 45  21  23  1   
 46  22  24  2   
 47  22  25  1   
 48  23  26  2   
 49  23  47  1   
 50  24  26  1   
 51  25  48  1   
 52  25  49  1   
 53  25  50  1   
 54  26  51  1   
@<TRIPOS>SUBSTRUCTURE
  1 ****   3 GROUP 4 **** **** 0

# MOE 2024.06 (io_trps.svl 2023.06)
