@<TRIPOS>MOLECULE
NONAME
42 43 1 0 0 
SMALL
USER_CHARGES


@<TRIPOS>ATOM
  1 CL      -0.1630    -1.1110    -1.2060 Cl    1 <1>  -0.1770 
  2 C       -1.6920    -1.5500    -0.4930 C.ar  1 <1>   0.1770 
  3 C       -2.8430    -0.9070    -0.9020 C.ar  1 <1>  -0.1500 
  4 C       -1.7330    -2.5370     0.4730 C.ar  1 <1>  -0.1500 
  5 C       -4.0550    -1.2630    -0.3320 C.ar  1 <1>  -0.1500 
  6 C       -2.9520    -2.8830     1.0340 C.ar  1 <1>  -0.1500 
  7 C       -4.1320    -2.2560     0.6410 C.ar  1 <1>  -0.0090 
  8 S       -5.7280    -2.7170     1.3730 S.o2  1 <1>   1.4470 
  9 O       -5.6150    -3.9480     2.1190 O.2   1 <1>  -0.6500 
 10 O       -6.3330    -1.5640     1.9910 O.2   1 <1>  -0.6500 
 11 N       -6.7130    -3.0020     0.0400 N.am  1 <1>  -0.9140 
 12 C       -6.8090    -4.3430    -0.5460 C.3   1 <1>   0.2760 
 13 C       -7.5920    -5.3430     0.3110 C.3   1 <1>  -0.0800 
 14 C       -5.4860    -5.0560    -0.8540 C.3   1 <1>   0.1200 
 15 C       -6.6020    -6.5020     0.4690 C.3   1 <1>   0.1200 
 16 C       -8.8800    -5.7920    -0.4070 C.3   1 <1>  -0.0550 
 17 O       -5.7520    -6.4000    -0.6260 O.3   1 <1>  -0.5600 
 18 S      -10.0210    -6.6820     0.6500 S.o2  1 <1>   1.3330 
 19 O       -9.4440    -7.9450     1.0520 O.2   1 <1>  -0.6500 
 20 O      -10.4870    -5.7510     1.6520 O.2   1 <1>  -0.6500 
 21 N      -11.3100    -7.0130    -0.4040 N.am  1 <1>  -0.8490 
 22 C      -12.5920    -7.1100     0.3010 C.3   1 <1>   0.1160 
 23 C      -11.1000    -8.2160    -1.2180 C.3   1 <1>   0.1160 
 24 H       -2.7880    -0.1390    -1.6530 H     1 <1>   0.1500 
 25 H       -0.8240    -3.0250     0.7780 H     1 <1>   0.1500 
 26 H       -4.9560    -0.7620    -0.6460 H     1 <1>   0.1500 
 27 H       -2.9860    -3.6520     1.7900 H     1 <1>   0.1500 
 28 H       -7.6360    -2.7210     0.3680 H     1 <1>   0.4200 
 29 H       -7.3140    -4.2310    -1.4910 H     1 <1>   0.0800 
 30 H       -7.8430    -4.9430     1.2780 H     1 <1>   0.0800 
 31 H       -4.6880    -4.7740    -0.1950 H     1 <1>   0.0800 
 32 H       -5.1870    -4.9310    -1.8800 H     1 <1>   0.0800 
 33 H       -7.0600    -7.4760     0.4670 H     1 <1>   0.0800 
 34 H       -6.0100    -6.3870     1.3620 H     1 <1>   0.0800 
 35 H       -8.6200    -6.4000    -1.2530 H     1 <1>   0.0800 
 36 H       -9.3910    -4.9230    -0.7750 H     1 <1>   0.0800 
 37 H      -13.3880    -7.3050    -0.3960 H     1 <1>   0.0800 
 38 H      -12.8070    -6.1830     0.8050 H     1 <1>   0.0800 
 39 H      -12.5580    -7.9010     1.0330 H     1 <1>   0.0800 
 40 H      -11.9000    -8.3250    -1.9300 H     1 <1>   0.0800 
 41 H      -11.0670    -9.0940    -0.5930 H     1 <1>   0.0800 
 42 H      -10.1720    -8.1430    -1.7590 H     1 <1>   0.0800 
@<TRIPOS>BOND
  1   1   2  1   
  2   2   3  ar  
  3   2   4  ar  
  4   3   5  ar  
  5   3  24  1   
  6   4   6  ar  
  7   4  25  1   
  8   5   7  ar  
  9   5  26  1   
 10   6   7  ar  
 11   6  27  1   
 12   7   8  1   
 13   8   9  2   
 14   8  10  2   
 15   8  11  am  
 16  11  12  1   
 17  11  28  1   
 18  12  13  1   
 19  12  14  1   
 20  12  29  1   
 21  13  15  1   
 22  13  16  1   
 23  13  30  1   
 24  14  17  1   
 25  14  31  1   
 26  14  32  1   
 27  15  17  1   
 28  15  33  1   
 29  15  34  1   
 30  16  18  1   
 31  16  35  1   
 32  16  36  1   
 33  18  19  2   
 34  18  20  2   
 35  18  21  am  
 36  21  22  1   
 37  21  23  1   
 38  22  37  1   
 39  22  38  1   
 40  22  39  1   
 41  23  40  1   
 42  23  41  1   
 43  23  42  1   
@<TRIPOS>SUBSTRUCTURE
  1 ****  12 GROUP 4 **** **** 0

# MOE 2024.06 (io_trps.svl 2023.06)
