@<TRIPOS>MOLECULE
NONAME
52 55 1 0 0 
SMALL
USER_CHARGES


@<TRIPOS>ATOM
  1 O       -0.7930     0.6970     1.5570 O.2   1 <1>  -0.5700 
  2 C       -1.6400     1.1550     0.8270 C.2   1 <1>   0.5690 
  3 N       -2.5800     0.3510     0.2440 N.am  1 <1>  -0.6600 
  4 C       -1.6230     2.6560     0.5840 C.3   1 <1>   0.0690 
  5 C       -3.7640     0.7590    -0.5630 C.3   1 <1>   0.1400 
  6 C       -2.7000    -1.0840     0.6060 C.3   1 <1>   0.1400 
  7 C       -0.2200     3.2270     0.3970 C.2   1 <1>   0.1820 
  8 C       -4.7420    -0.4190    -0.4930 C.3   1 <1>   0.2000 
  9 C       -3.8350    -1.6310    -0.2630 C.3   1 <1>  -0.0800 
 10 N       -0.0090     4.5830     0.2000 N.pl3 1 <1>  -0.6290 
 11 C        0.9870     2.6180     0.3790 C.2   1 <1>   0.2000 
 12 O       -5.5740    -0.2590     0.6200 O.3   1 <1>  -0.5600 
 13 C       -4.5470    -2.8500     0.3520 C.3   1 <1>   0.0200 
 14 C        1.3300     4.7660     0.0690 C.cat 1 <1>   0.7910 
 15 C       -0.8600     5.6660     0.1410 C.2   1 <1>   0.2290 
 16 N        1.9410     3.5770     0.1730 N.pl3 1 <1>  -0.7000 
 17 C       -6.7770     0.4000     0.3740 C.3   1 <1>   0.0400 
 18 C       -3.6740    -4.0930     0.4050 C.2   1 <1>  -0.0400 
 19 C        1.8770     6.0520    -0.1380 C.2   1 <1>  -0.1290 
 20 C       -0.3580     6.9200    -0.0580 C.2   1 <1>  -0.1500 
 21 O       -4.1440    -5.1630     0.9890 O.3   1 <1>  -0.0190 
 22 C       -2.4410    -4.3830    -0.0430 C.2   1 <1>  -0.1500 
 23 C        1.0280     7.1250    -0.2020 C.2   1 <1>  -0.1500 
 24 C        3.3830     6.2390    -0.2870 C.3   1 <1>  -0.1020 
 25 N       -3.2950    -6.1500     0.9590 N.2   1 <1>  -0.4100 
 26 C       -2.2590    -5.7080     0.3430 C.2   1 <1>   0.1080 
 27 C       -1.0140    -6.5250     0.0800 C.3   1 <1>  -0.0590 
 28 H       -2.1980     2.8930    -0.2890 H     1 <1>   0.0800 
 29 H       -2.0830     3.1270     1.4320 H     1 <1>   0.0800 
 30 H       -4.2170     1.6570    -0.1800 H     1 <1>   0.0800 
 31 H       -3.4550     0.9090    -1.5820 H     1 <1>   0.0800 
 32 H       -1.7730    -1.6010     0.4330 H     1 <1>   0.0800 
 33 H       -2.9570    -1.1560     1.6510 H     1 <1>   0.0800 
 34 H       -5.3410    -0.5250    -1.3820 H     1 <1>   0.0800 
 35 H       -3.4190    -1.9150    -1.2130 H     1 <1>   0.0800 
 36 H        1.2280     1.5720     0.5010 H     1 <1>   0.1500 
 37 H       -5.4240    -3.0800    -0.2270 H     1 <1>   0.0800 
 38 H       -4.8710    -2.6180     1.3520 H     1 <1>   0.0800 
 39 H       -1.9180     5.4970     0.2560 H     1 <1>   0.1500 
 40 H        2.9510     3.4320     0.1220 H     1 <1>   0.4500 
 41 H       -7.3070     0.4850     1.3060 H     1 <1>   0.0800 
 42 H       -7.3620    -0.1770    -0.3210 H     1 <1>   0.0800 
 43 H       -6.5790     1.3820    -0.0190 H     1 <1>   0.0800 
 44 H       -1.0130     7.7740    -0.1080 H     1 <1>   0.1500 
 45 H       -1.7320    -3.7800    -0.5760 H     1 <1>   0.1500 
 46 H        1.3890     8.1300    -0.3590 H     1 <1>   0.1500 
 47 H        3.7480     5.6830    -1.1340 H     1 <1>   0.0800 
 48 H        3.8920     5.9020     0.5990 H     1 <1>   0.0800 
 49 H        3.6280     7.2760    -0.4380 H     1 <1>   0.0800 
 50 H       -0.8210    -6.5670    -0.9760 H     1 <1>   0.0800 
 51 H       -1.1470    -7.5250     0.4500 H     1 <1>   0.0800 
 52 H       -0.1740    -6.0790     0.5780 H     1 <1>   0.0800 
@<TRIPOS>BOND
  1   1   2  2   
  2   2   3  am  
  3   2   4  1   
  4   3   5  1   
  5   3   6  1   
  6   4   7  1   
  7   4  28  1   
  8   4  29  1   
  9   5   8  1   
 10   5  30  1   
 11   5  31  1   
 12   6   9  1   
 13   6  32  1   
 14   6  33  1   
 15   7  10  1   
 16   7  11  2   
 17   8   9  1   
 18   8  12  1   
 19   8  34  1   
 20   9  13  1   
 21   9  35  1   
 22  10  14  ar  
 23  10  15  1   
 24  11  16  1   
 25  11  36  1   
 26  12  17  1   
 27  13  18  1   
 28  13  37  1   
 29  13  38  1   
 30  14  16  ar  
 31  14  19  1   
 32  15  20  2   
 33  15  39  1   
 34  16  40  1   
 35  17  41  1   
 36  17  42  1   
 37  17  43  1   
 38  18  21  1   
 39  18  22  2   
 40  19  23  2   
 41  19  24  1   
 42  20  23  1   
 43  20  44  1   
 44  21  25  1   
 45  22  26  1   
 46  22  45  1   
 47  23  46  1   
 48  24  47  1   
 49  24  48  1   
 50  24  49  1   
 51  25  26  2   
 52  26  27  1   
 53  27  50  1   
 54  27  51  1   
 55  27  52  1   
@<TRIPOS>SUBSTRUCTURE
  1 ****   2 GROUP 4 **** **** 0

# MOE 2024.06 (io_trps.svl 2023.06)
