@<TRIPOS>MOLECULE
NONAME
57 59 1 0 0 
SMALL
USER_CHARGES


@<TRIPOS>ATOM
  1 O       -0.1290    -0.4850    -0.1740 O.3   1 <1>  -0.5600 
  2 C        1.1630    -0.7660    -0.6650 C.3   1 <1>   0.2000 
  3 C       -0.3950     0.8660     0.0670 C.3   1 <1>   0.1200 
  4 C        2.2590    -0.2140     0.2860 C.3   1 <1>   0.5660 
  5 C        1.3070    -2.2890    -0.8200 C.3   1 <1>   0.1200 
  6 C        0.5750     1.4180     1.1270 C.3   1 <1>   0.3430 
  7 N        1.9920     1.1920     0.7220 N.4   1 <1>  -0.9590 
  8 C        3.6410    -0.2890    -0.3520 C.ar  1 <1>  -0.1430 
  9 O        1.4650    -2.8890     0.4280 O.3   1 <1>  -0.6800 
 10 C        2.9720     1.6850     1.7170 C.3   1 <1>   0.5240 
 11 C        4.6140    -1.0810     0.2410 C.ar  1 <1>  -0.1500 
 12 C        3.9560     0.4200    -1.5070 C.ar  1 <1>  -0.1500 
 13 C        3.9100     2.5970     0.9450 C.2   1 <1>   0.0460 
 14 C        5.8870    -1.1620    -0.2960 C.ar  1 <1>   0.0830 
 15 C        5.2290     0.3460    -2.0470 C.ar  1 <1>  -0.1500 
 16 N        3.4000     3.4500     0.0280 N.2   1 <1>  -0.5650 
 17 C        5.2590     2.6740     0.9830 C.2   1 <1>  -0.3320 
 18 O        6.7720    -1.9660     0.3380 O.3   1 <1>  -0.3630 
 19 C        6.2040    -0.4270    -1.4430 C.ar  1 <1>   0.0830 
 20 C        4.4430     4.0360    -0.4640 C.2   1 <1>   0.0060 
 21 N        5.6050     3.6070     0.0770 N.pl3 1 <1>   0.0330 
 22 C        6.2850     1.9110     1.8050 C.3   1 <1>  -0.0600 
 23 C        7.2130    -3.1030    -0.3730 C.3   1 <1>   0.0400 
 24 O        7.4340    -0.4320    -2.0130 O.3   1 <1>  -0.3630 
 25 C        4.3920     5.1010    -1.5440 C.3   1 <1>   0.0200 
 26 C        8.4980     0.1020    -1.2570 C.3   1 <1>   0.0400 
 27 C        4.8090     6.4710    -0.9990 C.3   1 <1>  -0.2400 
 28 H        1.2450    -0.3100    -1.6350 H     1 <1>   0.0800 
 29 H       -0.3130     1.4100    -0.8580 H     1 <1>   0.0800 
 30 H       -1.4090     0.9400     0.4200 H     1 <1>   0.0800 
 31 H        2.2600    -0.8440     1.1600 H     1 <1>   0.0800 
 32 H        2.1740    -2.5290    -1.4130 H     1 <1>   0.0800 
 33 H        0.4300    -2.6970    -1.2950 H     1 <1>   0.0800 
 34 H        0.3750     0.9220     2.0620 H     1 <1>   0.0800 
 35 H        0.3960     2.4730     1.2600 H     1 <1>   0.0800 
 36 H        2.2130     1.8110    -0.0780 H     1 <1>   0.4500 
 37 H        1.3300    -3.8580     0.3630 H     1 <1>   0.4000 
 38 H        2.4800     2.2600     2.4830 H     1 <1>   0.0800 
 39 H        3.5190     0.8740     2.1690 H     1 <1>   0.0800 
 40 H        4.3990    -1.6550     1.1260 H     1 <1>   0.1500 
 41 H        3.2300     1.0460    -1.9960 H     1 <1>   0.1500 
 42 H        5.4760     0.8950    -2.9380 H     1 <1>   0.1500 
 43 H        6.5460     3.9320    -0.1630 H     1 <1>   0.2700 
 44 H        5.8060     1.2190     2.4740 H     1 <1>   0.0800 
 45 H        6.8780     2.5940     2.3870 H     1 <1>   0.0800 
 46 H        6.9370     1.3520     1.1560 H     1 <1>   0.0800 
 47 H        7.8310    -3.6910     0.2800 H     1 <1>   0.0800 
 48 H        7.7810    -2.7920    -1.2310 H     1 <1>   0.0800 
 49 H        6.3550    -3.6750    -0.6810 H     1 <1>   0.0800 
 50 H        5.0370     4.8180    -2.3580 H     1 <1>   0.0800 
 51 H        3.3880     5.1650    -1.9260 H     1 <1>   0.0800 
 52 H        9.3820     0.0910    -1.8690 H     1 <1>   0.0800 
 53 H        8.6550    -0.5000    -0.3810 H     1 <1>   0.0800 
 54 H        8.2540     1.1120    -0.9820 H     1 <1>   0.0800 
 55 H        5.8250     6.4480    -0.6470 H     1 <1>   0.0800 
 56 H        4.1660     6.7520    -0.1830 H     1 <1>   0.0800 
 57 H        4.7290     7.2150    -1.7710 H     1 <1>   0.0800 
@<TRIPOS>BOND
  1   1   2  1   
  2   1   3  1   
  3   2   4  1   
  4   2   5  1   
  5   2  28  1   
  6   3   6  1   
  7   3  29  1   
  8   3  30  1   
  9   4   7  1   
 10   4   8  1   
 11   4  31  1   
 12   5   9  1   
 13   5  32  1   
 14   5  33  1   
 15   6   7  1   
 16   6  34  1   
 17   6  35  1   
 18   7  10  1   
 19   7  36  1   
 20   8  11  ar  
 21   8  12  ar  
 22   9  37  1   
 23  10  13  1   
 24  10  38  1   
 25  10  39  1   
 26  11  14  ar  
 27  11  40  1   
 28  12  15  ar  
 29  12  41  1   
 30  13  16  1   
 31  13  17  2   
 32  14  18  1   
 33  14  19  ar  
 34  15  19  ar  
 35  15  42  1   
 36  16  20  2   
 37  17  21  1   
 38  17  22  1   
 39  18  23  1   
 40  19  24  1   
 41  20  21  1   
 42  20  25  1   
 43  21  43  1   
 44  22  44  1   
 45  22  45  1   
 46  22  46  1   
 47  23  47  1   
 48  23  48  1   
 49  23  49  1   
 50  24  26  1   
 51  25  27  1   
 52  25  50  1   
 53  25  51  1   
 54  26  52  1   
 55  26  53  1   
 56  26  54  1   
 57  27  55  1   
 58  27  56  1   
 59  27  57  1   
@<TRIPOS>SUBSTRUCTURE
  1 ****   8 GROUP 4 **** **** 0

# MOE 2024.06 (io_trps.svl 2023.06)
