@<TRIPOS>MOLECULE
NONAME
49 50 1 0 0 
SMALL
USER_CHARGES


@<TRIPOS>ATOM
  1 S        0.6520     0.1660    -0.3380 S.o2  1 <1>   1.3330 
  2 O        0.3080     0.0870    -1.7370 O.2   1 <1>  -0.6500 
  3 O        2.0070     0.5040     0.0400 O.2   1 <1>  -0.6500 
  4 N        0.1900    -1.2630     0.4450 N.am  1 <1>  -0.8490 
  5 C       -0.3820     1.4210     0.4120 C.3   1 <1>  -0.0550 
  6 C       -1.0040    -1.8880    -0.1370 C.3   1 <1>   0.1160 
  7 C        1.2790    -2.2450     0.5050 C.3   1 <1>   0.1160 
  8 C       -0.1270     2.8240    -0.1860 C.3   1 <1>  -0.0800 
  9 C       -0.9100     3.9630     0.4660 C.3   1 <1>   0.2000 
 10 C        1.3290     3.2870    -0.0940 C.3   1 <1>   0.3430 
 11 O       -0.9120     3.8010     1.8480 O.3   1 <1>  -0.6800 
 12 C       -0.1180     5.2230     0.0950 C.3   1 <1>   0.3430 
 13 N        1.2850     4.7700    -0.1930 N.4   1 <1>  -0.9590 
 14 C        2.3010     5.4770     0.6410 C.3   1 <1>   0.5240 
 15 C        2.5160     6.8820     0.0900 C.2   1 <1>   0.0460 
 16 N        1.4730     7.7210    -0.0830 N.2   1 <1>  -0.5650 
 17 C        3.6740     7.4700    -0.2930 C.2   1 <1>  -0.3320 
 18 C        2.0080     8.8000    -0.5530 C.2   1 <1>   0.0060 
 19 N        3.3460     8.7100    -0.7050 N.pl3 1 <1>   0.0330 
 20 C        5.1100     6.9700    -0.3050 C.3   1 <1>  -0.0600 
 21 C        1.2290    10.0550    -0.9030 C.3   1 <1>   0.0200 
 22 C        1.5580    11.2030     0.0560 C.3   1 <1>  -0.2400 
 23 H       -1.4140     1.1640     0.2700 H     1 <1>   0.0800 
 24 H       -0.1940     1.4260     1.4690 H     1 <1>   0.0800 
 25 H       -1.2960    -2.7440     0.4480 H     1 <1>   0.0800 
 26 H       -0.8090    -2.2060    -1.1490 H     1 <1>   0.0800 
 27 H       -1.8240    -1.1910    -0.1470 H     1 <1>   0.0800 
 28 H        0.9580    -3.1270     1.0320 H     1 <1>   0.0800 
 29 H        2.1230    -1.8300     1.0310 H     1 <1>   0.0800 
 30 H        1.5920    -2.5210    -0.4890 H     1 <1>   0.0800 
 31 H       -0.3860     2.7920    -1.2310 H     1 <1>   0.0800 
 32 H       -1.9350     4.0120     0.1370 H     1 <1>   0.0800 
 33 H        1.9330     2.8540    -0.8770 H     1 <1>   0.0800 
 34 H        1.7360     2.9920     0.8610 H     1 <1>   0.0800 
 35 H       -0.0250     3.8770     2.2470 H     1 <1>   0.4000 
 36 H       -0.1560     5.9530     0.8880 H     1 <1>   0.0800 
 37 H       -0.5360     5.6640    -0.7950 H     1 <1>   0.0800 
 38 H        1.4940     5.0720    -1.1560 H     1 <1>   0.4500 
 39 H        1.9700     5.5410     1.6640 H     1 <1>   0.0800 
 40 H        3.2380     4.9470     0.6120 H     1 <1>   0.0800 
 41 H        3.9700     9.4450    -1.0530 H     1 <1>   0.2700 
 42 H        5.1730     5.9590     0.0550 H     1 <1>   0.0800 
 43 H        5.7230     7.5920     0.3240 H     1 <1>   0.0800 
 44 H        5.5050     6.9990    -1.3060 H     1 <1>   0.0800 
 45 H        1.4510    10.3470    -1.9140 H     1 <1>   0.0800 
 46 H        0.1760     9.8400    -0.8470 H     1 <1>   0.0800 
 47 H        2.5970    11.4690    -0.0080 H     1 <1>   0.0800 
 48 H        1.3370    10.9100     1.0680 H     1 <1>   0.0800 
 49 H        0.9660    12.0670    -0.1870 H     1 <1>   0.0800 
@<TRIPOS>BOND
  1   1   2  2   
  2   1   3  2   
  3   1   4  am  
  4   1   5  1   
  5   4   6  1   
  6   4   7  1   
  7   5   8  1   
  8   5  23  1   
  9   5  24  1   
 10   6  25  1   
 11   6  26  1   
 12   6  27  1   
 13   7  28  1   
 14   7  29  1   
 15   7  30  1   
 16   8   9  1   
 17   8  10  1   
 18   8  31  1   
 19   9  11  1   
 20   9  12  1   
 21   9  32  1   
 22  10  13  1   
 23  10  33  1   
 24  10  34  1   
 25  11  35  1   
 26  12  13  1   
 27  12  36  1   
 28  12  37  1   
 29  13  14  1   
 30  13  38  1   
 31  14  15  1   
 32  14  39  1   
 33  14  40  1   
 34  15  16  1   
 35  15  17  2   
 36  16  18  2   
 37  17  19  1   
 38  17  20  1   
 39  18  19  1   
 40  18  21  1   
 41  19  41  1   
 42  20  42  1   
 43  20  43  1   
 44  20  44  1   
 45  21  22  1   
 46  21  45  1   
 47  21  46  1   
 48  22  47  1   
 49  22  48  1   
 50  22  49  1   
@<TRIPOS>SUBSTRUCTURE
  1 ****  13 GROUP 4 **** **** 0

# MOE 2024.06 (io_trps.svl 2023.06)
