@<TRIPOS>MOLECULE
NONAME
47 49 1 0 0 
SMALL
USER_CHARGES


@<TRIPOS>ATOM
  1 O       -1.5970     0.4150    -2.0210 O.2   1 <1>  -0.5700 
  2 C       -1.7360     0.8800    -0.9070 C.2   1 <1>   0.5440 
  3 N       -2.0620     0.0290     0.1090 N.am  1 <1>  -0.7300 
  4 C       -1.5600     2.3000    -0.6590 C.ar  1 <1>   0.0860 
  5 C       -2.3050    -1.4230    -0.0420 C.3   1 <1>   0.2200 
  6 C       -2.2000     2.9470     0.3980 C.ar  1 <1>  -0.1500 
  7 C       -0.7400     3.0760    -1.4760 C.ar  1 <1>  -0.1500 
  8 C       -3.8030    -1.6740    -0.0560 C.3   1 <1>  -0.0800 
  9 C       -1.8780    -2.1520     1.2270 C.3   1 <1>   0.1200 
 10 C       -2.0240     4.2970     0.6420 C.ar  1 <1>   0.0830 
 11 C       -0.5510     4.4280    -1.2500 C.ar  1 <1>   0.0830 
 12 C       -4.1340    -1.7230     1.4390 C.3   1 <1>   0.1200 
 13 C       -4.1500    -2.9890    -0.7780 C.3   1 <1>  -0.0160 
 14 O       -2.9550    -2.0600     2.1120 O.3   1 <1>  -0.5600 
 15 O       -2.6960     4.8090     1.7030 O.3   1 <1>  -0.3630 
 16 C       -1.1940     5.0460    -0.1840 C.ar  1 <1>  -0.1500 
 17 O        0.2740     5.0760    -2.1110 O.3   1 <1>  -0.3630 
 18 C       -5.6530    -3.2160    -0.8230 C.ar  1 <1>  -0.1440 
 19 C       -2.6070     6.1750     2.0450 C.3   1 <1>   0.0400 
 20 C        0.5190     6.4600    -2.0020 C.3   1 <1>   0.0400 
 21 C       -6.2800    -4.1500    -0.0240 C.ar  1 <1>  -0.1500 
 22 C       -6.4680    -2.4940    -1.6710 C.ar  1 <1>  -0.1500 
 23 C       -7.6540    -4.3080    -0.1050 C.ar  1 <1>   0.1600 
 24 C       -7.8330    -2.7300    -1.6750 C.ar  1 <1>   0.1600 
 25 N       -8.4460    -3.6190    -0.9100 N.ar  1 <1>  -0.6200 
 26 H       -2.1590     0.3770     1.0640 H     1 <1>   0.3700 
 27 H       -1.8010    -1.7990    -0.9170 H     1 <1>   0.0800 
 28 H       -2.8580     2.4000     1.0470 H     1 <1>   0.1500 
 29 H       -0.2380     2.6140    -2.3070 H     1 <1>   0.1500 
 30 H       -4.3250    -0.8670    -0.5410 H     1 <1>   0.0800 
 31 H       -1.0000    -1.7220     1.6770 H     1 <1>   0.0800 
 32 H       -1.7090    -3.1950     1.0270 H     1 <1>   0.0800 
 33 H       -4.8950    -2.4440     1.6820 H     1 <1>   0.0800 
 34 H       -4.4400    -0.7530     1.7900 H     1 <1>   0.0800 
 35 H       -3.6720    -3.8210    -0.2900 H     1 <1>   0.0800 
 36 H       -3.7790    -2.9480    -1.7880 H     1 <1>   0.0800 
 37 H       -1.0520     6.0910    -0.0010 H     1 <1>   0.1500 
 38 H       -3.2240     6.3430     2.9090 H     1 <1>   0.0800 
 39 H       -2.9650     6.7660     1.2200 H     1 <1>   0.0800 
 40 H       -1.5830     6.4110     2.2760 H     1 <1>   0.0800 
 41 H        1.1870     6.7430    -2.7950 H     1 <1>   0.0800 
 42 H        0.9790     6.6600    -1.0500 H     1 <1>   0.0800 
 43 H       -0.4120     6.9890    -2.1020 H     1 <1>   0.0800 
 44 H       -5.7160    -4.7560     0.6620 H     1 <1>   0.1500 
 45 H       -6.0550    -1.7500    -2.3280 H     1 <1>   0.1500 
 46 H       -8.1260    -5.0410     0.5270 H     1 <1>   0.1500 
 47 H       -8.4530    -2.1570    -2.3430 H     1 <1>   0.1500 
@<TRIPOS>BOND
  1   1   2  2   
  2   2   3  am  
  3   2   4  1   
  4   3   5  1   
  5   3  26  1   
  6   4   6  ar  
  7   4   7  ar  
  8   5   8  1   
  9   5   9  1   
 10   5  27  1   
 11   6  10  ar  
 12   6  28  1   
 13   7  11  ar  
 14   7  29  1   
 15   8  12  1   
 16   8  13  1   
 17   8  30  1   
 18   9  14  1   
 19   9  31  1   
 20   9  32  1   
 21  10  15  1   
 22  10  16  ar  
 23  11  16  ar  
 24  11  17  1   
 25  12  14  1   
 26  12  33  1   
 27  12  34  1   
 28  13  18  1   
 29  13  35  1   
 30  13  36  1   
 31  15  19  1   
 32  16  37  1   
 33  17  20  1   
 34  18  21  ar  
 35  18  22  ar  
 36  19  38  1   
 37  19  39  1   
 38  19  40  1   
 39  20  41  1   
 40  20  42  1   
 41  20  43  1   
 42  21  23  ar  
 43  21  44  1   
 44  22  24  ar  
 45  22  45  1   
 46  23  25  ar  
 47  23  46  1   
 48  24  25  ar  
 49  24  47  1   
@<TRIPOS>SUBSTRUCTURE
  1 ****   3 GROUP 4 **** **** 0

# MOE 2024.06 (io_trps.svl 2023.06)
