@<TRIPOS>MOLECULE
NONAME
40 42 1 0 0 
SMALL
USER_CHARGES


@<TRIPOS>ATOM
  1 F       -2.5150    -1.3200     3.4690 F     1 <1>  -0.1900 
  2 C       -3.1500    -1.6570     2.3810 C.ar  1 <1>   0.1900 
  3 C       -3.6230    -0.6710     1.5500 C.ar  1 <1>  -0.1500 
  4 C       -3.3220    -3.0030     2.1060 C.ar  1 <1>  -0.1500 
  5 C       -4.3050    -1.0340     0.3930 C.ar  1 <1>   0.1170 
  6 C       -3.9960    -3.3630     0.9580 C.ar  1 <1>  -0.1500 
  7 N       -4.7970    -0.0600    -0.4670 N.am  1 <1>  -0.5470 
  8 C       -4.5070    -2.3960     0.0800 C.ar  1 <1>   0.0280 
  9 C       -5.4760    -0.3510    -1.6060 C.2   1 <1>   0.6160 
 10 C       -5.2330    -2.7270    -1.1260 C.2   1 <1>  -0.0140 
 11 O       -5.8900     0.5630    -2.2910 O.2   1 <1>  -0.5700 
 12 C       -5.6820    -1.7160    -1.9240 C.2   1 <1>  -0.1360 
 13 C       -5.4820    -4.1090    -1.4610 C.2   1 <1>   0.6160 
 14 O       -4.5620    -4.7920    -1.8640 O.2   1 <1>  -0.5700 
 15 N       -6.7340    -4.6690    -1.3220 N.am  1 <1>  -0.6600 
 16 C       -7.0090    -6.0900    -1.7050 C.3   1 <1>   0.1400 
 17 C       -7.8800    -3.9890    -0.6590 C.3   1 <1>   0.1400 
 18 C       -7.4320    -6.8980    -0.4680 C.3   1 <1>   0.2000 
 19 C       -8.2740    -4.7670     0.6010 C.3   1 <1>  -0.1600 
 20 O       -7.7980    -8.1780    -0.8600 O.3   1 <1>  -0.6800 
 21 C       -8.6050    -6.2440     0.2890 C.3   1 <1>  -0.0800 
 22 C       -8.9370    -7.0460     1.5590 C.3   1 <1>   0.1200 
 23 O      -10.0080    -6.4630     2.2170 O.3   1 <1>  -0.6800 
 24 H       -3.4660     0.3630     1.7970 H     1 <1>   0.1500 
 25 H       -2.9280    -3.7420     2.7820 H     1 <1>   0.1500 
 26 H       -4.1220    -4.4100     0.7390 H     1 <1>   0.1500 
 27 H       -4.6550     0.9340    -0.2880 H     1 <1>   0.3700 
 28 H       -6.2150    -1.9100    -2.8360 H     1 <1>   0.1500 
 29 H       -7.7980    -6.1000    -2.4360 H     1 <1>   0.0800 
 30 H       -6.1360    -6.5450    -2.1400 H     1 <1>   0.0800 
 31 H       -7.6320    -2.9770    -0.3890 H     1 <1>   0.0800 
 32 H       -8.7110    -3.9540    -1.3440 H     1 <1>   0.0800 
 33 H       -6.5800    -6.9980     0.1830 H     1 <1>   0.0800 
 34 H       -7.4660    -4.7110     1.3100 H     1 <1>   0.0800 
 35 H       -9.1300    -4.2830     1.0370 H     1 <1>   0.0800 
 36 H       -8.6110    -8.1570    -1.4010 H     1 <1>   0.4000 
 37 H       -9.4680    -6.2630    -0.3550 H     1 <1>   0.0800 
 38 H       -8.0990    -7.0780     2.2340 H     1 <1>   0.0800 
 39 H       -9.2210    -8.0550     1.3090 H     1 <1>   0.0800 
 40 H       -9.7490    -5.6060     2.6060 H     1 <1>   0.4000 
@<TRIPOS>BOND
  1   1   2  1   
  2   2   3  ar  
  3   2   4  ar  
  4   3   5  ar  
  5   3  24  1   
  6   4   6  ar  
  7   4  25  1   
  8   5   7  1   
  9   5   8  ar  
 10   6   8  ar  
 11   6  26  1   
 12   7   9  am  
 13   7  27  1   
 14   8  10  1   
 15   9  11  2   
 16   9  12  1   
 17  10  12  2   
 18  10  13  1   
 19  12  28  1   
 20  13  14  2   
 21  13  15  am  
 22  15  16  1   
 23  15  17  1   
 24  16  18  1   
 25  16  29  1   
 26  16  30  1   
 27  17  19  1   
 28  17  31  1   
 29  17  32  1   
 30  18  20  1   
 31  18  21  1   
 32  18  33  1   
 33  19  21  1   
 34  19  34  1   
 35  19  35  1   
 36  20  36  1   
 37  21  22  1   
 38  21  37  1   
 39  22  23  1   
 40  22  38  1   
 41  22  39  1   
 42  23  40  1   
@<TRIPOS>SUBSTRUCTURE
  1 ****  10 GROUP 4 **** **** 0

# MOE 2024.06 (io_trps.svl 2023.06)
