@<TRIPOS>MOLECULE
NONAME
58 61 1 0 0 
SMALL
USER_CHARGES


@<TRIPOS>ATOM
  1 O       -0.4260    -1.9860    -0.7700 O.2   1 <1>  -0.5700 
  2 C       -1.6300    -2.1080    -0.8590 C.2   1 <1>   0.6900 
  3 N       -2.4880    -1.2470    -0.2480 N.am  1 <1>  -0.6600 
  4 N       -2.1110    -3.1010    -1.6090 N.am  1 <1>  -0.8000 
  5 C       -3.8580    -1.6220     0.2250 C.3   1 <1>   0.2810 
  6 C       -2.0180    -0.0060     0.4040 C.3   1 <1>   0.1400 
  7 C       -4.8830    -2.1030    -0.8370 C.2   1 <1>   0.5690 
  8 C       -4.3370    -0.3670     0.9620 C.3   1 <1>  -0.1600 
  9 C       -3.0620     0.2990     1.4720 C.3   1 <1>  -0.1600 
 10 O       -4.6670    -1.8630    -2.0070 O.2   1 <1>  -0.5700 
 11 N       -6.0130    -2.8010    -0.4670 N.am  1 <1>  -0.6600 
 12 C       -6.3750    -3.2120     0.9210 C.3   1 <1>   0.1400 
 13 C       -7.0170    -3.2430    -1.4790 C.3   1 <1>   0.1400 
 14 C       -6.4750    -4.7380     0.9830 C.3   1 <1>  -0.1600 
 15 C       -7.1300    -4.7690    -1.4450 C.3   1 <1>  -0.1600 
 16 C       -7.4830    -5.2840    -0.0390 C.3   1 <1>   0.4240 
 17 O       -8.7210    -4.7260     0.3360 O.3   1 <1>  -0.5600 
 18 C       -7.5170    -6.8270     0.0040 C.ar  1 <1>  -0.1430 
 19 C       -9.8770    -5.3640    -0.1100 C.3   1 <1>   0.1200 
 20 C       -8.6890    -7.5150     0.2830 C.ar  1 <1>  -0.1430 
 21 C       -6.3660    -7.5640    -0.2440 C.ar  1 <1>  -0.1500 
 22 C       -9.9640    -6.7390     0.5460 C.3   1 <1>  -0.0170 
 23 C       -8.7030    -8.9000     0.3180 C.ar  1 <1>  -0.1500 
 24 C       -6.3580    -8.9480    -0.2090 C.ar  1 <1>   0.0820 
 25 C       -7.5490    -9.6390     0.0680 C.ar  1 <1>   0.0820 
 26 O       -5.1420    -9.5130    -0.4610 O.3   1 <1>  -0.3630 
 27 O       -7.5680   -11.0050     0.0710 O.3   1 <1>  -0.3620 
 28 C       -4.7830   -10.7720     0.0640 C.3   1 <1>   0.0400 
 29 C       -8.7630   -11.7430     0.1980 C.3   1 <1>   0.0400 
 30 H       -1.4330    -3.5930    -2.1860 H     1 <1>   0.3700 
 31 H       -3.0150    -2.9230    -2.0590 H     1 <1>   0.3700 
 32 H       -3.7190    -2.4150     0.9360 H     1 <1>   0.0800 
 33 H       -1.0380    -0.1360     0.8340 H     1 <1>   0.0800 
 34 H       -1.9860     0.7800    -0.3310 H     1 <1>   0.0800 
 35 H       -4.8280     0.2840     0.2590 H     1 <1>   0.0800 
 36 H       -5.0220    -0.5980     1.7570 H     1 <1>   0.0800 
 37 H       -2.7550    -0.1520     2.3990 H     1 <1>   0.0800 
 38 H       -3.1820     1.3580     1.6200 H     1 <1>   0.0800 
 39 H       -5.6530    -2.8740     1.6400 H     1 <1>   0.0800 
 40 H       -7.3250    -2.7730     1.1790 H     1 <1>   0.0800 
 41 H       -7.9690    -2.7980    -1.2480 H     1 <1>   0.0800 
 42 H       -6.7360    -2.9260    -2.4680 H     1 <1>   0.0800 
 43 H       -6.7750    -5.0450     1.9670 H     1 <1>   0.0800 
 44 H       -5.5000    -5.1490     0.7990 H     1 <1>   0.0800 
 45 H       -6.1870    -5.1800    -1.7530 H     1 <1>   0.0800 
 46 H       -7.8630    -5.1000    -2.1550 H     1 <1>   0.0800 
 47 H      -10.7190    -4.7580     0.1720 H     1 <1>   0.0800 
 48 H       -9.8460    -5.4480    -1.1820 H     1 <1>   0.0800 
 49 H       -5.4400    -7.0700    -0.4730 H     1 <1>   0.1500 
 50 H      -10.1060    -6.6210     1.6060 H     1 <1>   0.0800 
 51 H      -10.8120    -7.2660     0.1480 H     1 <1>   0.0800 
 52 H       -9.6310    -9.3890     0.5430 H     1 <1>   0.1500 
 53 H       -3.7140   -10.8630     0.0150 H     1 <1>   0.0800 
 54 H       -5.2410   -11.5390    -0.5340 H     1 <1>   0.0800 
 55 H       -5.1140   -10.8340     1.0860 H     1 <1>   0.0800 
 56 H       -8.5210   -12.7860     0.1090 H     1 <1>   0.0800 
 57 H       -9.4360   -11.4560    -0.5910 H     1 <1>   0.0800 
 58 H       -9.1920   -11.5500     1.1650 H     1 <1>   0.0800 
@<TRIPOS>BOND
  1   1   2  2   
  2   2   3  am  
  3   2   4  am  
  4   3   5  1   
  5   3   6  1   
  6   4  30  1   
  7   4  31  1   
  8   5   7  1   
  9   5   8  1   
 10   5  32  1   
 11   6   9  1   
 12   6  33  1   
 13   6  34  1   
 14   7  10  2   
 15   7  11  am  
 16   8   9  1   
 17   8  35  1   
 18   8  36  1   
 19   9  37  1   
 20   9  38  1   
 21  11  12  1   
 22  11  13  1   
 23  12  14  1   
 24  12  39  1   
 25  12  40  1   
 26  13  15  1   
 27  13  41  1   
 28  13  42  1   
 29  14  16  1   
 30  14  43  1   
 31  14  44  1   
 32  15  16  1   
 33  15  45  1   
 34  15  46  1   
 35  16  17  1   
 36  16  18  1   
 37  17  19  1   
 38  18  20  ar  
 39  18  21  ar  
 40  19  22  1   
 41  19  47  1   
 42  19  48  1   
 43  20  22  1   
 44  20  23  ar  
 45  21  24  ar  
 46  21  49  1   
 47  22  50  1   
 48  22  51  1   
 49  23  25  ar  
 50  23  52  1   
 51  24  25  ar  
 52  24  26  1   
 53  25  27  1   
 54  26  28  1   
 55  27  29  1   
 56  28  53  1   
 57  28  54  1   
 58  28  55  1   
 59  29  56  1   
 60  29  57  1   
 61  29  58  1   
@<TRIPOS>SUBSTRUCTURE
  1 ****  14 GROUP 4 **** **** 0

# MOE 2024.06 (io_trps.svl 2023.06)
