@<TRIPOS>MOLECULE
NONAME
46 47 1 0 0 
SMALL
USER_CHARGES


@<TRIPOS>ATOM
  1 S        1.4460     0.2220     1.8310 S.o2  1 <1>   1.2040 
  2 O        1.9240    -0.7840     2.7460 O.2   1 <1>  -0.6500 
  3 O        1.6850     1.6250     2.0980 O.2   1 <1>  -0.6500 
  4 C       -0.2900    -0.0550     1.4130 C.ar  1 <1>  -0.0090 
  5 C        2.2690    -0.0980     0.2790 C.3   1 <1>  -0.0550 
  6 C       -1.2060     0.9910     1.4190 C.ar  1 <1>  -0.1500 
  7 C       -0.7460    -1.3190     1.0540 C.ar  1 <1>  -0.1500 
  8 C        1.9990     1.0060    -0.7440 C.3   1 <1>   0.3430 
  9 C       -2.5250     0.7910     1.0510 C.ar  1 <1>  -0.1500 
 10 C       -2.0640    -1.5260     0.6850 C.ar  1 <1>  -0.1500 
 11 N        2.6860     2.3030    -0.4130 N.4   1 <1>  -0.9590 
 12 C       -2.9540    -0.4690     0.6780 C.ar  1 <1>  -0.1500 
 13 C        2.0100     3.4800    -1.0600 C.3   1 <1>   0.4230 
 14 C        4.1580     2.1930    -0.6710 C.3   1 <1>   0.5240 
 15 C        2.8360     4.7800    -0.9390 C.3   1 <1>  -0.1600 
 16 C        0.6350     3.6610    -0.4040 C.3   1 <1>  -0.2400 
 17 C        4.9350     2.8500     0.4550 C.2   1 <1>  -0.1810 
 18 C        2.1780     6.0250    -1.5570 C.3   1 <1>  -0.2400 
 19 C        5.7820     3.8880     0.3000 C.2   1 <1>  -0.1100 
 20 C        4.8460     2.3980     1.8160 C.2   1 <1>  -0.1500 
 21 S        6.4830     4.3660     1.8340 S.3   1 <1>  -0.0800 
 22 C        5.6050     3.1040     2.6740 C.2   1 <1>  -0.1100 
 23 H        1.9170    -1.0310    -0.1170 H     1 <1>   0.0800 
 24 H        3.3240    -0.2020     0.4400 H     1 <1>   0.0800 
 25 H       -0.8950     1.9770     1.7230 H     1 <1>   0.1500 
 26 H       -0.0740    -2.1610     1.0710 H     1 <1>   0.1500 
 27 H        0.9340     1.1490    -0.8040 H     1 <1>   0.0800 
 28 H        2.3270     0.6740    -1.7160 H     1 <1>   0.0800 
 29 H       -3.2220     1.6130     1.0610 H     1 <1>   0.1500 
 30 H       -2.4020    -2.5120     0.4090 H     1 <1>   0.1500 
 31 H        2.5910     2.4710     0.6120 H     1 <1>   0.4500 
 32 H       -3.9810    -0.6280     0.3940 H     1 <1>   0.1500 
 33 H        1.8690     3.2740    -2.1100 H     1 <1>   0.0800 
 34 H        4.4090     2.6510    -1.6130 H     1 <1>   0.0800 
 35 H        4.4530     1.1590    -0.7190 H     1 <1>   0.0800 
 36 H        3.7680     4.6610    -1.4580 H     1 <1>   0.0800 
 37 H        3.0430     4.9860     0.0980 H     1 <1>   0.0800 
 38 H        0.7410     3.8860     0.6430 H     1 <1>   0.0800 
 39 H        0.0040     2.8040    -0.5240 H     1 <1>   0.0800 
 40 H        0.1060     4.4760    -0.8640 H     1 <1>   0.0800 
 41 H        1.8620     5.8330    -2.5680 H     1 <1>   0.0800 
 42 H        2.8850     6.8370    -1.5750 H     1 <1>   0.0800 
 43 H        1.3310     6.3510    -0.9790 H     1 <1>   0.0800 
 44 H        6.0930     4.4560    -0.5600 H     1 <1>   0.1500 
 45 H        4.2350     1.5680     2.1190 H     1 <1>   0.1500 
 46 H        5.7560     3.0220     3.7370 H     1 <1>   0.1500 
@<TRIPOS>BOND
  1   1   2  2   
  2   1   3  2   
  3   1   4  1   
  4   1   5  1   
  5   4   6  ar  
  6   4   7  ar  
  7   5   8  1   
  8   5  23  1   
  9   5  24  1   
 10   6   9  ar  
 11   6  25  1   
 12   7  10  ar  
 13   7  26  1   
 14   8  11  1   
 15   8  27  1   
 16   8  28  1   
 17   9  12  ar  
 18   9  29  1   
 19  10  12  ar  
 20  10  30  1   
 21  11  13  1   
 22  11  14  1   
 23  11  31  1   
 24  12  32  1   
 25  13  15  1   
 26  13  16  1   
 27  13  33  1   
 28  14  17  1   
 29  14  34  1   
 30  14  35  1   
 31  15  18  1   
 32  15  36  1   
 33  15  37  1   
 34  16  38  1   
 35  16  39  1   
 36  16  40  1   
 37  17  19  2   
 38  17  20  1   
 39  18  41  1   
 40  18  42  1   
 41  18  43  1   
 42  19  21  1   
 43  19  44  1   
 44  20  22  2   
 45  20  45  1   
 46  21  22  1   
 47  22  46  1   
@<TRIPOS>SUBSTRUCTURE
  1 ****  11 GROUP 4 **** **** 0

# MOE 2024.06 (io_trps.svl 2023.06)
