@<TRIPOS>MOLECULE
NONAME
47 49 1 0 0 
SMALL
USER_CHARGES


@<TRIPOS>ATOM
  1 O       -0.0990     0.7430     2.0060 O.2   1 <1>  -0.5700 
  2 C       -1.0710     1.2600     1.4830 C.2   1 <1>   0.5440 
  3 N       -2.0800     0.4460     1.0000 N.am  1 <1>  -0.6600 
  4 C       -1.1330     2.7050     1.4220 C.ar  1 <1>   0.0860 
  5 C       -3.3540     1.0070     0.4560 C.3   1 <1>   0.2200 
  6 C       -1.9400    -1.0400     1.0880 C.3   1 <1>   0.0600 
  7 C       -1.0320     3.4190     0.2210 C.ar  1 <1>   0.0830 
  8 C       -1.3150     3.4390     2.5940 C.ar  1 <1>  -0.1500 
  9 C       -4.6100     0.4570     1.1260 C.3   1 <1>  -0.1600 
 10 C       -3.5590     0.7230    -1.0290 C.3   1 <1>  -0.1600 
 11 O       -0.8390     2.7980    -0.9590 O.3   1 <1>  -0.3620 
 12 C       -1.1540     4.8000     0.2000 C.ar  1 <1>  -0.1500 
 13 C       -1.4240     4.8170     2.5760 C.ar  1 <1>  -0.1500 
 14 C       -5.7340     0.7640     0.1290 C.3   1 <1>  -0.0800 
 15 C       -5.0650     0.9200    -1.2490 C.3   1 <1>  -0.0800 
 16 C        0.4060     2.1760    -1.1930 C.3   1 <1>   0.1200 
 17 C       -1.3490     5.5010     1.3750 C.ar  1 <1>  -0.1500 
 18 C       -6.4540     2.0900     0.4130 C.3   1 <1>  -0.1600 
 19 C       -5.4230     2.3280    -1.7500 C.3   1 <1>  -0.1600 
 20 C        0.1750     1.0060    -2.1450 C.3   1 <1>  -0.2400 
 21 C       -6.6610     2.7160    -0.9570 C.3   1 <1>   0.2000 
 22 O       -6.7430     4.0860    -0.8450 O.3   1 <1>  -0.6800 
 23 H       -3.3730     2.0750     0.5840 H     1 <1>   0.0800 
 24 H       -2.5310    -1.5330     0.3390 H     1 <1>   0.0800 
 25 H       -2.2560    -1.3710     2.0610 H     1 <1>   0.0800 
 26 H       -0.9110    -1.3230     0.9460 H     1 <1>   0.0800 
 27 H       -1.3720     2.9080     3.5290 H     1 <1>   0.1500 
 28 H       -4.5430    -0.6090     1.2410 H     1 <1>   0.0800 
 29 H       -4.7760     0.9060     2.0890 H     1 <1>   0.0800 
 30 H       -2.9660     1.3750    -1.6450 H     1 <1>   0.0800 
 31 H       -3.3080    -0.2950    -1.2570 H     1 <1>   0.0800 
 32 H       -1.0920     5.3190    -0.7390 H     1 <1>   0.1500 
 33 H       -1.5670     5.3590     3.4960 H     1 <1>   0.1500 
 34 H       -6.4520    -0.0400     0.1050 H     1 <1>   0.0800 
 35 H       -5.4480     0.1830    -1.9350 H     1 <1>   0.0800 
 36 H        1.0650     2.9060    -1.6280 H     1 <1>   0.0800 
 37 H        0.8240     1.8290    -0.2640 H     1 <1>   0.0800 
 38 H       -1.4390     6.5740     1.3580 H     1 <1>   0.1500 
 39 H       -5.8310     2.7300     1.0140 H     1 <1>   0.0800 
 40 H       -7.3920     1.9280     0.9130 H     1 <1>   0.0800 
 41 H       -5.6210     2.3300    -2.8070 H     1 <1>   0.0800 
 42 H       -4.6220     3.0140    -1.5330 H     1 <1>   0.0800 
 43 H       -0.2570     1.3550    -3.0660 H     1 <1>   0.0800 
 44 H       -0.4780     0.2860    -1.6870 H     1 <1>   0.0800 
 45 H        1.1120     0.5270    -2.3630 H     1 <1>   0.0800 
 46 H       -7.5570     2.3440    -1.4240 H     1 <1>   0.0800 
 47 H       -5.9230     4.4340    -0.4500 H     1 <1>   0.4000 
@<TRIPOS>BOND
  1   1   2  2   
  2   2   3  am  
  3   2   4  1   
  4   3   5  1   
  5   3   6  1   
  6   4   7  ar  
  7   4   8  ar  
  8   5   9  1   
  9   5  10  1   
 10   5  23  1   
 11   6  24  1   
 12   6  25  1   
 13   6  26  1   
 14   7  11  1   
 15   7  12  ar  
 16   8  13  ar  
 17   8  27  1   
 18   9  14  1   
 19   9  28  1   
 20   9  29  1   
 21  10  15  1   
 22  10  30  1   
 23  10  31  1   
 24  11  16  1   
 25  12  17  ar  
 26  12  32  1   
 27  13  17  ar  
 28  13  33  1   
 29  14  15  1   
 30  14  18  1   
 31  14  34  1   
 32  15  19  1   
 33  15  35  1   
 34  16  20  1   
 35  16  36  1   
 36  16  37  1   
 37  17  38  1   
 38  18  21  1   
 39  18  39  1   
 40  18  40  1   
 41  19  21  1   
 42  19  41  1   
 43  19  42  1   
 44  20  43  1   
 45  20  44  1   
 46  20  45  1   
 47  21  22  1   
 48  21  46  1   
 49  22  47  1   
@<TRIPOS>SUBSTRUCTURE
  1 ****   5 GROUP 4 **** **** 0

# MOE 2024.06 (io_trps.svl 2023.06)
