@<TRIPOS>MOLECULE
NONAME
46 48 1 0 0 
SMALL
USER_CHARGES


@<TRIPOS>ATOM
  1 O       -0.0040    -2.9210     1.7160 O.2   1 <1>  -0.5700 
  2 C        1.0520    -3.0360     1.1430 C.2   1 <1>   0.5690 
  3 N        1.3300    -3.9320     0.1600 N.am  1 <1>  -0.6600 
  4 C        2.2460    -2.1760     1.4480 C.3   1 <1>  -0.0990 
  5 C        2.7140    -3.7990    -0.3370 C.3   1 <1>   0.1400 
  6 C        0.4330    -4.9590    -0.4480 C.3   1 <1>   0.1400 
  7 C        3.2340    -2.5130     0.3200 C.3   1 <1>  -0.1600 
  8 C       -0.9150    -5.0910     0.2850 C.3   1 <1>   0.3430 
  9 N       -1.8040    -6.1330    -0.3100 N.4   1 <1>  -0.9590 
 10 C       -2.2700    -5.8790    -1.7050 C.3   1 <1>   0.3430 
 11 C       -3.0120    -6.4170     0.4960 C.3   1 <1>   0.3430 
 12 C       -3.6380    -6.5640    -1.8280 C.3   1 <1>   0.2000 
 13 C       -3.9460    -7.1670    -0.4520 C.3   1 <1>  -0.0800 
 14 O       -4.6060    -5.6150    -2.1340 O.3   1 <1>  -0.6800 
 15 C       -3.7380    -8.6990    -0.4110 C.3   1 <1>   0.0210 
 16 C       -2.2960    -9.1980    -0.3830 C.2   1 <1>   0.1080 
 17 N       -1.3480    -8.7960    -1.1790 N.2   1 <1>  -0.7070 
 18 C       -1.8520   -10.1770     0.4980 C.2   1 <1>  -0.1500 
 19 N       -0.2790    -9.5570    -0.8490 N.pl3 1 <1>   0.3000 
 20 C       -0.5580   -10.3820     0.1770 C.2   1 <1>  -0.3320 
 21 C        0.4380   -11.3520     0.7880 C.3   1 <1>  -0.0600 
 22 H        1.9760    -1.1350     1.4480 H     1 <1>   0.0800 
 23 H        2.6420    -2.4530     2.4080 H     1 <1>   0.0800 
 24 H        3.2950    -4.6490    -0.0200 H     1 <1>   0.0800 
 25 H        2.7330    -3.7200    -1.4110 H     1 <1>   0.0800 
 26 H        0.2600    -4.6860    -1.4730 H     1 <1>   0.0800 
 27 H        0.9380    -5.9080    -0.4210 H     1 <1>   0.0800 
 28 H        4.2380    -2.6370     0.6880 H     1 <1>   0.0800 
 29 H        3.2330    -1.7220    -0.4100 H     1 <1>   0.0800 
 30 H       -1.4170    -4.1370     0.2630 H     1 <1>   0.0800 
 31 H       -0.7160    -5.3360     1.3150 H     1 <1>   0.0800 
 32 H       -1.3110    -7.0520    -0.3730 H     1 <1>   0.4500 
 33 H       -2.3740    -4.8220    -1.8910 H     1 <1>   0.0800 
 34 H       -1.5770    -6.3070    -2.4110 H     1 <1>   0.0800 
 35 H       -2.7750    -7.0050     1.3690 H     1 <1>   0.0800 
 36 H       -3.4700    -5.4910     0.8020 H     1 <1>   0.0800 
 37 H       -3.6370    -7.2980    -2.6170 H     1 <1>   0.0800 
 38 H       -4.9710    -6.9790    -0.1810 H     1 <1>   0.0800 
 39 H       -4.7480    -4.9660    -1.4160 H     1 <1>   0.4000 
 40 H       -4.2320    -9.1480    -1.2540 H     1 <1>   0.0800 
 41 H       -4.2300    -9.0780     0.4680 H     1 <1>   0.0800 
 42 H       -2.4340   -10.6690     1.2590 H     1 <1>   0.1500 
 43 H        0.6200    -9.5130    -1.3490 H     1 <1>   0.2700 
 44 H       -0.0250   -11.9050     1.5870 H     1 <1>   0.0800 
 45 H        1.2840   -10.8210     1.1870 H     1 <1>   0.0800 
 46 H        0.7810   -12.0520     0.0460 H     1 <1>   0.0800 
@<TRIPOS>BOND
  1   1   2  2   
  2   2   3  am  
  3   2   4  1   
  4   3   5  1   
  5   3   6  1   
  6   4   7  1   
  7   4  22  1   
  8   4  23  1   
  9   5   7  1   
 10   5  24  1   
 11   5  25  1   
 12   6   8  1   
 13   6  26  1   
 14   6  27  1   
 15   7  28  1   
 16   7  29  1   
 17   8   9  1   
 18   8  30  1   
 19   8  31  1   
 20   9  10  1   
 21   9  11  1   
 22   9  32  1   
 23  10  12  1   
 24  10  33  1   
 25  10  34  1   
 26  11  13  1   
 27  11  35  1   
 28  11  36  1   
 29  12  13  1   
 30  12  14  1   
 31  12  37  1   
 32  13  15  1   
 33  13  38  1   
 34  14  39  1   
 35  15  16  1   
 36  15  40  1   
 37  15  41  1   
 38  16  17  2   
 39  16  18  1   
 40  17  19  1   
 41  18  20  2   
 42  18  42  1   
 43  19  20  1   
 44  19  43  1   
 45  20  21  1   
 46  21  44  1   
 47  21  45  1   
 48  21  46  1   
@<TRIPOS>SUBSTRUCTURE
  1 ****   9 GROUP 4 **** **** 0

# MOE 2024.06 (io_trps.svl 2023.06)
