@<TRIPOS>MOLECULE
NONAME
50 53 1 0 0 
SMALL
USER_CHARGES


@<TRIPOS>ATOM
  1 O       -0.6940    -0.3430     0.5020 O.3   1 <1>  -0.3630 
  2 C       -0.6740    -1.7080     0.4940 C.ar  1 <1>   0.0830 
  3 C        0.4580     0.4360     0.7290 C.3   1 <1>   0.0400 
  4 C       -1.8960    -2.3880     0.2290 C.ar  1 <1>   0.3100 
  5 C        0.4860    -2.4140     0.7350 C.ar  1 <1>  -0.1500 
  6 N       -3.0280    -1.6670     0.0030 N.ar  1 <1>  -0.6200 
  7 C       -1.8890    -3.8070     0.2140 C.ar  1 <1>   0.0000 
  8 C        0.4810    -3.8070     0.7200 C.ar  1 <1>  -0.1500 
  9 C       -4.1330    -2.3100    -0.2370 C.ar  1 <1>   0.4100 
 10 C       -3.1050    -4.4770    -0.0580 C.ar  1 <1>  -0.1440 
 11 C       -0.6780    -4.4850     0.4650 C.ar  1 <1>  -0.1500 
 12 N       -5.2840    -1.5820    -0.4450 N.pl3 1 <1>  -0.8380 
 13 C       -4.2050    -3.7120    -0.2810 C.ar  1 <1>  -0.1500 
 14 C       -3.1960    -5.9960    -0.1100 C.3   1 <1>  -0.0970 
 15 C       -6.3450    -1.6610     0.5950 C.3   1 <1>   0.2090 
 16 C       -5.1720    -0.2330    -1.0580 C.3   1 <1>   0.2090 
 17 C       -7.7340    -1.3300    -0.0050 C.3   1 <1>   0.0000 
 18 C       -6.5150     0.1570    -1.6860 C.3   1 <1>  -0.1600 
 19 C       -8.8560    -1.4010     1.0480 C.3   1 <1>   0.2000 
 20 C       -7.6760     0.0590    -0.6790 C.3   1 <1>  -0.1600 
 21 C       -8.1660    -2.4360    -0.9850 C.3   1 <1>  -0.1600 
 22 O       -8.4830    -0.9030     2.2860 O.3   1 <1>  -0.6800 
 23 C       -9.2540    -2.8730     1.1680 C.3   1 <1>  -0.1600 
 24 C       -8.7530    -3.5520    -0.1140 C.3   1 <1>  -0.1600 
 25 H        0.1740     1.4710     0.6720 H     1 <1>   0.0800 
 26 H        1.1840     0.2140    -0.0330 H     1 <1>   0.0800 
 27 H        0.8410     0.2150     1.7090 H     1 <1>   0.0800 
 28 H        1.4190    -1.9250     0.9390 H     1 <1>   0.1500 
 29 H        1.3980    -4.3380     0.9110 H     1 <1>   0.1500 
 30 H       -0.6630    -5.5580     0.4560 H     1 <1>   0.1500 
 31 H       -5.1610    -4.1420    -0.5050 H     1 <1>   0.1500 
 32 H       -4.1990    -6.3110    -0.3350 H     1 <1>   0.0800 
 33 H       -2.9150    -6.4150     0.8390 H     1 <1>   0.0800 
 34 H       -2.5430    -6.3780    -0.8740 H     1 <1>   0.0800 
 35 H       -6.3510    -2.6420     1.0370 H     1 <1>   0.0800 
 36 H       -6.1040    -0.9510     1.3680 H     1 <1>   0.0800 
 37 H       -4.8920     0.4780    -0.2990 H     1 <1>   0.0800 
 38 H       -4.4020    -0.2420    -1.8110 H     1 <1>   0.0800 
 39 H       -6.4460     1.1620    -2.0610 H     1 <1>   0.0800 
 40 H       -6.7000    -0.4910    -2.5240 H     1 <1>   0.0800 
 41 H       -9.7050    -0.8300     0.7090 H     1 <1>   0.0800 
 42 H       -8.6050     0.2740    -1.1770 H     1 <1>   0.0800 
 43 H       -7.5350     0.8070     0.0830 H     1 <1>   0.0800 
 44 H       -8.9390    -2.0610    -1.6340 H     1 <1>   0.0800 
 45 H       -7.3540    -2.7910    -1.5960 H     1 <1>   0.0800 
 46 H       -7.8080    -1.4770     2.6920 H     1 <1>   0.4000 
 47 H       -8.7970    -3.3370     2.0250 H     1 <1>   0.0800 
 48 H      -10.3230    -2.9560     1.2470 H     1 <1>   0.0800 
 49 H       -7.9820    -4.2630     0.1300 H     1 <1>   0.0800 
 50 H       -9.5470    -4.0660    -0.6280 H     1 <1>   0.0800 
@<TRIPOS>BOND
  1   1   2  1   
  2   1   3  1   
  3   2   4  ar  
  4   2   5  ar  
  5   3  25  1   
  6   3  26  1   
  7   3  27  1   
  8   4   6  ar  
  9   4   7  ar  
 10   5   8  ar  
 11   5  28  1   
 12   6   9  ar  
 13   7  10  ar  
 14   7  11  ar  
 15   8  11  ar  
 16   8  29  1   
 17   9  12  1   
 18   9  13  ar  
 19  10  13  ar  
 20  10  14  1   
 21  11  30  1   
 22  12  15  1   
 23  12  16  1   
 24  13  31  1   
 25  14  32  1   
 26  14  33  1   
 27  14  34  1   
 28  15  17  1   
 29  15  35  1   
 30  15  36  1   
 31  16  18  1   
 32  16  37  1   
 33  16  38  1   
 34  17  19  1   
 35  17  20  1   
 36  17  21  1   
 37  18  20  1   
 38  18  39  1   
 39  18  40  1   
 40  19  22  1   
 41  19  23  1   
 42  19  41  1   
 43  20  42  1   
 44  20  43  1   
 45  21  24  1   
 46  21  44  1   
 47  21  45  1   
 48  22  46  1   
 49  23  24  1   
 50  23  47  1   
 51  23  48  1   
 52  24  49  1   
 53  24  50  1   
@<TRIPOS>SUBSTRUCTURE
  1 ****   9 GROUP 4 **** **** 0

# MOE 2024.06 (io_trps.svl 2023.06)
