@<TRIPOS>MOLECULE
NONAME
45 47 1 0 0 
SMALL
USER_CHARGES


@<TRIPOS>ATOM
  1 S       -0.6700    -0.0140     0.1930 S.3   1 <1>  -0.0800 
  2 C        0.7400    -1.0550     0.2120 C.2   1 <1>   0.1980 
  3 C        0.3650     1.3340    -0.1760 C.2   1 <1>  -0.1100 
  4 N        1.8370    -0.4580    -0.0320 N.2   1 <1>  -0.5650 
  5 C        0.5240    -2.5240     0.5000 C.3   1 <1>   0.0200 
  6 C        1.6310     0.8960    -0.2510 C.2   1 <1>   0.0770 
  7 C        0.0260    -3.2370    -0.7560 C.3   1 <1>   0.1400 
  8 N       -0.1000    -4.6940    -0.5040 N.am  1 <1>  -0.7300 
  9 C       -1.1830    -5.2890     0.0840 C.2   1 <1>   0.5440 
 10 O       -2.0870    -4.5760     0.4730 O.2   1 <1>  -0.5700 
 11 C       -1.2470    -6.7310     0.2340 C.ar  1 <1>   0.0860 
 12 C       -2.4670    -7.4000     0.1970 C.ar  1 <1>  -0.1500 
 13 C       -0.1020    -7.5050     0.4210 C.ar  1 <1>  -0.1500 
 14 C       -2.5740    -8.7750     0.3220 C.ar  1 <1>   0.1000 
 15 C       -0.1750    -8.8810     0.5500 C.ar  1 <1>  -0.1500 
 16 N       -3.8650    -9.3170     0.2620 N.pl3 1 <1>  -0.8380 
 17 C       -1.4030    -9.5320     0.5030 C.ar  1 <1>   0.0830 
 18 C       -4.3740    -9.9180     1.5280 C.3   1 <1>   0.2090 
 19 C       -4.1510   -10.2100    -0.8980 C.3   1 <1>   0.2090 
 20 O       -1.5100   -10.8870     0.6290 O.3   1 <1>  -0.3620 
 21 C       -5.8570   -10.3090     1.3840 C.3   1 <1>   0.1200 
 22 C       -5.6440   -10.5860    -0.9350 C.3   1 <1>   0.1200 
 23 C       -0.3890   -11.7120     0.8540 C.3   1 <1>   0.0400 
 24 O       -6.0560   -11.1520     0.2810 O.3   1 <1>  -0.5600 
 25 H       -0.0840     2.3020    -0.2960 H     1 <1>   0.1500 
 26 H       -0.1930    -2.6320     1.2930 H     1 <1>   0.0800 
 27 H        1.4580    -2.9540     0.8120 H     1 <1>   0.0800 
 28 H        2.4930     1.5040    -0.4640 H     1 <1>   0.1500 
 29 H        0.7140    -3.0720    -1.5680 H     1 <1>   0.0800 
 30 H       -0.9350    -2.8390    -1.0400 H     1 <1>   0.0800 
 31 H        0.6200    -5.2830    -0.9250 H     1 <1>   0.3700 
 32 H       -3.3700    -6.8310     0.0660 H     1 <1>   0.1500 
 33 H        0.8590    -7.0260     0.4740 H     1 <1>   0.1500 
 34 H        0.7380    -9.4260     0.6910 H     1 <1>   0.1500 
 35 H       -4.2640    -9.2080     2.3280 H     1 <1>   0.0800 
 36 H       -3.8000   -10.7940     1.7740 H     1 <1>   0.0800 
 37 H       -3.5640   -11.1080    -0.8240 H     1 <1>   0.0800 
 38 H       -3.8820    -9.7050    -1.8090 H     1 <1>   0.0800 
 39 H       -6.4600    -9.4280     1.2560 H     1 <1>   0.0800 
 40 H       -6.1880   -10.8330     2.2620 H     1 <1>   0.0800 
 41 H       -5.8240   -11.3070    -1.7110 H     1 <1>   0.0800 
 42 H       -6.2410    -9.7120    -1.1260 H     1 <1>   0.0800 
 43 H       -0.7340   -12.7270     0.9330 H     1 <1>   0.0800 
 44 H        0.0840   -11.4150     1.7730 H     1 <1>   0.0800 
 45 H        0.2860   -11.6190     0.0220 H     1 <1>   0.0800 
@<TRIPOS>BOND
  1   1   2  1   
  2   1   3  1   
  3   2   4  2   
  4   2   5  1   
  5   3   6  2   
  6   3  25  1   
  7   4   6  1   
  8   5   7  1   
  9   5  26  1   
 10   5  27  1   
 11   6  28  1   
 12   7   8  1   
 13   7  29  1   
 14   7  30  1   
 15   8   9  am  
 16   8  31  1   
 17   9  10  2   
 18   9  11  1   
 19  11  12  ar  
 20  11  13  ar  
 21  12  14  ar  
 22  12  32  1   
 23  13  15  ar  
 24  13  33  1   
 25  14  16  1   
 26  14  17  ar  
 27  15  17  ar  
 28  15  34  1   
 29  16  18  1   
 30  16  19  1   
 31  17  20  1   
 32  18  21  1   
 33  18  35  1   
 34  18  36  1   
 35  19  22  1   
 36  19  37  1   
 37  19  38  1   
 38  20  23  1   
 39  21  24  1   
 40  21  39  1   
 41  21  40  1   
 42  22  24  1   
 43  22  41  1   
 44  22  42  1   
 45  23  43  1   
 46  23  44  1   
 47  23  45  1   
@<TRIPOS>SUBSTRUCTURE
  1 ****  11 GROUP 4 **** **** 0

# MOE 2024.06 (io_trps.svl 2023.06)
