@<TRIPOS>MOLECULE
NONAME
40 42 1 0 0 
SMALL
USER_CHARGES


@<TRIPOS>ATOM
  1 F        3.2250     1.3380     2.3540 F     1 <1>  -0.1900 
  2 C        3.4050     1.7670     1.1240 C.ar  1 <1>   0.1900 
  3 C        4.4590     1.2440     0.3480 C.ar  1 <1>  -0.1710 
  4 C        2.6070     2.7800     0.6700 C.ar  1 <1>  -0.1500 
  5 O        5.4010     0.5690     0.8170 O.3   1 <1>  -0.8290 
  6 C        4.5060     1.6080    -1.0010 C.ar  1 <1>  -0.1500 
  7 C        2.8680     3.3290    -0.5910 C.ar  1 <1>   0.0860 
  8 C        3.7170     2.6320    -1.4620 C.ar  1 <1>  -0.1500 
  9 C        2.5350     4.6850    -0.8680 C.2   1 <1>   0.5440 
 10 O        1.4850     5.0450    -1.3660 O.2   1 <1>  -0.5700 
 11 N        3.4910     5.6260    -0.5570 N.am  1 <1>  -0.6600 
 12 C        3.7770     5.9260     0.8880 C.3   1 <1>   0.2200 
 13 C        4.4940     5.9720    -1.5990 C.3   1 <1>   0.1400 
 14 C        4.2010     7.3890     1.0940 C.3   1 <1>   0.1200 
 15 C        4.8150     4.9700     1.5410 C.3   1 <1>   0.3430 
 16 C        5.9190     6.2220    -1.0710 C.3   1 <1>  -0.0800 
 17 O        5.5830     7.5300     0.9440 O.3   1 <1>  -0.5600 
 18 N        5.7080     4.2310     0.5860 N.4   1 <1>  -0.9590 
 19 C        6.0440     7.5820    -0.3650 C.3   1 <1>   0.1200 
 20 C        6.5880     5.0720    -0.2810 C.3   1 <1>   0.3430 
 21 C        6.5130     3.2050     1.3260 C.3   1 <1>   0.2630 
 22 H        1.8370     3.1910     1.2940 H     1 <1>   0.1500 
 23 H        5.1980     1.0790    -1.6330 H     1 <1>   0.1500 
 24 H        3.7810     2.9380    -2.4900 H     1 <1>   0.1500 
 25 H        2.8500     5.8090     1.4240 H     1 <1>   0.0800 
 26 H        4.5270     5.1820    -2.3280 H     1 <1>   0.0800 
 27 H        4.1460     6.8530    -2.1130 H     1 <1>   0.0800 
 28 H        3.9730     7.6830     2.1030 H     1 <1>   0.0800 
 29 H        3.6810     8.0530     0.4230 H     1 <1>   0.0800 
 30 H        4.2710     4.2440     2.1230 H     1 <1>   0.0800 
 31 H        5.4180     5.5340     2.2320 H     1 <1>   0.0800 
 32 H        6.5200     6.3360    -1.9550 H     1 <1>   0.0800 
 33 H        5.0870     3.6560    -0.0150 H     1 <1>   0.4500 
 34 H        5.5110     8.3560    -0.8930 H     1 <1>   0.0800 
 35 H        7.0810     7.8710    -0.3140 H     1 <1>   0.0800 
 36 H        7.3690     5.4980     0.3270 H     1 <1>   0.0800 
 37 H        7.0640     4.4160    -0.9920 H     1 <1>   0.0800 
 38 H        7.2590     3.6710     1.9470 H     1 <1>   0.0800 
 39 H        6.9920     2.5330     0.6310 H     1 <1>   0.0800 
 40 H        5.8690     2.6000     1.9460 H     1 <1>   0.0800 
@<TRIPOS>BOND
  1   1   2  1   
  2   2   3  ar  
  3   2   4  ar  
  4   3   5  1   
  5   3   6  ar  
  6   4   7  ar  
  7   4  22  1   
  8   6   8  ar  
  9   6  23  1   
 10   7   8  ar  
 11   7   9  1   
 12   8  24  1   
 13   9  10  2   
 14   9  11  am  
 15  11  12  1   
 16  11  13  1   
 17  12  14  1   
 18  12  15  1   
 19  12  25  1   
 20  13  16  1   
 21  13  26  1   
 22  13  27  1   
 23  14  17  1   
 24  14  28  1   
 25  14  29  1   
 26  15  18  1   
 27  15  30  1   
 28  15  31  1   
 29  16  19  1   
 30  16  20  1   
 31  16  32  1   
 32  17  19  1   
 33  18  20  1   
 34  18  21  1   
 35  18  33  1   
 36  19  34  1   
 37  19  35  1   
 38  20  36  1   
 39  20  37  1   
 40  21  38  1   
 41  21  39  1   
 42  21  40  1   
@<TRIPOS>SUBSTRUCTURE
  1 ****  18 GROUP 4 **** **** 0

# MOE 2024.06 (io_trps.svl 2023.06)
