@<TRIPOS>MOLECULE
NONAME
55 57 1 0 0 
SMALL
USER_CHARGES


@<TRIPOS>ATOM
  1 CL       0.2790    -0.5560     0.0790 Cl    1 <1>  -0.1770 
  2 C       -0.8200    -1.9070    -0.0260 C.ar  1 <1>   0.1770 
  3 C       -2.1820    -1.6750    -0.0660 C.ar  1 <1>  -0.1500 
  4 C       -0.3150    -3.1930    -0.0680 C.ar  1 <1>  -0.1500 
  5 C       -3.0470    -2.7520    -0.1480 C.ar  1 <1>  -0.1500 
  6 C       -1.1910    -4.2610    -0.1510 C.ar  1 <1>  -0.1500 
  7 C       -2.5710    -4.0610    -0.1890 C.ar  1 <1>   0.0530 
  8 C       -3.4870    -5.1700    -0.2690 C.2   1 <1>  -0.2050 
  9 N       -3.3130    -6.3410     0.4140 N.pl3 1 <1>   0.0330 
 10 C       -4.6470    -5.2830    -0.9840 C.2   1 <1>  -0.1500 
 11 C       -4.3450    -7.1760     0.1280 C.2   1 <1>  -0.3320 
 12 C       -5.1860    -6.5450    -0.7360 C.2   1 <1>  -0.1500 
 13 C       -4.4270    -8.5660     0.7450 C.3   1 <1>   0.0200 
 14 C       -5.6470    -9.3540     0.2510 C.3   1 <1>  -0.0990 
 15 C       -5.7260   -10.7630     0.8180 C.2   1 <1>   0.5690 
 16 O       -5.0110   -11.0700     1.7420 O.2   1 <1>  -0.5700 
 17 N       -6.6080   -11.6570     0.2790 N.am  1 <1>  -0.6600 
 18 C       -7.6190   -11.3880    -0.7740 C.3   1 <1>   0.1400 
 19 C       -6.7230   -13.0580     0.7580 C.3   1 <1>   0.1400 
 20 C       -8.6660   -12.4800    -0.5680 C.3   1 <1>   0.2000 
 21 C       -7.8510   -13.6800    -0.0790 C.3   1 <1>  -0.0800 
 22 O       -9.5240   -12.0710     0.4420 O.3   1 <1>  -0.6800 
 23 C       -8.6830   -14.7490     0.6620 C.3   1 <1>  -0.0550 
 24 S       -7.7900   -16.2630     1.0210 S.o2  1 <1>   1.3330 
 25 O       -8.7160   -17.2530     1.5230 O.2   1 <1>  -0.6500 
 26 O       -6.6190   -15.9200     1.7950 O.2   1 <1>  -0.6500 
 27 N       -7.2700   -16.7780    -0.5130 N.am  1 <1>  -0.8490 
 28 C       -8.2970   -17.5190    -1.2540 C.3   1 <1>   0.1160 
 29 C       -6.0410   -17.5730    -0.4410 C.3   1 <1>   0.1160 
 30 H       -2.5540    -0.6670    -0.0330 H     1 <1>   0.1500 
 31 H        0.7490    -3.3480    -0.0400 H     1 <1>   0.1500 
 32 H       -4.1090    -2.5830    -0.1760 H     1 <1>   0.1500 
 33 H       -0.8010    -5.2620    -0.1970 H     1 <1>   0.1500 
 34 H       -2.5360    -6.5360     1.0530 H     1 <1>   0.2700 
 35 H       -5.0820    -4.5440    -1.6330 H     1 <1>   0.1500 
 36 H       -6.1020    -6.9110    -1.1680 H     1 <1>   0.1500 
 37 H       -3.5330    -9.1140     0.4990 H     1 <1>   0.0800 
 38 H       -4.4740    -8.4730     1.8160 H     1 <1>   0.0800 
 39 H       -5.6020    -9.4190    -0.8200 H     1 <1>   0.0800 
 40 H       -6.5410    -8.8270     0.5280 H     1 <1>   0.0800 
 41 H       -8.0500   -10.4050    -0.6880 H     1 <1>   0.0800 
 42 H       -7.1570   -11.5010    -1.7390 H     1 <1>   0.0800 
 43 H       -5.7910   -13.5830     0.6200 H     1 <1>   0.0800 
 44 H       -6.9690   -13.0540     1.8070 H     1 <1>   0.0800 
 45 H       -9.2470   -12.6840    -1.4520 H     1 <1>   0.0800 
 46 H       -7.3960   -14.1320    -0.9440 H     1 <1>   0.0800 
 47 H       -8.9890   -11.7360     1.1910 H     1 <1>   0.4000 
 48 H       -9.5380   -14.9900     0.0610 H     1 <1>   0.0800 
 49 H       -9.0500   -14.3390     1.5830 H     1 <1>   0.0800 
 50 H       -7.9470   -17.7430    -2.2470 H     1 <1>   0.0800 
 51 H       -9.1950   -16.9320    -1.3350 H     1 <1>   0.0800 
 52 H       -8.5330   -18.4430    -0.7500 H     1 <1>   0.0800 
 53 H       -5.7320   -17.8760    -1.4270 H     1 <1>   0.0800 
 54 H       -6.1970   -18.4490     0.1680 H     1 <1>   0.0800 
 55 H       -5.2470   -16.9880    -0.0060 H     1 <1>   0.0800 
@<TRIPOS>BOND
  1   1   2  1   
  2   2   3  ar  
  3   2   4  ar  
  4   3   5  ar  
  5   3  30  1   
  6   4   6  ar  
  7   4  31  1   
  8   5   7  ar  
  9   5  32  1   
 10   6   7  ar  
 11   6  33  1   
 12   7   8  1   
 13   8   9  1   
 14   8  10  2   
 15   9  11  1   
 16   9  34  1   
 17  10  12  1   
 18  10  35  1   
 19  11  12  2   
 20  11  13  1   
 21  12  36  1   
 22  13  14  1   
 23  13  37  1   
 24  13  38  1   
 25  14  15  1   
 26  14  39  1   
 27  14  40  1   
 28  15  16  2   
 29  15  17  am  
 30  17  18  1   
 31  17  19  1   
 32  18  20  1   
 33  18  41  1   
 34  18  42  1   
 35  19  21  1   
 36  19  43  1   
 37  19  44  1   
 38  20  21  1   
 39  20  22  1   
 40  20  45  1   
 41  21  23  1   
 42  21  46  1   
 43  22  47  1   
 44  23  24  1   
 45  23  48  1   
 46  23  49  1   
 47  24  25  2   
 48  24  26  2   
 49  24  27  am  
 50  27  28  1   
 51  27  29  1   
 52  28  50  1   
 53  28  51  1   
 54  28  52  1   
 55  29  53  1   
 56  29  54  1   
 57  29  55  1   
@<TRIPOS>SUBSTRUCTURE
  1 ****  14 GROUP 4 **** **** 0

# MOE 2024.06 (io_trps.svl 2023.06)
