@<TRIPOS>MOLECULE
NONAME
46 47 1 0 0 
SMALL
USER_CHARGES


@<TRIPOS>ATOM
  1 S       -0.5350     0.1960     1.8070 S.o2  1 <1>   1.4470 
  2 O       -1.1490     1.2730     2.5440 O.2   1 <1>  -0.6500 
  3 O       -0.3880    -1.0980     2.4320 O.2   1 <1>  -0.6500 
  4 N       -1.5480     0.0180     0.4770 N.am  1 <1>  -0.9140 
  5 C        1.0320     0.7550     1.0840 C.ar  1 <1>  -0.0090 
  6 C       -1.6240    -1.2610    -0.2380 C.3   1 <1>   0.2760 
  7 C        1.0710     1.8410     0.2170 C.ar  1 <1>  -0.1500 
  8 C        2.2310     0.1130     1.3750 C.ar  1 <1>  -0.1500 
  9 C       -2.3680    -2.3580     0.5290 C.3   1 <1>  -0.0800 
 10 C       -0.2930    -1.9090    -0.6390 C.3   1 <1>   0.1200 
 11 C        2.2580     2.2720    -0.3490 C.ar  1 <1>  -0.1500 
 12 C        3.4230     0.5350     0.8140 C.ar  1 <1>  -0.1500 
 13 C       -1.3510    -3.5050     0.5510 C.3   1 <1>   0.1200 
 14 C       -3.6620    -2.7610    -0.2040 C.3   1 <1>  -0.0550 
 15 O       -0.5300    -3.2750    -0.5460 O.3   1 <1>  -0.5600 
 16 C        3.4470     1.6150    -0.0520 C.ar  1 <1>   0.0830 
 17 S       -4.7620    -3.7780     0.7800 S.o2  1 <1>   1.3330 
 18 O        4.6530     1.9650    -0.5610 O.3   1 <1>  -0.3630 
 19 O       -4.1500    -5.0610     1.0420 O.2   1 <1>  -0.6500 
 20 O       -5.2240    -2.9620     1.8800 O.2   1 <1>  -0.6500 
 21 N       -6.0660    -4.0300    -0.2760 N.am  1 <1>  -0.8490 
 22 C        4.7920     3.0620    -1.4360 C.3   1 <1>   0.0400 
 23 C       -7.3300    -4.2260     0.4410 C.3   1 <1>   0.1160 
 24 C       -5.8500    -5.1410    -1.2110 C.3   1 <1>   0.1160 
 25 H       -2.4690     0.2400     0.8540 H     1 <1>   0.4200 
 26 H       -2.1500    -1.0680    -1.1580 H     1 <1>   0.0800 
 27 H        0.1540     2.3570    -0.0170 H     1 <1>   0.1500 
 28 H        2.2340    -0.7290     2.0480 H     1 <1>   0.1500 
 29 H       -2.6050    -2.0620     1.5370 H     1 <1>   0.0800 
 30 H        0.5110    -1.6800     0.0340 H     1 <1>   0.0800 
 31 H       -0.0140    -1.6730    -1.6500 H     1 <1>   0.0800 
 32 H        2.2380     3.1150    -1.0140 H     1 <1>   0.1500 
 33 H        4.3440     0.0300     1.0440 H     1 <1>   0.1500 
 34 H       -1.7890    -4.4830     0.4620 H     1 <1>   0.0800 
 35 H       -0.7410    -3.4650     1.4380 H     1 <1>   0.0800 
 36 H       -3.4090    -3.2750    -1.1110 H     1 <1>   0.0800 
 37 H       -4.1980    -1.8710    -0.4720 H     1 <1>   0.0800 
 38 H        5.8310     3.1500    -1.6980 H     1 <1>   0.0800 
 39 H        4.4660     3.9550    -0.9330 H     1 <1>   0.0800 
 40 H        4.2070     2.8800    -2.3200 H     1 <1>   0.0800 
 41 H       -8.1380    -4.3680    -0.2560 H     1 <1>   0.0800 
 42 H       -7.5530    -3.3590     1.0400 H     1 <1>   0.0800 
 43 H       -7.2650    -5.0850     1.0890 H     1 <1>   0.0800 
 44 H       -6.6630    -5.1950    -1.9150 H     1 <1>   0.0800 
 45 H       -5.7850    -6.0760    -0.6780 H     1 <1>   0.0800 
 46 H       -4.9360    -4.9930    -1.7600 H     1 <1>   0.0800 
@<TRIPOS>BOND
  1   1   2  2   
  2   1   3  2   
  3   1   4  am  
  4   1   5  1   
  5   4   6  1   
  6   4  25  1   
  7   5   7  ar  
  8   5   8  ar  
  9   6   9  1   
 10   6  10  1   
 11   6  26  1   
 12   7  11  ar  
 13   7  27  1   
 14   8  12  ar  
 15   8  28  1   
 16   9  13  1   
 17   9  14  1   
 18   9  29  1   
 19  10  15  1   
 20  10  30  1   
 21  10  31  1   
 22  11  16  ar  
 23  11  32  1   
 24  12  16  ar  
 25  12  33  1   
 26  13  15  1   
 27  13  34  1   
 28  13  35  1   
 29  14  17  1   
 30  14  36  1   
 31  14  37  1   
 32  16  18  1   
 33  17  19  2   
 34  17  20  2   
 35  17  21  am  
 36  18  22  1   
 37  21  23  1   
 38  21  24  1   
 39  22  38  1   
 40  22  39  1   
 41  22  40  1   
 42  23  41  1   
 43  23  42  1   
 44  23  43  1   
 45  24  44  1   
 46  24  45  1   
 47  24  46  1   
@<TRIPOS>SUBSTRUCTURE
  1 ****   6 GROUP 4 **** **** 0

# MOE 2024.06 (io_trps.svl 2023.06)
