@<TRIPOS>MOLECULE
NONAME
47 49 1 0 0 
SMALL
USER_CHARGES


@<TRIPOS>ATOM
  1 O        1.6510    -0.5160    -2.1970 O.2   1 <1>  -0.5700 
  2 C        2.3230    -0.7820    -1.2210 C.2   1 <1>   0.5440 
  3 N        3.0530     0.2310    -0.6300 N.am  1 <1>  -0.6600 
  4 C        2.3310    -2.1330    -0.7000 C.ar  1 <1>   0.0860 
  5 C        3.5910     0.1060     0.7790 C.3   1 <1>   0.2200 
  6 C        3.2440     1.5110    -1.3840 C.3   1 <1>   0.1400 
  7 C        3.4850    -2.8960    -0.6220 C.ar  1 <1>  -0.1500 
  8 C        1.1850    -2.7470    -0.2210 C.ar  1 <1>  -0.1500 
  9 C        3.1700     1.2790     1.6780 C.3   1 <1>   0.1200 
 10 C        5.1240    -0.0730     0.7870 C.3   1 <1>   0.3430 
 11 C        4.3310     2.4550    -0.8330 C.3   1 <1>  -0.0800 
 12 C        3.4570    -4.1530    -0.0500 C.ar  1 <1>   0.1660 
 13 C        1.2510    -4.0150     0.3280 C.ar  1 <1>   0.1660 
 14 O        4.0570     2.3530     1.5640 O.3   1 <1>  -0.5600 
 15 N        5.7600     0.3820    -0.4990 N.4   1 <1>  -0.9590 
 16 C        3.8820     3.1640     0.4520 C.3   1 <1>   0.1200 
 17 C        5.7470     1.8530    -0.7110 C.3   1 <1>   0.3430 
 18 N        2.3640    -4.7170     0.4350 N.ar  1 <1>  -0.6200 
 19 C        4.7360    -4.9590     0.0480 C.3   1 <1>  -0.0970 
 20 C        0.0000    -4.6840     0.8560 C.3   1 <1>  -0.0970 
 21 C        7.1350    -0.2530    -0.6410 C.3   1 <1>   0.2370 
 22 C        7.0940    -1.7840    -0.6330 C.2   1 <1>   0.9060 
 23 O        7.1350    -2.3630     0.4550 O.co2 1 <1>  -0.9000 
 24 O        6.8290    -2.3570    -1.6900 O.co2 1 <1>  -0.9000 
 25 H        3.1670    -0.7700     1.2370 H     1 <1>   0.0800 
 26 H        3.4890     1.2630    -2.4050 H     1 <1>   0.0800 
 27 H        2.3010     2.0300    -1.4110 H     1 <1>   0.0800 
 28 H        4.4100    -2.5160    -1.0110 H     1 <1>   0.1500 
 29 H        0.2490    -2.2240    -0.2820 H     1 <1>   0.1500 
 30 H        3.2100     0.9620     2.7060 H     1 <1>   0.0800 
 31 H        2.1640     1.6020     1.4660 H     1 <1>   0.0800 
 32 H        5.3220    -1.1210     0.9380 H     1 <1>   0.0800 
 33 H        5.5520     0.4540     1.6240 H     1 <1>   0.0800 
 34 H        4.4130     3.2450    -1.5580 H     1 <1>   0.0800 
 35 H        5.1710    -0.0500    -1.2320 H     1 <1>   0.4500 
 36 H        2.8510     3.4750     0.3990 H     1 <1>   0.0800 
 37 H        4.4860     4.0410     0.6130 H     1 <1>   0.0800 
 38 H        6.2720     2.3380     0.0960 H     1 <1>   0.0800 
 39 H        6.2810     2.0640    -1.6230 H     1 <1>   0.0800 
 40 H        5.5540    -4.4560    -0.4380 H     1 <1>   0.0800 
 41 H        4.5970    -5.9170    -0.4170 H     1 <1>   0.0800 
 42 H        4.9930    -5.1050     1.0800 H     1 <1>   0.0800 
 43 H       -0.8610    -4.0550     0.7300 H     1 <1>   0.0800 
 44 H        0.1250    -4.9040     1.9000 H     1 <1>   0.0800 
 45 H       -0.1610    -5.6050     0.3260 H     1 <1>   0.0800 
 46 H        7.5820     0.0440    -1.5720 H     1 <1>   0.0800 
 47 H        7.7720     0.0590     0.1660 H     1 <1>   0.0800 
@<TRIPOS>BOND
  1   1   2  2   
  2   2   3  am  
  3   2   4  1   
  4   3   5  1   
  5   3   6  1   
  6   4   7  ar  
  7   4   8  ar  
  8   5   9  1   
  9   5  10  1   
 10   5  25  1   
 11   6  11  1   
 12   6  26  1   
 13   6  27  1   
 14   7  12  ar  
 15   7  28  1   
 16   8  13  ar  
 17   8  29  1   
 18   9  14  1   
 19   9  30  1   
 20   9  31  1   
 21  10  15  1   
 22  10  32  1   
 23  10  33  1   
 24  11  16  1   
 25  11  17  1   
 26  11  34  1   
 27  12  18  ar  
 28  12  19  1   
 29  13  18  ar  
 30  13  20  1   
 31  14  16  1   
 32  15  17  1   
 33  15  21  1   
 34  15  35  1   
 35  16  36  1   
 36  16  37  1   
 37  17  38  1   
 38  17  39  1   
 39  19  40  1   
 40  19  41  1   
 41  19  42  1   
 42  20  43  1   
 43  20  44  1   
 44  20  45  1   
 45  21  22  1   
 46  21  46  1   
 47  21  47  1   
 48  22  23  ar  
 49  22  24  ar  
@<TRIPOS>SUBSTRUCTURE
  1 ****   5 GROUP 4 **** **** 0

# MOE 2024.06 (io_trps.svl 2023.06)
