@<TRIPOS>MOLECULE
NONAME
45 48 1 0 0 
SMALL
USER_CHARGES


@<TRIPOS>ATOM
  1 O       -0.7260    -0.5410    -0.8270 O.2   1 <1>  -0.5700 
  2 C       -1.1120    -1.6300    -0.4940 C.2   1 <1>   0.4230 
  3 C       -2.3300    -1.9700     0.1690 C.ar  1 <1>   0.0860 
  4 C       -0.3160    -2.8910    -0.7550 C.3   1 <1>  -0.0990 
  5 C       -2.4210    -3.3340     0.3590 C.ar  1 <1>  -0.1440 
  6 C       -3.3560    -1.1430     0.6090 C.ar  1 <1>  -0.1500 
  7 C       -1.1860    -4.0330    -0.1870 C.3   1 <1>  -0.0160 
  8 C       -3.5200    -3.9270     0.9770 C.ar  1 <1>   0.0860 
  9 C       -4.4560    -1.6990     1.2380 C.ar  1 <1>  -0.1500 
 10 C       -3.6150    -5.3630     1.1550 C.2   1 <1>   0.5440 
 11 C       -4.5310    -3.0710     1.4200 C.ar  1 <1>  -0.1500 
 12 O       -2.7550    -5.9590     1.7750 O.2   1 <1>  -0.5700 
 13 N       -4.6570    -6.0830     0.6210 N.am  1 <1>  -0.6600 
 14 C       -5.5930    -5.5960    -0.4250 C.3   1 <1>   0.1400 
 15 C       -4.7840    -7.5540     0.7810 C.3   1 <1>   0.1400 
 16 C       -6.6000    -6.7320    -0.5900 C.3   1 <1>   0.2000 
 17 C       -5.7760    -7.9930    -0.3040 C.3   1 <1>  -0.0800 
 18 O       -7.5750    -6.5830     0.3850 O.3   1 <1>  -0.6800 
 19 C       -6.6030    -9.2370     0.0720 C.3   1 <1>   0.0200 
 20 C       -5.7630   -10.4960     0.2120 C.2   1 <1>  -0.0400 
 21 O       -6.3350   -11.5830     0.6560 O.3   1 <1>  -0.0190 
 22 C       -4.4740   -10.7850    -0.0320 C.2   1 <1>  -0.1500 
 23 N       -5.5020   -12.5800     0.7250 N.2   1 <1>  -0.4100 
 24 C       -4.3720   -12.1280     0.3170 C.2   1 <1>   0.1080 
 25 C       -3.1070   -12.9530     0.2330 C.3   1 <1>  -0.0590 
 26 H       -0.1570    -3.0100    -1.8110 H     1 <1>   0.0800 
 27 H        0.6300    -2.8340    -0.2480 H     1 <1>   0.0800 
 28 H       -3.2790    -0.0800     0.4570 H     1 <1>   0.1500 
 29 H       -0.6690    -4.5510     0.6040 H     1 <1>   0.0800 
 30 H       -1.4560    -4.7340    -0.9570 H     1 <1>   0.0800 
 31 H       -5.2510    -1.0630     1.5890 H     1 <1>   0.1500 
 32 H       -5.3860    -3.4930     1.9200 H     1 <1>   0.1500 
 33 H       -6.0790    -4.6780    -0.1450 H     1 <1>   0.0800 
 34 H       -5.0490    -5.4520    -1.3420 H     1 <1>   0.0800 
 35 H       -3.8270    -8.0340     0.6640 H     1 <1>   0.0800 
 36 H       -5.1660    -7.7660     1.7650 H     1 <1>   0.0800 
 37 H       -7.0780    -6.7400    -1.5540 H     1 <1>   0.0800 
 38 H       -5.2110    -8.2170    -1.1920 H     1 <1>   0.0800 
 39 H       -7.1380    -6.4550     1.2520 H     1 <1>   0.4000 
 40 H       -7.3500    -9.4100    -0.6830 H     1 <1>   0.0800 
 41 H       -7.1170    -9.0700     1.0030 H     1 <1>   0.0800 
 42 H       -3.6780   -10.1710    -0.4060 H     1 <1>   0.1500 
 43 H       -2.3420   -12.5120     0.8460 H     1 <1>   0.0800 
 44 H       -2.7670   -12.9960    -0.7850 H     1 <1>   0.0800 
 45 H       -3.2970   -13.9530     0.5790 H     1 <1>   0.0800 
@<TRIPOS>BOND
  1   1   2  2   
  2   2   3  1   
  3   2   4  1   
  4   3   5  ar  
  5   3   6  ar  
  6   4   7  1   
  7   4  26  1   
  8   4  27  1   
  9   5   7  1   
 10   5   8  ar  
 11   6   9  ar  
 12   6  28  1   
 13   7  29  1   
 14   7  30  1   
 15   8  10  1   
 16   8  11  ar  
 17   9  11  ar  
 18   9  31  1   
 19  10  12  2   
 20  10  13  am  
 21  11  32  1   
 22  13  14  1   
 23  13  15  1   
 24  14  16  1   
 25  14  33  1   
 26  14  34  1   
 27  15  17  1   
 28  15  35  1   
 29  15  36  1   
 30  16  17  1   
 31  16  18  1   
 32  16  37  1   
 33  17  19  1   
 34  17  38  1   
 35  18  39  1   
 36  19  20  1   
 37  19  40  1   
 38  19  41  1   
 39  20  21  1   
 40  20  22  2   
 41  21  23  1   
 42  22  24  1   
 43  22  42  1   
 44  23  24  2   
 45  24  25  1   
 46  25  43  1   
 47  25  44  1   
 48  25  45  1   
@<TRIPOS>SUBSTRUCTURE
  1 ****  13 GROUP 4 **** **** 0

# MOE 2024.06 (io_trps.svl 2023.06)
