@<TRIPOS>MOLECULE
NONAME
51 54 1 0 0 
SMALL
USER_CHARGES


@<TRIPOS>ATOM
  1 O       -0.7350    -0.6470    -1.7900 O.2   1 <1>  -0.5700 
  2 C       -1.2800    -1.3330    -0.9360 C.2   1 <1>   0.5440 
  3 N       -0.5970    -2.4630    -0.4930 N.am  1 <1>  -0.6600 
  4 C       -2.6540    -1.1540    -0.5540 C.ar  1 <1>   0.3960 
  5 C       -0.6400    -2.9070     0.9470 C.3   1 <1>   0.2200 
  6 C       -0.1140    -3.4210    -1.5100 C.3   1 <1>   0.1400 
  7 N       -2.9900    -0.7040     0.6800 N.ar  1 <1>  -0.6200 
  8 C       -3.6010    -1.7390    -1.4060 C.ar  1 <1>  -0.1500 
  9 C        0.5500    -3.8230     1.3220 C.3   1 <1>   0.1200 
 10 C       -1.9860    -3.5730     1.3420 C.3   1 <1>   0.3430 
 11 C       -0.6020    -4.8460    -1.2190 C.3   1 <1>  -0.0800 
 12 C       -4.1330    -1.1450     1.1520 C.ar  1 <1>   0.1600 
 13 C       -4.7660    -2.2270    -0.8920 C.ar  1 <1>  -0.1500 
 14 O        0.2880    -5.1800     1.0510 O.3   1 <1>  -0.5600 
 15 N       -2.3620    -4.8460     0.6480 N.4   1 <1>  -0.9590 
 16 C        0.3770    -5.5890    -0.2830 C.3   1 <1>   0.1200 
 17 C       -2.1000    -4.8940    -0.8250 C.3   1 <1>   0.3430 
 18 C       -4.9500    -2.0730     0.4770 C.ar  1 <1>  -0.1710 
 19 C       -3.7990    -5.1170     0.9590 C.3   1 <1>   0.5240 
 20 O       -5.7540    -2.8130     1.0800 O.3   1 <1>  -0.8290 
 21 C       -4.1590    -6.4980     0.4640 C.2   1 <1>  -0.1810 
 22 C       -5.1480    -6.8260    -0.3810 C.2   1 <1>  -0.0400 
 23 C       -3.5560    -7.7240     0.7510 C.2   1 <1>   0.1080 
 24 O       -5.0890    -8.1130    -0.5860 O.3   1 <1>  -0.0190 
 25 C       -6.2250    -5.9970    -1.0540 C.3   1 <1>  -0.0600 
 26 N       -4.1250    -8.6670     0.0920 N.2   1 <1>  -0.4100 
 27 C       -2.4040    -7.9710     1.7030 C.3   1 <1>  -0.0590 
 28 H       -0.5450    -2.0130     1.5390 H     1 <1>   0.0800 
 29 H       -0.4800    -3.1140    -2.4770 H     1 <1>   0.0800 
 30 H        0.9610    -3.3820    -1.5540 H     1 <1>   0.0800 
 31 H       -3.3640    -1.8580    -2.4460 H     1 <1>   0.1500 
 32 H        0.7150    -3.7550     2.3830 H     1 <1>   0.0800 
 33 H        1.4570    -3.5180     0.8280 H     1 <1>   0.0800 
 34 H       -2.7740    -2.8780     1.1850 H     1 <1>   0.0800 
 35 H       -1.9590    -3.7580     2.4020 H     1 <1>   0.0800 
 36 H       -0.5320    -5.3540    -2.1640 H     1 <1>   0.0800 
 37 H       -4.4540    -0.8450     2.1340 H     1 <1>   0.1500 
 38 H       -5.5120    -2.7400    -1.4700 H     1 <1>   0.1500 
 39 H       -1.7650    -5.5710     1.0670 H     1 <1>   0.4500 
 40 H        1.3960    -5.4530    -0.6080 H     1 <1>   0.0800 
 41 H        0.1660    -6.6450    -0.3020 H     1 <1>   0.0800 
 42 H       -2.5070    -5.8160    -1.2080 H     1 <1>   0.0800 
 43 H       -2.6270    -4.0890    -1.3090 H     1 <1>   0.0800 
 44 H       -3.9860    -5.0420     2.0180 H     1 <1>   0.0800 
 45 H       -4.4210    -4.3960     0.4610 H     1 <1>   0.0800 
 46 H       -6.1980    -4.9790    -0.7070 H     1 <1>   0.0800 
 47 H       -7.1920    -6.4050    -0.8200 H     1 <1>   0.0800 
 48 H       -6.0920    -6.0120    -2.1200 H     1 <1>   0.0800 
 49 H       -2.4860    -7.3380     2.5660 H     1 <1>   0.0800 
 50 H       -1.4680    -7.7920     1.2080 H     1 <1>   0.0800 
 51 H       -2.4240    -8.9960     2.0320 H     1 <1>   0.0800 
@<TRIPOS>BOND
  1   1   2  2   
  2   2   3  am  
  3   2   4  1   
  4   3   5  1   
  5   3   6  1   
  6   4   7  ar  
  7   4   8  ar  
  8   5   9  1   
  9   5  10  1   
 10   5  28  1   
 11   6  11  1   
 12   6  29  1   
 13   6  30  1   
 14   7  12  ar  
 15   8  13  ar  
 16   8  31  1   
 17   9  14  1   
 18   9  32  1   
 19   9  33  1   
 20  10  15  1   
 21  10  34  1   
 22  10  35  1   
 23  11  16  1   
 24  11  17  1   
 25  11  36  1   
 26  12  18  ar  
 27  12  37  1   
 28  13  18  ar  
 29  13  38  1   
 30  14  16  1   
 31  15  17  1   
 32  15  19  1   
 33  15  39  1   
 34  16  40  1   
 35  16  41  1   
 36  17  42  1   
 37  17  43  1   
 38  18  20  1   
 39  19  21  1   
 40  19  44  1   
 41  19  45  1   
 42  21  22  2   
 43  21  23  1   
 44  22  24  1   
 45  22  25  1   
 46  23  26  2   
 47  23  27  1   
 48  24  26  1   
 49  25  46  1   
 50  25  47  1   
 51  25  48  1   
 52  27  49  1   
 53  27  50  1   
 54  27  51  1   
@<TRIPOS>SUBSTRUCTURE
  1 ****  15 GROUP 4 **** **** 0

# MOE 2024.06 (io_trps.svl 2023.06)
