@<TRIPOS>MOLECULE
NONAME
44 46 1 0 0 
SMALL
USER_CHARGES


@<TRIPOS>ATOM
  1 O        0.0890     0.0500    -1.0720 O.3   1 <1>  -0.0190 
  2 N        0.8080     0.9920    -0.5450 N.2   1 <1>  -0.4100 
  3 C       -1.1050     0.5730    -1.1660 C.2   1 <1>   0.2980 
  4 C        0.0440     2.0060    -0.3450 C.2   1 <1>   0.4620 
  5 N       -1.2090     1.7690    -0.7440 N.2   1 <1>  -0.5650 
  6 C       -2.2310    -0.2660    -1.7650 C.3   1 <1>   0.2900 
  7 C        0.4530     3.2690     0.2360 C.ar  1 <1>   0.0540 
  8 N       -2.5560    -1.4800    -0.9820 N.3   1 <1>  -0.8100 
  9 C        1.7710     3.4800     0.6440 C.ar  1 <1>   0.1600 
 10 C       -0.4330     4.3260     0.4180 C.ar  1 <1>  -0.1500 
 11 C       -3.5590    -2.3100    -1.7020 C.3   1 <1>   0.2540 
 12 C       -2.9990    -1.1530     0.3820 C.3   1 <1>   0.0300 
 13 N        2.2520     4.5900     1.1850 N.ar  1 <1>  -0.6200 
 14 C        0.0450     5.4900     0.9790 C.ar  1 <1>  -0.1500 
 15 C       -3.8080    -3.6870    -1.0750 C.ar  1 <1>   0.1670 
 16 C        1.3780     5.5700     1.3410 C.ar  1 <1>   0.1600 
 17 N       -2.9230    -4.6300    -1.3860 N.ar  1 <1>  -0.6200 
 18 C       -4.9200    -3.8910    -0.2550 C.ar  1 <1>   0.0820 
 19 C       -3.1340    -5.8190    -0.8530 C.ar  1 <1>   0.1600 
 20 O       -5.7520    -2.8270    -0.0290 O.3   1 <1>  -0.3630 
 21 C       -5.1340    -5.1660     0.2790 C.ar  1 <1>   0.0820 
 22 C       -4.1980    -6.1370    -0.0340 C.ar  1 <1>  -0.1500 
 23 C       -6.3260    -2.6180     1.2430 C.3   1 <1>   0.0400 
 24 O       -6.2230    -5.4330     1.0500 O.3   1 <1>  -0.3630 
 25 C       -6.5230    -6.7330     1.5090 C.3   1 <1>   0.0400 
 26 H       -1.9260    -0.5590    -2.7540 H     1 <1>   0.0800 
 27 H       -3.1090     0.3490    -1.8540 H     1 <1>   0.0800 
 28 H        2.4740     2.6750     0.5130 H     1 <1>   0.1500 
 29 H       -1.4660     4.2370     0.1280 H     1 <1>   0.1500 
 30 H       -3.2080    -2.4830    -2.7050 H     1 <1>   0.0800 
 31 H       -4.4850    -1.7670    -1.7810 H     1 <1>   0.0800 
 32 H       -2.2490    -0.5750     0.8930 H     1 <1>   0.0800 
 33 H       -3.1520    -2.0570     0.9450 H     1 <1>   0.0800 
 34 H       -3.9200    -0.5940     0.3580 H     1 <1>   0.0800 
 35 H       -0.6070     6.3300     1.1360 H     1 <1>   0.1500 
 36 H        1.7440     6.4840     1.7790 H     1 <1>   0.1500 
 37 H       -2.4140    -6.5850    -1.0880 H     1 <1>   0.1500 
 38 H       -4.2720    -7.1390     0.3390 H     1 <1>   0.1500 
 39 H       -6.5650    -1.5750     1.3370 H     1 <1>   0.0800 
 40 H       -5.6200    -2.9050     2.0020 H     1 <1>   0.0800 
 41 H       -7.2250    -3.2030     1.3190 H     1 <1>   0.0800 
 42 H       -7.4480    -6.6890     2.0550 H     1 <1>   0.0800 
 43 H       -5.7320    -7.0670     2.1570 H     1 <1>   0.0800 
 44 H       -6.6310    -7.3860     0.6610 H     1 <1>   0.0800 
@<TRIPOS>BOND
  1   1   2  1   
  2   1   3  1   
  3   2   4  2   
  4   3   5  2   
  5   3   6  1   
  6   4   5  1   
  7   4   7  1   
  8   6   8  1   
  9   6  26  1   
 10   6  27  1   
 11   7   9  ar  
 12   7  10  ar  
 13   8  11  1   
 14   8  12  1   
 15   9  13  ar  
 16   9  28  1   
 17  10  14  ar  
 18  10  29  1   
 19  11  15  1   
 20  11  30  1   
 21  11  31  1   
 22  12  32  1   
 23  12  33  1   
 24  12  34  1   
 25  13  16  ar  
 26  14  16  ar  
 27  14  35  1   
 28  15  17  ar  
 29  15  18  ar  
 30  16  36  1   
 31  17  19  ar  
 32  18  20  1   
 33  18  21  ar  
 34  19  22  ar  
 35  19  37  1   
 36  20  23  1   
 37  21  22  ar  
 38  21  24  1   
 39  22  38  1   
 40  23  39  1   
 41  23  40  1   
 42  23  41  1   
 43  24  25  1   
 44  25  42  1   
 45  25  43  1   
 46  25  44  1   
@<TRIPOS>SUBSTRUCTURE
  1 ****  12 GROUP 4 **** **** 0

# MOE 2024.06 (io_trps.svl 2023.06)
