@<TRIPOS>MOLECULE
NONAME
43 44 1 0 0 
SMALL
USER_CHARGES


@<TRIPOS>ATOM
  1 CL      -1.4930    -2.6400     1.0430 Cl    1 <1>  -0.1770 
  2 C       -2.0780    -1.3720    -0.0140 C.ar  1 <1>   0.1770 
  3 C       -1.3050    -0.9450    -1.0820 C.ar  1 <1>   0.1770 
  4 C       -3.3240    -0.8130     0.2250 C.ar  1 <1>  -0.1440 
  5 CL       0.2480    -1.6780    -1.4010 Cl    1 <1>  -0.1770 
  6 C       -1.7590     0.0580    -1.9170 C.ar  1 <1>  -0.1500 
  7 C       -3.7760     0.2000    -0.6130 C.ar  1 <1>  -0.1500 
  8 C       -4.1610    -1.3200     1.3810 C.3   1 <1>   0.4870 
  9 C       -2.9970     0.6310    -1.6770 C.ar  1 <1>  -0.1500 
 10 N       -4.9980    -2.4390     0.8840 N.4   1 <1>  -0.9590 
 11 C       -6.2380    -2.0060     0.1610 C.3   1 <1>   0.3430 
 12 C       -5.3900    -3.4330     1.9080 C.3   1 <1>   0.3430 
 13 C       -7.3510    -2.9740     0.5940 C.3   1 <1>   0.2000 
 14 C       -6.6540    -4.1010     1.3650 C.3   1 <1>  -0.0800 
 15 O       -8.2150    -2.3150     1.4610 O.3   1 <1>  -0.6800 
 16 C       -6.3920    -5.3790     0.5190 C.3   1 <1>  -0.0550 
 17 S       -5.4480    -5.2420    -1.0130 S.o2  1 <1>   1.3330 
 18 O       -6.0180    -4.1600    -1.7810 O.2   1 <1>  -0.6500 
 19 O       -5.2900    -6.5520    -1.5920 O.2   1 <1>  -0.6500 
 20 N       -3.9060    -4.7050    -0.5340 N.am  1 <1>  -0.8490 
 21 C       -3.1150    -5.7750     0.1040 C.3   1 <1>   0.1160 
 22 C       -3.1430    -4.2470    -1.7110 C.3   1 <1>   0.1160 
 23 H       -1.1500     0.3850    -2.7420 H     1 <1>   0.1500 
 24 H       -4.7330     0.6680    -0.4510 H     1 <1>   0.1500 
 25 H       -4.7790    -0.5300     1.7740 H     1 <1>   0.0800 
 26 H       -3.5090    -1.6650     2.1680 H     1 <1>   0.0800 
 27 H       -3.3540     1.4180    -2.3230 H     1 <1>   0.1500 
 28 H       -4.4160    -2.9700     0.1990 H     1 <1>   0.4500 
 29 H       -6.5160    -0.9970     0.4150 H     1 <1>   0.0800 
 30 H       -6.0810    -2.0690    -0.9040 H     1 <1>   0.0800 
 31 H       -4.6010    -4.1480     2.0840 H     1 <1>   0.0800 
 32 H       -5.6230    -2.9300     2.8320 H     1 <1>   0.0800 
 33 H       -7.9350    -3.3180    -0.2440 H     1 <1>   0.0800 
 34 H       -7.2670    -4.4120     2.1940 H     1 <1>   0.0800 
 35 H       -7.8120    -2.0800     2.3180 H     1 <1>   0.4000 
 36 H       -7.3520    -5.7890     0.2620 H     1 <1>   0.0800 
 37 H       -5.9200    -6.1110     1.1450 H     1 <1>   0.0800 
 38 H       -2.1550    -5.3960     0.4130 H     1 <1>   0.0800 
 39 H       -2.9520    -6.5910    -0.5840 H     1 <1>   0.0800 
 40 H       -3.6200    -6.1580     0.9720 H     1 <1>   0.0800 
 41 H       -2.1450    -3.9540    -1.4290 H     1 <1>   0.0800 
 42 H       -3.6280    -3.4020    -2.1710 H     1 <1>   0.0800 
 43 H       -3.0730    -5.0360    -2.4440 H     1 <1>   0.0800 
@<TRIPOS>BOND
  1   1   2  1   
  2   2   3  ar  
  3   2   4  ar  
  4   3   5  1   
  5   3   6  ar  
  6   4   7  ar  
  7   4   8  1   
  8   6   9  ar  
  9   6  23  1   
 10   7   9  ar  
 11   7  24  1   
 12   8  10  1   
 13   8  25  1   
 14   8  26  1   
 15   9  27  1   
 16  10  11  1   
 17  10  12  1   
 18  10  28  1   
 19  11  13  1   
 20  11  29  1   
 21  11  30  1   
 22  12  14  1   
 23  12  31  1   
 24  12  32  1   
 25  13  14  1   
 26  13  15  1   
 27  13  33  1   
 28  14  16  1   
 29  14  34  1   
 30  15  35  1   
 31  16  17  1   
 32  16  36  1   
 33  16  37  1   
 34  17  18  2   
 35  17  19  2   
 36  17  20  am  
 37  20  21  1   
 38  20  22  1   
 39  21  38  1   
 40  21  39  1   
 41  21  40  1   
 42  22  41  1   
 43  22  42  1   
 44  22  43  1   
@<TRIPOS>SUBSTRUCTURE
  1 ****  10 GROUP 4 **** **** 0

# MOE 2024.06 (io_trps.svl 2023.06)
