@<TRIPOS>MOLECULE
NONAME
40 42 1 0 0 
SMALL
USER_CHARGES


@<TRIPOS>ATOM
  1 O        0.4130     0.5440     0.9730 O.3   1 <1>  -0.0190 
  2 N        1.2430    -0.4390     0.7790 N.2   1 <1>  -0.4100 
  3 C        0.7680     1.6210     0.3240 C.2   1 <1>  -0.0400 
  4 C        2.1480     0.0090    -0.0140 C.2   1 <1>   0.1080 
  5 C        1.8970     1.3380    -0.3470 C.2   1 <1>  -0.1500 
  6 C       -0.0970     2.8650     0.4430 C.3   1 <1>   0.0200 
  7 C        3.3210    -0.8050    -0.5120 C.3   1 <1>  -0.0590 
  8 C        0.5760     4.1200    -0.1430 C.3   1 <1>  -0.0800 
  9 C       -0.3030     5.3730    -0.1650 C.3   1 <1>   0.2000 
 10 C        1.8320     4.5610     0.6200 C.3   1 <1>   0.2090 
 11 O       -0.9270     5.5180     1.0660 O.3   1 <1>  -0.6800 
 12 C        0.7150     6.4990    -0.3140 C.3   1 <1>   0.2090 
 13 N        1.8940     6.0400     0.4770 N.pl3 1 <1>  -0.8380 
 14 C        3.1180     6.6710     0.3480 C.ar  1 <1>   0.4100 
 15 N        3.2470     7.5680    -0.6230 N.ar  1 <1>  -0.6200 
 16 C        4.1600     6.3610     1.2190 C.ar  1 <1>  -0.1500 
 17 C        4.4280     8.1510    -0.7250 C.ar  1 <1>   0.1600 
 18 C        5.3820     6.9770     1.0930 C.ar  1 <1>  -0.1500 
 19 C        5.5410     7.9140     0.0810 C.ar  1 <1>   0.0280 
 20 C        6.7860     8.6200    -0.1400 C.2   1 <1>  -0.1780 
 21 C        7.9450     8.4950     0.5280 C.2   1 <1>  -0.3000 
 22 H        2.4960     1.9480    -0.9960 H     1 <1>   0.1500 
 23 H       -1.0270     2.6850    -0.0650 H     1 <1>   0.0800 
 24 H       -0.3220     3.0230     1.4840 H     1 <1>   0.0800 
 25 H        3.3660    -0.7640    -1.5850 H     1 <1>   0.0800 
 26 H        3.2110    -1.8300    -0.2080 H     1 <1>   0.0800 
 27 H        4.2340    -0.4160    -0.1030 H     1 <1>   0.0800 
 28 H        0.8650     3.9130    -1.1580 H     1 <1>   0.0800 
 29 H       -1.0520     5.3650    -0.9380 H     1 <1>   0.0800 
 30 H        2.7160     4.0970     0.2160 H     1 <1>   0.0800 
 31 H        1.7460     4.3160     1.6650 H     1 <1>   0.0800 
 32 H       -0.2460     5.8160     1.7060 H     1 <1>   0.4000 
 33 H        0.3380     7.4390     0.0510 H     1 <1>   0.0800 
 34 H        0.9910     6.6030    -1.3490 H     1 <1>   0.0800 
 35 H        3.9930     5.6420     1.9960 H     1 <1>   0.1500 
 36 H        4.5280     8.8770    -1.5120 H     1 <1>   0.1500 
 37 H        6.1860     6.7400     1.7640 H     1 <1>   0.1500 
 38 H        6.7410     9.3270    -0.9510 H     1 <1>   0.1500 
 39 H        8.8270     9.0650     0.2940 H     1 <1>   0.1500 
 40 H        8.1130     7.8250     1.3520 H     1 <1>   0.1500 
@<TRIPOS>BOND
  1   1   2  1   
  2   1   3  1   
  3   2   4  2   
  4   3   5  2   
  5   3   6  1   
  6   4   5  1   
  7   4   7  1   
  8   5  22  1   
  9   6   8  1   
 10   6  23  1   
 11   6  24  1   
 12   7  25  1   
 13   7  26  1   
 14   7  27  1   
 15   8   9  1   
 16   8  10  1   
 17   8  28  1   
 18   9  11  1   
 19   9  12  1   
 20   9  29  1   
 21  10  13  1   
 22  10  30  1   
 23  10  31  1   
 24  11  32  1   
 25  12  13  1   
 26  12  33  1   
 27  12  34  1   
 28  13  14  1   
 29  14  15  ar  
 30  14  16  ar  
 31  15  17  ar  
 32  16  18  ar  
 33  16  35  1   
 34  17  19  ar  
 35  17  36  1   
 36  18  19  ar  
 37  18  37  1   
 38  19  20  1   
 39  20  21  2   
 40  20  38  1   
 41  21  39  1   
 42  21  40  1   
@<TRIPOS>SUBSTRUCTURE
  1 ****  10 GROUP 4 **** **** 0

# MOE 2024.06 (io_trps.svl 2023.06)
