@<TRIPOS>MOLECULE
NONAME
37 38 1 0 0 
SMALL
USER_CHARGES


@<TRIPOS>ATOM
  1 S       -0.2510    -0.1260    -1.2960 S.3   1 <1>  -0.0800 
  2 C       -0.6690    -1.5630    -0.3730 C.2   1 <1>  -0.1400 
  3 C        1.4370    -0.2760    -0.8470 C.2   1 <1>  -0.1100 
  4 C        0.4280    -2.0890     0.2050 C.2   1 <1>  -0.1500 
  5 C       -2.1210    -1.9840    -0.3790 C.3   1 <1>   0.5230 
  6 C        1.6260    -1.3520    -0.0620 C.2   1 <1>  -0.1500 
  7 N       -2.7990    -1.4790     0.8560 N.4   1 <1>  -0.9590 
  8 C       -4.1650    -2.0550     0.9990 C.3   1 <1>   0.4860 
  9 C       -2.8430     0.0190     0.9330 C.3   1 <1>   0.3430 
 10 C       -4.0590    -3.5650     1.0740 C.ar  1 <1>  -0.1430 
 11 C       -1.7690     0.5950     1.8680 C.3   1 <1>   0.1200 
 12 C       -4.5080    -4.3810     0.0370 C.ar  1 <1>   0.1670 
 13 C       -3.4890    -4.1500     2.1900 C.ar  1 <1>  -0.1500 
 14 O       -2.0550     1.9360     2.0480 O.3   1 <1>  -0.6800 
 15 N       -4.3840    -5.6940     0.0350 N.ar  1 <1>  -0.6200 
 16 C       -5.1880    -3.8160    -1.2000 C.3   1 <1>  -0.0970 
 17 C       -3.3780    -5.5230     2.1950 C.ar  1 <1>  -0.1500 
 18 C       -3.8310    -6.2400     1.1040 C.ar  1 <1>   0.1600 
 19 H        2.1210     0.4640    -1.2260 H     1 <1>   0.1500 
 20 H        0.4680    -2.9770     0.8140 H     1 <1>   0.1500 
 21 H       -2.1600    -3.0610    -0.4050 H     1 <1>   0.0800 
 22 H       -2.6070    -1.6060    -1.2640 H     1 <1>   0.0800 
 23 H        2.5740    -1.6670     0.3440 H     1 <1>   0.1500 
 24 H       -2.2400    -1.8320     1.6400 H     1 <1>   0.4500 
 25 H       -4.7820    -1.7570     0.1680 H     1 <1>   0.0800 
 26 H       -4.6250    -1.6910     1.9050 H     1 <1>   0.0800 
 27 H       -3.8010     0.3310     1.3170 H     1 <1>   0.0800 
 28 H       -2.7220     0.4480    -0.0480 H     1 <1>   0.0800 
 29 H       -0.7850     0.5160     1.4420 H     1 <1>   0.0800 
 30 H       -1.7980     0.1230     2.8350 H     1 <1>   0.0800 
 31 H       -3.1440    -3.5810     3.0370 H     1 <1>   0.1500 
 32 H       -1.3640     2.3870     2.5800 H     1 <1>   0.4000 
 33 H       -4.4790    -3.3020    -1.8210 H     1 <1>   0.0800 
 34 H       -5.9880    -3.1530    -0.9280 H     1 <1>   0.0800 
 35 H       -5.6170    -4.6150    -1.7820 H     1 <1>   0.0800 
 36 H       -2.9460    -6.0420     3.0330 H     1 <1>   0.1500 
 37 H       -3.7380    -7.3130     1.1100 H     1 <1>   0.1500 
@<TRIPOS>BOND
  1   1   2  1   
  2   1   3  1   
  3   2   4  2   
  4   2   5  1   
  5   3   6  2   
  6   3  19  1   
  7   4   6  1   
  8   4  20  1   
  9   5   7  1   
 10   5  21  1   
 11   5  22  1   
 12   6  23  1   
 13   7   8  1   
 14   7   9  1   
 15   7  24  1   
 16   8  10  1   
 17   8  25  1   
 18   8  26  1   
 19   9  11  1   
 20   9  27  1   
 21   9  28  1   
 22  10  12  ar  
 23  10  13  ar  
 24  11  14  1   
 25  11  29  1   
 26  11  30  1   
 27  12  15  ar  
 28  12  16  1   
 29  13  17  ar  
 30  13  31  1   
 31  14  32  1   
 32  15  18  ar  
 33  16  33  1   
 34  16  34  1   
 35  16  35  1   
 36  17  18  ar  
 37  17  36  1   
 38  18  37  1   
@<TRIPOS>SUBSTRUCTURE
  1 ****   5 GROUP 4 **** **** 0

# MOE 2024.06 (io_trps.svl 2023.06)
