@<TRIPOS>MOLECULE
NONAME
51 54 1 0 0 
SMALL
USER_CHARGES


@<TRIPOS>ATOM
  1 O       -0.6370     0.3560     1.3660 O.2   1 <1>  -0.5700 
  2 C       -1.5570     0.9230     0.8290 C.2   1 <1>   0.5690 
  3 N       -2.4910     0.2550     0.0880 N.am  1 <1>  -0.6600 
  4 C       -1.6270     2.4250     0.9690 C.3   1 <1>  -0.0990 
  5 C       -3.6550     0.8460    -0.6240 C.3   1 <1>   0.1400 
  6 C       -2.4440    -1.2130    -0.1140 C.3   1 <1>   0.1400 
  7 C       -0.8660     3.0690    -0.1900 C.3   1 <1>   0.0960 
  8 C       -4.3180    -0.3290    -1.3460 C.3   1 <1>   0.2000 
  9 C       -3.8360    -1.5870    -0.6250 C.3   1 <1>  -0.0800 
 10 N       -1.1820     4.5050    -0.2670 N.pl3 1 <1>   0.3140 
 11 O       -5.7010    -0.2510    -1.2850 O.3   1 <1>  -0.6800 
 12 C       -3.8550    -2.8310    -1.5280 C.3   1 <1>  -0.0160 
 13 N       -2.3030     4.9240    -0.8820 N.2   1 <1>  -0.7070 
 14 C       -0.4820     5.5440     0.2440 C.2   1 <1>  -0.3320 
 15 C       -3.3480    -4.0580    -0.7910 C.ar  1 <1>   0.1670 
 16 C       -2.2880     6.2150    -0.7560 C.2   1 <1>   0.1390 
 17 C       -1.1730     6.6630    -0.0600 C.2   1 <1>  -0.1500 
 18 C        0.8260     5.4260     1.0100 C.3   1 <1>  -0.0600 
 19 N       -2.0700    -4.2820    -0.8130 N.ar  1 <1>  -0.6200 
 20 C       -4.2710    -4.8770    -0.1200 C.ar  1 <1>  -0.1500 
 21 C       -1.6070    -5.3690    -0.1440 C.ar  1 <1>   0.3100 
 22 C       -3.8340    -5.9740     0.5570 C.ar  1 <1>  -0.1500 
 23 C       -2.4570    -6.2500     0.5610 C.ar  1 <1>   0.0000 
 24 C       -0.2280    -5.6310    -0.1460 C.ar  1 <1>  -0.1500 
 25 C       -1.8950    -7.3540     1.2310 C.ar  1 <1>  -0.1500 
 26 C        0.2990    -6.7110     0.5120 C.ar  1 <1>  -0.1500 
 27 C       -0.5450    -7.5820     1.2080 C.ar  1 <1>  -0.1500 
 28 H       -2.6520     2.7460     0.9740 H     1 <1>   0.0800 
 29 H       -1.1790     2.7120     1.9020 H     1 <1>   0.0800 
 30 H       -4.3270     1.2840     0.0930 H     1 <1>   0.0800 
 31 H       -3.3300     1.5900    -1.3300 H     1 <1>   0.0800 
 32 H       -1.6890    -1.4420    -0.8480 H     1 <1>   0.0800 
 33 H       -2.2070    -1.7250     0.8040 H     1 <1>   0.0800 
 34 H       -1.1580     2.6210    -1.1210 H     1 <1>   0.0800 
 35 H        0.1930     2.9370    -0.0660 H     1 <1>   0.0800 
 36 H       -4.0230    -0.3330    -2.3820 H     1 <1>   0.0800 
 37 H       -4.4510    -1.7640     0.2400 H     1 <1>   0.0800 
 38 H       -5.9990    -0.2340    -0.3550 H     1 <1>   0.4000 
 39 H       -3.2370    -2.6640    -2.3930 H     1 <1>   0.0800 
 40 H       -4.8570    -3.0070    -1.8770 H     1 <1>   0.0800 
 41 H       -3.0580     6.8580    -1.1500 H     1 <1>   0.1500 
 42 H       -0.9430     7.6870     0.1710 H     1 <1>   0.1500 
 43 H        1.1600     6.3990     1.3230 H     1 <1>   0.0800 
 44 H        1.5850     4.9900     0.3850 H     1 <1>   0.0800 
 45 H        0.6930     4.8120     1.8830 H     1 <1>   0.0800 
 46 H       -5.3150    -4.6260    -0.1480 H     1 <1>   0.1500 
 47 H       -4.5100    -6.6250     1.0830 H     1 <1>   0.1500 
 48 H        0.4040    -4.9500    -0.6860 H     1 <1>   0.1500 
 49 H       -2.5490    -8.0200     1.7650 H     1 <1>   0.1500 
 50 H        1.3590    -6.8990     0.5020 H     1 <1>   0.1500 
 51 H       -0.1180    -8.4260     1.7220 H     1 <1>   0.1500 
@<TRIPOS>BOND
  1   1   2  2   
  2   2   3  am  
  3   2   4  1   
  4   3   5  1   
  5   3   6  1   
  6   4   7  1   
  7   4  28  1   
  8   4  29  1   
  9   5   8  1   
 10   5  30  1   
 11   5  31  1   
 12   6   9  1   
 13   6  32  1   
 14   6  33  1   
 15   7  10  1   
 16   7  34  1   
 17   7  35  1   
 18   8   9  1   
 19   8  11  1   
 20   8  36  1   
 21   9  12  1   
 22   9  37  1   
 23  10  13  1   
 24  10  14  1   
 25  11  38  1   
 26  12  15  1   
 27  12  39  1   
 28  12  40  1   
 29  13  16  2   
 30  14  17  2   
 31  14  18  1   
 32  15  19  ar  
 33  15  20  ar  
 34  16  17  1   
 35  16  41  1   
 36  17  42  1   
 37  18  43  1   
 38  18  44  1   
 39  18  45  1   
 40  19  21  ar  
 41  20  22  ar  
 42  20  46  1   
 43  21  23  ar  
 44  21  24  ar  
 45  22  23  ar  
 46  22  47  1   
 47  23  25  ar  
 48  24  26  ar  
 49  24  48  1   
 50  25  27  ar  
 51  25  49  1   
 52  26  27  ar  
 53  26  50  1   
 54  27  51  1   
@<TRIPOS>SUBSTRUCTURE
  1 ****   6 GROUP 4 **** **** 0

# MOE 2024.06 (io_trps.svl 2023.06)
