@<TRIPOS>MOLECULE
NONAME
55 58 1 0 0 
SMALL
USER_CHARGES


@<TRIPOS>ATOM
  1 O        0.3600    -0.7880     0.7650 O.2   1 <1>  -0.5700 
  2 C        1.5120    -1.1830     0.6730 C.2   1 <1>   0.5440 
  3 N        1.8710    -2.2840     1.4390 N.am  1 <1>  -0.6600 
  4 C        2.4190    -0.4960    -0.2560 C.ar  1 <1>   0.3960 
  5 C        1.0620    -2.7200     2.6110 C.3   1 <1>   0.1400 
  6 C        3.0570    -3.1400     1.1680 C.3   1 <1>   0.1400 
  7 N        3.7160    -0.3110     0.0600 N.ar  1 <1>  -0.6200 
  8 C        1.9030    -0.0300    -1.4670 C.ar  1 <1>  -0.1500 
  9 C        0.5550    -4.1450     2.3830 C.3   1 <1>  -0.1600 
 10 C        2.5910    -4.5750     0.9060 C.3   1 <1>  -0.1600 
 11 C        4.4670     0.3260    -0.8190 C.ar  1 <1>   0.1600 
 12 C        2.6980     0.6290    -2.3790 C.ar  1 <1>  -0.1500 
 13 C        1.7150    -5.1070     2.0590 C.3   1 <1>  -0.0190 
 14 C        4.0180     0.8070    -2.0350 C.ar  1 <1>  -0.1500 
 15 C        1.2540    -6.5600     1.8890 C.2   1 <1>   0.5690 
 16 O        1.4950    -7.3100     2.8050 O.2   1 <1>  -0.5700 
 17 N        0.5930    -7.0260     0.7790 N.am  1 <1>  -0.6600 
 18 C        0.0800    -6.2790    -0.4010 C.3   1 <1>   0.1400 
 19 C        0.1650    -8.4480     0.6830 C.3   1 <1>   0.1400 
 20 C       -1.1040    -7.1110    -0.8850 C.3   1 <1>   0.2000 
 21 C       -0.6630    -8.5500    -0.6030 C.3   1 <1>  -0.0800 
 22 O       -2.1990    -6.7970    -0.0950 O.3   1 <1>  -0.6800 
 23 C       -1.8000    -9.5860    -0.5320 C.3   1 <1>  -0.0170 
 24 C       -1.2450   -10.9900    -0.3460 C.ar  1 <1>  -0.1440 
 25 C       -1.1460   -11.5800     0.8980 C.ar  1 <1>  -0.1500 
 26 C       -0.8080   -11.7450    -1.4150 C.ar  1 <1>  -0.1500 
 27 C       -0.6260   -12.8590     1.0100 C.ar  1 <1>   0.1600 
 28 C       -0.3040   -13.0170    -1.1950 C.ar  1 <1>   0.1600 
 29 N       -0.2010   -13.5920    -0.0080 N.ar  1 <1>  -0.6200 
 30 H        1.6800    -2.6860     3.4920 H     1 <1>   0.0800 
 31 H        0.2270    -2.0580     2.7710 H     1 <1>   0.0800 
 32 H        3.6010    -2.7920     0.3090 H     1 <1>   0.0800 
 33 H        3.7170    -3.1090     2.0180 H     1 <1>   0.0800 
 34 H        0.8610    -0.1880    -1.6820 H     1 <1>   0.1500 
 35 H        0.0480    -4.4820     3.2700 H     1 <1>   0.0800 
 36 H       -0.1660    -4.1200     1.5890 H     1 <1>   0.0800 
 37 H        2.0530    -4.5780    -0.0210 H     1 <1>   0.0800 
 38 H        3.4520    -5.2100     0.7880 H     1 <1>   0.0800 
 39 H        5.5020     0.4760    -0.5580 H     1 <1>   0.1500 
 40 H        2.3040     0.9910    -3.3140 H     1 <1>   0.1500 
 41 H        2.3490    -5.1080     2.9300 H     1 <1>   0.0800 
 42 H        4.6940     1.3160    -2.6990 H     1 <1>   0.1500 
 43 H       -0.2180    -5.2740    -0.1710 H     1 <1>   0.0800 
 44 H        0.8420    -6.2640    -1.1600 H     1 <1>   0.0800 
 45 H        1.0210    -9.1010     0.6530 H     1 <1>   0.0800 
 46 H       -0.4310    -8.6910     1.5470 H     1 <1>   0.0800 
 47 H       -1.3600    -6.9320    -1.9160 H     1 <1>   0.0800 
 48 H        0.0080    -8.8430    -1.3910 H     1 <1>   0.0800 
 49 H       -1.9170    -6.8070     0.8430 H     1 <1>   0.4000 
 50 H       -2.3750    -9.5480    -1.4410 H     1 <1>   0.0800 
 51 H       -2.4690    -9.3550     0.2790 H     1 <1>   0.0800 
 52 H       -1.4670   -11.0610     1.7830 H     1 <1>   0.1500 
 53 H       -0.8540   -11.3590    -2.4160 H     1 <1>   0.1500 
 54 H       -0.5550   -13.3030     1.9880 H     1 <1>   0.1500 
 55 H        0.0310   -13.5920    -2.0410 H     1 <1>   0.1500 
@<TRIPOS>BOND
  1   1   2  2   
  2   2   3  am  
  3   2   4  1   
  4   3   5  1   
  5   3   6  1   
  6   4   7  ar  
  7   4   8  ar  
  8   5   9  1   
  9   5  30  1   
 10   5  31  1   
 11   6  10  1   
 12   6  32  1   
 13   6  33  1   
 14   7  11  ar  
 15   8  12  ar  
 16   8  34  1   
 17   9  13  1   
 18   9  35  1   
 19   9  36  1   
 20  10  13  1   
 21  10  37  1   
 22  10  38  1   
 23  11  14  ar  
 24  11  39  1   
 25  12  14  ar  
 26  12  40  1   
 27  13  15  1   
 28  13  41  1   
 29  14  42  1   
 30  15  16  2   
 31  15  17  am  
 32  17  18  1   
 33  17  19  1   
 34  18  20  1   
 35  18  43  1   
 36  18  44  1   
 37  19  21  1   
 38  19  45  1   
 39  19  46  1   
 40  20  21  1   
 41  20  22  1   
 42  20  47  1   
 43  21  23  1   
 44  21  48  1   
 45  22  49  1   
 46  23  24  1   
 47  23  50  1   
 48  23  51  1   
 49  24  25  ar  
 50  24  26  ar  
 51  25  27  ar  
 52  25  52  1   
 53  26  28  ar  
 54  26  53  1   
 55  27  29  ar  
 56  27  54  1   
 57  28  29  ar  
 58  28  55  1   
@<TRIPOS>SUBSTRUCTURE
  1 ****  18 GROUP 4 **** **** 0

# MOE 2024.06 (io_trps.svl 2023.06)
