@<TRIPOS>MOLECULE
NONAME
49 51 1 0 0 
SMALL
USER_CHARGES


@<TRIPOS>ATOM
  1 O        1.4150     0.1350    -0.9220 O.2   1 <1>  -0.5700 
  2 C        2.0190    -0.6080    -0.1730 C.2   1 <1>   0.5440 
  3 N        3.1090    -0.1160     0.5150 N.am  1 <1>  -0.6600 
  4 C        1.5830    -1.9790    -0.0460 C.ar  1 <1>   0.0860 
  5 C        4.1700    -0.9630     1.1560 C.3   1 <1>   0.1400 
  6 C        3.3890     1.3460     0.5630 C.3   1 <1>   0.1400 
  7 C        1.2690    -2.5210     1.1970 C.ar  1 <1>   0.1600 
  8 C        1.4480    -2.8120    -1.1490 C.ar  1 <1>  -0.1500 
  9 C        5.4310    -1.0840     0.2860 C.3   1 <1>   0.1400 
 10 C        4.1230     1.8320    -0.6950 C.3   1 <1>  -0.1600 
 11 N        0.8880    -3.7650     1.4270 N.ar  1 <1>  -0.6200 
 12 C        1.0400    -4.1100    -0.9370 C.ar  1 <1>  -0.1500 
 13 N        5.9750     0.2490    -0.1220 N.am  1 <1>  -0.6600 
 14 C        5.2170     0.8970    -1.2290 C.3   1 <1>   0.1400 
 15 C        0.7760    -4.5460     0.3620 C.ar  1 <1>   0.3930 
 16 C        7.0470     0.8000     0.5310 C.2   1 <1>   0.5690 
 17 O        0.3820    -5.8020     0.6350 O.3   1 <1>  -0.3630 
 18 O        7.5360     0.2620     1.4970 O.2   1 <1>  -0.5700 
 19 C        7.6350     2.1200     0.0540 C.3   1 <1>  -0.0990 
 20 C        0.1230    -6.7700    -0.3580 C.3   1 <1>   0.0400 
 21 C        8.8610     2.5780     0.8560 C.3   1 <1>   0.0210 
 22 C        9.3840     3.8930     0.3100 C.2   1 <1>  -0.1810 
 23 C        8.8070     5.1490     0.4730 C.2   1 <1>   0.1390 
 24 C       10.4890     4.1190    -0.4310 C.2   1 <1>  -0.3020 
 25 N        9.4860     6.0840    -0.1190 N.2   1 <1>  -0.7070 
 26 N       10.5310     5.4430    -0.6770 N.pl3 1 <1>   0.3000 
 27 H        3.8010    -1.9530     1.3510 H     1 <1>   0.0800 
 28 H        4.4440    -0.5350     2.1050 H     1 <1>   0.0800 
 29 H        3.9890     1.5630     1.4300 H     1 <1>   0.0800 
 30 H        2.4620     1.8850     0.6650 H     1 <1>   0.0800 
 31 H        1.3440    -1.8750     2.0550 H     1 <1>   0.1500 
 32 H        1.6550    -2.4370    -2.1370 H     1 <1>   0.1500 
 33 H        5.2030    -1.6620    -0.5920 H     1 <1>   0.0800 
 34 H        6.1780    -1.6300     0.8360 H     1 <1>   0.0800 
 35 H        4.5480     2.7970    -0.4890 H     1 <1>   0.0800 
 36 H        3.3980     1.9790    -1.4760 H     1 <1>   0.0800 
 37 H        0.9300    -4.7680    -1.7760 H     1 <1>   0.1500 
 38 H        5.8820     1.4410    -1.8760 H     1 <1>   0.0800 
 39 H        4.7510     0.1320    -1.8270 H     1 <1>   0.0800 
 40 H        6.8770     2.8760     0.1190 H     1 <1>   0.0800 
 41 H        7.9230     2.0140    -0.9750 H     1 <1>   0.0800 
 42 H       -0.2030    -7.6700     0.1320 H     1 <1>   0.0800 
 43 H        1.0290    -6.9610    -0.9050 H     1 <1>   0.0800 
 44 H       -0.6540    -6.4060    -1.0070 H     1 <1>   0.0800 
 45 H        9.6330     1.8310     0.7920 H     1 <1>   0.0800 
 46 H        8.6010     2.6990     1.8930 H     1 <1>   0.0800 
 47 H        7.9010     5.3380     1.0240 H     1 <1>   0.1500 
 48 H       11.2310     3.4290    -0.7890 H     1 <1>   0.1500 
 49 H       11.2520     5.9390    -1.2150 H     1 <1>   0.2700 
@<TRIPOS>BOND
  1   1   2  2   
  2   2   3  am  
  3   2   4  1   
  4   3   5  1   
  5   3   6  1   
  6   4   7  ar  
  7   4   8  ar  
  8   5   9  1   
  9   5  27  1   
 10   5  28  1   
 11   6  10  1   
 12   6  29  1   
 13   6  30  1   
 14   7  11  ar  
 15   7  31  1   
 16   8  12  ar  
 17   8  32  1   
 18   9  13  1   
 19   9  33  1   
 20   9  34  1   
 21  10  14  1   
 22  10  35  1   
 23  10  36  1   
 24  11  15  ar  
 25  12  15  ar  
 26  12  37  1   
 27  13  14  1   
 28  13  16  am  
 29  14  38  1   
 30  14  39  1   
 31  15  17  1   
 32  16  18  2   
 33  16  19  1   
 34  17  20  1   
 35  19  21  1   
 36  19  40  1   
 37  19  41  1   
 38  20  42  1   
 39  20  43  1   
 40  20  44  1   
 41  21  22  1   
 42  21  45  1   
 43  21  46  1   
 44  22  23  1   
 45  22  24  2   
 46  23  25  2   
 47  23  47  1   
 48  24  26  1   
 49  24  48  1   
 50  25  26  1   
 51  26  49  1   
@<TRIPOS>SUBSTRUCTURE
  1 ****   9 GROUP 4 **** **** 0

# MOE 2024.06 (io_trps.svl 2023.06)
