@<TRIPOS>MOLECULE
NONAME
48 49 1 0 0 
SMALL
USER_CHARGES


@<TRIPOS>ATOM
  1 S        1.4490     1.3290     1.3010 S.o2  1 <1>   1.3330 
  2 O        2.6160     2.1800     1.3560 O.2   1 <1>  -0.6500 
  3 O        0.5050     1.3390     2.3960 O.2   1 <1>  -0.6500 
  4 N        1.9690    -0.2710     1.0730 N.am  1 <1>  -0.8490 
  5 C        0.5840     1.6960    -0.2240 C.3   1 <1>  -0.0550 
  6 C        3.1790    -0.5740     1.8440 C.3   1 <1>   0.1160 
  7 C        0.9330    -1.2680     1.3660 C.3   1 <1>   0.1160 
  8 C       -0.1030     3.0730    -0.2230 C.3   1 <1>  -0.0800 
  9 C       -0.8580     3.3350    -1.5250 C.3   1 <1>   0.2000 
 10 C        0.8570     4.2580    -0.1020 C.3   1 <1>   0.1400 
 11 O       -2.1160     2.7580    -1.4600 O.3   1 <1>  -0.6800 
 12 C       -0.9280     4.8560    -1.6630 C.3   1 <1>   0.1400 
 13 N        0.1890     5.3590    -0.8310 N.am  1 <1>  -0.6600 
 14 C        0.6380     6.6600    -0.8870 C.2   1 <1>   0.5440 
 15 O        0.0230     7.4500    -1.5820 O.2   1 <1>  -0.5700 
 16 C        1.7740     7.1020    -0.1020 C.ar  1 <1>   0.0860 
 17 C        3.0770     6.7210    -0.4530 C.ar  1 <1>   0.0820 
 18 C        1.5980     7.9120     1.0290 C.ar  1 <1>  -0.1440 
 19 O        3.2360     5.9410    -1.5520 O.3   1 <1>  -0.3630 
 20 C        4.1620     7.1370     0.3160 C.ar  1 <1>  -0.1500 
 21 C        2.6870     8.3190     1.7800 C.ar  1 <1>  -0.1500 
 22 C        0.2030     8.3580     1.4530 C.3   1 <1>  -0.0970 
 23 C        4.4920     5.4510    -1.9650 C.3   1 <1>   0.0400 
 24 C        3.9660     7.9320     1.4260 C.ar  1 <1>  -0.1500 
 25 H        1.2770     1.6430    -1.0410 H     1 <1>   0.0800 
 26 H       -0.1680     0.9490    -0.3870 H     1 <1>   0.0800 
 27 H        3.4920    -1.5880     1.6640 H     1 <1>   0.0800 
 28 H        2.9960    -0.4400     2.8970 H     1 <1>   0.0800 
 29 H        3.9810     0.0820     1.5460 H     1 <1>   0.0800 
 30 H        1.2890    -2.2540     1.1210 H     1 <1>   0.0800 
 31 H        0.0510    -1.0720     0.7810 H     1 <1>   0.0800 
 32 H        0.6680    -1.2410     2.4100 H     1 <1>   0.0800 
 33 H       -0.7870     3.1320     0.6060 H     1 <1>   0.0800 
 34 H       -0.3370     2.9210    -2.3720 H     1 <1>   0.0800 
 35 H        1.7970     4.0390    -0.5800 H     1 <1>   0.0800 
 36 H        1.0320     4.5260     0.9270 H     1 <1>   0.0800 
 37 H       -2.6380     3.1670    -0.7420 H     1 <1>   0.4000 
 38 H       -1.8540     5.2460    -1.2800 H     1 <1>   0.0800 
 39 H       -0.7950     5.1600    -2.6870 H     1 <1>   0.0800 
 40 H        5.1660     6.8540     0.0650 H     1 <1>   0.1500 
 41 H        2.5490     8.9410     2.6470 H     1 <1>   0.1500 
 42 H        0.2330     8.9130     2.3730 H     1 <1>   0.0800 
 43 H       -0.4320     7.5020     1.5940 H     1 <1>   0.0800 
 44 H       -0.2270     8.9840     0.6910 H     1 <1>   0.0800 
 45 H        4.3420     4.8490    -2.8430 H     1 <1>   0.0800 
 46 H        4.9090     4.8500    -1.1760 H     1 <1>   0.0800 
 47 H        5.1320     6.2830    -2.1980 H     1 <1>   0.0800 
 48 H        4.8060     8.2530     2.0180 H     1 <1>   0.1500 
@<TRIPOS>BOND
  1   1   2  2   
  2   1   3  2   
  3   1   4  am  
  4   1   5  1   
  5   4   6  1   
  6   4   7  1   
  7   5   8  1   
  8   5  25  1   
  9   5  26  1   
 10   6  27  1   
 11   6  28  1   
 12   6  29  1   
 13   7  30  1   
 14   7  31  1   
 15   7  32  1   
 16   8   9  1   
 17   8  10  1   
 18   8  33  1   
 19   9  11  1   
 20   9  12  1   
 21   9  34  1   
 22  10  13  1   
 23  10  35  1   
 24  10  36  1   
 25  11  37  1   
 26  12  13  1   
 27  12  38  1   
 28  12  39  1   
 29  13  14  am  
 30  14  15  2   
 31  14  16  1   
 32  16  17  ar  
 33  16  18  ar  
 34  17  19  1   
 35  17  20  ar  
 36  18  21  ar  
 37  18  22  1   
 38  19  23  1   
 39  20  24  ar  
 40  20  40  1   
 41  21  24  ar  
 42  21  41  1   
 43  22  42  1   
 44  22  43  1   
 45  22  44  1   
 46  23  45  1   
 47  23  46  1   
 48  23  47  1   
 49  24  48  1   
@<TRIPOS>SUBSTRUCTURE
  1 ****  10 GROUP 4 **** **** 0

# MOE 2024.06 (io_trps.svl 2023.06)
