@<TRIPOS>MOLECULE
NONAME
50 52 1 0 0 
SMALL
USER_CHARGES


@<TRIPOS>ATOM
  1 CL      -2.9270    -1.2980    -3.2430 Cl    1 <1>  -0.1770 
  2 C       -3.0340    -1.8980    -1.6070 C.ar  1 <1>   0.1770 
  3 C       -3.2770    -3.2400    -1.3920 C.ar  1 <1>  -0.1500 
  4 C       -2.8750    -1.0170    -0.5540 C.ar  1 <1>  -0.1500 
  5 C       -3.3640    -3.7180    -0.0950 C.ar  1 <1>   0.0830 
  6 C       -2.9590    -1.4930     0.7440 C.ar  1 <1>  -0.1500 
  7 O       -3.6100    -5.0430     0.0480 O.3   1 <1>  -0.3630 
  8 C       -3.2020    -2.8380     0.9750 C.ar  1 <1>  -0.1500 
  9 C       -3.7970    -5.6250     1.3300 C.3   1 <1>   0.1810 
 10 C       -4.1340    -7.1110     1.2210 C.2   1 <1>   0.5690 
 11 O       -3.4800    -7.8780     1.8890 O.2   1 <1>  -0.5700 
 12 N       -5.1600    -7.5800     0.4290 N.am  1 <1>  -0.6600 
 13 C       -5.3350    -9.0420     0.1970 C.3   1 <1>   0.1400 
 14 C       -6.1770    -6.7230    -0.2430 C.3   1 <1>   0.1400 
 15 C       -6.7380    -9.4890     0.6620 C.3   1 <1>   0.4230 
 16 C       -7.5710    -7.1520     0.2320 C.3   1 <1>  -0.1600 
 17 N       -6.9540   -10.9970     0.6010 N.4   1 <1>  -0.9590 
 18 C       -7.8750    -8.6590    -0.0080 C.3   1 <1>   0.0000 
 19 C       -8.3950   -11.4120     0.6360 C.3   1 <1>   0.3430 
 20 C       -6.2470   -11.7070    -0.5160 C.3   1 <1>   0.2630 
 21 C       -9.2330    -9.0080     0.6700 C.3   1 <1>  -0.1600 
 22 C       -7.9340    -8.9610    -1.5340 C.3   1 <1>   0.1200 
 23 C       -9.2450   -10.3790     1.3730 C.3   1 <1>  -0.1600 
 24 O       -8.7870    -8.0930    -2.1940 O.3   1 <1>  -0.6800 
 25 H       -3.3960    -3.9080    -2.2250 H     1 <1>   0.1500 
 26 H       -2.6870     0.0230    -0.7500 H     1 <1>   0.1500 
 27 H       -2.8340    -0.8170     1.5730 H     1 <1>   0.1500 
 28 H       -3.2570    -3.1770     1.9930 H     1 <1>   0.1500 
 29 H       -2.8840    -5.5070     1.8850 H     1 <1>   0.0800 
 30 H       -4.5970    -5.1100     1.8280 H     1 <1>   0.0800 
 31 H       -5.1920    -9.2320    -0.8500 H     1 <1>   0.0800 
 32 H       -4.5910    -9.5960     0.7420 H     1 <1>   0.0800 
 33 H       -6.0310    -5.6840    -0.0040 H     1 <1>   0.0800 
 34 H       -6.0890    -6.8250    -1.3120 H     1 <1>   0.0800 
 35 H       -6.7790    -9.2230     1.7050 H     1 <1>   0.0800 
 36 H       -7.6340    -6.9280     1.2830 H     1 <1>   0.0800 
 37 H       -8.3050    -6.5350    -0.2560 H     1 <1>   0.0800 
 38 H       -6.5400   -11.3480     1.4780 H     1 <1>   0.4500 
 39 H       -8.7710   -11.5080    -0.3700 H     1 <1>   0.0800 
 40 H       -8.4870   -12.3730     1.1170 H     1 <1>   0.0800 
 41 H       -6.6000   -11.3560    -1.4720 H     1 <1>   0.0800 
 42 H       -6.4240   -12.7690    -0.4550 H     1 <1>   0.0800 
 43 H       -5.1830   -11.5410    -0.4580 H     1 <1>   0.0800 
 44 H       -9.4880    -8.2670     1.4100 H     1 <1>   0.0800 
 45 H      -10.0260    -8.9820    -0.0570 H     1 <1>   0.0800 
 46 H       -8.2810    -9.9600    -1.7270 H     1 <1>   0.0800 
 47 H       -6.9700    -8.8420    -1.9950 H     1 <1>   0.0800 
 48 H      -10.2600   -10.7340     1.4340 H     1 <1>   0.0800 
 49 H       -8.8850   -10.2830     2.3830 H     1 <1>   0.0800 
 50 H       -9.7160    -8.1880    -1.9030 H     1 <1>   0.4000 
@<TRIPOS>BOND
  1   1   2  1   
  2   2   3  ar  
  3   2   4  ar  
  4   3   5  ar  
  5   3  25  1   
  6   4   6  ar  
  7   4  26  1   
  8   5   7  1   
  9   5   8  ar  
 10   6   8  ar  
 11   6  27  1   
 12   7   9  1   
 13   8  28  1   
 14   9  10  1   
 15   9  29  1   
 16   9  30  1   
 17  10  11  2   
 18  10  12  am  
 19  12  13  1   
 20  12  14  1   
 21  13  15  1   
 22  13  31  1   
 23  13  32  1   
 24  14  16  1   
 25  14  33  1   
 26  14  34  1   
 27  15  17  1   
 28  15  18  1   
 29  15  35  1   
 30  16  18  1   
 31  16  36  1   
 32  16  37  1   
 33  17  19  1   
 34  17  20  1   
 35  17  38  1   
 36  18  21  1   
 37  18  22  1   
 38  19  23  1   
 39  19  39  1   
 40  19  40  1   
 41  20  41  1   
 42  20  42  1   
 43  20  43  1   
 44  21  23  1   
 45  21  44  1   
 46  21  45  1   
 47  22  24  1   
 48  22  46  1   
 49  22  47  1   
 50  23  48  1   
 51  23  49  1   
 52  24  50  1   
@<TRIPOS>SUBSTRUCTURE
  1 ****  14 GROUP 4 **** **** 0

# MOE 2024.06 (io_trps.svl 2023.06)
