@<TRIPOS>MOLECULE
NONAME
56 59 1 0 0 
SMALL
USER_CHARGES


@<TRIPOS>ATOM
  1 O        0.8960    -0.6010     0.0370 O.2   1 <1>  -0.5700 
  2 C        1.8310    -1.3560    -0.1690 C.2   1 <1>   0.7150 
  3 N        3.0890    -0.8070    -0.3060 N.am  1 <1>  -0.6600 
  4 C        1.5880    -2.7830    -0.2550 C.2   1 <1>   0.0550 
  5 C        3.3360     0.6670    -0.3000 C.3   1 <1>   0.1400 
  6 C        4.3630    -1.5120    -0.0230 C.3   1 <1>   0.1400 
  7 O        0.5200    -3.3040     0.3410 O.3   1 <1>  -0.2800 
  8 C        2.2470    -3.7980    -0.8840 C.2   1 <1>  -0.1500 
  9 C        4.6220     0.8560     0.5140 C.3   1 <1>   0.4240 
 10 C        5.4060    -0.4100     0.1760 C.3   1 <1>  -0.1600 
 11 C        0.4640    -4.5940     0.1040 C.2   1 <1>  -0.0400 
 12 C        1.5210    -4.9670    -0.6490 C.2   1 <1>  -0.1500 
 13 O        4.2860     0.7730     1.8540 O.3   1 <1>  -0.6800 
 14 C        5.4150     2.1500     0.2860 C.ar  1 <1>  -0.1430 
 15 C       -0.7020    -5.3930     0.6630 C.3   1 <1>   0.5230 
 16 C        4.9500     3.1840    -0.5210 C.ar  1 <1>  -0.1500 
 17 C        6.6480     2.3060     0.9090 C.ar  1 <1>  -0.1500 
 18 N       -1.9800    -4.8860     0.0830 N.4   1 <1>  -0.9590 
 19 C        5.7060     4.3280    -0.7120 C.ar  1 <1>  -0.1500 
 20 C        7.4060     3.4480     0.7190 C.ar  1 <1>  -0.1500 
 21 C       -2.4230    -3.6180     0.7420 C.3   1 <1>   0.3430 
 22 C       -3.0450    -5.9250     0.0970 C.3   1 <1>   0.3430 
 23 C        6.9360     4.4610    -0.0950 C.ar  1 <1>  -0.1500 
 24 C       -3.6510    -3.0640     0.0200 C.3   1 <1>  -0.1600 
 25 C       -4.2810    -5.4080    -0.6410 C.3   1 <1>  -0.1600 
 26 C       -4.7900    -4.0920    -0.0380 C.3   1 <1>  -0.0800 
 27 C       -5.9680    -3.5450    -0.8510 C.3   1 <1>  -0.2400 
 28 H        2.5200     1.2270     0.1240 H     1 <1>   0.0800 
 29 H        3.4940     0.9810    -1.3150 H     1 <1>   0.0800 
 30 H        4.6410    -2.1480    -0.8460 H     1 <1>   0.0800 
 31 H        4.2610    -2.0990     0.8750 H     1 <1>   0.0800 
 32 H        3.1450    -3.7400    -1.4740 H     1 <1>   0.1500 
 33 H        5.9290    -0.2590    -0.7510 H     1 <1>   0.0800 
 34 H        6.1260    -0.6620     0.9340 H     1 <1>   0.0800 
 35 H        1.7870    -5.9430    -1.0210 H     1 <1>   0.1500 
 36 H        3.5550     0.1340     1.9460 H     1 <1>   0.4000 
 37 H       -0.7200    -5.3130     1.7380 H     1 <1>   0.0800 
 38 H       -0.5640    -6.4280     0.3990 H     1 <1>   0.0800 
 39 H        3.9950     3.1270    -1.0100 H     1 <1>   0.1500 
 40 H        7.0220     1.5330     1.5580 H     1 <1>   0.1500 
 41 H       -1.7730    -4.6420    -0.8940 H     1 <1>   0.4500 
 42 H        5.3350     5.1190    -1.3410 H     1 <1>   0.1500 
 43 H        8.3580     3.5490     1.2090 H     1 <1>   0.1500 
 44 H       -1.6390    -2.8780     0.7110 H     1 <1>   0.0800 
 45 H       -2.6670    -3.8070     1.7750 H     1 <1>   0.0800 
 46 H       -3.3100    -6.1630     1.1150 H     1 <1>   0.0800 
 47 H       -2.6940    -6.8250    -0.3840 H     1 <1>   0.0800 
 48 H        7.5230     5.3500    -0.2450 H     1 <1>   0.1500 
 49 H       -3.3680    -2.7610    -0.9730 H     1 <1>   0.0800 
 50 H       -3.9880    -2.1840     0.5390 H     1 <1>   0.0800 
 51 H       -5.0570    -6.1520    -0.5820 H     1 <1>   0.0800 
 52 H       -4.0420    -5.2730    -1.6820 H     1 <1>   0.0800 
 53 H       -5.1350    -4.2810     0.9670 H     1 <1>   0.0800 
 54 H       -5.6750    -3.3360    -1.8650 H     1 <1>   0.0800 
 55 H       -6.3380    -2.6360    -0.4100 H     1 <1>   0.0800 
 56 H       -6.7750    -4.2580    -0.8700 H     1 <1>   0.0800 
@<TRIPOS>BOND
  1   1   2  2   
  2   2   3  am  
  3   2   4  1   
  4   3   5  1   
  5   3   6  1   
  6   4   7  1   
  7   4   8  2   
  8   5   9  1   
  9   5  28  1   
 10   5  29  1   
 11   6  10  1   
 12   6  30  1   
 13   6  31  1   
 14   7  11  1   
 15   8  12  1   
 16   8  32  1   
 17   9  10  1   
 18   9  13  1   
 19   9  14  1   
 20  10  33  1   
 21  10  34  1   
 22  11  12  2   
 23  11  15  1   
 24  12  35  1   
 25  13  36  1   
 26  14  16  ar  
 27  14  17  ar  
 28  15  18  1   
 29  15  37  1   
 30  15  38  1   
 31  16  19  ar  
 32  16  39  1   
 33  17  20  ar  
 34  17  40  1   
 35  18  21  1   
 36  18  22  1   
 37  18  41  1   
 38  19  23  ar  
 39  19  42  1   
 40  20  23  ar  
 41  20  43  1   
 42  21  24  1   
 43  21  44  1   
 44  21  45  1   
 45  22  25  1   
 46  22  46  1   
 47  22  47  1   
 48  23  48  1   
 49  24  26  1   
 50  24  49  1   
 51  24  50  1   
 52  25  26  1   
 53  25  51  1   
 54  25  52  1   
 55  26  27  1   
 56  26  53  1   
 57  27  54  1   
 58  27  55  1   
 59  27  56  1   
@<TRIPOS>SUBSTRUCTURE
  1 ****   2 GROUP 4 **** **** 0

# MOE 2024.06 (io_trps.svl 2023.06)
