@<TRIPOS>MOLECULE
NONAME
53 57 1 0 0 
SMALL
USER_CHARGES


@<TRIPOS>ATOM
  1 O        3.0250    -0.3120     0.4230 O.3   1 <1>  -0.5600 
  2 C        2.7230    -1.1100    -0.7020 C.3   1 <1>   0.4600 
  3 C        2.0070    -0.0760     1.3710 C.3   1 <1>   0.1200 
  4 C        1.8320    -2.2710    -0.2820 C.2   1 <1>  -0.3320 
  5 C        4.0680    -1.6190    -1.2190 C.3   1 <1>  -0.1600 
  6 C        2.0630    -0.2290    -1.7760 C.3   1 <1>  -0.1600 
  7 C        1.5530    -1.3850     2.0360 C.3   1 <1>   0.0210 
  8 N        1.4390    -3.3350    -1.0520 N.pl3 1 <1>   0.0330 
  9 C        1.3060    -2.4040     0.9520 C.2   1 <1>  -0.1810 
 10 C        5.0410    -0.4690    -1.5000 C.3   1 <1>   0.3430 
 11 C        3.0550     0.6430    -2.5540 C.3   1 <1>   0.3430 
 12 C        0.6530    -4.1520    -0.2770 C.ar  1 <1>  -0.1520 
 13 C        0.5520    -3.5940     0.9940 C.ar  1 <1>   0.0000 
 14 N        4.3130     0.8000    -1.7840 N.4   1 <1>  -0.9590 
 15 C        0.0110    -5.3540    -0.5840 C.ar  1 <1>  -0.1500 
 16 C       -0.1990    -4.2430     1.9780 C.ar  1 <1>  -0.1500 
 17 C        5.1660     1.9250    -2.2540 C.3   1 <1>   0.5240 
 18 C       -0.7260    -5.9830     0.3940 C.ar  1 <1>  -0.1500 
 19 C       -0.8300    -5.4270     1.6750 C.ar  1 <1>  -0.1500 
 20 C        4.4980     3.2370    -1.8520 C.2   1 <1>   0.1080 
 21 N        3.6300     3.3190    -0.8820 N.2   1 <1>  -0.7070 
 22 C        4.7270     4.4690    -2.4530 C.2   1 <1>  -0.1500 
 23 N        3.2880     4.6240    -0.8310 N.pl3 1 <1>   0.3140 
 24 C        3.9390     5.3290    -1.7760 C.2   1 <1>  -0.3020 
 25 C        2.3280     5.1550     0.1590 C.3   1 <1>   0.0960 
 26 C        3.0530     5.6720     1.4080 C.3   1 <1>  -0.2400 
 27 H        1.1770     0.3950     0.8770 H     1 <1>   0.0800 
 28 H        2.3960     0.6000     2.1120 H     1 <1>   0.0800 
 29 H        3.9160    -2.1830    -2.1200 H     1 <1>   0.0800 
 30 H        4.4990    -2.2880    -0.4960 H     1 <1>   0.0800 
 31 H        1.3080     0.3900    -1.3310 H     1 <1>   0.0800 
 32 H        1.5570    -0.8560    -2.4870 H     1 <1>   0.0800 
 33 H        0.6520    -1.2130     2.5970 H     1 <1>   0.0800 
 34 H        2.3130    -1.7430     2.7070 H     1 <1>   0.0800 
 35 H        1.6760    -3.5280    -2.0280 H     1 <1>   0.2700 
 36 H        5.6770    -0.7340    -2.3280 H     1 <1>   0.0800 
 37 H        5.6610    -0.3230    -0.6290 H     1 <1>   0.0800 
 38 H        2.6090     1.6090    -2.7340 H     1 <1>   0.0800 
 39 H        3.2720     0.1850    -3.5050 H     1 <1>   0.0800 
 40 H        3.9750     1.1510    -0.8610 H     1 <1>   0.4500 
 41 H        0.0960    -5.7770    -1.5690 H     1 <1>   0.1500 
 42 H       -0.2700    -3.8070     2.9570 H     1 <1>   0.1500 
 43 H        5.2980     1.8840    -3.3220 H     1 <1>   0.0800 
 44 H        6.1310     1.8780    -1.7790 H     1 <1>   0.0800 
 45 H       -1.2290    -6.9100     0.1830 H     1 <1>   0.1500 
 46 H       -1.4120    -5.9390     2.4210 H     1 <1>   0.1500 
 47 H        5.3900     4.6830    -3.2730 H     1 <1>   0.1500 
 48 H        3.8090     6.3890    -1.9090 H     1 <1>   0.1500 
 49 H        1.6490     4.3670     0.4290 H     1 <1>   0.0800 
 50 H        1.7670     5.9490    -0.2990 H     1 <1>   0.0800 
 51 H        3.6100     4.8760     1.8700 H     1 <1>   0.0800 
 52 H        2.3360     6.0430     2.1190 H     1 <1>   0.0800 
 53 H        3.7240     6.4720     1.1500 H     1 <1>   0.0800 
@<TRIPOS>BOND
  1   1   2  1   
  2   1   3  1   
  3   2   4  1   
  4   2   5  1   
  5   2   6  1   
  6   3   7  1   
  7   3  27  1   
  8   3  28  1   
  9   4   8  1   
 10   4   9  2   
 11   5  10  1   
 12   5  29  1   
 13   5  30  1   
 14   6  11  1   
 15   6  31  1   
 16   6  32  1   
 17   7   9  1   
 18   7  33  1   
 19   7  34  1   
 20   8  12  1   
 21   8  35  1   
 22   9  13  1   
 23  10  14  1   
 24  10  36  1   
 25  10  37  1   
 26  11  14  1   
 27  11  38  1   
 28  11  39  1   
 29  12  13  ar  
 30  12  15  ar  
 31  13  16  ar  
 32  14  17  1   
 33  14  40  1   
 34  15  18  ar  
 35  15  41  1   
 36  16  19  ar  
 37  16  42  1   
 38  17  20  1   
 39  17  43  1   
 40  17  44  1   
 41  18  19  ar  
 42  18  45  1   
 43  19  46  1   
 44  20  21  2   
 45  20  22  1   
 46  21  23  1   
 47  22  24  2   
 48  22  47  1   
 49  23  24  1   
 50  23  25  1   
 51  24  48  1   
 52  25  26  1   
 53  25  49  1   
 54  25  50  1   
 55  26  51  1   
 56  26  52  1   
 57  26  53  1   
@<TRIPOS>SUBSTRUCTURE
  1 ****   2 GROUP 4 **** **** 0

# MOE 2024.06 (io_trps.svl 2023.06)
