@<TRIPOS>MOLECULE
NONAME
60 63 1 0 0 
SMALL
USER_CHARGES


@<TRIPOS>ATOM
  1 O       -1.9870     0.1630     1.9130 O.2   1 <1>  -0.5700 
  2 C       -2.3530     0.3690     0.7790 C.2   1 <1>   0.5690 
  3 N       -2.6050    -0.6850    -0.0730 N.am  1 <1>  -0.6600 
  4 C       -2.5540     1.8290     0.3350 C.3   1 <1>  -0.0190 
  5 C       -2.1660    -2.0560     0.2880 C.3   1 <1>   0.1400 
  6 C       -3.4450    -0.6230    -1.2920 C.3   1 <1>   0.1400 
  7 C       -1.5190     2.7810     0.9610 C.3   1 <1>  -0.2400 
  8 C       -3.9710     2.3270     0.6700 C.3   1 <1>  -0.2400 
  9 C       -3.4100    -2.8810     0.6070 C.3   1 <1>  -0.1600 
 10 C       -4.7190    -1.4300    -1.0270 C.3   1 <1>  -0.1600 
 11 C       -4.3910    -2.8580    -0.5660 C.3   1 <1>   0.4230 
 12 N       -5.6250    -3.5390    -0.1250 N.4   1 <1>  -0.9060 
 13 C       -6.6090    -3.8830    -1.1900 C.3   1 <1>   0.4230 
 14 C       -7.8700    -4.4850    -0.5680 C.3   1 <1>  -0.0800 
 15 C       -6.0880    -5.1070    -1.9340 C.3   1 <1>   0.1200 
 16 C       -7.4960    -5.9660    -0.3820 C.3   1 <1>   0.1200 
 17 C       -8.4230    -3.8120     0.7080 C.3   1 <1>  -0.0170 
 18 O       -6.2490    -6.1170    -0.9950 O.3   1 <1>  -0.5600 
 19 C       -9.7200    -4.4830     1.1470 C.ar  1 <1>  -0.1440 
 20 C      -10.9580    -4.2430     0.5020 C.ar  1 <1>   0.0000 
 21 C       -9.7150    -5.3590     2.1940 C.ar  1 <1>  -0.1500 
 22 C      -12.0900    -4.9560     0.9670 C.ar  1 <1>   0.3100 
 23 C      -11.1440    -3.3390    -0.5720 C.ar  1 <1>  -0.1500 
 24 C      -10.8970    -6.0010     2.5840 C.ar  1 <1>   0.1600 
 25 N      -12.0400    -5.8270     2.0050 N.ar  1 <1>  -0.6200 
 26 C      -13.3270    -4.7590     0.3350 C.ar  1 <1>  -0.1500 
 27 C      -12.3650    -3.1680    -1.1650 C.ar  1 <1>  -0.1500 
 28 C      -13.4720    -3.8880    -0.7100 C.ar  1 <1>  -0.1500 
 29 H       -2.4080     1.8840    -0.7280 H     1 <1>   0.0800 
 30 H       -1.6200    -2.4850    -0.5350 H     1 <1>   0.0800 
 31 H       -1.5070    -2.0380     1.1420 H     1 <1>   0.0800 
 32 H       -3.7070     0.3900    -1.5410 H     1 <1>   0.0800 
 33 H       -2.8950    -1.0360    -2.1220 H     1 <1>   0.0800 
 34 H       -1.6270     2.8050     2.0320 H     1 <1>   0.0800 
 35 H       -1.6410     3.7790     0.5790 H     1 <1>   0.0800 
 36 H       -0.5230     2.4450     0.7300 H     1 <1>   0.0800 
 37 H       -4.1250     2.3060     1.7350 H     1 <1>   0.0800 
 38 H       -4.7130     1.7050     0.2060 H     1 <1>   0.0800 
 39 H       -4.1050     3.3370     0.3240 H     1 <1>   0.0800 
 40 H       -3.8600    -2.4660     1.4930 H     1 <1>   0.0800 
 41 H       -3.1050    -3.8910     0.8170 H     1 <1>   0.0800 
 42 H       -5.2960    -1.4510    -1.9330 H     1 <1>   0.0800 
 43 H       -5.2850    -0.9150    -0.2700 H     1 <1>   0.0800 
 44 H       -3.9460    -3.3970    -1.3880 H     1 <1>   0.0800 
 45 H       -6.0620    -2.9830     0.6150 H     1 <1>   0.4500 
 46 H       -5.3650    -4.4490     0.2870 H     1 <1>   0.4500 
 47 H       -6.8190    -3.0460    -1.8360 H     1 <1>   0.0800 
 48 H       -8.6420    -4.4570    -1.3170 H     1 <1>   0.0800 
 49 H       -5.0550    -5.0410    -2.2260 H     1 <1>   0.0800 
 50 H       -6.6970    -5.3400    -2.7930 H     1 <1>   0.0800 
 51 H       -8.2040    -6.6180    -0.8680 H     1 <1>   0.0800 
 52 H       -7.3990    -6.2500     0.6520 H     1 <1>   0.0800 
 53 H       -8.6030    -2.7650     0.5390 H     1 <1>   0.0800 
 54 H       -7.7120    -3.8900     1.5110 H     1 <1>   0.0800 
 55 H       -8.8230    -5.5880     2.7470 H     1 <1>   0.1500 
 56 H      -10.3160    -2.7650    -0.9360 H     1 <1>   0.1500 
 57 H      -10.8520    -6.6850     3.4150 H     1 <1>   0.1500 
 58 H      -14.1660    -5.3200     0.7040 H     1 <1>   0.1500 
 59 H      -12.4960    -2.4790    -1.9820 H     1 <1>   0.1500 
 60 H      -14.4280    -3.7460    -1.1850 H     1 <1>   0.1500 
@<TRIPOS>BOND
  1   1   2  2   
  2   2   3  am  
  3   2   4  1   
  4   3   5  1   
  5   3   6  1   
  6   4   7  1   
  7   4   8  1   
  8   4  29  1   
  9   5   9  1   
 10   5  30  1   
 11   5  31  1   
 12   6  10  1   
 13   6  32  1   
 14   6  33  1   
 15   7  34  1   
 16   7  35  1   
 17   7  36  1   
 18   8  37  1   
 19   8  38  1   
 20   8  39  1   
 21   9  11  1   
 22   9  40  1   
 23   9  41  1   
 24  10  11  1   
 25  10  42  1   
 26  10  43  1   
 27  11  12  1   
 28  11  44  1   
 29  12  13  1   
 30  12  45  1   
 31  12  46  1   
 32  13  14  1   
 33  13  15  1   
 34  13  47  1   
 35  14  16  1   
 36  14  17  1   
 37  14  48  1   
 38  15  18  1   
 39  15  49  1   
 40  15  50  1   
 41  16  18  1   
 42  16  51  1   
 43  16  52  1   
 44  17  19  1   
 45  17  53  1   
 46  17  54  1   
 47  19  20  ar  
 48  19  21  ar  
 49  20  22  ar  
 50  20  23  ar  
 51  21  24  ar  
 52  21  55  1   
 53  22  25  ar  
 54  22  26  ar  
 55  23  27  ar  
 56  23  56  1   
 57  24  25  ar  
 58  24  57  1   
 59  26  28  ar  
 60  26  58  1   
 61  27  28  ar  
 62  27  59  1   
 63  28  60  1   
@<TRIPOS>SUBSTRUCTURE
  1 ****  12 GROUP 4 **** **** 0

# MOE 2024.06 (io_trps.svl 2023.06)
