@<TRIPOS>MOLECULE
NONAME
44 45 1 0 0 
SMALL
USER_CHARGES


@<TRIPOS>ATOM
  1 S        0.0720     0.6420    -1.0080 S.o2  1 <1>   1.3330 
  2 O        0.5840     0.1090    -2.2490 O.2   1 <1>  -0.6500 
  3 O       -0.9170     1.6950    -1.0240 O.2   1 <1>  -0.6500 
  4 N        1.3960     1.1630    -0.0840 N.am  1 <1>  -0.8490 
  5 C       -0.5920    -0.6900    -0.0300 C.3   1 <1>  -0.1350 
  6 C        1.7460     2.5640    -0.3970 C.3   1 <1>   0.1960 
  7 C        2.5690     0.2860    -0.2410 C.3   1 <1>   0.1160 
  8 C        2.6750     3.1930     0.6510 C.3   1 <1>   0.2090 
  9 N        2.8660     4.6420     0.3670 N.pl3 1 <1>  -0.8690 
 10 C        3.9790     5.3410     0.7730 C.ar  1 <1>   0.4100 
 11 N        5.0000     4.6510     1.2620 N.ar  1 <1>  -0.6200 
 12 C        3.9810     6.7230     0.6530 C.ar  1 <1>  -0.1500 
 13 C        6.0410     5.3620     1.6530 C.ar  1 <1>   0.1600 
 14 C        5.0750     7.4700     1.0430 C.ar  1 <1>   0.0860 
 15 C        6.1290     6.7370     1.5710 C.ar  1 <1>  -0.1500 
 16 C        5.1020     8.9130     0.9130 C.2   1 <1>   0.5440 
 17 O        4.1560     9.5680     1.3080 O.2   1 <1>  -0.5700 
 18 N        6.1680     9.5660     0.3390 N.am  1 <1>  -0.6600 
 19 C        6.2040    11.0400     0.2060 C.3   1 <1>   0.1400 
 20 C        7.1810     8.9330    -0.5360 C.3   1 <1>   0.1400 
 21 C        7.4340    11.3290    -0.6480 C.3   1 <1>  -0.1600 
 22 C        7.6510    10.0530    -1.4560 C.3   1 <1>  -0.1600 
 23 H       -1.4710    -1.0840    -0.5010 H     1 <1>   0.0800 
 24 H       -0.8550    -0.3320     0.9460 H     1 <1>   0.0800 
 25 H        0.1260    -1.4790     0.0690 H     1 <1>   0.0800 
 26 H        0.8510     3.1600    -0.4130 H     1 <1>   0.0800 
 27 H        2.2040     2.6210    -1.3700 H     1 <1>   0.0800 
 28 H        2.2960    -0.7380    -0.0560 H     1 <1>   0.0800 
 29 H        3.3400     0.5520     0.4600 H     1 <1>   0.0800 
 30 H        2.9630     0.3580    -1.2420 H     1 <1>   0.0800 
 31 H        3.6260     2.6930     0.6290 H     1 <1>   0.0800 
 32 H        2.2430     3.0810     1.6310 H     1 <1>   0.0800 
 33 H        1.9970     5.1810     0.3570 H     1 <1>   0.4000 
 34 H        3.1210     7.2210     0.2490 H     1 <1>   0.1500 
 35 H        6.8730     4.8140     2.0650 H     1 <1>   0.1500 
 36 H        7.0090     7.2450     1.9190 H     1 <1>   0.1500 
 37 H        6.2670    11.5070     1.1730 H     1 <1>   0.0800 
 38 H        5.3090    11.3690    -0.2950 H     1 <1>   0.0800 
 39 H        6.7620     8.1140    -1.0950 H     1 <1>   0.0800 
 40 H        8.0010     8.5840     0.0690 H     1 <1>   0.0800 
 41 H        8.2750    11.5010     0.0010 H     1 <1>   0.0800 
 42 H        7.2910    12.1930    -1.2720 H     1 <1>   0.0800 
 43 H        7.0280    10.0680    -2.3340 H     1 <1>   0.0800 
 44 H        8.6760     9.9250    -1.7550 H     1 <1>   0.0800 
@<TRIPOS>BOND
  1   1   2  2   
  2   1   3  2   
  3   1   4  am  
  4   1   5  1   
  5   4   6  1   
  6   4   7  1   
  7   5  23  1   
  8   5  24  1   
  9   5  25  1   
 10   6   8  1   
 11   6  26  1   
 12   6  27  1   
 13   7  28  1   
 14   7  29  1   
 15   7  30  1   
 16   8   9  1   
 17   8  31  1   
 18   8  32  1   
 19   9  10  1   
 20   9  33  1   
 21  10  11  ar  
 22  10  12  ar  
 23  11  13  ar  
 24  12  14  ar  
 25  12  34  1   
 26  13  15  ar  
 27  13  35  1   
 28  14  15  ar  
 29  14  16  1   
 30  15  36  1   
 31  16  17  2   
 32  16  18  am  
 33  18  19  1   
 34  18  20  1   
 35  19  21  1   
 36  19  37  1   
 37  19  38  1   
 38  20  22  1   
 39  20  39  1   
 40  20  40  1   
 41  21  22  1   
 42  21  41  1   
 43  21  42  1   
 44  22  43  1   
 45  22  44  1   
@<TRIPOS>SUBSTRUCTURE
  1 ****  10 GROUP 4 **** **** 0

# MOE 2024.06 (io_trps.svl 2023.06)
