@<TRIPOS>MOLECULE
NONAME
53 55 1 0 0 
SMALL
USER_CHARGES


@<TRIPOS>ATOM
  1 O       -1.2570    -0.6520     1.4120 O.3   1 <1>  -0.3630 
  2 C       -2.3050    -1.4010     0.9950 C.ar  1 <1>   0.0830 
  3 C       -0.0050    -0.7090     0.7610 C.3   1 <1>   0.1200 
  4 C       -2.2680    -2.2410    -0.1140 C.ar  1 <1>  -0.1500 
  5 C       -3.4710    -1.3060     1.7360 C.ar  1 <1>  -0.1500 
  6 C        0.9540     0.2430     1.4720 C.3   1 <1>   0.1200 
  7 C       -3.3900    -2.9680    -0.4720 C.ar  1 <1>  -0.1500 
  8 C       -4.5920    -2.0330     1.3800 C.ar  1 <1>  -0.1500 
  9 O        2.2120     0.1420     0.8940 O.3   1 <1>  -0.6800 
 10 C       -4.5590    -2.8640     0.2690 C.ar  1 <1>  -0.1430 
 11 C       -5.7980    -3.6400    -0.1310 C.3   1 <1>   0.4860 
 12 N       -6.7980    -2.6770    -0.6470 N.4   1 <1>  -0.9590 
 13 C       -8.1600    -3.2490    -0.7840 C.3   1 <1>   0.3430 
 14 C       -6.3410    -1.9220    -1.8530 C.3   1 <1>   0.3430 
 15 C       -9.1820    -2.0870    -0.8270 C.3   1 <1>   0.0000 
 16 C       -7.5270    -1.3390    -2.6390 C.3   1 <1>  -0.1600 
 17 C       -9.4920    -1.6040     0.6020 C.3   1 <1>   0.2000 
 18 C       -8.6890    -0.9180    -1.7250 C.3   1 <1>  -0.1600 
 19 C      -10.5400    -2.6480    -1.2720 C.3   1 <1>  -0.1600 
 20 O       -8.3190    -1.5290     1.3650 O.3   1 <1>  -0.5600 
 21 C      -10.4770    -2.6250     1.1800 C.3   1 <1>  -0.1600 
 22 C      -11.1230    -3.3240    -0.0260 C.3   1 <1>  -0.1600 
 23 C       -8.4530    -0.8060     2.5530 C.3   1 <1>   0.0400 
 24 H        0.3540    -1.7210     0.8180 H     1 <1>   0.0800 
 25 H       -0.1400    -0.4040    -0.2610 H     1 <1>   0.0800 
 26 H       -1.3770    -2.3390    -0.7070 H     1 <1>   0.1500 
 27 H       -3.4890    -0.6590     2.5950 H     1 <1>   0.1500 
 28 H        1.0400    -0.0010     2.5170 H     1 <1>   0.0800 
 29 H        0.6200     1.2600     1.3600 H     1 <1>   0.0800 
 30 H       -3.3380    -3.6130    -1.3330 H     1 <1>   0.1500 
 31 H       -5.4840    -1.9420     1.9780 H     1 <1>   0.1500 
 32 H        2.6410    -0.7020     1.1360 H     1 <1>   0.4000 
 33 H       -6.1910    -4.1520     0.7320 H     1 <1>   0.0800 
 34 H       -5.5560    -4.3690    -0.8870 H     1 <1>   0.0800 
 35 H       -6.9310    -1.9800     0.1120 H     1 <1>   0.4500 
 36 H       -8.2220    -3.8280    -1.6900 H     1 <1>   0.0800 
 37 H       -8.3860    -3.8880     0.0540 H     1 <1>   0.0800 
 38 H       -5.6910    -1.1210    -1.5350 H     1 <1>   0.0800 
 39 H       -5.7730    -2.5680    -2.5030 H     1 <1>   0.0800 
 40 H       -7.1840    -0.4930    -3.2100 H     1 <1>   0.0800 
 41 H       -7.8750    -2.0730    -3.3460 H     1 <1>   0.0800 
 42 H       -9.9560    -0.6300     0.5600 H     1 <1>   0.0800 
 43 H       -9.4940    -0.5220    -2.3210 H     1 <1>   0.0800 
 44 H       -8.3370    -0.1110    -1.1020 H     1 <1>   0.0800 
 45 H      -11.1960    -1.8400    -1.5540 H     1 <1>   0.0800 
 46 H      -10.4630    -3.3270    -2.1040 H     1 <1>   0.0800 
 47 H       -9.9670    -3.3490     1.7920 H     1 <1>   0.0800 
 48 H      -11.2260    -2.1250     1.7690 H     1 <1>   0.0800 
 49 H      -10.8730    -4.3710    -0.0180 H     1 <1>   0.0800 
 50 H      -12.1960    -3.2310    -0.0060 H     1 <1>   0.0800 
 51 H       -7.5020    -0.7960     3.0560 H     1 <1>   0.0800 
 52 H       -9.1870    -1.2780     3.1840 H     1 <1>   0.0800 
 53 H       -8.7490     0.2050     2.3260 H     1 <1>   0.0800 
@<TRIPOS>BOND
  1   1   2  1   
  2   1   3  1   
  3   2   4  ar  
  4   2   5  ar  
  5   3   6  1   
  6   3  24  1   
  7   3  25  1   
  8   4   7  ar  
  9   4  26  1   
 10   5   8  ar  
 11   5  27  1   
 12   6   9  1   
 13   6  28  1   
 14   6  29  1   
 15   7  10  ar  
 16   7  30  1   
 17   8  10  ar  
 18   8  31  1   
 19   9  32  1   
 20  10  11  1   
 21  11  12  1   
 22  11  33  1   
 23  11  34  1   
 24  12  13  1   
 25  12  14  1   
 26  12  35  1   
 27  13  15  1   
 28  13  36  1   
 29  13  37  1   
 30  14  16  1   
 31  14  38  1   
 32  14  39  1   
 33  15  17  1   
 34  15  18  1   
 35  15  19  1   
 36  16  18  1   
 37  16  40  1   
 38  16  41  1   
 39  17  20  1   
 40  17  21  1   
 41  17  42  1   
 42  18  43  1   
 43  18  44  1   
 44  19  22  1   
 45  19  45  1   
 46  19  46  1   
 47  20  23  1   
 48  21  22  1   
 49  21  47  1   
 50  21  48  1   
 51  22  49  1   
 52  22  50  1   
 53  23  51  1   
 54  23  52  1   
 55  23  53  1   
@<TRIPOS>SUBSTRUCTURE
  1 ****  10 GROUP 4 **** **** 0

# MOE 2024.06 (io_trps.svl 2023.06)
