@<TRIPOS>MOLECULE
NONAME
33 34 1 0 0 
SMALL
USER_CHARGES


@<TRIPOS>ATOM
  1 S       -0.8800     0.9190     0.9390 S.o2  1 <1>   1.4470 
  2 O       -1.2800     2.3110     0.9700 O.2   1 <1>  -0.6500 
  3 O       -1.0310     0.1300     2.1420 O.2   1 <1>  -0.6500 
  4 N       -1.7410     0.1950    -0.3330 N.am  1 <1>  -0.8490 
  5 C        0.8450     0.8440     0.3760 C.ar  1 <1>  -0.0090 
  6 C       -1.3830    -1.2000    -0.6590 C.3   1 <1>   0.1960 
  7 C       -3.1900     0.4190    -0.2980 C.3   1 <1>   0.1960 
  8 C        1.3420     1.7770    -0.5250 C.ar  1 <1>  -0.1500 
  9 C        1.7030    -0.1680     0.8070 C.ar  1 <1>  -0.1500 
 10 C       -2.0630    -2.2300     0.2510 C.3   1 <1>  -0.1860 
 11 C       -3.9030    -0.5560     0.6420 C.3   1 <1>  -0.1600 
 12 C        2.6500     1.6840    -0.9560 C.ar  1 <1>   0.1900 
 13 C        3.0150    -0.2520     0.3660 C.ar  1 <1>  -0.1500 
 14 C       -1.7380    -3.6310    -0.2200 C.2   1 <1>   0.9060 
 15 C       -3.5710    -1.9920     0.2510 C.3   1 <1>   0.2000 
 16 F        3.0980     2.5720    -1.8010 F     1 <1>  -0.1900 
 17 C        3.5020     0.6850    -0.5280 C.ar  1 <1>  -0.1500 
 18 O       -0.8460    -3.7950    -1.0580 O.co2 1 <1>  -0.9000 
 19 O       -2.3820    -4.5770     0.2500 O.co2 1 <1>  -0.9000 
 20 O       -4.1580    -2.8420     1.1580 O.3   1 <1>  -0.6800 
 21 H       -1.6830    -1.3990    -1.6750 H     1 <1>   0.0800 
 22 H       -0.3160    -1.3370    -0.6230 H     1 <1>   0.0800 
 23 H       -3.4030     1.4340    -0.0040 H     1 <1>   0.0800 
 24 H       -3.5780     0.2850    -1.2940 H     1 <1>   0.0800 
 25 H        0.7120     2.5700    -0.8890 H     1 <1>   0.1500 
 26 H        1.3320    -0.9090     1.4990 H     1 <1>   0.1500 
 27 H       -1.6790    -2.1380     1.2470 H     1 <1>   0.0800 
 28 H       -4.9650    -0.4060     0.5710 H     1 <1>   0.0800 
 29 H       -3.6000    -0.3720     1.6570 H     1 <1>   0.0800 
 30 H        3.6500    -1.0490     0.7160 H     1 <1>   0.1500 
 31 H       -3.9760    -2.2230    -0.7210 H     1 <1>   0.0800 
 32 H        4.5140     0.6440    -0.8870 H     1 <1>   0.1500 
 33 H       -3.7030    -3.7250     1.0250 H     1 <1>   0.4000 
@<TRIPOS>BOND
  1   1   2  2   
  2   1   3  2   
  3   1   4  am  
  4   1   5  1   
  5   4   6  1   
  6   4   7  1   
  7   5   8  ar  
  8   5   9  ar  
  9   6  10  1   
 10   6  21  1   
 11   6  22  1   
 12   7  11  1   
 13   7  23  1   
 14   7  24  1   
 15   8  12  ar  
 16   8  25  1   
 17   9  13  ar  
 18   9  26  1   
 19  10  14  1   
 20  10  15  1   
 21  10  27  1   
 22  11  15  1   
 23  11  28  1   
 24  11  29  1   
 25  12  16  1   
 26  12  17  ar  
 27  13  17  ar  
 28  13  30  1   
 29  14  18  ar  
 30  14  19  ar  
 31  15  20  1   
 32  15  31  1   
 33  17  32  1   
 34  20  33  1   
@<TRIPOS>SUBSTRUCTURE
  1 ****   6 GROUP 4 **** **** 0

# MOE 2024.06 (io_trps.svl 2023.06)
