@<TRIPOS>MOLECULE
NONAME
43 45 1 0 0 
SMALL
USER_CHARGES


@<TRIPOS>ATOM
  1 S       -0.3700    -1.0630     0.8220 S.3   1 <1>  -0.4600 
  2 C       -1.7060     0.1720     0.8780 C.3   1 <1>   0.2510 
  3 C       -1.3560    -2.5200     0.3530 C.3   1 <1>   0.2510 
  4 C       -2.9260    -0.6180     0.4670 C.2   1 <1>   0.1080 
  5 C       -2.7520    -1.9610     0.2010 C.2   1 <1>  -0.1810 
  6 N       -4.1510    -0.2220     0.3150 N.2   1 <1>  -0.7070 
  7 C       -3.9770    -2.4210    -0.1480 C.2   1 <1>  -0.0880 
  8 N       -4.8080    -1.3430    -0.0660 N.pl3 1 <1>   0.3140 
  9 N       -4.4080    -3.7120    -0.5360 N.am  1 <1>  -0.4940 
 10 C       -6.2540    -1.3260    -0.3260 C.3   1 <1>   0.0160 
 11 C       -3.7890    -4.9270    -0.4880 C.2   1 <1>   0.5690 
 12 O       -2.6780    -5.1000    -0.0500 O.2   1 <1>  -0.5700 
 13 C       -4.5500    -6.1320    -0.9950 C.3   1 <1>  -0.0990 
 14 C       -5.7150    -6.4860    -0.0500 C.3   1 <1>   0.2510 
 15 N       -5.8010    -7.9810     0.0700 N.3   1 <1>  -0.8100 
 16 C       -7.0170    -5.7840    -0.5330 C.2   1 <1>   0.5690 
 17 C       -7.1510    -8.4240     0.4870 C.3   1 <1>   0.1100 
 18 C       -4.7710    -8.5100     0.9820 C.3   1 <1>   0.1100 
 19 O       -7.0230    -4.5930    -0.7540 O.2   1 <1>  -0.5700 
 20 N       -8.1540    -6.4960    -0.7130 N.am  1 <1>  -0.7300 
 21 C       -8.2380    -7.9580    -0.4950 C.3   1 <1>   0.1400 
 22 C       -4.4290    -9.9450     0.5930 C.3   1 <1>  -0.2400 
 23 H       -1.4780     0.9550     0.1800 H     1 <1>   0.0800 
 24 H       -1.7860     0.5440     1.8830 H     1 <1>   0.0800 
 25 H       -1.2910    -3.2420     1.1470 H     1 <1>   0.0800 
 26 H       -0.9700    -2.9160    -0.5690 H     1 <1>   0.0800 
 27 H       -5.3930    -3.7670    -0.8340 H     1 <1>   0.3700 
 28 H       -6.6290    -0.3330    -0.1650 H     1 <1>   0.0800 
 29 H       -6.7410    -2.0100     0.3440 H     1 <1>   0.0800 
 30 H       -6.4340    -1.6200    -1.3430 H     1 <1>   0.0800 
 31 H       -3.8590    -6.9500    -1.0780 H     1 <1>   0.0800 
 32 H       -4.9190    -5.9300    -1.9830 H     1 <1>   0.0800 
 33 H       -5.5050    -6.0910     0.9300 H     1 <1>   0.0800 
 34 H       -7.3740    -8.0400     1.4690 H     1 <1>   0.0800 
 35 H       -7.1820    -9.4980     0.5380 H     1 <1>   0.0800 
 36 H       -5.1110    -8.4650     2.0040 H     1 <1>   0.0800 
 37 H       -3.8700    -7.9230     0.9130 H     1 <1>   0.0800 
 38 H       -8.9720    -6.0130    -1.0890 H     1 <1>   0.3700 
 39 H       -9.2070    -8.2080    -0.1000 H     1 <1>   0.0800 
 40 H       -8.1110    -8.4680    -1.4350 H     1 <1>   0.0800 
 41 H       -5.2650   -10.6000     0.7450 H     1 <1>   0.0800 
 42 H       -3.6140   -10.2960     1.1990 H     1 <1>   0.0800 
 43 H       -4.1270    -9.9830    -0.4380 H     1 <1>   0.0800 
@<TRIPOS>BOND
  1   1   2  1   
  2   1   3  1   
  3   2   4  1   
  4   2  23  1   
  5   2  24  1   
  6   3   5  1   
  7   3  25  1   
  8   3  26  1   
  9   4   5  1   
 10   4   6  2   
 11   5   7  2   
 12   6   8  1   
 13   7   8  1   
 14   7   9  1   
 15   8  10  1   
 16   9  11  am  
 17   9  27  1   
 18  10  28  1   
 19  10  29  1   
 20  10  30  1   
 21  11  12  2   
 22  11  13  1   
 23  13  14  1   
 24  13  31  1   
 25  13  32  1   
 26  14  15  1   
 27  14  16  1   
 28  14  33  1   
 29  15  17  1   
 30  15  18  1   
 31  16  19  2   
 32  16  20  am  
 33  17  21  1   
 34  17  34  1   
 35  17  35  1   
 36  18  22  1   
 37  18  36  1   
 38  18  37  1   
 39  20  21  1   
 40  20  38  1   
 41  21  39  1   
 42  21  40  1   
 43  22  41  1   
 44  22  42  1   
 45  22  43  1   
@<TRIPOS>SUBSTRUCTURE
  1 ****   9 GROUP 4 **** **** 0

# MOE 2024.06 (io_trps.svl 2023.06)
