@<TRIPOS>MOLECULE
NONAME
63 65 1 0 0 
SMALL
USER_CHARGES


@<TRIPOS>ATOM
  1 O       -0.7780    -0.1770    -0.5880 O.3   1 <1>  -0.5600 
  2 C        0.0370    -1.2840    -0.3720 C.3   1 <1>   0.2800 
  3 C       -1.5990     0.2890     0.4520 C.3   1 <1>   0.1200 
  4 C       -0.8370    -2.5130    -0.0080 C.3   1 <1>  -0.1600 
  5 C        1.0740    -0.9310     0.7110 C.3   1 <1>  -0.1600 
  6 C        0.7650    -1.4960    -1.7040 C.3   1 <1>  -0.1600 
  7 C       -2.2760    -0.8600     1.2120 C.3   1 <1>  -0.1600 
  8 C       -2.2760    -2.1510     0.3920 C.3   1 <1>   0.2800 
  9 C        2.1970    -1.9620     0.7880 C.3   1 <1>   0.3430 
 10 C        1.8730    -2.5360    -1.5880 C.3   1 <1>   0.3430 
 11 O       -2.7220    -3.1570     1.2240 O.3   1 <1>  -0.6800 
 12 C       -3.2320    -2.0620    -0.8280 C.3   1 <1>   0.1200 
 13 N        2.8500    -2.1110    -0.5460 N.4   1 <1>  -0.9590 
 14 O       -4.5710    -2.0710    -0.4310 O.3   1 <1>  -0.6800 
 15 C        4.0000    -3.0680    -0.5060 C.3   1 <1>   0.3430 
 16 C        5.1840    -2.5170     0.2920 C.3   1 <1>  -0.0220 
 17 C        6.3260    -3.5330     0.2250 C.2   1 <1>  -0.2760 
 18 C        6.2890    -4.6790     0.9310 C.2   1 <1>  -0.2760 
 19 C        7.4960    -3.1630    -0.7220 C.3   1 <1>   0.1380 
 20 C        7.3630    -5.7590     0.8310 C.3   1 <1>  -0.0220 
 21 C        5.2120    -5.1080     1.9270 C.3   1 <1>  -0.1020 
 22 C        8.6700    -4.1560    -0.5650 C.3   1 <1>  -0.1600 
 23 C        8.0750    -1.7700    -0.4120 C.3   1 <1>  -0.2400 
 24 C        7.0030    -3.1840    -2.1780 C.3   1 <1>  -0.2400 
 25 C        8.2110    -5.6070    -0.4300 C.3   1 <1>  -0.1600 
 26 H       -2.3470     0.9160    -0.0030 H     1 <1>   0.0800 
 27 H       -1.0090     0.8980     1.1150 H     1 <1>   0.0800 
 28 H       -0.3760    -3.0380     0.8090 H     1 <1>   0.0800 
 29 H       -0.8780    -3.2070    -0.8270 H     1 <1>   0.0800 
 30 H        0.6030    -0.8820     1.6760 H     1 <1>   0.0800 
 31 H        1.5010     0.0340     0.5030 H     1 <1>   0.0800 
 32 H        1.1920    -0.5660    -2.0360 H     1 <1>   0.0800 
 33 H        0.0610    -1.8120    -2.4540 H     1 <1>   0.0800 
 34 H       -3.2810    -0.5680     1.4590 H     1 <1>   0.0800 
 35 H       -1.7480    -1.0190     2.1350 H     1 <1>   0.0800 
 36 H        1.7960    -2.9120     1.1050 H     1 <1>   0.0800 
 37 H        2.9190    -1.6420     1.5210 H     1 <1>   0.0800 
 38 H        2.3690    -2.6360    -2.5400 H     1 <1>   0.0800 
 39 H        1.4480    -3.4920    -1.3250 H     1 <1>   0.0800 
 40 H       -3.6360    -2.9340     1.4920 H     1 <1>   0.4000 
 41 H       -3.0780    -2.8930    -1.4940 H     1 <1>   0.0800 
 42 H       -3.0570    -1.1550    -1.3780 H     1 <1>   0.0800 
 43 H        3.2130    -1.1890    -0.8250 H     1 <1>   0.4500 
 44 H       -4.8790    -2.9920    -0.3120 H     1 <1>   0.4000 
 45 H        4.3390    -3.2660    -1.5100 H     1 <1>   0.0800 
 46 H        3.6880    -4.0060    -0.0770 H     1 <1>   0.0800 
 47 H        4.9170    -2.3620     1.3200 H     1 <1>   0.0800 
 48 H        5.4640    -1.5660    -0.1100 H     1 <1>   0.0800 
 49 H        6.9120    -6.7360     0.8130 H     1 <1>   0.0800 
 50 H        7.9940    -5.7040     1.7010 H     1 <1>   0.0800 
 51 H        5.6650    -5.3050     2.8830 H     1 <1>   0.0800 
 52 H        4.7360    -6.0120     1.5890 H     1 <1>   0.0800 
 53 H        4.4510    -4.3690     2.0780 H     1 <1>   0.0800 
 54 H        9.2260    -3.9090     0.3230 H     1 <1>   0.0800 
 55 H        9.3470    -4.0690    -1.3970 H     1 <1>   0.0800 
 56 H        8.2710    -1.6790     0.6420 H     1 <1>   0.0800 
 57 H        7.4200    -0.9750    -0.7110 H     1 <1>   0.0800 
 58 H        9.0020    -1.6270    -0.9380 H     1 <1>   0.0800 
 59 H        6.5610    -4.1350    -2.4100 H     1 <1>   0.0800 
 60 H        7.8230    -3.0180    -2.8530 H     1 <1>   0.0800 
 61 H        6.2750    -2.4140    -2.3510 H     1 <1>   0.0800 
 62 H        7.6350    -5.8960    -1.2910 H     1 <1>   0.0800 
 63 H        9.0650    -6.2580    -0.3680 H     1 <1>   0.0800 
@<TRIPOS>BOND
  1   1   2  1   
  2   1   3  1   
  3   2   4  1   
  4   2   5  1   
  5   2   6  1   
  6   3   7  1   
  7   3  26  1   
  8   3  27  1   
  9   4   8  1   
 10   4  28  1   
 11   4  29  1   
 12   5   9  1   
 13   5  30  1   
 14   5  31  1   
 15   6  10  1   
 16   6  32  1   
 17   6  33  1   
 18   7   8  1   
 19   7  34  1   
 20   7  35  1   
 21   8  11  1   
 22   8  12  1   
 23   9  13  1   
 24   9  36  1   
 25   9  37  1   
 26  10  13  1   
 27  10  38  1   
 28  10  39  1   
 29  11  40  1   
 30  12  14  1   
 31  12  41  1   
 32  12  42  1   
 33  13  15  1   
 34  13  43  1   
 35  14  44  1   
 36  15  16  1   
 37  15  45  1   
 38  15  46  1   
 39  16  17  1   
 40  16  47  1   
 41  16  48  1   
 42  17  18  2   
 43  17  19  1   
 44  18  20  1   
 45  18  21  1   
 46  19  22  1   
 47  19  23  1   
 48  19  24  1   
 49  20  25  1   
 50  20  49  1   
 51  20  50  1   
 52  21  51  1   
 53  21  52  1   
 54  21  53  1   
 55  22  25  1   
 56  22  54  1   
 57  22  55  1   
 58  23  56  1   
 59  23  57  1   
 60  23  58  1   
 61  24  59  1   
 62  24  60  1   
 63  24  61  1   
 64  25  62  1   
 65  25  63  1   
@<TRIPOS>SUBSTRUCTURE
  1 ****  13 GROUP 4 **** **** 0

# MOE 2024.06 (io_trps.svl 2023.06)
