@<TRIPOS>MOLECULE
NONAME
40 43 1 0 0 
SMALL
USER_CHARGES


@<TRIPOS>ATOM
  1 S       -0.4000     0.3780    -0.0860 S.3   1 <1>  -0.0800 
  2 C       -0.2800    -1.3870    -0.0860 C.2   1 <1>   0.4620 
  3 C        1.3340     0.4860     0.1090 C.ar  1 <1>   0.0400 
  4 N        0.9150    -1.8340     0.0430 N.2   1 <1>  -0.5650 
  5 N       -1.4270    -2.1250    -0.2200 N.pl3 1 <1>  -0.8220 
  6 C        1.8330    -0.8030     0.1540 C.ar  1 <1>   0.2270 
  7 C        2.1200     1.6180     0.2060 C.ar  1 <1>  -0.1500 
  8 C       -2.8020    -1.5800    -0.3130 C.3   1 <1>   0.2090 
  9 C       -1.4350    -3.6030    -0.1470 C.3   1 <1>   0.2090 
 10 C        3.2040    -0.9630     0.3060 C.ar  1 <1>  -0.1500 
 11 C        3.4850     1.4370     0.3570 C.ar  1 <1>  -0.1500 
 12 C       -3.6930    -2.8120    -0.4830 C.3   1 <1>   0.2000 
 13 C       -2.8960    -3.9760     0.1040 C.3   1 <1>  -0.0800 
 14 C        4.0220     0.1520     0.4070 C.ar  1 <1>  -0.1500 
 15 O       -4.9020    -2.6750     0.1830 O.3   1 <1>  -0.6800 
 16 C       -3.2920    -5.3390    -0.4840 C.3   1 <1>   0.0210 
 17 C       -2.3880    -6.4410     0.0320 C.2   1 <1>   0.1080 
 18 N       -2.2570    -6.7120     1.2930 N.2   1 <1>  -0.7070 
 19 C       -1.6000    -7.2640    -0.7660 C.2   1 <1>  -0.1500 
 20 N       -1.3730    -7.7270     1.3340 N.pl3 1 <1>   0.3000 
 21 C       -0.9600    -8.0780     0.0980 C.2   1 <1>  -0.3320 
 22 C        0.0370    -9.1870    -0.1830 C.3   1 <1>  -0.0600 
 23 H        1.6810     2.5980     0.1640 H     1 <1>   0.1500 
 24 H       -3.0380    -1.0560     0.5960 H     1 <1>   0.0800 
 25 H       -2.8910    -0.9230    -1.1610 H     1 <1>   0.0800 
 26 H       -1.0860    -4.0020    -1.0840 H     1 <1>   0.0800 
 27 H       -0.7980    -3.9560     0.6490 H     1 <1>   0.0800 
 28 H        3.6070    -1.9580     0.3440 H     1 <1>   0.1500 
 29 H        4.1360     2.2910     0.4370 H     1 <1>   0.1500 
 30 H       -3.8960    -2.9640    -1.5290 H     1 <1>   0.0800 
 31 H       -3.0290    -4.0030     1.1720 H     1 <1>   0.0800 
 32 H        5.0840     0.0250     0.5250 H     1 <1>   0.1500 
 33 H       -4.7550    -2.6870     1.1490 H     1 <1>   0.4000 
 34 H       -3.2380    -5.3080    -1.5570 H     1 <1>   0.0800 
 35 H       -4.3060    -5.5670    -0.2060 H     1 <1>   0.0800 
 36 H       -1.5340    -7.2350    -1.8390 H     1 <1>   0.1500 
 37 H       -1.0740    -8.1550     2.2180 H     1 <1>   0.2700 
 38 H        0.2020    -9.2750    -1.2420 H     1 <1>   0.0800 
 39 H       -0.3360   -10.1260     0.1850 H     1 <1>   0.0800 
 40 H        0.9780    -8.9710     0.2930 H     1 <1>   0.0800 
@<TRIPOS>BOND
  1   1   2  1   
  2   1   3  1   
  3   2   4  2   
  4   2   5  1   
  5   3   6  ar  
  6   3   7  ar  
  7   4   6  1   
  8   5   8  1   
  9   5   9  1   
 10   6  10  ar  
 11   7  11  ar  
 12   7  23  1   
 13   8  12  1   
 14   8  24  1   
 15   8  25  1   
 16   9  13  1   
 17   9  26  1   
 18   9  27  1   
 19  10  14  ar  
 20  10  28  1   
 21  11  14  ar  
 22  11  29  1   
 23  12  13  1   
 24  12  15  1   
 25  12  30  1   
 26  13  16  1   
 27  13  31  1   
 28  14  32  1   
 29  15  33  1   
 30  16  17  1   
 31  16  34  1   
 32  16  35  1   
 33  17  18  2   
 34  17  19  1   
 35  18  20  1   
 36  19  21  2   
 37  19  36  1   
 38  20  21  1   
 39  20  37  1   
 40  21  22  1   
 41  22  38  1   
 42  22  39  1   
 43  22  40  1   
@<TRIPOS>SUBSTRUCTURE
  1 ****   9 GROUP 4 **** **** 0

# MOE 2024.06 (io_trps.svl 2023.06)
