@<TRIPOS>MOLECULE
NONAME
44 46 1 0 0 
SMALL
USER_CHARGES


@<TRIPOS>ATOM
  1 O       -0.1220     0.8820     0.5060 O.2   1 <1>  -0.5700 
  2 C       -0.0640     2.0850     0.5030 C.2   1 <1>   0.5690 
  3 N       -1.1450     2.8260     0.8280 N.am  1 <1>  -0.7300 
  4 C        1.2310     2.7920     0.0930 C.3   1 <1>   0.1810 
  5 C       -1.1540     4.3100     0.8420 C.3   1 <1>   0.3640 
  6 O        1.2690     4.1480     0.4820 O.3   1 <1>  -0.5600 
  7 C       -2.4250     4.7910     0.1490 C.ar  1 <1>  -0.1440 
  8 C        0.1080     4.8990     0.1550 C.3   1 <1>   0.2610 
  9 C       -3.1600     5.8340     0.6990 C.ar  1 <1>   0.1600 
 10 C       -2.8750     4.2170    -1.0270 C.ar  1 <1>  -0.1500 
 11 C        0.3050     6.3840     0.5080 C.2   1 <1>   0.5690 
 12 N       -4.2770     6.3270     0.1880 N.ar  1 <1>  -0.6200 
 13 C       -4.0350     4.7230    -1.5730 C.ar  1 <1>  -0.1500 
 14 O       -0.2420     6.8220     1.4970 O.2   1 <1>  -0.5700 
 15 N        1.0770     7.2060    -0.2850 N.am  1 <1>  -0.6600 
 16 C       -4.6890     5.7610    -0.9330 C.ar  1 <1>   0.1600 
 17 C        1.1860     8.6650     0.0140 C.3   1 <1>   0.1400 
 18 C        1.8940     6.7470    -1.4440 C.3   1 <1>   0.0600 
 19 C        2.2910     8.9190     1.0420 C.3   1 <1>   0.0210 
 20 C        2.5480    10.4030     1.1860 C.2   1 <1>   0.3350 
 21 N        2.3150    11.0920     2.2310 N.2   1 <1>  -0.4100 
 22 N        3.0600    11.1100     0.1880 N.2   1 <1>  -0.5650 
 23 O        2.6690    12.3130     1.9690 O.3   1 <1>  -0.0190 
 24 C        3.1060    12.2570     0.7360 C.2   1 <1>   0.2980 
 25 C        3.6130    13.5220     0.0850 C.3   1 <1>  -0.0600 
 26 H       -2.0010     2.3480     1.1140 H     1 <1>   0.3700 
 27 H        1.3420     2.7420    -0.9750 H     1 <1>   0.0800 
 28 H        2.0660     2.2960     0.5530 H     1 <1>   0.0800 
 29 H       -1.1710     4.6200     1.8730 H     1 <1>   0.0800 
 30 H       -0.0270     4.8330    -0.9090 H     1 <1>   0.0800 
 31 H       -2.8110     6.2940     1.6110 H     1 <1>   0.1500 
 32 H       -2.3530     3.4060    -1.5050 H     1 <1>   0.1500 
 33 H       -4.4350     4.3160    -2.4840 H     1 <1>   0.1500 
 34 H       -5.5960     6.1470    -1.3670 H     1 <1>   0.1500 
 35 H        1.3990     9.2020    -0.8950 H     1 <1>   0.0800 
 36 H        0.2500     9.0310     0.4000 H     1 <1>   0.0800 
 37 H        2.8350     7.2690    -1.4600 H     1 <1>   0.0800 
 38 H        1.3690     6.9510    -2.3610 H     1 <1>   0.0800 
 39 H        2.1030     5.6940    -1.3820 H     1 <1>   0.0800 
 40 H        3.2030     8.4470     0.7290 H     1 <1>   0.0800 
 41 H        1.9970     8.5130     1.9920 H     1 <1>   0.0800 
 42 H        3.9350    13.3150    -0.9190 H     1 <1>   0.0800 
 43 H        4.4420    13.9110     0.6470 H     1 <1>   0.0800 
 44 H        2.8280    14.2550     0.0590 H     1 <1>   0.0800 
@<TRIPOS>BOND
  1   1   2  2   
  2   2   3  am  
  3   2   4  1   
  4   3   5  1   
  5   3  26  1   
  6   4   6  1   
  7   4  27  1   
  8   4  28  1   
  9   5   7  1   
 10   5   8  1   
 11   5  29  1   
 12   6   8  1   
 13   7   9  ar  
 14   7  10  ar  
 15   8  11  1   
 16   8  30  1   
 17   9  12  ar  
 18   9  31  1   
 19  10  13  ar  
 20  10  32  1   
 21  11  14  2   
 22  11  15  am  
 23  12  16  ar  
 24  13  16  ar  
 25  13  33  1   
 26  15  17  1   
 27  15  18  1   
 28  16  34  1   
 29  17  19  1   
 30  17  35  1   
 31  17  36  1   
 32  18  37  1   
 33  18  38  1   
 34  18  39  1   
 35  19  20  1   
 36  19  40  1   
 37  19  41  1   
 38  20  21  2   
 39  20  22  1   
 40  21  23  1   
 41  22  24  2   
 42  23  24  1   
 43  24  25  1   
 44  25  42  1   
 45  25  43  1   
 46  25  44  1   
@<TRIPOS>SUBSTRUCTURE
  1 ****  11 GROUP 4 **** **** 0

# MOE 2024.06 (io_trps.svl 2023.06)
