@<TRIPOS>MOLECULE
NONAME
49 51 1 0 0 
SMALL
USER_CHARGES


@<TRIPOS>ATOM
  1 S        0.3320     1.7080    -0.5720 S.o2  1 <1>   1.3330 
  2 O        1.6880     2.0650    -0.9200 O.2   1 <1>  -0.6500 
  3 O       -0.7500     2.5820    -0.9660 O.2   1 <1>  -0.6500 
  4 N        0.0250     0.1720    -1.2250 N.am  1 <1>  -0.8490 
  5 C        0.1830     1.4080     1.1960 C.3   1 <1>  -0.0550 
  6 C        1.2140    -0.6870    -1.2820 C.3   1 <1>   0.1160 
  7 C       -0.6010     0.2390    -2.5500 C.3   1 <1>   0.1160 
  8 C        0.4540     2.5900     2.1580 C.3   1 <1>  -0.0800 
  9 C       -0.3800     3.8450     1.8620 C.3   1 <1>   0.2000 
 10 C        1.9080     3.0730     2.1170 C.3   1 <1>   0.1400 
 11 O       -0.5930     4.4930     3.0680 O.3   1 <1>  -0.6800 
 12 C        0.5110     4.7400     0.9940 C.3   1 <1>   0.1400 
 13 N        1.8950     4.3000     1.2950 N.am  1 <1>  -0.6600 
 14 C        3.0400     4.8410     0.7550 C.2   1 <1>   0.7150 
 15 O        4.1050     4.5580     1.2790 O.2   1 <1>  -0.5700 
 16 C        2.9810     5.7080    -0.3960 C.2   1 <1>   0.0550 
 17 O        3.5600     6.9100    -0.3840 O.3   1 <1>  -0.2800 
 18 C        2.3900     5.5250    -1.6130 C.2   1 <1>  -0.1500 
 19 C        3.3550     7.4810    -1.5520 C.2   1 <1>   0.2030 
 20 C        2.6320     6.6760    -2.3620 C.2   1 <1>  -0.1500 
 21 O        3.8290     8.7210    -1.8230 O.3   1 <1>  -0.1460 
 22 C        4.7480     9.3530    -1.0490 C.ar  1 <1>   0.0820 
 23 C        4.5870    10.7130    -0.8310 C.ar  1 <1>  -0.1500 
 24 C        5.8430     8.6940    -0.5000 C.ar  1 <1>  -0.1500 
 25 C        5.5020    11.4090    -0.0600 C.ar  1 <1>  -0.1500 
 26 C        6.7560     9.3900     0.2720 C.ar  1 <1>  -0.1500 
 27 C        6.5850    10.7470     0.4930 C.ar  1 <1>  -0.1500 
 28 H       -0.8130     1.0570     1.3830 H     1 <1>   0.0800 
 29 H        0.8460     0.6080     1.4620 H     1 <1>   0.0800 
 30 H        0.9410    -1.6750    -1.6130 H     1 <1>   0.0800 
 31 H        1.6620    -0.7690    -0.3070 H     1 <1>   0.0800 
 32 H        1.9430    -0.2790    -1.9630 H     1 <1>   0.0800 
 33 H       -0.7920    -0.7520    -2.9240 H     1 <1>   0.0800 
 34 H        0.0390     0.7630    -3.2410 H     1 <1>   0.0800 
 35 H       -1.5430     0.7600    -2.4870 H     1 <1>   0.0800 
 36 H        0.2330     2.2290     3.1480 H     1 <1>   0.0800 
 37 H       -1.3400     3.6420     1.4160 H     1 <1>   0.0800 
 38 H        2.5750     2.3410     1.6920 H     1 <1>   0.0800 
 39 H        2.2510     3.3250     3.1060 H     1 <1>   0.0800 
 40 H        0.2570     4.8460     3.4000 H     1 <1>   0.4000 
 41 H        0.3730     5.7830     1.2240 H     1 <1>   0.0800 
 42 H        0.3030     4.5850    -0.0480 H     1 <1>   0.0800 
 43 H        1.8480     4.6570    -1.9490 H     1 <1>   0.1500 
 44 H        2.3070     6.8670    -3.3680 H     1 <1>   0.1500 
 45 H        3.7450    11.2210    -1.2640 H     1 <1>   0.1500 
 46 H        5.9850     7.6420    -0.6740 H     1 <1>   0.1500 
 47 H        5.3710    12.4630     0.1100 H     1 <1>   0.1500 
 48 H        7.5990     8.8760     0.7000 H     1 <1>   0.1500 
 49 H        7.2960    11.2860     1.0950 H     1 <1>   0.1500 
@<TRIPOS>BOND
  1   1   2  2   
  2   1   3  2   
  3   1   4  am  
  4   1   5  1   
  5   4   6  1   
  6   4   7  1   
  7   5   8  1   
  8   5  28  1   
  9   5  29  1   
 10   6  30  1   
 11   6  31  1   
 12   6  32  1   
 13   7  33  1   
 14   7  34  1   
 15   7  35  1   
 16   8   9  1   
 17   8  10  1   
 18   8  36  1   
 19   9  11  1   
 20   9  12  1   
 21   9  37  1   
 22  10  13  1   
 23  10  38  1   
 24  10  39  1   
 25  11  40  1   
 26  12  13  1   
 27  12  41  1   
 28  12  42  1   
 29  13  14  am  
 30  14  15  2   
 31  14  16  1   
 32  16  17  1   
 33  16  18  2   
 34  17  19  1   
 35  18  20  1   
 36  18  43  1   
 37  19  20  2   
 38  19  21  1   
 39  20  44  1   
 40  21  22  1   
 41  22  23  ar  
 42  22  24  ar  
 43  23  25  ar  
 44  23  45  1   
 45  24  26  ar  
 46  24  46  1   
 47  25  27  ar  
 48  25  47  1   
 49  26  27  ar  
 50  26  48  1   
 51  27  49  1   
@<TRIPOS>SUBSTRUCTURE
  1 ****  16 GROUP 4 **** **** 0

# MOE 2024.06 (io_trps.svl 2023.06)
