@<TRIPOS>MOLECULE
NONAME
52 54 1 0 0 
SMALL
USER_CHARGES


@<TRIPOS>ATOM
  1 O       -1.8970    -0.5630     0.6990 O.3   1 <1>  -0.3630 
  2 C       -2.2490     0.5810     0.0570 C.ar  1 <1>   0.0830 
  3 C       -0.8410    -0.6050     1.6430 C.3   1 <1>   0.2000 
  4 C       -2.9520     0.4450    -1.1340 C.ar  1 <1>  -0.1440 
  5 C       -1.9450     1.8510     0.5370 C.ar  1 <1>  -0.1500 
  6 C        0.4970    -0.4860     0.9150 C.3   1 <1>  -0.1600 
  7 C       -0.7970    -2.0140     2.2180 C.3   1 <1>  -0.1600 
  8 C       -3.3440     1.5730    -1.8390 C.ar  1 <1>  -0.1500 
  9 C       -3.2800    -0.9390    -1.6560 C.3   1 <1>   0.4860 
 10 C       -2.3410     2.9710    -0.1700 C.ar  1 <1>  -0.1500 
 11 C        0.7940    -1.8840     0.3610 C.3   1 <1>  -0.1600 
 12 C       -0.0850    -2.8580     1.1570 C.3   1 <1>  -0.1600 
 13 C       -3.0390     2.8340    -1.3560 C.ar  1 <1>  -0.1500 
 14 N       -4.2400    -1.6060    -0.7440 N.4   1 <1>  -0.9590 
 15 C       -4.4990    -3.0160    -1.1310 C.3   1 <1>   0.5240 
 16 C       -5.4850    -0.8170    -0.4870 C.3   1 <1>   0.3430 
 17 C       -3.8710    -3.9130    -0.0740 C.2   1 <1>   0.0460 
 18 C       -6.2370    -1.2970     0.7630 C.3   1 <1>   0.1200 
 19 N       -4.0610    -3.6390     1.2340 N.2   1 <1>  -0.5650 
 20 C       -3.0970    -5.0130    -0.2300 C.2   1 <1>  -0.3320 
 21 O       -7.4310    -0.6000     0.8370 O.3   1 <1>  -0.6800 
 22 C       -3.4170    -4.5810     1.8450 C.2   1 <1>   0.0360 
 23 N       -2.8070    -5.4480     1.0120 N.pl3 1 <1>   0.0330 
 24 C       -2.5900    -5.7230    -1.4750 C.3   1 <1>  -0.0600 
 25 H       -1.0000     0.1350     2.4080 H     1 <1>   0.0800 
 26 H       -1.4070     1.9910     1.4560 H     1 <1>   0.1500 
 27 H        1.2540    -0.2320     1.6360 H     1 <1>   0.0800 
 28 H        0.4920     0.2690     0.1490 H     1 <1>   0.0800 
 29 H       -1.7780    -2.3800     2.4610 H     1 <1>   0.0800 
 30 H       -0.2010    -2.0010     3.1140 H     1 <1>   0.0800 
 31 H       -3.8850     1.4900    -2.7660 H     1 <1>   0.1500 
 32 H       -2.3680    -1.5130    -1.7070 H     1 <1>   0.0800 
 33 H       -3.6970    -0.8640    -2.6460 H     1 <1>   0.0800 
 34 H       -2.1050     3.9540     0.2020 H     1 <1>   0.1500 
 35 H        1.8390    -2.1210     0.4700 H     1 <1>   0.0800 
 36 H        0.5340    -1.9300    -0.6820 H     1 <1>   0.0800 
 37 H       -0.8130    -3.2980     0.4990 H     1 <1>   0.0800 
 38 H        0.4980    -3.6430     1.6090 H     1 <1>   0.0800 
 39 H       -3.3430     3.7110    -1.9030 H     1 <1>   0.1500 
 40 H       -3.7390    -1.6870     0.1640 H     1 <1>   0.4500 
 41 H       -4.0780    -3.2370    -2.0960 H     1 <1>   0.0800 
 42 H       -5.5590    -3.2060    -1.1610 H     1 <1>   0.0800 
 43 H       -6.1400    -0.8830    -1.3390 H     1 <1>   0.0800 
 44 H       -5.2320     0.2200    -0.3340 H     1 <1>   0.0800 
 45 H       -5.6660    -1.0910     1.6530 H     1 <1>   0.0800 
 46 H       -6.4710    -2.3460     0.7090 H     1 <1>   0.0800 
 47 H       -7.9220    -0.8270     1.6550 H     1 <1>   0.4000 
 48 H       -3.3580    -4.6830     2.9160 H     1 <1>   0.1500 
 49 H       -2.2480    -6.2650     1.2790 H     1 <1>   0.2700 
 50 H       -2.9370    -5.2370    -2.3680 H     1 <1>   0.0800 
 51 H       -2.9380    -6.7420    -1.4870 H     1 <1>   0.0800 
 52 H       -1.5130    -5.7290    -1.4860 H     1 <1>   0.0800 
@<TRIPOS>BOND
  1   1   2  1   
  2   1   3  1   
  3   2   4  ar  
  4   2   5  ar  
  5   3   6  1   
  6   3   7  1   
  7   3  25  1   
  8   4   8  ar  
  9   4   9  1   
 10   5  10  ar  
 11   5  26  1   
 12   6  11  1   
 13   6  27  1   
 14   6  28  1   
 15   7  12  1   
 16   7  29  1   
 17   7  30  1   
 18   8  13  ar  
 19   8  31  1   
 20   9  14  1   
 21   9  32  1   
 22   9  33  1   
 23  10  13  ar  
 24  10  34  1   
 25  11  12  1   
 26  11  35  1   
 27  11  36  1   
 28  12  37  1   
 29  12  38  1   
 30  13  39  1   
 31  14  15  1   
 32  14  16  1   
 33  14  40  1   
 34  15  17  1   
 35  15  41  1   
 36  15  42  1   
 37  16  18  1   
 38  16  43  1   
 39  16  44  1   
 40  17  19  1   
 41  17  20  2   
 42  18  21  1   
 43  18  45  1   
 44  18  46  1   
 45  19  22  2   
 46  20  23  1   
 47  20  24  1   
 48  21  47  1   
 49  22  23  1   
 50  22  48  1   
 51  23  49  1   
 52  24  50  1   
 53  24  51  1   
 54  24  52  1   
@<TRIPOS>SUBSTRUCTURE
  1 ****   1 GROUP 4 **** **** 0

# MOE 2024.06 (io_trps.svl 2023.06)
