@<TRIPOS>MOLECULE
NONAME
43 45 1 0 0 
SMALL
USER_CHARGES


@<TRIPOS>ATOM
  1 O        2.3960    -1.0610    -2.3340 O.2   1 <1>  -0.5700 
  2 C        1.8200    -0.6740    -1.3460 C.2   1 <1>   0.5690 
  3 N        2.4630     0.1420    -0.4640 N.am  1 <1>  -0.6600 
  4 C        0.3850    -1.0930    -1.1110 C.3   1 <1>  -0.0990 
  5 C        2.9530    -0.4730     0.8220 C.3   1 <1>   0.2200 
  6 C        3.2140     1.3140    -1.0190 C.3   1 <1>   0.1400 
  7 C        0.2140    -2.6180    -1.1050 C.3   1 <1>   0.0960 
  8 C        3.2810     0.5720     1.9010 C.3   1 <1>   0.1200 
  9 C        4.1830    -1.3880     0.5700 C.3   1 <1>   0.3430 
 10 C        4.6940     1.4100    -0.6000 C.3   1 <1>  -0.0800 
 11 N        0.6850    -3.2140     0.1610 N.pl3 1 <1>   0.3140 
 12 O        4.6060     1.0020     1.7880 O.3   1 <1>  -0.5600 
 13 N        4.8260    -1.1470    -0.7670 N.4   1 <1>  -0.9590 
 14 C        4.8540     1.9690     0.8240 C.3   1 <1>   0.1200 
 15 C        5.5570     0.1540    -0.8560 C.3   1 <1>   0.3430 
 16 N        1.9640    -3.5870     0.3700 N.2   1 <1>  -0.7070 
 17 C       -0.0810    -3.4860     1.2350 C.2   1 <1>  -0.3020 
 18 C        5.6550    -2.3090    -1.1810 C.3   1 <1>   0.2630 
 19 C        1.9660    -4.1170     1.5580 C.2   1 <1>   0.1390 
 20 C        0.7130    -4.0720     2.1550 C.2   1 <1>  -0.1500 
 21 H        0.0080    -0.6680    -0.1980 H     1 <1>   0.0800 
 22 H       -0.1950    -0.6910    -1.9210 H     1 <1>   0.0800 
 23 H        2.1620    -1.0800     1.2240 H     1 <1>   0.0800 
 24 H        3.1680     1.2840    -2.0960 H     1 <1>   0.0800 
 25 H        2.7030     2.2130    -0.7180 H     1 <1>   0.0800 
 26 H        0.7590    -3.0630    -1.9190 H     1 <1>   0.0800 
 27 H       -0.8240    -2.8670    -1.2220 H     1 <1>   0.0800 
 28 H        3.1940     0.1130     2.8700 H     1 <1>   0.0800 
 29 H        2.6090     1.4130     1.8660 H     1 <1>   0.0800 
 30 H        3.8610    -2.4110     0.6200 H     1 <1>   0.0800 
 31 H        4.9050    -1.2500     1.3580 H     1 <1>   0.0800 
 32 H        5.1140     2.1760    -1.2260 H     1 <1>   0.0800 
 33 H        4.0180    -1.0840    -1.4280 H     1 <1>   0.4500 
 34 H        4.2020     2.8090     0.9970 H     1 <1>   0.0800 
 35 H        5.8680     2.3010     0.9730 H     1 <1>   0.0800 
 36 H        6.3810     0.1500    -0.1610 H     1 <1>   0.0800 
 37 H        5.9700     0.2350    -1.8480 H     1 <1>   0.0800 
 38 H       -1.1320    -3.2650     1.2850 H     1 <1>   0.1500 
 39 H        6.4900    -2.4320    -0.5110 H     1 <1>   0.0800 
 40 H        6.0280    -2.1640    -2.1820 H     1 <1>   0.0800 
 41 H        5.0610    -3.2090    -1.1660 H     1 <1>   0.0800 
 42 H        2.8380    -4.5440     2.0240 H     1 <1>   0.1500 
 43 H        0.4600    -4.4400     3.1340 H     1 <1>   0.1500 
@<TRIPOS>BOND
  1   1   2  2   
  2   2   3  am  
  3   2   4  1   
  4   3   5  1   
  5   3   6  1   
  6   4   7  1   
  7   4  21  1   
  8   4  22  1   
  9   5   8  1   
 10   5   9  1   
 11   5  23  1   
 12   6  10  1   
 13   6  24  1   
 14   6  25  1   
 15   7  11  1   
 16   7  26  1   
 17   7  27  1   
 18   8  12  1   
 19   8  28  1   
 20   8  29  1   
 21   9  13  1   
 22   9  30  1   
 23   9  31  1   
 24  10  14  1   
 25  10  15  1   
 26  10  32  1   
 27  11  16  1   
 28  11  17  1   
 29  12  14  1   
 30  13  15  1   
 31  13  18  1   
 32  13  33  1   
 33  14  34  1   
 34  14  35  1   
 35  15  36  1   
 36  15  37  1   
 37  16  19  2   
 38  17  20  2   
 39  17  38  1   
 40  18  39  1   
 41  18  40  1   
 42  18  41  1   
 43  19  20  1   
 44  19  42  1   
 45  20  43  1   
@<TRIPOS>SUBSTRUCTURE
  1 ****   5 GROUP 4 **** **** 0

# MOE 2024.06 (io_trps.svl 2023.06)
