@<TRIPOS>MOLECULE
Untitled Document
30 32 1 0 0 
SMALL
USER_CHARGES


@<TRIPOS>ATOM
  1 O        1.0490    -3.3690     1.1400 O.2   1 <1>  -0.5700 
  2 C        0.1880    -2.6030     0.7440 C.2   1 <1>   0.5440 
  3 N        0.5010    -1.4950     0.0180 N.am  1 <1>  -0.5060 
  4 C       -1.2140    -2.8640     1.0440 C.ar  1 <1>   0.3960 
  5 C        1.6830    -0.9520    -0.4430 C.2   1 <1>   0.8140 
  6 N       -2.1510    -2.0170     0.5870 N.ar  1 <1>  -0.6200 
  7 C       -1.5550    -3.9900     1.8000 C.ar  1 <1>   0.1600 
  8 N        1.6310     0.1360    -1.1220 N.2   1 <1>  -0.6190 
  9 N        2.8790    -1.3980    -0.2850 N.2   1 <1>  -0.6190 
 10 C       -3.3900    -2.3480     0.9130 C.ar  1 <1>   0.4100 
 11 N       -2.7860    -4.3400     2.1480 N.ar  1 <1>  -0.6200 
 12 N        2.8590     0.4050    -1.4160 N.2   1 <1>  -0.2500 
 13 N        3.6170    -0.5250    -0.9080 N.2   1 <1>  -0.2500 
 14 N       -4.4000    -1.5050     0.4580 N.pl3 1 <1>  -0.8380 
 15 C       -3.6770    -3.4850     1.6880 C.ar  1 <1>   0.1600 
 16 C       -5.7410    -2.0130     0.0790 C.3   1 <1>   0.2090 
 17 C       -4.0970    -0.2520    -0.2820 C.3   1 <1>   0.2090 
 18 C       -6.1970    -1.1200    -1.0690 C.3   1 <1>  -0.1600 
 19 C       -5.4310     0.1830    -0.8720 C.3   1 <1>  -0.1600 
 20 H       -0.2680    -0.9060    -0.2740 H     1 <1>   0.3700 
 21 H       -0.7600    -4.6340     2.1360 H     1 <1>   0.1500 
 22 H       -4.7040    -3.6740     1.9330 H     1 <1>   0.1500 
 23 H       -6.4060    -1.9080     0.9190 H     1 <1>   0.0800 
 24 H       -5.6990    -3.0450    -0.2280 H     1 <1>   0.0800 
 25 H       -3.3940    -0.4590    -1.0720 H     1 <1>   0.0800 
 26 H       -3.6880     0.4940     0.3790 H     1 <1>   0.0800 
 27 H       -7.2630    -0.9750    -1.0640 H     1 <1>   0.0800 
 28 H       -5.9080    -1.5750    -2.0000 H     1 <1>   0.0800 
 29 H       -5.3010     0.7290    -1.7890 H     1 <1>   0.0800 
 30 H       -5.9400     0.8060    -0.1580 H     1 <1>   0.0800 
@<TRIPOS>BOND
  1   1   2  2   
  2   2   3  am  
  3   2   4  1   
  4   3   5  1   
  5   3  20  1   
  6   4   6  ar  
  7   4   7  ar  
  8   5   8  1   
  9   5   9  2   
 10   6  10  ar  
 11   7  11  ar  
 12   7  21  1   
 13   8  12  1   
 14   9  13  1   
 15  10  14  1   
 16  10  15  ar  
 17  11  15  ar  
 18  12  13  2   
 19  14  16  1   
 20  14  17  1   
 21  15  22  1   
 22  16  18  1   
 23  16  23  1   
 24  16  24  1   
 25  17  19  1   
 26  17  25  1   
 27  17  26  1   
 28  18  19  1   
 29  18  27  1   
 30  18  28  1   
 31  19  29  1   
 32  19  30  1   
@<TRIPOS>SUBSTRUCTURE
  1 ****   6 GROUP 4 **** **** 0

# MOE 2024.06 (io_trps.svl 2023.06)
