@<TRIPOS>MOLECULE
NONAME
51 54 1 0 0 
SMALL
USER_CHARGES


@<TRIPOS>ATOM
  1 S       -0.3330    -2.2810    -0.2840 S.o2  1 <1>   1.5000 
  2 O       -1.3150    -3.1890     0.2670 O.2   1 <1>  -0.6500 
  3 O        0.1000    -2.4720    -1.6530 O.2   1 <1>  -0.6500 
  4 N       -1.0240    -0.7290    -0.2190 N.am  1 <1>  -0.8490 
  5 C        1.0890    -2.1820     0.8530 C.2   1 <1>   0.0780 
  6 C       -2.3530    -0.7280    -0.8620 C.3   1 <1>   0.1960 
  7 C       -0.1520     0.2790    -0.8370 C.3   1 <1>   0.1960 
  8 O        2.2800    -1.7790     0.4230 O.3   1 <1>  -0.2800 
  9 C        1.1660    -2.4310     2.1810 C.2   1 <1>  -0.1500 
 10 C       -3.0720     0.6400    -0.7260 C.3   1 <1>   0.0000 
 11 C       -0.7530     1.6790    -0.6790 C.3   1 <1>  -0.1600 
 12 C        3.1400    -1.7710     1.4350 C.2   1 <1>   0.1410 
 13 C        2.4860    -2.1690     2.5550 C.2   1 <1>  -0.1500 
 14 C       -3.5580     0.9130     0.7150 C.3   1 <1>   0.2000 
 15 C       -2.1640     1.7580    -1.2790 C.3   1 <1>  -0.1600 
 16 C       -4.4030     0.5920    -1.4910 C.3   1 <1>  -0.1600 
 17 C        4.5250    -1.3820     1.2610 C.2   1 <1>   0.2880 
 18 O       -2.6500     0.4900     1.6620 O.3   1 <1>  -0.6800 
 19 C       -4.8730     0.1510     0.8740 C.3   1 <1>  -0.1600 
 20 C       -5.3990    -0.0900    -0.5480 C.3   1 <1>  -0.1600 
 21 N        5.3500    -1.2670     2.2750 N.2   1 <1>  -0.7070 
 22 C        5.1840    -1.0820     0.0540 C.2   1 <1>  -0.1810 
 23 N        6.5210    -0.8960     1.7380 N.pl3 1 <1>   0.3000 
 24 C        6.4530    -0.7750     0.3980 C.2   1 <1>  -0.3320 
 25 C        4.5710    -1.1130    -1.3380 C.3   1 <1>  -0.0590 
 26 C        7.6520    -0.3660    -0.4420 C.3   1 <1>  -0.0600 
 27 H       -2.2400    -0.9740    -1.9050 H     1 <1>   0.0800 
 28 H       -2.9690    -1.4910    -0.4140 H     1 <1>   0.0800 
 29 H        0.8170     0.2650    -0.3660 H     1 <1>   0.0800 
 30 H       -0.0190     0.0600    -1.8850 H     1 <1>   0.0800 
 31 H        0.3810    -2.7630     2.8380 H     1 <1>   0.1500 
 32 H       -0.7770     1.9360     0.3660 H     1 <1>   0.0800 
 33 H       -0.1150     2.3930    -1.1700 H     1 <1>   0.0800 
 34 H        2.9010    -2.2640     3.5430 H     1 <1>   0.1500 
 35 H       -3.7310     1.9660     0.8630 H     1 <1>   0.0800 
 36 H       -2.0880     1.6520    -2.3480 H     1 <1>   0.0800 
 37 H       -2.5920     2.7250    -1.0760 H     1 <1>   0.0800 
 38 H       -4.7460     1.5960    -1.6800 H     1 <1>   0.0800 
 39 H       -4.3250     0.0770    -2.4330 H     1 <1>   0.0800 
 40 H       -1.9350    -0.0010     1.1810 H     1 <1>   0.4000 
 41 H       -4.7110    -0.7930     1.3670 H     1 <1>   0.0800 
 42 H       -5.5690     0.7360     1.4480 H     1 <1>   0.0800 
 43 H       -5.4270    -1.1490    -0.7450 H     1 <1>   0.0800 
 44 H       -6.3900     0.3100    -0.6750 H     1 <1>   0.0800 
 45 H        7.3560    -0.7320     2.3130 H     1 <1>   0.2700 
 46 H        3.7800    -0.3890    -1.4040 H     1 <1>   0.0800 
 47 H        4.1650    -2.0890    -1.5350 H     1 <1>   0.0800 
 48 H        5.3020    -0.8920    -2.0910 H     1 <1>   0.0800 
 49 H        7.3940    -0.3090    -1.4830 H     1 <1>   0.0800 
 50 H        8.4450    -1.0840    -0.3290 H     1 <1>   0.0800 
 51 H        8.0090     0.6000    -0.1310 H     1 <1>   0.0800 
@<TRIPOS>BOND
  1   1   2  2   
  2   1   3  2   
  3   1   4  am  
  4   1   5  1   
  5   4   6  1   
  6   4   7  1   
  7   5   8  1   
  8   5   9  2   
  9   6  10  1   
 10   6  27  1   
 11   6  28  1   
 12   7  11  1   
 13   7  29  1   
 14   7  30  1   
 15   8  12  1   
 16   9  13  1   
 17   9  31  1   
 18  10  14  1   
 19  10  15  1   
 20  10  16  1   
 21  11  15  1   
 22  11  32  1   
 23  11  33  1   
 24  12  13  2   
 25  12  17  1   
 26  13  34  1   
 27  14  18  1   
 28  14  19  1   
 29  14  35  1   
 30  15  36  1   
 31  15  37  1   
 32  16  20  1   
 33  16  38  1   
 34  16  39  1   
 35  17  21  2   
 36  17  22  1   
 37  18  40  1   
 38  19  20  1   
 39  19  41  1   
 40  19  42  1   
 41  20  43  1   
 42  20  44  1   
 43  21  23  1   
 44  22  24  2   
 45  22  25  1   
 46  23  24  1   
 47  23  45  1   
 48  24  26  1   
 49  25  46  1   
 50  25  47  1   
 51  25  48  1   
 52  26  49  1   
 53  26  50  1   
 54  26  51  1   
@<TRIPOS>SUBSTRUCTURE
  1 ****   5 GROUP 4 **** **** 0

# MOE 2024.06 (io_trps.svl 2023.06)
