@<TRIPOS>MOLECULE
NONAME
49 50 1 0 0 
SMALL
USER_CHARGES


@<TRIPOS>ATOM
  1 O       -0.2430     0.3470    -0.2000 O.2   1 <1>  -0.5700 
  2 C       -1.3010     0.9110    -0.3610 C.2   1 <1>   0.5690 
  3 N       -2.5000     0.2450    -0.2660 N.am  1 <1>  -0.6600 
  4 C       -1.2740     2.4010    -0.6780 C.3   1 <1>  -0.0990 
  5 C       -3.8260     0.8750    -0.5210 C.3   1 <1>   0.1400 
  6 C       -2.5400    -1.1980     0.0990 C.3   1 <1>   0.1400 
  7 C        0.1130     3.0540    -0.5060 C.3   1 <1>  -0.0990 
  8 C       -4.4470     1.3180     0.8080 C.3   1 <1>  -0.1600 
  9 C       -3.2420    -1.4250     1.4440 C.3   1 <1>  -0.1600 
 10 C        0.1410     4.5460    -0.8100 C.2   1 <1>   0.5690 
 11 C       -5.2340     0.2300     1.5610 C.3   1 <1>  -0.1600 
 12 C       -4.7640    -1.2230     1.3790 C.3   1 <1>  -0.1600 
 13 O       -0.8970     5.0850    -1.1190 O.2   1 <1>  -0.5700 
 14 N        1.3180     5.2460    -0.7480 N.am  1 <1>  -0.6600 
 15 C        1.3150     6.7280    -1.0250 C.3   1 <1>   0.3210 
 16 C        2.6480     4.6300    -0.4660 C.3   1 <1>   0.1400 
 17 C        2.0680     7.5600     0.0130 C.2   1 <1>   0.3350 
 18 C        3.4250     4.4670    -1.7690 C.3   1 <1>  -0.2400 
 19 N        1.5640     8.0240     1.0880 N.2   1 <1>  -0.4100 
 20 N        3.3490     7.8800    -0.1460 N.2   1 <1>  -0.5650 
 21 O        2.5010     8.6790     1.7020 O.3   1 <1>  -0.0190 
 22 C        3.5400     8.5560     0.9140 C.2   1 <1>   0.2980 
 23 C        4.8410     9.2090     1.3180 C.3   1 <1>  -0.0600 
 24 H       -1.9680     2.9040    -0.0310 H     1 <1>   0.0800 
 25 H       -1.5970     2.5360    -1.6940 H     1 <1>   0.0800 
 26 H       -4.4740     0.1840    -1.0320 H     1 <1>   0.0800 
 27 H       -3.7100     1.7310    -1.1610 H     1 <1>   0.0800 
 28 H       -1.5390    -1.5890     0.1670 H     1 <1>   0.0800 
 29 H       -3.0420    -1.7460    -0.6790 H     1 <1>   0.0800 
 30 H        0.8090     2.5610    -1.1590 H     1 <1>   0.0800 
 31 H        0.4360     2.9080     0.5090 H     1 <1>   0.0800 
 32 H       -5.1200     2.1350     0.6130 H     1 <1>   0.0800 
 33 H       -3.6680     1.7020     1.4440 H     1 <1>   0.0800 
 34 H       -2.8000    -0.8020     2.2020 H     1 <1>   0.0800 
 35 H       -3.0580    -2.4460     1.7260 H     1 <1>   0.0800 
 36 H       -6.2650     0.2790     1.2570 H     1 <1>   0.0800 
 37 H       -5.2090     0.4720     2.6100 H     1 <1>   0.0800 
 38 H       -5.2190    -1.8120     2.1580 H     1 <1>   0.0800 
 39 H       -5.1350    -1.6090     0.4450 H     1 <1>   0.0800 
 40 H        0.3070     7.0990    -1.0620 H     1 <1>   0.0800 
 41 H        1.7550     6.9010    -1.9900 H     1 <1>   0.0800 
 42 H        2.5330     3.6680     0.0010 H     1 <1>   0.0800 
 43 H        3.2050     5.2430     0.2210 H     1 <1>   0.0800 
 44 H        2.8650     3.8720    -2.4680 H     1 <1>   0.0800 
 45 H        4.3580     3.9710    -1.5710 H     1 <1>   0.0800 
 46 H        3.6420     5.4260    -2.2030 H     1 <1>   0.0800 
 47 H        5.5930     9.0200     0.5740 H     1 <1>   0.0800 
 48 H        5.1690     8.8110     2.2600 H     1 <1>   0.0800 
 49 H        4.6990    10.2700     1.4120 H     1 <1>   0.0800 
@<TRIPOS>BOND
  1   1   2  2   
  2   2   3  am  
  3   2   4  1   
  4   3   5  1   
  5   3   6  1   
  6   4   7  1   
  7   4  24  1   
  8   4  25  1   
  9   5   8  1   
 10   5  26  1   
 11   5  27  1   
 12   6   9  1   
 13   6  28  1   
 14   6  29  1   
 15   7  10  1   
 16   7  30  1   
 17   7  31  1   
 18   8  11  1   
 19   8  32  1   
 20   8  33  1   
 21   9  12  1   
 22   9  34  1   
 23   9  35  1   
 24  10  13  2   
 25  10  14  am  
 26  11  12  1   
 27  11  36  1   
 28  11  37  1   
 29  12  38  1   
 30  12  39  1   
 31  14  15  1   
 32  14  16  1   
 33  15  17  1   
 34  15  40  1   
 35  15  41  1   
 36  16  18  1   
 37  16  42  1   
 38  16  43  1   
 39  17  19  2   
 40  17  20  1   
 41  18  44  1   
 42  18  45  1   
 43  18  46  1   
 44  19  21  1   
 45  20  22  2   
 46  21  22  1   
 47  22  23  1   
 48  23  47  1   
 49  23  48  1   
 50  23  49  1   
@<TRIPOS>SUBSTRUCTURE
  1 ****   7 GROUP 4 **** **** 0

# MOE 2024.06 (io_trps.svl 2023.06)
