@<TRIPOS>MOLECULE
NONAME
47 49 1 0 0 
SMALL
USER_CHARGES


@<TRIPOS>ATOM
  1 CL      -1.3170     0.9500     1.6280 Cl    1 <1>  -0.1770 
  2 C       -1.0620     2.3760     0.6380 C.ar  1 <1>   0.1770 
  3 C       -0.0980     3.3080     1.0030 C.ar  1 <1>   0.0820 
  4 C       -1.8430     2.5580    -0.4920 C.ar  1 <1>  -0.1440 
  5 O        0.6490     3.1300     2.1080 O.3   1 <1>  -0.5320 
  6 C        0.0940     4.4360     0.2210 C.ar  1 <1>  -0.1500 
  7 C       -1.6440     3.6930    -1.2690 C.ar  1 <1>  -0.1500 
  8 C       -2.8950     1.5350    -0.8690 C.3   1 <1>   0.4860 
  9 C       -0.6810     4.6240    -0.9120 C.ar  1 <1>  -0.1500 
 10 N       -4.2280     2.0240    -0.4300 N.4   1 <1>  -0.9590 
 11 C       -4.3430     2.1850     1.0500 C.3   1 <1>   0.3430 
 12 C       -5.3590     1.2500    -0.9930 C.3   1 <1>   0.3430 
 13 C       -5.7500     2.6560     1.4470 C.3   1 <1>  -0.1600 
 14 C       -6.6720     2.0140    -0.7750 C.3   1 <1>  -0.1600 
 15 C       -6.5840     3.1610     0.2550 C.3   1 <1>   0.2800 
 16 O       -5.8710     4.2000    -0.3830 O.3   1 <1>  -0.5600 
 17 C       -7.9920     3.6440     0.6850 C.3   1 <1>  -0.1600 
 18 C       -5.9900     5.4870     0.1620 C.3   1 <1>   0.1200 
 19 C       -8.4630     4.8730    -0.0950 C.3   1 <1>   0.2800 
 20 C       -7.4350     6.0000     0.0470 C.3   1 <1>  -0.1600 
 21 O       -8.5130     4.5370    -1.4220 O.3   1 <1>  -0.6800 
 22 C       -9.8710     5.3140     0.2970 C.3   1 <1>  -0.2400 
 23 H        1.3200     3.8220     2.2510 H     1 <1>   0.4500 
 24 H        0.8380     5.1660     0.4860 H     1 <1>   0.1500 
 25 H       -2.2290     3.8650    -2.1580 H     1 <1>   0.1500 
 26 H       -2.6780     0.5840    -0.4120 H     1 <1>   0.0800 
 27 H       -2.8880     1.4040    -1.9390 H     1 <1>   0.0800 
 28 H       -0.5290     5.5000    -1.5210 H     1 <1>   0.1500 
 29 H       -4.3580     2.9880    -0.7910 H     1 <1>   0.4500 
 30 H       -3.6260     2.9200     1.3810 H     1 <1>   0.0800 
 31 H       -4.1170     1.2550     1.5470 H     1 <1>   0.0800 
 32 H       -5.4150     0.2890    -0.5060 H     1 <1>   0.0800 
 33 H       -5.2150     1.0880    -2.0490 H     1 <1>   0.0800 
 34 H       -5.6690     3.4120     2.2060 H     1 <1>   0.0800 
 35 H       -6.2650     1.8280     1.9020 H     1 <1>   0.0800 
 36 H       -7.4050     1.2960    -0.4530 H     1 <1>   0.0800 
 37 H       -7.0200     2.3960    -1.7170 H     1 <1>   0.0800 
 38 H       -7.9720     3.9080     1.7270 H     1 <1>   0.0800 
 39 H       -8.7170     2.8550     0.5940 H     1 <1>   0.0800 
 40 H       -5.3210     6.1400    -0.3730 H     1 <1>   0.0800 
 41 H       -5.6810     5.4550     1.1920 H     1 <1>   0.0800 
 42 H       -7.5240     6.6870    -0.7770 H     1 <1>   0.0800 
 43 H       -7.6460     6.5640     0.9370 H     1 <1>   0.0800 
 44 H       -7.5910     4.4800    -1.7420 H     1 <1>   0.4000 
 45 H       -9.9030     5.5830     1.3370 H     1 <1>   0.0800 
 46 H      -10.5720     4.5160     0.1300 H     1 <1>   0.0800 
 47 H      -10.1680     6.1680    -0.2850 H     1 <1>   0.0800 
@<TRIPOS>BOND
  1   1   2  1   
  2   2   3  ar  
  3   2   4  ar  
  4   3   5  1   
  5   3   6  ar  
  6   4   7  ar  
  7   4   8  1   
  8   5  23  1   
  9   6   9  ar  
 10   6  24  1   
 11   7   9  ar  
 12   7  25  1   
 13   8  10  1   
 14   8  26  1   
 15   8  27  1   
 16   9  28  1   
 17  10  11  1   
 18  10  12  1   
 19  10  29  1   
 20  11  13  1   
 21  11  30  1   
 22  11  31  1   
 23  12  14  1   
 24  12  32  1   
 25  12  33  1   
 26  13  15  1   
 27  13  34  1   
 28  13  35  1   
 29  14  15  1   
 30  14  36  1   
 31  14  37  1   
 32  15  16  1   
 33  15  17  1   
 34  16  18  1   
 35  17  19  1   
 36  17  38  1   
 37  17  39  1   
 38  18  20  1   
 39  18  40  1   
 40  18  41  1   
 41  19  20  1   
 42  19  21  1   
 43  19  22  1   
 44  20  42  1   
 45  20  43  1   
 46  21  44  1   
 47  22  45  1   
 48  22  46  1   
 49  22  47  1   
@<TRIPOS>SUBSTRUCTURE
  1 ****  10 GROUP 4 **** **** 0

# MOE 2024.06 (io_trps.svl 2023.06)
