@<TRIPOS>MOLECULE
NONAME
58 61 1 0 0 
SMALL
USER_CHARGES


@<TRIPOS>ATOM
  1 O       -0.3630    -1.6560    -1.9660 O.3   1 <1>  -0.0190 
  2 N       -1.3770    -2.4640    -2.0450 N.2   1 <1>  -0.4100 
  3 C       -0.0510    -1.6600    -0.6930 C.2   1 <1>   0.2980 
  4 C       -1.6010    -2.8960    -0.8680 C.2   1 <1>   0.3350 
  5 N       -0.7740    -2.4100     0.0430 N.2   1 <1>  -0.5650 
  6 C        1.0960    -0.7890    -0.2130 C.3   1 <1>   0.0200 
  7 C       -2.7360    -3.8480    -0.4910 C.3   1 <1>   0.5240 
  8 C        0.6170     0.5800     0.3100 C.3   1 <1>  -0.0800 
  9 N       -3.9810    -3.5960    -1.3030 N.4   1 <1>  -0.9590 
 10 C       -0.1080     1.3960    -0.7710 C.3   1 <1>  -0.2400 
 11 C        1.8060     1.3850     0.8500 C.3   1 <1>  -0.2400 
 12 C       -4.5080    -2.1900    -1.1350 C.3   1 <1>   0.3430 
 13 C       -5.0300    -4.6420    -1.0710 C.3   1 <1>   0.3430 
 14 C       -5.0930    -1.8900     0.2650 C.3   1 <1>   0.1430 
 15 C       -6.1040    -4.2120    -0.0580 C.3   1 <1>  -0.1600 
 16 C       -6.1890    -0.8760     0.0170 C.ar  1 <1>   0.1670 
 17 C       -5.6220    -3.1680     0.9630 C.3   1 <1>  -0.1600 
 18 C       -4.1180    -1.1030     1.1860 C.3   1 <1>  -0.1600 
 19 N       -7.3190    -1.1400    -0.5880 N.ar  1 <1>  -0.6200 
 20 C       -5.8490     0.3660     0.4570 C.ar  1 <1>  -0.1430 
 21 C       -4.4780     0.3900     1.0770 C.3   1 <1>  -0.0170 
 22 C       -8.1440    -0.0990    -0.7280 C.ar  1 <1>   0.7200 
 23 C       -6.7560     1.3770     0.2660 C.ar  1 <1>   0.1600 
 24 N       -7.9050     1.1540    -0.3270 N.ar  1 <1>  -0.6200 
 25 N       -9.3480    -0.3400    -1.3540 N.pl3 1 <1>  -0.8380 
 26 C      -10.1930     0.7720    -1.8730 C.3   1 <1>   0.1290 
 27 C       -9.9990    -1.6790    -1.3420 C.3   1 <1>   0.1290 
 28 H        1.7980    -0.6540    -1.0180 H     1 <1>   0.0800 
 29 H        1.6040    -1.3110     0.5780 H     1 <1>   0.0800 
 30 H       -2.9490    -3.7240     0.5560 H     1 <1>   0.0800 
 31 H       -2.3950    -4.8570    -0.6460 H     1 <1>   0.0800 
 32 H       -0.0680     0.4090     1.1240 H     1 <1>   0.0800 
 33 H       -3.6700    -3.6630    -2.2850 H     1 <1>   0.4500 
 34 H        0.5310     1.5500    -1.6230 H     1 <1>   0.0800 
 35 H       -0.3910     2.3580    -0.3820 H     1 <1>   0.0800 
 36 H       -1.0020     0.8960    -1.0970 H     1 <1>   0.0800 
 37 H        2.5170     1.5880     0.0680 H     1 <1>   0.0800 
 38 H        2.3030     0.8440     1.6350 H     1 <1>   0.0800 
 39 H        1.4690     2.3240     1.2540 H     1 <1>   0.0800 
 40 H       -5.3020    -2.0450    -1.8520 H     1 <1>   0.0800 
 41 H       -3.7420    -1.4670    -1.3650 H     1 <1>   0.0800 
 42 H       -4.5600    -5.5490    -0.7240 H     1 <1>   0.0800 
 43 H       -5.5210    -4.8720    -2.0030 H     1 <1>   0.0800 
 44 H       -6.4670    -5.0840     0.4570 H     1 <1>   0.0800 
 45 H       -6.9420    -3.8110    -0.6030 H     1 <1>   0.0800 
 46 H       -6.4320    -2.9060     1.6240 H     1 <1>   0.0800 
 47 H       -4.8500    -3.6090     1.5670 H     1 <1>   0.0800 
 48 H       -3.0850    -1.2650     0.9450 H     1 <1>   0.0800 
 49 H       -4.2740    -1.3980     2.2100 H     1 <1>   0.0800 
 50 H       -3.7920     0.9070     0.4270 H     1 <1>   0.0800 
 51 H       -4.4910     0.8660     2.0430 H     1 <1>   0.0800 
 52 H       -6.5400     2.3790     0.5980 H     1 <1>   0.1500 
 53 H       -9.5760     1.5880    -2.2080 H     1 <1>   0.0800 
 54 H      -10.8440     1.1240    -1.0920 H     1 <1>   0.0800 
 55 H      -10.7850     0.4310    -2.7040 H     1 <1>   0.0800 
 56 H       -9.5350    -2.3250    -0.6170 H     1 <1>   0.0800 
 57 H       -9.9160    -2.1270    -2.3160 H     1 <1>   0.0800 
 58 H      -11.0390    -1.5780    -1.0860 H     1 <1>   0.0800 
@<TRIPOS>BOND
  1   1   2  1   
  2   1   3  1   
  3   2   4  2   
  4   3   5  2   
  5   3   6  1   
  6   4   5  1   
  7   4   7  1   
  8   6   8  1   
  9   6  28  1   
 10   6  29  1   
 11   7   9  1   
 12   7  30  1   
 13   7  31  1   
 14   8  10  1   
 15   8  11  1   
 16   8  32  1   
 17   9  12  1   
 18   9  13  1   
 19   9  33  1   
 20  10  34  1   
 21  10  35  1   
 22  10  36  1   
 23  11  37  1   
 24  11  38  1   
 25  11  39  1   
 26  12  14  1   
 27  12  40  1   
 28  12  41  1   
 29  13  15  1   
 30  13  42  1   
 31  13  43  1   
 32  14  16  1   
 33  14  17  1   
 34  14  18  1   
 35  15  17  1   
 36  15  44  1   
 37  15  45  1   
 38  16  19  ar  
 39  16  20  ar  
 40  17  46  1   
 41  17  47  1   
 42  18  21  1   
 43  18  48  1   
 44  18  49  1   
 45  19  22  ar  
 46  20  21  1   
 47  20  23  ar  
 48  21  50  1   
 49  21  51  1   
 50  22  24  ar  
 51  22  25  1   
 52  23  24  ar  
 53  23  52  1   
 54  25  26  1   
 55  25  27  1   
 56  26  53  1   
 57  26  54  1   
 58  26  55  1   
 59  27  56  1   
 60  27  57  1   
 61  27  58  1   
@<TRIPOS>SUBSTRUCTURE
  1 ****  12 GROUP 4 **** **** 0

# MOE 2024.06 (io_trps.svl 2023.06)
