@<TRIPOS>MOLECULE
NONAME
46 47 1 0 0 
SMALL
USER_CHARGES


@<TRIPOS>ATOM
  1 CL      -0.7250     0.1320     0.7510 Cl    1 <1>  -0.1770 
  2 C       -0.4570     1.8570     0.7180 C.ar  1 <1>   0.1770 
  3 C       -1.1580     2.6620    -0.1690 C.ar  1 <1>  -0.1440 
  4 C        0.4650     2.3960     1.5960 C.ar  1 <1>  -0.1500 
  5 C       -0.9100     4.0250    -0.1630 C.ar  1 <1>  -0.1500 
  6 C       -2.1810     2.0700    -1.1280 C.3   1 <1>  -0.0960 
  7 C        0.6980     3.7590     1.5870 C.ar  1 <1>  -0.1500 
  8 C        0.0240     4.6010     0.7010 C.ar  1 <1>   0.0860 
  9 C        0.2710     6.0310     0.6780 C.2   1 <1>   0.5440 
 10 O       -0.6750     6.7940     0.7240 O.2   1 <1>  -0.5700 
 11 N        1.5460     6.5560     0.5920 N.am  1 <1>  -0.6600 
 12 C        2.7150     5.7830     0.0610 C.3   1 <1>   0.1400 
 13 C        1.7950     7.9880     0.9270 C.3   1 <1>   0.1400 
 14 C        3.3110     6.4130    -1.2050 C.3   1 <1>   0.1400 
 15 C        1.8040     8.8350    -0.3510 C.3   1 <1>  -0.1600 
 16 N        3.9980     7.7000    -0.8890 N.am  1 <1>  -0.6600 
 17 C        3.1680     8.9300    -1.0530 C.3   1 <1>   0.1400 
 18 C        5.2880     7.6770    -0.4170 C.2   1 <1>   0.5690 
 19 O        5.8640     6.6300    -0.2260 O.2   1 <1>  -0.5700 
 20 C        6.0190     8.9730    -0.1090 C.3   1 <1>  -0.0990 
 21 C        7.4760     8.7500     0.2910 C.3   1 <1>   0.1200 
 22 O        8.0380     9.9950     0.5540 O.3   1 <1>  -0.5600 
 23 C        9.3740     9.9340     0.9350 C.3   1 <1>   0.0400 
 24 H        0.9890     1.7500     2.2780 H     1 <1>   0.1500 
 25 H       -1.4450     4.6750    -0.8340 H     1 <1>   0.1500 
 26 H       -1.7050     1.3600    -1.7800 H     1 <1>   0.0800 
 27 H       -2.6350     2.8370    -1.7300 H     1 <1>   0.0800 
 28 H       -2.9550     1.5690    -0.5750 H     1 <1>   0.0800 
 29 H        1.4090     4.1850     2.2740 H     1 <1>   0.1500 
 30 H        2.4130     4.7830    -0.1880 H     1 <1>   0.0800 
 31 H        3.4760     5.7140     0.8190 H     1 <1>   0.0800 
 32 H        2.7230     8.0870     1.4630 H     1 <1>   0.0800 
 33 H        1.0080     8.3390     1.5740 H     1 <1>   0.0800 
 34 H        2.5400     6.5670    -1.9390 H     1 <1>   0.0800 
 35 H        4.0280     5.7290    -1.6270 H     1 <1>   0.0800 
 36 H        1.5010     9.8350    -0.0970 H     1 <1>   0.0800 
 37 H        1.0630     8.4570    -1.0330 H     1 <1>   0.0800 
 38 H        3.6860     9.7820    -0.6520 H     1 <1>   0.0800 
 39 H        3.0170     9.1140    -2.1030 H     1 <1>   0.0800 
 40 H        5.5150     9.4650     0.7010 H     1 <1>   0.0800 
 41 H        5.9960     9.5980    -0.9810 H     1 <1>   0.0800 
 42 H        8.0210     8.2800    -0.5110 H     1 <1>   0.0800 
 43 H        7.5370     8.1440     1.1790 H     1 <1>   0.0800 
 44 H        9.7160    10.9380     1.1150 H     1 <1>   0.0800 
 45 H        9.9500     9.4900     0.1420 H     1 <1>   0.0800 
 46 H        9.4600     9.3540     1.8380 H     1 <1>   0.0800 
@<TRIPOS>BOND
  1   1   2  1   
  2   2   3  ar  
  3   2   4  ar  
  4   3   5  ar  
  5   3   6  1   
  6   4   7  ar  
  7   4  24  1   
  8   5   8  ar  
  9   5  25  1   
 10   6  26  1   
 11   6  27  1   
 12   6  28  1   
 13   7   8  ar  
 14   7  29  1   
 15   8   9  1   
 16   9  10  2   
 17   9  11  am  
 18  11  12  1   
 19  11  13  1   
 20  12  14  1   
 21  12  30  1   
 22  12  31  1   
 23  13  15  1   
 24  13  32  1   
 25  13  33  1   
 26  14  16  1   
 27  14  34  1   
 28  14  35  1   
 29  15  17  1   
 30  15  36  1   
 31  15  37  1   
 32  16  17  1   
 33  16  18  am  
 34  17  38  1   
 35  17  39  1   
 36  18  19  2   
 37  18  20  1   
 38  20  21  1   
 39  20  40  1   
 40  20  41  1   
 41  21  22  1   
 42  21  42  1   
 43  21  43  1   
 44  22  23  1   
 45  23  44  1   
 46  23  45  1   
 47  23  46  1   
@<TRIPOS>SUBSTRUCTURE
  1 ****  12 GROUP 4 **** **** 0

# MOE 2024.06 (io_trps.svl 2023.06)
