@<TRIPOS>MOLECULE
NONAME
42 43 1 0 0 
SMALL
USER_CHARGES


@<TRIPOS>ATOM
  1 S       -0.5200     0.3940     1.1830 S.o2  1 <1>   1.4470 
  2 O       -1.1010     1.6330     1.6380 O.2   1 <1>  -0.6500 
  3 O       -0.4930    -0.7440     2.0720 O.2   1 <1>  -0.6500 
  4 N       -1.4700    -0.0100    -0.1450 N.am  1 <1>  -0.9140 
  5 C        1.1190     0.7010     0.4670 C.ar  1 <1>  -0.0090 
  6 C       -1.5810    -1.4030    -0.5880 C.3   1 <1>   0.2760 
  7 C        1.2760     1.5510    -0.6210 C.ar  1 <1>  -0.1500 
  8 C        2.2570     0.0940     0.9870 C.ar  1 <1>  -0.1500 
  9 C       -2.4310    -2.2820     0.3350 C.3   1 <1>  -0.0800 
 10 C       -0.2700    -2.1820    -0.7570 C.3   1 <1>   0.1200 
 11 C        2.5210     1.7830    -1.1790 C.ar  1 <1>  -0.1500 
 12 C        3.5070     0.3190     0.4360 C.ar  1 <1>  -0.1500 
 13 C       -1.4860    -3.4440     0.6600 C.3   1 <1>   0.1200 
 14 C       -3.7020    -2.7690    -0.3880 C.3   1 <1>  -0.0550 
 15 O       -0.5920    -3.4870    -0.4020 O.3   1 <1>  -0.5600 
 16 C        3.6390     1.1650    -0.6500 C.ar  1 <1>  -0.1500 
 17 S       -4.9150    -3.5080     0.7060 S.o2  1 <1>   1.3330 
 18 O       -5.3910    -2.4610     1.5810 O.2   1 <1>  -0.6500 
 19 O       -4.3960    -4.7350     1.2650 O.2   1 <1>  -0.6500 
 20 N       -6.1680    -3.9140    -0.3640 N.am  1 <1>  -0.8490 
 21 C       -7.4810    -3.8990     0.2890 C.3   1 <1>   0.1160 
 22 C       -5.9640    -5.2030    -1.0360 C.3   1 <1>   0.1160 
 23 H       -2.3940     0.3280     0.1190 H     1 <1>   0.4200 
 24 H       -2.0420    -1.3810    -1.5610 H     1 <1>   0.0800 
 25 H        0.4090     2.0380    -1.0370 H     1 <1>   0.1500 
 26 H        2.1660    -0.5670     1.8340 H     1 <1>   0.1500 
 27 H       -2.7080    -1.7730     1.2420 H     1 <1>   0.0800 
 28 H        0.5070    -1.8560    -0.0930 H     1 <1>   0.0800 
 29 H        0.0790    -2.1750    -1.7740 H     1 <1>   0.0800 
 30 H        2.6210     2.4450    -2.0220 H     1 <1>   0.1500 
 31 H        4.3750    -0.1620     0.8520 H     1 <1>   0.1500 
 32 H       -1.9760    -4.3990     0.7450 H     1 <1>   0.0800 
 33 H       -0.9260    -3.2480     1.5600 H     1 <1>   0.0800 
 34 H       -3.4270    -3.4710    -1.1510 H     1 <1>   0.0800 
 35 H       -4.1680    -1.9310    -0.8680 H     1 <1>   0.0800 
 36 H        4.6100     1.3430    -1.0810 H     1 <1>   0.1500 
 37 H       -8.2540    -4.1450    -0.4190 H     1 <1>   0.0800 
 38 H       -7.6870    -2.9170     0.6810 H     1 <1>   0.0800 
 39 H       -7.5040    -4.6070     1.1010 H     1 <1>   0.0800 
 40 H       -6.7370    -5.3650    -1.7680 H     1 <1>   0.0800 
 41 H       -5.9850    -6.0090    -0.3200 H     1 <1>   0.0800 
 42 H       -5.0120    -5.2150    -1.5390 H     1 <1>   0.0800 
@<TRIPOS>BOND
  1   1   2  2   
  2   1   3  2   
  3   1   4  am  
  4   1   5  1   
  5   4   6  1   
  6   4  23  1   
  7   5   7  ar  
  8   5   8  ar  
  9   6   9  1   
 10   6  10  1   
 11   6  24  1   
 12   7  11  ar  
 13   7  25  1   
 14   8  12  ar  
 15   8  26  1   
 16   9  13  1   
 17   9  14  1   
 18   9  27  1   
 19  10  15  1   
 20  10  28  1   
 21  10  29  1   
 22  11  16  ar  
 23  11  30  1   
 24  12  16  ar  
 25  12  31  1   
 26  13  15  1   
 27  13  32  1   
 28  13  33  1   
 29  14  17  1   
 30  14  34  1   
 31  14  35  1   
 32  16  36  1   
 33  17  18  2   
 34  17  19  2   
 35  17  20  am  
 36  20  21  1   
 37  20  22  1   
 38  21  37  1   
 39  21  38  1   
 40  21  39  1   
 41  22  40  1   
 42  22  41  1   
 43  22  42  1   
@<TRIPOS>SUBSTRUCTURE
  1 ****   6 GROUP 4 **** **** 0

# MOE 2024.06 (io_trps.svl 2023.06)
