@<TRIPOS>MOLECULE
NONAME
45 47 1 0 0 
SMALL
USER_CHARGES


@<TRIPOS>ATOM
  1 F       -0.7680    -0.8870    -2.0660 F     1 <1>  -0.1900 
  2 C       -1.1990    -1.9650    -1.4620 C.ar  1 <1>   0.1900 
  3 C       -0.3370    -2.8200    -0.7650 C.ar  1 <1>   0.0820 
  4 C       -2.5550    -2.2150    -1.5440 C.ar  1 <1>  -0.1500 
  5 O        1.0120    -2.6810    -0.6130 O.3   1 <1>  -0.3630 
  6 C       -0.8920    -3.9340    -0.1560 C.ar  1 <1>  -0.1500 
  7 C       -3.0760    -3.3350    -0.9230 C.ar  1 <1>  -0.1500 
  8 C        1.7500    -1.6400    -1.2140 C.3   1 <1>   0.0400 
  9 C       -2.2580    -4.2220    -0.2190 C.ar  1 <1>   0.0530 
 10 C       -2.7990    -5.3930     0.4290 C.2   1 <1>   0.0870 
 11 O       -2.1790    -5.9440     1.4470 O.3   1 <1>  -0.0190 
 12 C       -3.9180    -6.1280     0.2160 C.2   1 <1>  -0.2330 
 13 N       -2.8160    -6.9810     1.9310 N.2   1 <1>  -0.4100 
 14 C       -3.8700    -7.1110     1.2080 C.2   1 <1>   0.3720 
 15 C       -4.9490    -6.0090    -0.7550 C.2   1 <1>   1.0330 
 16 N       -4.8240    -8.1150     1.4500 N.pl3 1 <1>  -0.8210 
 17 O       -6.0040    -5.4110    -0.4880 O.co2 1 <1>  -0.9000 
 18 O       -4.9230    -6.6780    -1.8030 O.co2 1 <1>  -0.9000 
 19 C       -5.1700    -8.9220     0.2490 C.3   1 <1>   0.2090 
 20 C       -6.0930    -7.5770     2.0190 C.3   1 <1>   0.2090 
 21 C       -6.6010    -8.5050    -0.1190 C.3   1 <1>   0.4230 
 22 C       -7.2350    -8.2210     1.2320 C.3   1 <1>  -0.1600 
 23 N       -7.3490    -9.4480    -1.0120 N.4   1 <1>  -0.9590 
 24 C       -8.5530    -8.7410    -1.5380 C.3   1 <1>   0.2630 
 25 C       -7.6680   -10.7770    -0.4120 C.3   1 <1>   0.2630 
 26 H       -3.1950    -1.5430    -2.0850 H     1 <1>   0.1500 
 27 H       -0.2410    -4.6010     0.3800 H     1 <1>   0.1500 
 28 H       -4.1360    -3.5180    -0.9840 H     1 <1>   0.1500 
 29 H        2.7870    -1.7770    -0.9650 H     1 <1>   0.0800 
 30 H        1.4050    -0.6980    -0.8270 H     1 <1>   0.0800 
 31 H        1.6220    -1.6910    -2.2810 H     1 <1>   0.0800 
 32 H       -4.4810    -8.7440    -0.5590 H     1 <1>   0.0800 
 33 H       -5.1300    -9.9600     0.5230 H     1 <1>   0.0800 
 34 H       -6.1560    -7.8120     3.0680 H     1 <1>   0.0800 
 35 H       -6.1260    -6.5030     1.9050 H     1 <1>   0.0800 
 36 H       -6.5500    -7.5700    -0.6390 H     1 <1>   0.0800 
 37 H       -8.0630    -7.5410     1.1550 H     1 <1>   0.0800 
 38 H       -7.5300    -9.1200     1.7390 H     1 <1>   0.0800 
 39 H       -6.7140    -9.5730    -1.8180 H     1 <1>   0.4500 
 40 H       -9.2490    -8.5390    -0.7400 H     1 <1>   0.0800 
 41 H       -9.0440    -9.3390    -2.2880 H     1 <1>   0.0800 
 42 H       -8.2620    -7.8010    -1.9830 H     1 <1>   0.0800 
 43 H       -8.3440   -10.6600     0.4180 H     1 <1>   0.0800 
 44 H       -6.7680   -11.2550    -0.0600 H     1 <1>   0.0800 
 45 H       -8.1310   -11.4150    -1.1470 H     1 <1>   0.0800 
@<TRIPOS>BOND
  1   1   2  1   
  2   2   3  ar  
  3   2   4  ar  
  4   3   5  1   
  5   3   6  ar  
  6   4   7  ar  
  7   4  26  1   
  8   5   8  1   
  9   6   9  ar  
 10   6  27  1   
 11   7   9  ar  
 12   7  28  1   
 13   8  29  1   
 14   8  30  1   
 15   8  31  1   
 16   9  10  1   
 17  10  11  1   
 18  10  12  2   
 19  11  13  1   
 20  12  14  1   
 21  12  15  1   
 22  13  14  2   
 23  14  16  1   
 24  15  17  ar  
 25  15  18  ar  
 26  16  19  1   
 27  16  20  1   
 28  19  21  1   
 29  19  32  1   
 30  19  33  1   
 31  20  22  1   
 32  20  34  1   
 33  20  35  1   
 34  21  22  1   
 35  21  23  1   
 36  21  36  1   
 37  22  37  1   
 38  22  38  1   
 39  23  24  1   
 40  23  25  1   
 41  23  39  1   
 42  24  40  1   
 43  24  41  1   
 44  24  42  1   
 45  25  43  1   
 46  25  44  1   
 47  25  45  1   
@<TRIPOS>SUBSTRUCTURE
  1 ****  12 GROUP 4 **** **** 0

# MOE 2024.06 (io_trps.svl 2023.06)
