@<TRIPOS>MOLECULE
NONAME
37 38 1 0 0 
SMALL
USER_CHARGES


@<TRIPOS>ATOM
  1 O        0.4620     0.5780     2.3440 O.3   1 <1>  -0.6800 
  2 C        1.3460    -0.1740     1.5820 C.3   1 <1>   0.1200 
  3 C        2.0960     0.7610     0.6230 C.3   1 <1>   0.1100 
  4 N        3.2260     0.0970    -0.0830 N.3   1 <1>  -0.8100 
  5 C        3.9660     1.0960    -0.8920 C.3   1 <1>   0.2900 
  6 C        2.7500    -0.9940    -0.9700 C.3   1 <1>   0.2900 
  7 C        4.5840     2.2290    -0.0780 C.2   1 <1>   0.0060 
  8 C        2.6660    -2.3100    -0.2140 C.2   1 <1>   0.0060 
  9 N        4.4510     3.4710    -0.4250 N.2   1 <1>  -0.5650 
 10 N        5.3270     2.0590     1.0490 N.pl3 1 <1>   0.0480 
 11 N        1.7200    -3.1840    -0.3430 N.2   1 <1>  -0.5650 
 12 N        3.6080    -2.6660     0.6830 N.pl3 1 <1>   0.0330 
 13 C        5.1320     4.1480     0.5140 C.2   1 <1>   0.0770 
 14 C        5.6730     3.3060     1.4180 C.2   1 <1>  -0.3020 
 15 C        5.6880     0.8260     1.7840 C.3   1 <1>   0.0960 
 16 C        2.0660    -4.1630     0.5140 C.2   1 <1>   0.0770 
 17 C        3.2180    -3.8630     1.1520 C.2   1 <1>  -0.3020 
 18 C        6.7790     0.0420     1.0470 C.3   1 <1>  -0.2400 
 19 H       -0.0720    -0.0050     2.9180 H     1 <1>   0.4000 
 20 H        0.7730    -0.9050     1.0390 H     1 <1>   0.0800 
 21 H        2.0330    -0.6600     2.2510 H     1 <1>   0.0800 
 22 H        2.4770     1.5800     1.2090 H     1 <1>   0.0800 
 23 H        1.4000     1.1620    -0.0940 H     1 <1>   0.0800 
 24 H        3.3030     1.5280    -1.6240 H     1 <1>   0.0800 
 25 H        4.7640     0.6080    -1.4230 H     1 <1>   0.0800 
 26 H        3.4380    -1.1410    -1.7840 H     1 <1>   0.0800 
 27 H        1.7890    -0.7520    -1.3910 H     1 <1>   0.0800 
 28 H        4.4200    -2.0970     0.9410 H     1 <1>   0.2700 
 29 H        5.1980     5.2230     0.4900 H     1 <1>   0.1500 
 30 H        6.2690     3.5260     2.2840 H     1 <1>   0.1500 
 31 H        4.8070     0.2240     1.9100 H     1 <1>   0.0800 
 32 H        6.0400     1.1050     2.7600 H     1 <1>   0.0800 
 33 H        1.4580    -5.0460     0.6280 H     1 <1>   0.1500 
 34 H        3.7640    -4.4210     1.8920 H     1 <1>   0.1500 
 35 H        6.4260    -0.2850     0.0860 H     1 <1>   0.0800 
 36 H        7.0570    -0.8220     1.6220 H     1 <1>   0.0800 
 37 H        7.6510     0.6580     0.9140 H     1 <1>   0.0800 
@<TRIPOS>BOND
  1   1   2  1   
  2   1  19  1   
  3   2   3  1   
  4   2  20  1   
  5   2  21  1   
  6   3   4  1   
  7   3  22  1   
  8   3  23  1   
  9   4   5  1   
 10   4   6  1   
 11   5   7  1   
 12   5  24  1   
 13   5  25  1   
 14   6   8  1   
 15   6  26  1   
 16   6  27  1   
 17   7   9  2   
 18   7  10  1   
 19   8  11  2   
 20   8  12  1   
 21   9  13  1   
 22  10  14  1   
 23  10  15  1   
 24  11  16  1   
 25  12  17  1   
 26  12  28  1   
 27  13  14  2   
 28  13  29  1   
 29  14  30  1   
 30  15  18  1   
 31  15  31  1   
 32  15  32  1   
 33  16  17  2   
 34  16  33  1   
 35  17  34  1   
 36  18  35  1   
 37  18  36  1   
 38  18  37  1   
@<TRIPOS>SUBSTRUCTURE
  1 ****   4 GROUP 4 **** **** 0

# MOE 2024.06 (io_trps.svl 2023.06)
