@<TRIPOS>MOLECULE
NONAME
56 59 1 0 0 
SMALL
USER_CHARGES


@<TRIPOS>ATOM
  1 O       -0.3920     0.6900     0.5450 O.2   1 <1>  -0.5700 
  2 C       -1.4960     1.1920     0.4560 C.2   1 <1>   0.5440 
  3 N       -2.5870     0.3630     0.3210 N.am  1 <1>  -0.6600 
  4 C       -1.6270     2.6360     0.4760 C.ar  1 <1>   0.0860 
  5 C       -3.9480     0.7790    -0.1050 C.3   1 <1>   0.1400 
  6 C       -2.4680    -1.1180     0.2600 C.3   1 <1>   0.1400 
  7 C       -0.9000     3.4230    -0.4160 C.ar  1 <1>  -0.1500 
  8 C       -2.4600     3.2890     1.3830 C.ar  1 <1>  -0.1500 
  9 C       -4.8000    -0.4730     0.0890 C.3   1 <1>   0.2000 
 10 C       -3.8320    -1.6130    -0.2370 C.3   1 <1>  -0.0800 
 11 C       -1.0040     4.8050    -0.4210 C.ar  1 <1>  -0.1440 
 12 C       -2.5790     4.6660     1.3840 C.ar  1 <1>  -0.1500 
 13 O       -5.1590    -0.5370     1.4280 O.3   1 <1>  -0.6800 
 14 C       -4.2280    -2.9970     0.3080 C.3   1 <1>   0.0210 
 15 C       -1.8540     5.4230     0.4820 C.ar  1 <1>  -0.1500 
 16 C       -0.1880     5.6410    -1.4040 C.3   1 <1>   0.2390 
 17 C       -3.2040    -4.0430    -0.0870 C.2   1 <1>   0.1080 
 18 N        0.6120     6.6820    -0.7190 N.pl3 1 <1>   0.3140 
 19 N       -2.9860    -4.3830    -1.3190 N.2   1 <1>  -0.7070 
 20 C       -2.3870    -4.7340     0.8020 C.2   1 <1>  -0.1500 
 21 N        0.3930     7.9920    -0.9540 N.2   1 <1>  -0.7070 
 22 C        1.6290     6.5080     0.1600 C.2   1 <1>  -0.3320 
 23 N       -2.0150    -5.3130    -1.2480 N.pl3 1 <1>   0.3000 
 24 C       -1.6340    -5.5410     0.0260 C.2   1 <1>  -0.3320 
 25 C        1.2630     8.6140    -0.2250 C.2   1 <1>   0.1080 
 26 C        2.0670     7.7400     0.4950 C.2   1 <1>  -0.1500 
 27 C        2.1430     5.1650     0.6520 C.3   1 <1>  -0.0600 
 28 C       -0.5570    -6.5300     0.4300 C.3   1 <1>  -0.0600 
 29 C        1.3600    10.1200    -0.1910 C.3   1 <1>  -0.0590 
 30 H       -4.3290     1.6040     0.4690 H     1 <1>   0.0800 
 31 H       -3.9220     1.0460    -1.1470 H     1 <1>   0.0800 
 32 H       -1.6790    -1.4150    -0.4110 H     1 <1>   0.0800 
 33 H       -2.2530    -1.4940     1.2450 H     1 <1>   0.0800 
 34 H       -0.2410     2.9240    -1.1060 H     1 <1>   0.1500 
 35 H       -3.0150     2.7060     2.0970 H     1 <1>   0.1500 
 36 H       -5.6940    -0.4810    -0.5110 H     1 <1>   0.0800 
 37 H       -3.7680    -1.6890    -1.3090 H     1 <1>   0.0800 
 38 H       -3.2290     5.1540     2.0900 H     1 <1>   0.1500 
 39 H       -4.3510    -0.4230     1.9680 H     1 <1>   0.4000 
 40 H       -5.1830    -3.2820    -0.0950 H     1 <1>   0.0800 
 41 H       -4.3120    -2.9750     1.3790 H     1 <1>   0.0800 
 42 H       -1.9450     6.4990     0.4920 H     1 <1>   0.1500 
 43 H       -0.8510     6.1290    -2.0950 H     1 <1>   0.0800 
 44 H        0.4850     5.0200    -1.9630 H     1 <1>   0.0800 
 45 H       -2.3790    -4.6260     1.8720 H     1 <1>   0.1500 
 46 H       -1.6340    -5.7700    -2.0850 H     1 <1>   0.2700 
 47 H        2.8590     8.0150     1.1670 H     1 <1>   0.1500 
 48 H        2.9830     5.3080     1.3070 H     1 <1>   0.0800 
 49 H        2.4560     4.5550    -0.1770 H     1 <1>   0.0800 
 50 H        1.3730     4.6480     1.1970 H     1 <1>   0.0800 
 51 H       -0.4370    -6.5300     1.4990 H     1 <1>   0.0800 
 52 H        0.3830    -6.2620    -0.0200 H     1 <1>   0.0800 
 53 H       -0.8260    -7.5230     0.1170 H     1 <1>   0.0800 
 54 H        2.1420    10.4320     0.4760 H     1 <1>   0.0800 
 55 H        0.4250    10.5310     0.1430 H     1 <1>   0.0800 
 56 H        1.5700    10.4870    -1.1780 H     1 <1>   0.0800 
@<TRIPOS>BOND
  1   1   2  2   
  2   2   3  am  
  3   2   4  1   
  4   3   5  1   
  5   3   6  1   
  6   4   7  ar  
  7   4   8  ar  
  8   5   9  1   
  9   5  30  1   
 10   5  31  1   
 11   6  10  1   
 12   6  32  1   
 13   6  33  1   
 14   7  11  ar  
 15   7  34  1   
 16   8  12  ar  
 17   8  35  1   
 18   9  10  1   
 19   9  13  1   
 20   9  36  1   
 21  10  14  1   
 22  10  37  1   
 23  11  15  ar  
 24  11  16  1   
 25  12  15  ar  
 26  12  38  1   
 27  13  39  1   
 28  14  17  1   
 29  14  40  1   
 30  14  41  1   
 31  15  42  1   
 32  16  18  1   
 33  16  43  1   
 34  16  44  1   
 35  17  19  2   
 36  17  20  1   
 37  18  21  1   
 38  18  22  1   
 39  19  23  1   
 40  20  24  2   
 41  20  45  1   
 42  21  25  2   
 43  22  26  2   
 44  22  27  1   
 45  23  24  1   
 46  23  46  1   
 47  24  28  1   
 48  25  26  1   
 49  25  29  1   
 50  26  47  1   
 51  27  48  1   
 52  27  49  1   
 53  27  50  1   
 54  28  51  1   
 55  28  52  1   
 56  28  53  1   
 57  29  54  1   
 58  29  55  1   
 59  29  56  1   
@<TRIPOS>SUBSTRUCTURE
  1 ****   2 GROUP 4 **** **** 0

# MOE 2024.06 (io_trps.svl 2023.06)
