@<TRIPOS>MOLECULE
NONAME
56 58 1 0 0 
SMALL
USER_CHARGES


@<TRIPOS>ATOM
  1 O       -0.1710    -0.9490    -0.0050 O.3   1 <1>  -0.3630 
  2 C       -1.4860    -1.2040    -0.2220 C.ar  1 <1>   0.0830 
  3 C        0.4480     0.2350    -0.4540 C.3   1 <1>   0.1200 
  4 C       -1.9820    -2.4380     0.1860 C.ar  1 <1>  -0.1440 
  5 C       -2.3440    -0.2880    -0.8270 C.ar  1 <1>  -0.1500 
  6 C        1.9260     0.1640    -0.0810 C.3   1 <1>  -0.2400 
  7 C       -3.3190    -2.7380    -0.0100 C.ar  1 <1>  -0.1500 
  8 C       -1.0930    -3.4780     0.8500 C.3   1 <1>   0.2630 
  9 C       -3.6800    -0.5950    -1.0110 C.ar  1 <1>  -0.1500 
 10 C       -4.1780    -1.8200    -0.5950 C.ar  1 <1>  -0.1440 
 11 O       -1.5390    -3.6410     2.1500 O.3   1 <1>  -0.6800 
 12 C       -5.6460    -2.1590    -0.7570 C.3   1 <1>   0.4860 
 13 N       -6.2550    -2.2290     0.5990 N.4   1 <1>  -0.9590 
 14 C       -7.5850    -2.9250     0.5930 C.3   1 <1>   0.3430 
 15 C       -6.2910    -0.8810     1.2610 C.3   1 <1>   0.3430 
 16 C       -8.7180    -2.1350    -0.1160 C.3   1 <1>   0.0000 
 17 C       -7.6730    -0.2150     1.1900 C.3   1 <1>  -0.1600 
 18 C      -10.0450    -2.5750     0.5450 C.3   1 <1>   0.2000 
 19 C       -8.4510    -0.6050    -0.0730 C.3   1 <1>  -0.1600 
 20 C       -8.9000    -2.6360    -1.5610 C.3   1 <1>  -0.1600 
 21 O      -11.0660    -1.7030     0.1660 O.3   1 <1>  -0.5600 
 22 C      -10.3410    -3.9490    -0.0680 C.3   1 <1>  -0.1600 
 23 C       -9.6950    -3.9440    -1.4610 C.3   1 <1>  -0.1600 
 24 C      -12.1780    -1.6710     1.0060 C.3   1 <1>   0.0400 
 25 H        0.3290     0.3010    -1.5220 H     1 <1>   0.0800 
 26 H       -0.0250     1.0730     0.0290 H     1 <1>   0.0800 
 27 H       -1.9870     0.6700    -1.1590 H     1 <1>   0.1500 
 28 H        2.3870    -0.6830    -0.5560 H     1 <1>   0.0800 
 29 H        2.0350     0.0820     0.9860 H     1 <1>   0.0800 
 30 H        2.4280     1.0560    -0.4090 H     1 <1>   0.0800 
 31 H       -3.6760    -3.7040     0.3090 H     1 <1>   0.1500 
 32 H       -0.0570    -3.1870     0.8800 H     1 <1>   0.0800 
 33 H       -1.1750    -4.4260     0.3470 H     1 <1>   0.0800 
 34 H       -4.3210     0.1320    -1.4810 H     1 <1>   0.1500 
 35 H       -1.3650    -2.8160     2.6430 H     1 <1>   0.4000 
 36 H       -5.7350    -3.1110    -1.2550 H     1 <1>   0.0800 
 37 H       -6.1390    -1.4110    -1.3560 H     1 <1>   0.0800 
 38 H       -5.5930    -2.7970     1.1450 H     1 <1>   0.4500 
 39 H       -7.4930    -3.8990     0.1390 H     1 <1>   0.0800 
 40 H       -7.8820    -3.0790     1.6170 H     1 <1>   0.0800 
 41 H       -6.0110    -0.9790     2.2980 H     1 <1>   0.0800 
 42 H       -5.5640    -0.2340     0.7960 H     1 <1>   0.0800 
 43 H       -8.2440    -0.4880     2.0600 H     1 <1>   0.0800 
 44 H       -7.5450     0.8530     1.2240 H     1 <1>   0.0800 
 45 H       -9.9840    -2.5950     1.6210 H     1 <1>   0.0800 
 46 H       -7.8790    -0.3090    -0.9340 H     1 <1>   0.0800 
 47 H       -9.3670    -0.0420    -0.1190 H     1 <1>   0.0800 
 48 H       -9.5020    -1.9220    -2.1010 H     1 <1>   0.0800 
 49 H       -7.9790    -2.7700    -2.0970 H     1 <1>   0.0800 
 50 H       -9.8860    -4.7170     0.5320 H     1 <1>   0.0800 
 51 H      -11.3960    -4.1510    -0.1260 H     1 <1>   0.0800 
 52 H       -9.0520    -4.8000    -1.5780 H     1 <1>   0.0800 
 53 H      -10.4510    -3.9740    -2.2280 H     1 <1>   0.0800 
 54 H      -12.8920    -0.9840     0.5880 H     1 <1>   0.0800 
 55 H      -11.8780    -1.3290     1.9810 H     1 <1>   0.0800 
 56 H      -12.6170    -2.6520     1.0670 H     1 <1>   0.0800 
@<TRIPOS>BOND
  1   1   2  1   
  2   1   3  1   
  3   2   4  ar  
  4   2   5  ar  
  5   3   6  1   
  6   3  25  1   
  7   3  26  1   
  8   4   7  ar  
  9   4   8  1   
 10   5   9  ar  
 11   5  27  1   
 12   6  28  1   
 13   6  29  1   
 14   6  30  1   
 15   7  10  ar  
 16   7  31  1   
 17   8  11  1   
 18   8  32  1   
 19   8  33  1   
 20   9  10  ar  
 21   9  34  1   
 22  10  12  1   
 23  11  35  1   
 24  12  13  1   
 25  12  36  1   
 26  12  37  1   
 27  13  14  1   
 28  13  15  1   
 29  13  38  1   
 30  14  16  1   
 31  14  39  1   
 32  14  40  1   
 33  15  17  1   
 34  15  41  1   
 35  15  42  1   
 36  16  18  1   
 37  16  19  1   
 38  16  20  1   
 39  17  19  1   
 40  17  43  1   
 41  17  44  1   
 42  18  21  1   
 43  18  22  1   
 44  18  45  1   
 45  19  46  1   
 46  19  47  1   
 47  20  23  1   
 48  20  48  1   
 49  20  49  1   
 50  21  24  1   
 51  22  23  1   
 52  22  50  1   
 53  22  51  1   
 54  23  52  1   
 55  23  53  1   
 56  24  54  1   
 57  24  55  1   
 58  24  56  1   
@<TRIPOS>SUBSTRUCTURE
  1 ****  12 GROUP 4 **** **** 0

# MOE 2024.06 (io_trps.svl 2023.06)
