@<TRIPOS>MOLECULE
NONAME
46 49 1 0 0 
SMALL
USER_CHARGES


@<TRIPOS>ATOM
  1 O       -1.1430     0.3990     1.4920 O.2   1 <1>  -0.5700 
  2 C       -1.8770     0.7610     0.6040 C.2   1 <1>   0.6300 
  3 N       -2.9280    -0.0080     0.1880 N.am  1 <1>  -0.6600 
  4 C       -1.5830     2.0960    -0.0760 C.3   1 <1>  -0.0950 
  5 C       -3.9290     0.3270    -0.8560 C.3   1 <1>   0.1400 
  6 C       -3.1960    -1.3570     0.7460 C.3   1 <1>   0.1400 
  7 C       -1.2580     3.2830     0.7920 C.3   1 <1>  -0.2000 
  8 C       -2.5640     3.2320     0.0570 C.3   1 <1>  -0.2000 
  9 C       -0.7760     1.8400    -1.3590 C.3   1 <1>   0.2150 
 10 C       -5.0730    -0.6560    -0.6090 C.3   1 <1>   0.2000 
 11 C       -4.3900    -1.9070    -0.0530 C.3   1 <1>  -0.0800 
 12 O       -0.5950     3.0110    -2.0780 O.3   1 <1>  -0.6800 
 13 O       -5.8860    -0.1360     0.3850 O.3   1 <1>  -0.6800 
 14 C       -3.9430    -2.8380    -1.1980 C.3   1 <1>  -0.0170 
 15 C       -3.2990    -4.1120    -0.6780 C.ar  1 <1>   0.1670 
 16 N       -2.0050    -4.1830    -0.7090 N.ar  1 <1>  -0.6200 
 17 C       -4.1230    -5.1400    -0.1920 C.ar  1 <1>  -0.1500 
 18 C       -1.4210    -5.3130    -0.2350 C.ar  1 <1>   0.3100 
 19 C       -3.5650    -6.2860     0.2860 C.ar  1 <1>  -0.1500 
 20 C       -2.1650    -6.3990     0.2760 C.ar  1 <1>   0.0000 
 21 C       -0.0200    -5.4110    -0.2480 C.ar  1 <1>  -0.1500 
 22 C       -1.4810    -7.5360     0.7500 C.ar  1 <1>  -0.1500 
 23 C        0.6260    -6.5250     0.2180 C.ar  1 <1>  -0.1500 
 24 C       -0.1140    -7.5990     0.7220 C.ar  1 <1>  -0.1500 
 25 H       -4.2670     1.3450    -0.7920 H     1 <1>   0.0800 
 26 H       -3.4970     0.1500    -1.8260 H     1 <1>   0.0800 
 27 H       -2.3180    -1.9760     0.6660 H     1 <1>   0.0800 
 28 H       -3.4540    -1.2580     1.7870 H     1 <1>   0.0800 
 29 H       -1.2570     3.1440     1.8600 H     1 <1>   0.1000 
 30 H       -0.5180     3.9970     0.4780 H     1 <1>   0.1000 
 31 H       -2.7190     3.8940    -0.7780 H     1 <1>   0.1000 
 32 H       -3.4580     3.0930     0.6400 H     1 <1>   0.1000 
 33 H       -1.2870     1.1420    -1.9980 H     1 <1>   0.0800 
 34 H        0.1940     1.4400    -1.1140 H     1 <1>   0.0800 
 35 H       -5.6780    -0.8350    -1.4810 H     1 <1>   0.0800 
 36 H       -5.0570    -2.4550     0.5910 H     1 <1>   0.0800 
 37 H       -0.2400     3.7010    -1.4870 H     1 <1>   0.4000 
 38 H       -5.3250     0.1360     1.1390 H     1 <1>   0.4000 
 39 H       -3.2430    -2.3290    -1.8370 H     1 <1>   0.0800 
 40 H       -4.7940    -3.1060    -1.7990 H     1 <1>   0.0800 
 41 H       -5.1900    -5.0090    -0.2020 H     1 <1>   0.1500 
 42 H       -4.1620    -7.0950     0.6670 H     1 <1>   0.1500 
 43 H        0.5300    -4.5750    -0.6380 H     1 <1>   0.1500 
 44 H       -2.0560    -8.3580     1.1370 H     1 <1>   0.1500 
 45 H        1.7010    -6.5870     0.2020 H     1 <1>   0.1500 
 46 H        0.4070    -8.4690     1.0850 H     1 <1>   0.1500 
@<TRIPOS>BOND
  1   1   2  2   
  2   2   3  am  
  3   2   4  1   
  4   3   5  1   
  5   3   6  1   
  6   4   7  1   
  7   4   8  1   
  8   4   9  1   
  9   5  10  1   
 10   5  25  1   
 11   5  26  1   
 12   6  11  1   
 13   6  27  1   
 14   6  28  1   
 15   7   8  1   
 16   7  29  1   
 17   7  30  1   
 18   8  31  1   
 19   8  32  1   
 20   9  12  1   
 21   9  33  1   
 22   9  34  1   
 23  10  11  1   
 24  10  13  1   
 25  10  35  1   
 26  11  14  1   
 27  11  36  1   
 28  12  37  1   
 29  13  38  1   
 30  14  15  1   
 31  14  39  1   
 32  14  40  1   
 33  15  16  ar  
 34  15  17  ar  
 35  16  18  ar  
 36  17  19  ar  
 37  17  41  1   
 38  18  20  ar  
 39  18  21  ar  
 40  19  20  ar  
 41  19  42  1   
 42  20  22  ar  
 43  21  23  ar  
 44  21  43  1   
 45  22  24  ar  
 46  22  44  1   
 47  23  24  ar  
 48  23  45  1   
 49  24  46  1   
@<TRIPOS>SUBSTRUCTURE
  1 ****   6 GROUP 4 **** **** 0

# MOE 2024.06 (io_trps.svl 2023.06)
