@<TRIPOS>MOLECULE
NONAME
50 52 1 0 0 
SMALL
USER_CHARGES


@<TRIPOS>ATOM
  1 CL      -3.3700    -0.1790     0.4650 Cl    1 <1>  -0.1770 
  2 C       -3.4430    -1.8850     0.1040 C.ar  1 <1>   0.1770 
  3 C       -3.9790    -2.3030    -1.0990 C.ar  1 <1>  -0.1500 
  4 C       -2.9610    -2.7950     1.0260 C.ar  1 <1>  -0.1500 
  5 C       -4.0360    -3.6570    -1.3790 C.ar  1 <1>  -0.1500 
  6 C       -3.0200    -4.1480     0.7390 C.ar  1 <1>  -0.1500 
  7 C       -3.5660    -4.5990    -0.4640 C.ar  1 <1>  -0.0230 
  8 N       -3.6470    -5.9930    -0.7580 N.pl3 1 <1>   0.5930 
  9 N       -3.5720    -6.5040    -2.0130 N.2   1 <1>  -0.7070 
 10 C       -3.8580    -7.0050     0.1230 C.2   1 <1>  -0.3020 
 11 C       -3.7150    -7.7820    -1.8930 C.2   1 <1>   0.1390 
 12 C       -3.9130    -8.1630    -0.5710 C.2   1 <1>  -0.1810 
 13 C       -4.1450    -9.5850    -0.0930 C.3   1 <1>   0.5240 
 14 N       -5.6000    -9.8290     0.0520 N.4   1 <1>  -0.9590 
 15 C       -6.3610    -9.6740    -1.2250 C.3   1 <1>   0.3430 
 16 C       -6.2370    -9.0230     1.1300 C.3   1 <1>   0.3430 
 17 C       -7.7500   -10.2930    -1.0320 C.3   1 <1>   0.2000 
 18 C       -7.6500    -9.5430     1.3770 C.3   1 <1>  -0.1600 
 19 O       -7.5490   -11.6270    -0.6920 O.3   1 <1>  -0.6800 
 20 C       -8.5400    -9.5830     0.1000 C.3   1 <1>  -0.1060 
 21 C       -9.8090   -10.4040     0.4020 C.2   1 <1>   0.9060 
 22 C       -8.9070    -8.1480    -0.3950 C.3   1 <1>  -0.1600 
 23 O      -10.1730   -11.2600    -0.4150 O.co2 1 <1>  -0.9000 
 24 O      -10.3770   -10.2500     1.4860 O.co2 1 <1>  -0.9000 
 25 C       -9.7330    -7.2880     0.5780 C.3   1 <1>  -0.1600 
 26 C      -10.0460    -5.9190    -0.0330 C.3   1 <1>  -0.2400 
 27 H       -4.3420    -1.5770    -1.8030 H     1 <1>   0.1500 
 28 H       -2.5430    -2.4410     1.9520 H     1 <1>   0.1500 
 29 H       -4.4470    -3.9860    -2.3200 H     1 <1>   0.1500 
 30 H       -2.6320    -4.8490     1.4580 H     1 <1>   0.1500 
 31 H       -3.9590    -6.8220     1.1770 H     1 <1>   0.1500 
 32 H       -3.6840    -8.4530    -2.7370 H     1 <1>   0.1500 
 33 H       -3.6560    -9.7300     0.8560 H     1 <1>   0.0800 
 34 H       -3.7240   -10.2800    -0.8010 H     1 <1>   0.0800 
 35 H       -5.7800   -10.8210     0.2910 H     1 <1>   0.4500 
 36 H       -6.4470    -8.6340    -1.4910 H     1 <1>   0.0800 
 37 H       -5.8650   -10.1940    -2.0270 H     1 <1>   0.0800 
 38 H       -5.6670    -9.1030     2.0410 H     1 <1>   0.0800 
 39 H       -6.2790    -7.9860     0.8400 H     1 <1>   0.0800 
 40 H       -8.3100   -10.2730    -1.9530 H     1 <1>   0.0800 
 41 H       -7.5800   -10.5380     1.7830 H     1 <1>   0.0800 
 42 H       -8.1230    -8.9540     2.1420 H     1 <1>   0.0800 
 43 H       -8.4720   -11.9970    -0.5700 H     1 <1>   0.4000 
 44 H       -8.0210    -7.5950    -0.6440 H     1 <1>   0.0800 
 45 H       -9.4860    -8.2520    -1.2990 H     1 <1>   0.0800 
 46 H      -10.6630    -7.7850     0.8060 H     1 <1>   0.0800 
 47 H       -9.2070    -7.1410     1.5030 H     1 <1>   0.0800 
 48 H      -10.6100    -6.0350    -0.9420 H     1 <1>   0.0800 
 49 H       -9.1400    -5.3810    -0.2480 H     1 <1>   0.0800 
 50 H      -10.6330    -5.3390     0.6580 H     1 <1>   0.0800 
@<TRIPOS>BOND
  1   1   2  1   
  2   2   3  ar  
  3   2   4  ar  
  4   3   5  ar  
  5   3  27  1   
  6   4   6  ar  
  7   4  28  1   
  8   5   7  ar  
  9   5  29  1   
 10   6   7  ar  
 11   6  30  1   
 12   7   8  1   
 13   8   9  1   
 14   8  10  1   
 15   9  11  2   
 16  10  12  2   
 17  10  31  1   
 18  11  12  1   
 19  11  32  1   
 20  12  13  1   
 21  13  14  1   
 22  13  33  1   
 23  13  34  1   
 24  14  15  1   
 25  14  16  1   
 26  14  35  1   
 27  15  17  1   
 28  15  36  1   
 29  15  37  1   
 30  16  18  1   
 31  16  38  1   
 32  16  39  1   
 33  17  19  1   
 34  17  20  1   
 35  17  40  1   
 36  18  20  1   
 37  18  41  1   
 38  18  42  1   
 39  19  43  1   
 40  20  21  1   
 41  20  22  1   
 42  21  23  ar  
 43  21  24  ar  
 44  22  25  1   
 45  22  44  1   
 46  22  45  1   
 47  25  26  1   
 48  25  46  1   
 49  25  47  1   
 50  26  48  1   
 51  26  49  1   
 52  26  50  1   
@<TRIPOS>SUBSTRUCTURE
  1 ****  10 GROUP 4 **** **** 0

# MOE 2024.06 (io_trps.svl 2023.06)
