@<TRIPOS>MOLECULE
NONAME
48 51 1 0 0 
SMALL
USER_CHARGES


@<TRIPOS>ATOM
  1 O       -0.4260     0.0680    -0.2420 O.2   1 <1>  -0.5700 
  2 C       -1.4860     0.6270    -0.0360 C.2   1 <1>   0.5440 
  3 N       -2.6440    -0.1160    -0.0960 N.am  1 <1>  -0.6600 
  4 C       -1.4980     2.0380     0.2450 C.ar  1 <1>   0.0860 
  5 C       -3.9700     0.4270    -0.4950 C.3   1 <1>   0.1400 
  6 C       -2.6110    -1.5890    -0.2910 C.3   1 <1>   0.1400 
  7 C       -2.3320     2.6130     1.1860 C.ar  1 <1>   0.1600 
  8 C       -0.6610     2.9220    -0.4110 C.ar  1 <1>   0.1600 
  9 C       -4.6890    -0.7410    -1.1690 C.3   1 <1>   0.2000 
 10 C       -4.0550    -1.9990    -0.5820 C.3   1 <1>  -0.0800 
 11 N       -2.3720     3.9010     1.4270 N.ar  1 <1>  -0.6200 
 12 N       -0.6700     4.2160    -0.1960 N.ar  1 <1>  -0.6200 
 13 O       -6.0490    -0.7250    -0.9040 O.3   1 <1>  -0.6800 
 14 C       -4.1690    -3.2180    -1.5130 C.3   1 <1>  -0.0170 
 15 C       -1.5350     4.6460     0.7170 C.ar  1 <1>   0.7200 
 16 C       -3.5590    -4.4580    -0.8670 C.ar  1 <1>  -0.1430 
 17 N       -1.5990     5.9660     0.9820 N.pl3 1 <1>  -0.8690 
 18 C       -4.2390    -5.2080     0.1220 C.ar  1 <1>   0.0000 
 19 C       -2.3130    -4.8770    -1.2310 C.ar  1 <1>  -0.1500 
 20 C       -0.7630     7.0500     0.4100 C.3   1 <1>   0.1290 
 21 C       -3.5690    -6.3280     0.6730 C.ar  1 <1>   0.3100 
 22 C       -5.5400    -4.9160     0.5950 C.ar  1 <1>  -0.1500 
 23 C       -1.7440    -6.0050    -0.6270 C.ar  1 <1>   0.1600 
 24 N       -2.3260    -6.7120     0.2880 N.ar  1 <1>  -0.6200 
 25 C       -4.2130    -7.0840     1.6660 C.ar  1 <1>  -0.1500 
 26 C       -6.1400    -5.6760     1.5620 C.ar  1 <1>  -0.1500 
 27 C       -5.4690    -6.7720     2.1080 C.ar  1 <1>  -0.1500 
 28 H       -4.5040     0.7430     0.3840 H     1 <1>   0.0800 
 29 H       -3.8580     1.2500    -1.1800 H     1 <1>   0.0800 
 30 H       -1.9710    -1.8170    -1.1260 H     1 <1>   0.0800 
 31 H       -2.2310    -2.0810     0.5890 H     1 <1>   0.0800 
 32 H       -2.9850     1.9780     1.7590 H     1 <1>   0.1500 
 33 H        0.0340     2.5350    -1.1380 H     1 <1>   0.1500 
 34 H       -4.5480    -0.6910    -2.2360 H     1 <1>   0.0800 
 35 H       -4.5150    -2.2200     0.3650 H     1 <1>   0.0800 
 36 H       -6.2140    -0.7900     0.0560 H     1 <1>   0.4000 
 37 H       -3.6640    -3.0080    -2.4400 H     1 <1>   0.0800 
 38 H       -5.2000    -3.4020    -1.7590 H     1 <1>   0.0800 
 39 H       -2.2650     6.2140     1.7130 H     1 <1>   0.4000 
 40 H       -1.7380    -4.3610    -1.9780 H     1 <1>   0.1500 
 41 H       -0.1110     6.6680    -0.3580 H     1 <1>   0.0800 
 42 H       -0.1620     7.4900     1.1850 H     1 <1>   0.0800 
 43 H       -1.3960     7.8050    -0.0210 H     1 <1>   0.0800 
 44 H       -6.0770    -4.0810     0.1860 H     1 <1>   0.1500 
 45 H       -0.7580    -6.3010    -0.9440 H     1 <1>   0.1500 
 46 H       -3.6780    -7.9240     2.0690 H     1 <1>   0.1500 
 47 H       -7.1310    -5.4430     1.9130 H     1 <1>   0.1500 
 48 H       -5.9500    -7.3620     2.8700 H     1 <1>   0.1500 
@<TRIPOS>BOND
  1   1   2  2   
  2   2   3  am  
  3   2   4  1   
  4   3   5  1   
  5   3   6  1   
  6   4   7  ar  
  7   4   8  ar  
  8   5   9  1   
  9   5  28  1   
 10   5  29  1   
 11   6  10  1   
 12   6  30  1   
 13   6  31  1   
 14   7  11  ar  
 15   7  32  1   
 16   8  12  ar  
 17   8  33  1   
 18   9  10  1   
 19   9  13  1   
 20   9  34  1   
 21  10  14  1   
 22  10  35  1   
 23  11  15  ar  
 24  12  15  ar  
 25  13  36  1   
 26  14  16  1   
 27  14  37  1   
 28  14  38  1   
 29  15  17  1   
 30  16  18  ar  
 31  16  19  ar  
 32  17  20  1   
 33  17  39  1   
 34  18  21  ar  
 35  18  22  ar  
 36  19  23  ar  
 37  19  40  1   
 38  20  41  1   
 39  20  42  1   
 40  20  43  1   
 41  21  24  ar  
 42  21  25  ar  
 43  22  26  ar  
 44  22  44  1   
 45  23  24  ar  
 46  23  45  1   
 47  25  27  ar  
 48  25  46  1   
 49  26  27  ar  
 50  26  47  1   
 51  27  48  1   
@<TRIPOS>SUBSTRUCTURE
  1 ****   6 GROUP 4 **** **** 0

# MOE 2024.06 (io_trps.svl 2023.06)
