@<TRIPOS>MOLECULE
NONAME
54 56 1 0 0 
SMALL
USER_CHARGES


@<TRIPOS>ATOM
  1 O       -2.8700     0.0240     2.6080 O.2   1 <1>  -0.5700 
  2 C       -2.8890     0.5470     1.5210 C.2   1 <1>   0.5690 
  3 N       -3.4180    -0.0950     0.4430 N.am  1 <1>  -0.6600 
  4 C       -2.3040     1.9580     1.4070 C.3   1 <1>  -0.0190 
  5 C       -2.6800    -1.3340     0.0080 C.3   1 <1>   0.3640 
  6 C       -4.9020    -0.2300     0.4480 C.3   1 <1>   0.1400 
  7 C       -2.6890     2.7120     0.1180 C.3   1 <1>  -0.1600 
  8 C       -0.7740     1.9180     1.5700 C.3   1 <1>  -0.1600 
  9 C       -1.3560    -0.8820    -0.6190 C.ar  1 <1>  -0.1440 
 10 C       -3.4470    -2.2660    -0.9850 C.3   1 <1>   0.2000 
 11 C       -5.4100    -0.9860    -0.7800 C.3   1 <1>   0.1200 
 12 C       -1.9890     4.0670     0.0160 C.3   1 <1>   0.3430 
 13 C       -0.1390     3.2960     1.4330 C.3   1 <1>   0.3430 
 14 C       -1.3340    -0.1010    -1.7680 C.ar  1 <1>  -0.1500 
 15 C       -0.1510    -1.2590    -0.0430 C.ar  1 <1>  -0.1500 
 16 O       -4.8370    -2.2510    -0.7990 O.3   1 <1>  -0.5600 
 17 C       -3.0260    -3.7410    -0.8600 C.3   1 <1>   0.1200 
 18 N       -0.5140     3.8760     0.1120 N.4   1 <1>  -0.9590 
 19 C       -0.1320     0.3000    -2.3270 C.ar  1 <1>  -0.1500 
 20 C        1.0520    -0.8590    -0.5990 C.ar  1 <1>  -0.1500 
 21 O       -1.6470    -3.9040    -0.9530 O.3   1 <1>  -0.6800 
 22 C        0.1940     5.1700    -0.1660 C.3   1 <1>   0.3430 
 23 C        1.0620    -0.0780    -1.7410 C.ar  1 <1>  -0.1500 
 24 C        1.7070     4.9990    -0.3690 C.3   1 <1>   0.1200 
 25 O        2.2330     6.2420    -0.6730 O.3   1 <1>  -0.6800 
 26 H       -2.7050     2.5120     2.2390 H     1 <1>   0.0800 
 27 H       -2.4670    -1.9150     0.8890 H     1 <1>   0.0800 
 28 H       -5.2090    -0.7590     1.3350 H     1 <1>   0.0800 
 29 H       -5.3490     0.7470     0.4730 H     1 <1>   0.0800 
 30 H       -3.7540     2.8640     0.0990 H     1 <1>   0.0800 
 31 H       -2.4340     2.1290    -0.7470 H     1 <1>   0.0800 
 32 H       -0.3410     1.2670     0.8350 H     1 <1>   0.0800 
 33 H       -0.5300     1.5130     2.5380 H     1 <1>   0.0800 
 34 H       -3.2700    -1.9470    -1.9960 H     1 <1>   0.0800 
 35 H       -5.1650    -0.4690    -1.6920 H     1 <1>   0.0800 
 36 H       -6.4770    -1.1110    -0.7230 H     1 <1>   0.0800 
 37 H       -2.3280     4.7100     0.8130 H     1 <1>   0.0800 
 38 H       -2.2430     4.5290    -0.9250 H     1 <1>   0.0800 
 39 H        0.9320     3.2010     1.5120 H     1 <1>   0.0800 
 40 H       -0.4830     3.9370     2.2300 H     1 <1>   0.0800 
 41 H       -2.2580     0.1930    -2.2350 H     1 <1>   0.1500 
 42 H       -0.1450    -1.8770     0.8410 H     1 <1>   0.1500 
 43 H       -3.4840    -4.3270    -1.6370 H     1 <1>   0.0800 
 44 H       -3.3290    -4.1260     0.0990 H     1 <1>   0.0800 
 45 H       -0.2510     3.1900    -0.6110 H     1 <1>   0.4500 
 46 H       -0.1260     0.8930    -3.2260 H     1 <1>   0.1500 
 47 H        1.9790    -1.1660    -0.1460 H     1 <1>   0.1500 
 48 H       -1.3060    -3.5960    -1.8160 H     1 <1>   0.4000 
 49 H       -0.2100     5.6110    -1.0620 H     1 <1>   0.0800 
 50 H        0.0280     5.8560     0.6490 H     1 <1>   0.0800 
 51 H        2.0000     0.2200    -2.1780 H     1 <1>   0.1500 
 52 H        1.9140     4.3400    -1.1940 H     1 <1>   0.0800 
 53 H        2.1890     4.6470     0.5260 H     1 <1>   0.0800 
 54 H        3.2010     6.2030    -0.8310 H     1 <1>   0.4000 
@<TRIPOS>BOND
  1   1   2  2   
  2   2   3  am  
  3   2   4  1   
  4   3   5  1   
  5   3   6  1   
  6   4   7  1   
  7   4   8  1   
  8   4  26  1   
  9   5   9  1   
 10   5  10  1   
 11   5  27  1   
 12   6  11  1   
 13   6  28  1   
 14   6  29  1   
 15   7  12  1   
 16   7  30  1   
 17   7  31  1   
 18   8  13  1   
 19   8  32  1   
 20   8  33  1   
 21   9  14  ar  
 22   9  15  ar  
 23  10  16  1   
 24  10  17  1   
 25  10  34  1   
 26  11  16  1   
 27  11  35  1   
 28  11  36  1   
 29  12  18  1   
 30  12  37  1   
 31  12  38  1   
 32  13  18  1   
 33  13  39  1   
 34  13  40  1   
 35  14  19  ar  
 36  14  41  1   
 37  15  20  ar  
 38  15  42  1   
 39  17  21  1   
 40  17  43  1   
 41  17  44  1   
 42  18  22  1   
 43  18  45  1   
 44  19  23  ar  
 45  19  46  1   
 46  20  23  ar  
 47  20  47  1   
 48  21  48  1   
 49  22  24  1   
 50  22  49  1   
 51  22  50  1   
 52  23  51  1   
 53  24  25  1   
 54  24  52  1   
 55  24  53  1   
 56  25  54  1   
@<TRIPOS>SUBSTRUCTURE
  1 ****   9 GROUP 4 **** **** 0

# MOE 2024.06 (io_trps.svl 2023.06)
