@<TRIPOS>MOLECULE
NONAME
61 64 1 0 0 
SMALL
USER_CHARGES


@<TRIPOS>ATOM
  1 O        0.0200     1.3370    -0.9360 O.3   1 <1>  -0.3630 
  2 C        1.2290     1.5000    -0.3380 C.ar  1 <1>   0.0820 
  3 C       -0.8230     2.4190    -1.2900 C.3   1 <1>   0.1200 
  4 C        2.1260     0.4620    -0.4110 C.ar  1 <1>  -0.1440 
  5 C        1.5690     2.6690     0.3640 C.ar  1 <1>  -0.1500 
  6 C       -0.2080     3.1890    -2.4600 C.3   1 <1>  -0.2400 
  7 C        3.4060     0.5470     0.1900 C.ar  1 <1>   0.0000 
  8 C        1.7090    -0.7970    -1.1400 C.3   1 <1>   0.4870 
  9 C        2.7850     2.7660     0.9750 C.ar  1 <1>  -0.1500 
 10 C        3.7250     1.7190     0.9130 C.ar  1 <1>   0.0000 
 11 C        4.3930    -0.4660     0.1120 C.ar  1 <1>  -0.1500 
 12 N        1.3070    -1.8240    -0.1250 N.4   1 <1>  -0.9590 
 13 C        4.9750     1.8160     1.5540 C.ar  1 <1>  -0.1500 
 14 C        5.6010    -0.3420     0.7400 C.ar  1 <1>  -0.1500 
 15 C        1.1610    -3.1940    -0.7380 C.3   1 <1>   0.3430 
 16 C        0.0730    -1.3580     0.5870 C.3   1 <1>   0.3430 
 17 C        5.8950     0.8100     1.4750 C.ar  1 <1>  -0.1500 
 18 C        0.5880    -4.2830     0.2340 C.3   1 <1>   0.4230 
 19 C       -0.3410    -2.4100     1.6130 C.3   1 <1>  -0.1600 
 20 N        0.4220    -5.6790    -0.3770 N.4   1 <1>  -0.9590 
 21 C       -0.6910    -3.7730     0.9550 C.3   1 <1>   0.0000 
 22 C       -0.5160    -6.5770     0.3860 C.3   1 <1>   0.3430 
 23 C        0.0590    -5.7400    -1.8350 C.3   1 <1>   0.2630 
 24 C       -1.0930    -4.7650     2.0810 C.3   1 <1>  -0.1600 
 25 C       -1.8540    -3.6230    -0.0720 C.3   1 <1>   0.1200 
 26 C       -0.5640    -6.1950     1.8640 C.3   1 <1>  -0.1600 
 27 O       -2.8030    -2.7230     0.3700 O.3   1 <1>  -0.6800 
 28 H       -1.7700     2.0030    -1.5880 H     1 <1>   0.0800 
 29 H       -0.9890     3.0460    -0.4310 H     1 <1>   0.0800 
 30 H        0.8820     3.4910     0.4350 H     1 <1>   0.1500 
 31 H       -0.0610     2.5350    -3.3000 H     1 <1>   0.0800 
 32 H        0.7320     3.6310    -2.1810 H     1 <1>   0.0800 
 33 H       -0.8730     3.9790    -2.7590 H     1 <1>   0.0800 
 34 H        2.5340    -1.1490    -1.7360 H     1 <1>   0.0800 
 35 H        0.8840    -0.5830    -1.8020 H     1 <1>   0.0800 
 36 H        3.0490     3.6570     1.5180 H     1 <1>   0.1500 
 37 H        4.2160    -1.3540    -0.4610 H     1 <1>   0.1500 
 38 H        2.0660    -1.8010     0.5740 H     1 <1>   0.4500 
 39 H        5.2010     2.7090     2.1120 H     1 <1>   0.1500 
 40 H        6.3490    -1.1140     0.6770 H     1 <1>   0.1500 
 41 H        0.4970    -3.1130    -1.5820 H     1 <1>   0.0800 
 42 H        2.1220    -3.5210    -1.0980 H     1 <1>   0.0800 
 43 H        0.2660    -0.4230     1.0910 H     1 <1>   0.0800 
 44 H       -0.7310    -1.1930    -0.1150 H     1 <1>   0.0800 
 45 H        6.8500     0.8930     1.9660 H     1 <1>   0.1500 
 46 H        1.3250    -4.3860     1.0130 H     1 <1>   0.0800 
 47 H        0.4530    -2.5230     2.3320 H     1 <1>   0.0800 
 48 H       -1.1880    -2.0310     2.1590 H     1 <1>   0.0800 
 49 H        1.3420    -6.1410    -0.2860 H     1 <1>   0.4500 
 50 H       -1.5130    -6.4970    -0.0180 H     1 <1>   0.0800 
 51 H       -0.2040    -7.6060     0.2860 H     1 <1>   0.0800 
 52 H       -0.9040    -5.2850    -2.0080 H     1 <1>   0.0800 
 53 H        0.0080    -6.7670    -2.1620 H     1 <1>   0.0800 
 54 H        0.7970    -5.2370    -2.4380 H     1 <1>   0.0800 
 55 H       -0.7270    -4.4300     3.0380 H     1 <1>   0.0800 
 56 H       -2.1670    -4.7950     2.1710 H     1 <1>   0.0800 
 57 H       -2.3520    -4.5590    -0.2600 H     1 <1>   0.0800 
 58 H       -1.5020    -3.2370    -1.0120 H     1 <1>   0.0800 
 59 H       -1.2030    -6.8880     2.3870 H     1 <1>   0.0800 
 60 H        0.4200    -6.2990     2.2890 H     1 <1>   0.0800 
 61 H       -3.4310    -3.1220     1.0110 H     1 <1>   0.4000 
@<TRIPOS>BOND
  1   1   2  1   
  2   1   3  1   
  3   2   4  ar  
  4   2   5  ar  
  5   3   6  1   
  6   3  28  1   
  7   3  29  1   
  8   4   7  ar  
  9   4   8  1   
 10   5   9  ar  
 11   5  30  1   
 12   6  31  1   
 13   6  32  1   
 14   6  33  1   
 15   7  10  ar  
 16   7  11  ar  
 17   8  12  1   
 18   8  34  1   
 19   8  35  1   
 20   9  10  ar  
 21   9  36  1   
 22  10  13  ar  
 23  11  14  ar  
 24  11  37  1   
 25  12  15  1   
 26  12  16  1   
 27  12  38  1   
 28  13  17  ar  
 29  13  39  1   
 30  14  17  ar  
 31  14  40  1   
 32  15  18  1   
 33  15  41  1   
 34  15  42  1   
 35  16  19  1   
 36  16  43  1   
 37  16  44  1   
 38  17  45  1   
 39  18  20  1   
 40  18  21  1   
 41  18  46  1   
 42  19  21  1   
 43  19  47  1   
 44  19  48  1   
 45  20  22  1   
 46  20  23  1   
 47  20  49  1   
 48  21  24  1   
 49  21  25  1   
 50  22  26  1   
 51  22  50  1   
 52  22  51  1   
 53  23  52  1   
 54  23  53  1   
 55  23  54  1   
 56  24  26  1   
 57  24  55  1   
 58  24  56  1   
 59  25  27  1   
 60  25  57  1   
 61  25  58  1   
 62  26  59  1   
 63  26  60  1   
 64  27  61  1   
@<TRIPOS>SUBSTRUCTURE
  1 ****  12 GROUP 4 **** **** 0

# MOE 2024.06 (io_trps.svl 2023.06)
