@<TRIPOS>MOLECULE
NONAME
51 54 1 0 0 
SMALL
USER_CHARGES


@<TRIPOS>ATOM
  1 F       -0.2090    -0.8840    -0.9500 F     1 <1>  -0.1900 
  2 C       -0.3190    -2.0430    -0.3600 C.ar  1 <1>   0.1900 
  3 C        0.4560    -3.1080    -0.7940 C.ar  1 <1>  -0.1440 
  4 C       -1.2130    -2.1600     0.6870 C.ar  1 <1>  -0.1500 
  5 C        0.3070    -4.3230    -0.1450 C.ar  1 <1>  -0.1500 
  6 C        1.4430    -2.9530    -1.9420 C.3   1 <1>  -0.0960 
  7 C       -1.3420    -3.3840     1.3180 C.ar  1 <1>  -0.1500 
  8 C       -0.5940    -4.4910     0.9100 C.ar  1 <1>   0.0860 
  9 C       -0.7350    -5.7790     1.5630 C.2   1 <1>   0.5440 
 10 O        0.2620    -6.3580     1.9530 O.2   1 <1>  -0.5700 
 11 N       -1.9670    -6.3760     1.7420 N.am  1 <1>  -0.6600 
 12 C       -3.1700    -6.0590     0.9240 C.3   1 <1>   0.1400 
 13 C       -2.1490    -7.5470     2.6450 C.3   1 <1>   0.1400 
 14 C       -3.5260    -7.2770     0.0690 C.3   1 <1>  -0.1600 
 15 C       -2.5020    -8.7790     1.8110 C.3   1 <1>  -0.1600 
 16 C       -3.7330    -8.5400     0.9240 C.3   1 <1>   0.4240 
 17 O       -4.7930    -8.2890     1.8190 O.3   1 <1>  -0.5600 
 18 C       -4.0080    -9.7750     0.0390 C.ar  1 <1>  -0.1430 
 19 C       -6.0910    -8.4870     1.3530 C.3   1 <1>   0.1200 
 20 C       -5.2210   -10.4550     0.1070 C.ar  1 <1>  -0.1430 
 21 C       -3.0440   -10.2310    -0.8530 C.ar  1 <1>  -0.1500 
 22 C       -6.2910    -9.9710     1.0650 C.3   1 <1>  -0.0170 
 23 C       -5.4570   -11.5650    -0.6890 C.ar  1 <1>  -0.1500 
 24 C       -3.2790   -11.3360    -1.6510 C.ar  1 <1>  -0.1500 
 25 C       -4.4830   -12.0120    -1.5750 C.ar  1 <1>   0.0830 
 26 O       -4.6340   -13.0870    -2.3890 O.3   1 <1>  -0.3630 
 27 C       -5.8140   -13.8580    -2.3740 C.3   1 <1>   0.0400 
 28 H       -1.7890    -1.3070     0.9970 H     1 <1>   0.1500 
 29 H        0.8960    -5.1730    -0.4450 H     1 <1>   0.1500 
 30 H        2.1750    -2.2040    -1.6960 H     1 <1>   0.0800 
 31 H        0.9240    -2.6480    -2.8330 H     1 <1>   0.0800 
 32 H        1.9540    -3.8780    -2.1410 H     1 <1>   0.0800 
 33 H       -2.0270    -3.4930     2.1410 H     1 <1>   0.1500 
 34 H       -2.9900    -5.2170     0.2800 H     1 <1>   0.0800 
 35 H       -3.9890    -5.8160     1.5800 H     1 <1>   0.0800 
 36 H       -2.9430    -7.3350     3.3420 H     1 <1>   0.0800 
 37 H       -1.2530    -7.7350     3.2120 H     1 <1>   0.0800 
 38 H       -2.7230    -7.4430    -0.6250 H     1 <1>   0.0800 
 39 H       -4.4060    -7.0770    -0.5110 H     1 <1>   0.0800 
 40 H       -2.6900    -9.6170     2.4570 H     1 <1>   0.0800 
 41 H       -1.6480    -9.0240     1.2070 H     1 <1>   0.0800 
 42 H       -6.2450    -7.8960     0.4680 H     1 <1>   0.0800 
 43 H       -6.7700    -8.1580     2.1200 H     1 <1>   0.0800 
 44 H       -2.0960    -9.7290    -0.9380 H     1 <1>   0.1500 
 45 H       -7.2670   -10.1200     0.6390 H     1 <1>   0.0800 
 46 H       -6.2330   -10.5250     1.9840 H     1 <1>   0.0800 
 47 H       -6.3990   -12.0700    -0.6090 H     1 <1>   0.1500 
 48 H       -2.5280   -11.6820    -2.3370 H     1 <1>   0.1500 
 49 H       -5.7010   -14.6540    -3.0880 H     1 <1>   0.0800 
 50 H       -6.6430   -13.2310    -2.6530 H     1 <1>   0.0800 
 51 H       -5.9510   -14.2670    -1.3890 H     1 <1>   0.0800 
@<TRIPOS>BOND
  1   1   2  1   
  2   2   3  ar  
  3   2   4  ar  
  4   3   5  ar  
  5   3   6  1   
  6   4   7  ar  
  7   4  28  1   
  8   5   8  ar  
  9   5  29  1   
 10   6  30  1   
 11   6  31  1   
 12   6  32  1   
 13   7   8  ar  
 14   7  33  1   
 15   8   9  1   
 16   9  10  2   
 17   9  11  am  
 18  11  12  1   
 19  11  13  1   
 20  12  14  1   
 21  12  34  1   
 22  12  35  1   
 23  13  15  1   
 24  13  36  1   
 25  13  37  1   
 26  14  16  1   
 27  14  38  1   
 28  14  39  1   
 29  15  16  1   
 30  15  40  1   
 31  15  41  1   
 32  16  17  1   
 33  16  18  1   
 34  17  19  1   
 35  18  20  ar  
 36  18  21  ar  
 37  19  22  1   
 38  19  42  1   
 39  19  43  1   
 40  20  22  1   
 41  20  23  ar  
 42  21  24  ar  
 43  21  44  1   
 44  22  45  1   
 45  22  46  1   
 46  23  25  ar  
 47  23  47  1   
 48  24  25  ar  
 49  24  48  1   
 50  25  26  1   
 51  26  27  1   
 52  27  49  1   
 53  27  50  1   
 54  27  51  1   
@<TRIPOS>SUBSTRUCTURE
  1 ****  14 GROUP 4 **** **** 0

# MOE 2024.06 (io_trps.svl 2023.06)
