@<TRIPOS>MOLECULE
NONAME
47 48 1 0 0 
SMALL
USER_CHARGES


@<TRIPOS>ATOM
  1 O       -0.7120     2.1620    -2.2910 O.2   1 <1>  -0.5700 
  2 C       -0.5920     1.5050    -1.2840 C.2   1 <1>   0.5690 
  3 N        0.3460     1.7670    -0.3450 N.am  1 <1>  -0.7300 
  4 C       -1.4850     0.2810    -1.0530 C.3   1 <1>   0.1710 
  5 C        1.5890     2.4890    -0.6010 C.3   1 <1>   0.3640 
  6 N       -0.8260    -0.7970    -0.2510 N.3   1 <1>  -0.8100 
  7 C        2.7010     1.4390    -0.6940 C.ar  1 <1>  -0.1430 
  8 C        1.8080     3.5070     0.5150 C.3   1 <1>  -0.2400 
  9 C        0.2870    -1.4120    -0.9970 C.3   1 <1>   0.1100 
 10 C       -1.7940    -1.8010     0.1980 C.3   1 <1>   0.1100 
 11 C        3.3350     1.1450    -1.9010 C.ar  1 <1>  -0.1430 
 12 C        3.0660     0.7280     0.4450 C.ar  1 <1>  -0.1500 
 13 C        1.0550    -2.3480    -0.0670 C.3   1 <1>  -0.1600 
 14 C       -1.1050    -2.7650     1.1670 C.3   1 <1>  -0.1600 
 15 C        4.3160     0.1660    -1.9390 C.ar  1 <1>  -0.1500 
 16 C        2.9760     1.8560    -3.2000 C.3   1 <1>  -0.0970 
 17 C        4.0430    -0.2520     0.4030 C.ar  1 <1>  -0.1430 
 18 C        0.1300    -3.4200     0.5240 C.3   1 <1>   0.1200 
 19 C        4.6680    -0.5290    -0.7970 C.ar  1 <1>  -0.1500 
 20 C        4.4260    -1.0260     1.6520 C.3   1 <1>  -0.0970 
 21 C        0.8650    -4.2670     1.5120 C.1   1 <1>   0.3570 
 22 N        1.4270    -4.9140     2.2610 N.1   1 <1>  -0.5570 
 23 H        0.4340     1.0370     0.3660 H     1 <1>   0.3700 
 24 H       -1.7900    -0.1080    -2.0080 H     1 <1>   0.0800 
 25 H       -2.3630     0.6240    -0.5360 H     1 <1>   0.0800 
 26 H        1.4960     3.0330    -1.5240 H     1 <1>   0.0800 
 27 H        1.7930     3.0410     1.4820 H     1 <1>   0.0800 
 28 H        1.0390     4.2560     0.4740 H     1 <1>   0.0800 
 29 H        2.7600     3.9880     0.3780 H     1 <1>   0.0800 
 30 H        0.9640    -0.6560    -1.3600 H     1 <1>   0.0800 
 31 H       -0.0930    -1.9550    -1.8470 H     1 <1>   0.0800 
 32 H       -2.1900    -2.3370    -0.6490 H     1 <1>   0.0800 
 33 H       -2.6100    -1.3150     0.7070 H     1 <1>   0.0800 
 34 H        2.5800     0.9310     1.3810 H     1 <1>   0.1500 
 35 H        1.4910    -1.7620     0.7230 H     1 <1>   0.0800 
 36 H        1.8590    -2.8100    -0.6130 H     1 <1>   0.0800 
 37 H       -1.8030    -3.5240     1.4720 H     1 <1>   0.0800 
 38 H       -0.8110    -2.2160     2.0450 H     1 <1>   0.0800 
 39 H        4.8140    -0.0670    -2.8630 H     1 <1>   0.1500 
 40 H        1.9270     1.7360    -3.4100 H     1 <1>   0.0800 
 41 H        3.5290     1.4530    -4.0290 H     1 <1>   0.0800 
 42 H        3.2020     2.9040    -3.1220 H     1 <1>   0.0800 
 43 H       -0.2000    -4.0630    -0.2720 H     1 <1>   0.0800 
 44 H        5.4310    -1.2860    -0.8480 H     1 <1>   0.1500 
 45 H        3.9950    -0.5790     2.5300 H     1 <1>   0.0800 
 46 H        5.4950    -1.0350     1.7660 H     1 <1>   0.0800 
 47 H        4.0760    -2.0400     1.5760 H     1 <1>   0.0800 
@<TRIPOS>BOND
  1   1   2  2   
  2   2   3  am  
  3   2   4  1   
  4   3   5  1   
  5   3  23  1   
  6   4   6  1   
  7   4  24  1   
  8   4  25  1   
  9   5   7  1   
 10   5   8  1   
 11   5  26  1   
 12   6   9  1   
 13   6  10  1   
 14   7  11  ar  
 15   7  12  ar  
 16   8  27  1   
 17   8  28  1   
 18   8  29  1   
 19   9  13  1   
 20   9  30  1   
 21   9  31  1   
 22  10  14  1   
 23  10  32  1   
 24  10  33  1   
 25  11  15  ar  
 26  11  16  1   
 27  12  17  ar  
 28  12  34  1   
 29  13  18  1   
 30  13  35  1   
 31  13  36  1   
 32  14  18  1   
 33  14  37  1   
 34  14  38  1   
 35  15  19  ar  
 36  15  39  1   
 37  16  40  1   
 38  16  41  1   
 39  16  42  1   
 40  17  19  ar  
 41  17  20  1   
 42  18  21  1   
 43  18  43  1   
 44  19  44  1   
 45  20  45  1   
 46  20  46  1   
 47  20  47  1   
 48  21  22  3   
@<TRIPOS>SUBSTRUCTURE
  1 ****   9 GROUP 4 **** **** 0

# MOE 2024.06 (io_trps.svl 2023.06)
