@<TRIPOS>MOLECULE
NONAME
55 59 1 0 0 
SMALL
USER_CHARGES


@<TRIPOS>ATOM
  1 S       -1.2070     1.1550    -3.2900 S.3   1 <1>  -0.0800 
  2 C       -2.8570     0.8160    -3.7560 C.2   1 <1>   0.2280 
  3 C       -1.2200    -0.2780    -2.3020 C.2   1 <1>  -0.1100 
  4 N       -3.3460    -0.2290    -3.2140 N.2   1 <1>  -0.5650 
  5 C       -2.4270    -0.8600    -2.3930 C.2   1 <1>   0.0460 
  6 C       -2.8660    -2.1350    -1.6820 C.3   1 <1>   0.0210 
  7 C       -3.9960    -1.9980    -0.6170 C.3   1 <1>   0.0610 
  8 C       -3.9340    -3.2750     0.2210 C.2   1 <1>   0.5690 
  9 C       -3.8060    -0.7500     0.2820 C.3   1 <1>   0.4230 
 10 C       -5.3940    -1.6840    -1.2400 C.3   1 <1>  -0.1600 
 11 O       -3.1280    -3.3200     1.1170 O.2   1 <1>  -0.5700 
 12 N       -4.7330    -4.3310    -0.0600 N.am  1 <1>  -0.7300 
 13 N       -4.4130     0.2870    -0.5640 N.4   1 <1>  -0.9590 
 14 C       -4.7820    -0.7330     1.4800 C.3   1 <1>  -0.1600 
 15 C       -5.7460    -0.3030    -0.6660 C.3   1 <1>   0.4230 
 16 C       -4.8130    -5.5650     0.7410 C.3   1 <1>   0.3210 
 17 C       -4.3470     1.7140    -0.1430 C.3   1 <1>   0.5230 
 18 C       -6.1380    -0.4700     0.8070 C.3   1 <1>  -0.1600 
 19 C       -6.2820    -5.8710     0.9510 C.2   1 <1>  -0.1810 
 20 C       -4.6420     2.5970    -1.3470 C.2   1 <1>   0.0060 
 21 C       -6.9660    -6.8770     0.3740 C.2   1 <1>  -0.1100 
 22 C       -7.0860    -5.0640     1.8220 C.2   1 <1>  -0.1500 
 23 N       -5.6720     2.4290    -2.1180 N.2   1 <1>  -0.5650 
 24 N       -3.8440     3.6280    -1.7270 N.pl3 1 <1>   0.0480 
 25 S       -8.6450    -6.8640     0.8810 S.3   1 <1>  -0.0800 
 26 C       -8.3700    -5.4600     1.8970 C.2   1 <1>  -0.1100 
 27 C       -5.5480     3.3970    -3.0430 C.2   1 <1>   0.0770 
 28 C       -4.4380     4.1320    -2.8210 C.2   1 <1>  -0.3020 
 29 C       -2.5930     4.1320    -1.1240 C.3   1 <1>   0.0160 
 30 H       -3.3280     1.5010    -4.4420 H     1 <1>   0.1500 
 31 H       -0.3200    -0.5280    -1.7680 H     1 <1>   0.1500 
 32 H       -3.1660    -2.8510    -2.4270 H     1 <1>   0.0800 
 33 H       -1.9910    -2.5420    -1.2040 H     1 <1>   0.0800 
 34 H       -2.7770    -0.5670     0.5480 H     1 <1>   0.0800 
 35 H       -6.1580    -2.3940    -0.9780 H     1 <1>   0.0800 
 36 H       -5.3570    -1.6320    -2.3130 H     1 <1>   0.0800 
 37 H       -5.4090    -4.3080    -0.8260 H     1 <1>   0.3700 
 38 H       -4.0260     0.2510    -1.5270 H     1 <1>   0.4500 
 39 H       -4.7850    -1.6440     2.0510 H     1 <1>   0.0800 
 40 H       -4.5260     0.0670     2.1520 H     1 <1>   0.0800 
 41 H       -6.4450     0.2630    -1.2650 H     1 <1>   0.0800 
 42 H       -4.3370    -6.3700     0.2080 H     1 <1>   0.0800 
 43 H       -4.3190    -5.4410     1.6910 H     1 <1>   0.0800 
 44 H       -5.0600     1.9140     0.6370 H     1 <1>   0.0800 
 45 H       -3.3600     1.9350     0.2240 H     1 <1>   0.0800 
 46 H       -6.5970     0.4290     1.1810 H     1 <1>   0.0800 
 47 H       -6.8280    -1.2850     0.9450 H     1 <1>   0.0800 
 48 H       -6.6700    -7.6500    -0.3140 H     1 <1>   0.1500 
 49 H       -6.6620    -4.2300     2.3550 H     1 <1>   0.1500 
 50 H       -9.2110    -5.0810     2.4510 H     1 <1>   0.1500 
 51 H       -6.2730     3.5190    -3.8320 H     1 <1>   0.1500 
 52 H       -4.0580     4.9730    -3.3740 H     1 <1>   0.1500 
 53 H       -2.1980     4.9270    -1.7310 H     1 <1>   0.0800 
 54 H       -1.8700     3.3390    -1.0720 H     1 <1>   0.0800 
 55 H       -2.7950     4.5110    -0.1390 H     1 <1>   0.0800 
@<TRIPOS>BOND
  1   1   2  1   
  2   1   3  1   
  3   2   4  2   
  4   2  30  1   
  5   3   5  2   
  6   3  31  1   
  7   4   5  1   
  8   5   6  1   
  9   6   7  1   
 10   6  32  1   
 11   6  33  1   
 12   7   8  1   
 13   7   9  1   
 14   7  10  1   
 15   8  11  2   
 16   8  12  am  
 17   9  13  1   
 18   9  14  1   
 19   9  34  1   
 20  10  15  1   
 21  10  35  1   
 22  10  36  1   
 23  12  16  1   
 24  12  37  1   
 25  13  15  1   
 26  13  17  1   
 27  13  38  1   
 28  14  18  1   
 29  14  39  1   
 30  14  40  1   
 31  15  18  1   
 32  15  41  1   
 33  16  19  1   
 34  16  42  1   
 35  16  43  1   
 36  17  20  1   
 37  17  44  1   
 38  17  45  1   
 39  18  46  1   
 40  18  47  1   
 41  19  21  2   
 42  19  22  1   
 43  20  23  2   
 44  20  24  1   
 45  21  25  1   
 46  21  48  1   
 47  22  26  2   
 48  22  49  1   
 49  23  27  1   
 50  24  28  1   
 51  24  29  1   
 52  25  26  1   
 53  26  50  1   
 54  27  28  2   
 55  27  51  1   
 56  28  52  1   
 57  29  53  1   
 58  29  54  1   
 59  29  55  1   
@<TRIPOS>SUBSTRUCTURE
  1 ****   7 GROUP 4 **** **** 0

# MOE 2024.06 (io_trps.svl 2023.06)
