@<TRIPOS>MOLECULE
NONAME
38 39 1 0 0 
SMALL
USER_CHARGES


@<TRIPOS>ATOM
  1 O        0.0970    -0.2720    -0.9190 O.2   1 <1>  -0.5700 
  2 C        1.1130    -0.8860    -0.6590 C.2   1 <1>   0.5440 
  3 N        2.2380    -0.1850    -0.2940 N.am  1 <1>  -0.6600 
  4 C        1.1330    -2.3310    -0.7370 C.ar  1 <1>   0.0860 
  5 C        3.4350    -0.7800     0.3420 C.3   1 <1>   0.1400 
  6 C        2.2460     1.2890    -0.1670 C.3   1 <1>   0.1400 
  7 C        0.3310    -3.1330     0.0520 C.ar  1 <1>  -0.1500 
  8 C        1.9770    -3.0110    -1.6040 C.ar  1 <1>  -0.1500 
  9 C        4.0560     0.3630     1.1360 C.3   1 <1>  -0.1600 
 10 C        3.6210     1.6260     0.3990 C.3   1 <1>  -0.1600 
 11 C        0.4160    -4.5160    -0.0210 C.ar  1 <1>   0.4100 
 12 C        1.9880    -4.3910    -1.6160 C.ar  1 <1>   0.1600 
 13 N        1.2400    -5.1540    -0.8430 N.ar  1 <1>  -0.6200 
 14 N       -0.3610    -5.2760     0.8130 N.pl3 1 <1>  -0.8690 
 15 C       -1.0690    -6.5080     0.3130 C.3   1 <1>   0.1830 
 16 C       -2.6070    -6.3860     0.4980 C.2   1 <1>   0.9060 
 17 C       -0.4490    -7.7050     1.0570 C.3   1 <1>  -0.1600 
 18 O       -3.3800    -7.1120    -0.1460 O.co2 1 <1>  -0.9000 
 19 O       -3.0350    -5.5200     1.2840 O.co2 1 <1>  -0.9000 
 20 C       -0.8890    -9.0650     0.4970 C.3   1 <1>  -0.2400 
 21 H        4.1120    -1.1120    -0.4260 H     1 <1>   0.0800 
 22 H        3.1710    -1.6060     0.9810 H     1 <1>   0.0800 
 23 H        1.4680     1.5860     0.5170 H     1 <1>   0.0800 
 24 H        2.0790     1.7530    -1.1240 H     1 <1>   0.0800 
 25 H       -0.3660    -2.6890     0.7350 H     1 <1>   0.1500 
 26 H        2.6180    -2.4560    -2.2630 H     1 <1>   0.1500 
 27 H        5.1260     0.2720     1.2000 H     1 <1>   0.0800 
 28 H        3.6440     0.3600     2.1300 H     1 <1>   0.0800 
 29 H        3.5860     2.4870     1.0420 H     1 <1>   0.0800 
 30 H        4.2940     1.8250    -0.4170 H     1 <1>   0.0800 
 31 H        2.6480    -4.9000    -2.2970 H     1 <1>   0.1500 
 32 H       -1.1040    -4.7560     1.3100 H     1 <1>   0.4000 
 33 H       -0.8910    -6.6190    -0.7400 H     1 <1>   0.0800 
 34 H       -0.7190    -7.6410     2.0960 H     1 <1>   0.0800 
 35 H        0.6220    -7.6330     0.9780 H     1 <1>   0.0800 
 36 H       -1.9520    -9.1910     0.6130 H     1 <1>   0.0800 
 37 H       -0.3900    -9.8590     1.0200 H     1 <1>   0.0800 
 38 H       -0.6500    -9.1300    -0.5490 H     1 <1>   0.0800 
@<TRIPOS>BOND
  1   1   2  2   
  2   2   3  am  
  3   2   4  1   
  4   3   5  1   
  5   3   6  1   
  6   4   7  ar  
  7   4   8  ar  
  8   5   9  1   
  9   5  21  1   
 10   5  22  1   
 11   6  10  1   
 12   6  23  1   
 13   6  24  1   
 14   7  11  ar  
 15   7  25  1   
 16   8  12  ar  
 17   8  26  1   
 18   9  10  1   
 19   9  27  1   
 20   9  28  1   
 21  10  29  1   
 22  10  30  1   
 23  11  13  ar  
 24  11  14  1   
 25  12  13  ar  
 26  12  31  1   
 27  14  15  1   
 28  14  32  1   
 29  15  16  1   
 30  15  17  1   
 31  15  33  1   
 32  16  18  ar  
 33  16  19  ar  
 34  17  20  1   
 35  17  34  1   
 36  17  35  1   
 37  20  36  1   
 38  20  37  1   
 39  20  38  1   
@<TRIPOS>SUBSTRUCTURE
  1 ****   7 GROUP 4 **** **** 0

# MOE 2024.06 (io_trps.svl 2023.06)
