@<TRIPOS>MOLECULE
NONAME
50 52 1 0 0 
SMALL
USER_CHARGES


@<TRIPOS>ATOM
  1 S       -1.1460    -0.5680     0.4710 S.3   1 <1>  -0.0800 
  2 C       -0.9650    -1.6870    -0.8720 C.2   1 <1>  -0.1400 
  3 C       -0.8750     0.8140    -0.5760 C.2   1 <1>  -0.1400 
  4 C       -0.7130    -1.0140    -2.0110 C.2   1 <1>  -0.1500 
  5 C       -1.1080    -3.1640    -0.5860 C.3   1 <1>   0.5230 
  6 C       -0.6630     0.4050    -1.8410 C.2   1 <1>  -0.1500 
  7 C       -0.9170     2.1820     0.0850 C.3   1 <1>   0.0200 
  8 N       -2.5370    -3.4360    -0.2970 N.4   1 <1>  -0.9590 
  9 C       -0.6820     3.3160    -0.9160 C.3   1 <1>  -0.2400 
 10 C       -3.0220    -4.7030    -0.9940 C.3   1 <1>   0.3430 
 11 C       -2.7580    -3.4690     1.1900 C.3   1 <1>   0.3430 
 12 C       -3.4750    -5.8100     0.0190 C.3   1 <1>  -0.1060 
 13 C       -4.2070    -3.8290     1.4940 C.3   1 <1>  -0.1600 
 14 C       -3.8790    -6.8500     1.0600 C.2   1 <1>   0.9060 
 15 C       -4.6870    -4.8430     0.4590 C.3   1 <1>   0.2000 
 16 C       -2.3010    -6.7820    -0.4840 C.3   1 <1>  -0.0170 
 17 O       -4.7220    -7.7060     0.7690 O.co2 1 <1>  -0.9000 
 18 O       -3.3580    -6.7760     2.1770 O.co2 1 <1>  -0.9000 
 19 O       -5.8940    -5.3830     0.8920 O.3   1 <1>  -0.6800 
 20 C       -0.8680    -6.2680    -0.2990 C.ar  1 <1>  -0.1440 
 21 C       -0.3860    -5.9900     0.9710 C.ar  1 <1>  -0.1500 
 22 C       -0.0320    -6.0880    -1.3930 C.ar  1 <1>  -0.1500 
 23 C        0.8950    -5.4970     1.1440 C.ar  1 <1>  -0.1500 
 24 C        1.2500    -5.5940    -1.2220 C.ar  1 <1>  -0.1500 
 25 C        1.7120    -5.2910     0.0460 C.ar  1 <1>  -0.1500 
 26 H       -0.5530    -1.4460    -2.9840 H     1 <1>   0.1500 
 27 H       -0.4820    -3.4580     0.2410 H     1 <1>   0.0800 
 28 H       -0.7960    -3.7140    -1.4570 H     1 <1>   0.0800 
 29 H       -0.4690     1.0510    -2.6810 H     1 <1>   0.1500 
 30 H       -1.8770     2.3160     0.5530 H     1 <1>   0.0800 
 31 H       -0.1640     2.2240     0.8520 H     1 <1>   0.0800 
 32 H       -3.0500    -2.6280    -0.6700 H     1 <1>   0.4500 
 33 H       -1.4390     3.3030    -1.6810 H     1 <1>   0.0800 
 34 H        0.2840     3.2120    -1.3770 H     1 <1>   0.0800 
 35 H       -0.7210     4.2650    -0.4120 H     1 <1>   0.0800 
 36 H       -3.8430    -4.4590    -1.6490 H     1 <1>   0.0800 
 37 H       -2.2530    -5.0310    -1.6700 H     1 <1>   0.0800 
 38 H       -2.1280    -4.2300     1.6240 H     1 <1>   0.0800 
 39 H       -2.5080    -2.5240     1.6440 H     1 <1>   0.0800 
 40 H       -4.8270    -2.9520     1.4690 H     1 <1>   0.0800 
 41 H       -4.2540    -4.2560     2.4820 H     1 <1>   0.0800 
 42 H       -5.0570    -4.2520    -0.3650 H     1 <1>   0.0800 
 43 H       -2.2690    -7.7800    -0.0600 H     1 <1>   0.0800 
 44 H       -2.4690    -7.0030    -1.5260 H     1 <1>   0.0800 
 45 H       -5.7740    -6.3740     1.0080 H     1 <1>   0.4000 
 46 H       -1.0060    -6.1700     1.8360 H     1 <1>   0.1500 
 47 H       -0.3690    -6.3380    -2.3850 H     1 <1>   0.1500 
 48 H        1.2580    -5.2880     2.1360 H     1 <1>   0.1500 
 49 H        1.8950    -5.4570    -2.0740 H     1 <1>   0.1500 
 50 H        2.7110    -4.9130     0.1820 H     1 <1>   0.1500 
@<TRIPOS>BOND
  1   1   2  1   
  2   1   3  1   
  3   2   4  2   
  4   2   5  1   
  5   3   6  2   
  6   3   7  1   
  7   4   6  1   
  8   4  26  1   
  9   5   8  1   
 10   5  27  1   
 11   5  28  1   
 12   6  29  1   
 13   7   9  1   
 14   7  30  1   
 15   7  31  1   
 16   8  10  1   
 17   8  11  1   
 18   8  32  1   
 19   9  33  1   
 20   9  34  1   
 21   9  35  1   
 22  10  12  1   
 23  10  36  1   
 24  10  37  1   
 25  11  13  1   
 26  11  38  1   
 27  11  39  1   
 28  12  14  1   
 29  12  15  1   
 30  12  16  1   
 31  13  15  1   
 32  13  40  1   
 33  13  41  1   
 34  14  17  ar  
 35  14  18  ar  
 36  15  19  1   
 37  15  42  1   
 38  16  20  1   
 39  16  43  1   
 40  16  44  1   
 41  19  45  1   
 42  20  21  ar  
 43  20  22  ar  
 44  21  23  ar  
 45  21  46  1   
 46  22  24  ar  
 47  22  47  1   
 48  23  25  ar  
 49  23  48  1   
 50  24  25  ar  
 51  24  49  1   
 52  25  50  1   
@<TRIPOS>SUBSTRUCTURE
  1 ****   8 GROUP 4 **** **** 0

# MOE 2024.06 (io_trps.svl 2023.06)
