@<TRIPOS>MOLECULE
NONAME
40 42 1 0 0 
SMALL
USER_CHARGES


@<TRIPOS>ATOM
  1 O       -1.1150     0.5880     2.6990 O.2   1 <1>  -0.5700 
  2 C       -1.5320     1.0730     1.6660 C.2   1 <1>   0.6160 
  3 N       -2.1770     0.2590     0.7570 N.am  1 <1>  -0.6600 
  4 C       -1.3490     2.4870     1.4360 C.2   1 <1>  -0.0140 
  5 C       -2.2300    -1.2250     0.9970 C.3   1 <1>   0.1400 
  6 C       -2.8760     0.7800    -0.4540 C.3   1 <1>   0.1400 
  7 C       -0.4670     2.9510     0.3880 C.ar  1 <1>   0.0280 
  8 C       -2.0040     3.4090     2.1990 C.2   1 <1>  -0.1360 
  9 C       -3.3250    -1.9530     0.1950 C.3   1 <1>   0.2000 
 10 C       -4.3310     0.2900    -0.5250 C.3   1 <1>  -0.1600 
 11 C       -0.3680     4.3350     0.1520 C.ar  1 <1>   0.1170 
 12 C        0.3070     2.0980    -0.4080 C.ar  1 <1>  -0.1500 
 13 C       -1.8850     4.8020     1.9720 C.2   1 <1>   0.6160 
 14 O       -2.8690    -2.2250    -1.0870 O.3   1 <1>  -0.6800 
 15 C       -4.5990    -1.0950     0.1170 C.3   1 <1>  -0.0800 
 16 N       -1.0900     5.2120     0.9500 N.am  1 <1>  -0.5470 
 17 C        0.4500     4.8190    -0.8650 C.ar  1 <1>  -0.1500 
 18 C        1.1170     2.5880    -1.4100 C.ar  1 <1>  -0.1500 
 19 O       -2.4670     5.6420     2.6320 O.2   1 <1>  -0.5700 
 20 C       -5.7360    -1.8560    -0.5840 C.3   1 <1>   0.1200 
 21 C        1.1870     3.9540    -1.6440 C.ar  1 <1>  -0.1500 
 22 O       -6.8890    -1.0860    -0.5720 O.3   1 <1>  -0.6800 
 23 H       -1.2700    -1.6640     0.7880 H     1 <1>   0.0800 
 24 H       -2.4350    -1.3860     2.0420 H     1 <1>   0.0800 
 25 H       -2.8720     1.8550    -0.4760 H     1 <1>   0.0800 
 26 H       -2.3380     0.4430    -1.3240 H     1 <1>   0.0800 
 27 H       -2.6470     3.1170     3.0070 H     1 <1>   0.1500 
 28 H       -3.5350    -2.9010     0.6590 H     1 <1>   0.0800 
 29 H       -4.9650     1.0160    -0.0480 H     1 <1>   0.0800 
 30 H       -4.6190     0.2710    -1.5620 H     1 <1>   0.0800 
 31 H        0.2800     1.0350    -0.2410 H     1 <1>   0.1500 
 32 H       -2.6260    -1.3910    -1.5280 H     1 <1>   0.4000 
 33 H       -4.9020    -0.9290     1.1360 H     1 <1>   0.0800 
 34 H       -1.0260     6.2220     0.8270 H     1 <1>   0.3700 
 35 H        0.5090     5.8780    -1.0400 H     1 <1>   0.1500 
 36 H        1.7030     1.9150    -2.0130 H     1 <1>   0.1500 
 37 H       -5.9470    -2.7870    -0.0860 H     1 <1>   0.0800 
 38 H       -5.4860    -2.0590    -1.6120 H     1 <1>   0.0800 
 39 H        1.8210     4.3300    -2.4290 H     1 <1>   0.1500 
 40 H       -7.1750    -0.9050     0.3440 H     1 <1>   0.4000 
@<TRIPOS>BOND
  1   1   2  2   
  2   2   3  am  
  3   2   4  1   
  4   3   5  1   
  5   3   6  1   
  6   4   7  1   
  7   4   8  2   
  8   5   9  1   
  9   5  23  1   
 10   5  24  1   
 11   6  10  1   
 12   6  25  1   
 13   6  26  1   
 14   7  11  ar  
 15   7  12  ar  
 16   8  13  1   
 17   8  27  1   
 18   9  14  1   
 19   9  15  1   
 20   9  28  1   
 21  10  15  1   
 22  10  29  1   
 23  10  30  1   
 24  11  16  1   
 25  11  17  ar  
 26  12  18  ar  
 27  12  31  1   
 28  13  16  am  
 29  13  19  2   
 30  14  32  1   
 31  15  20  1   
 32  15  33  1   
 33  16  34  1   
 34  17  21  ar  
 35  17  35  1   
 36  18  21  ar  
 37  18  36  1   
 38  20  22  1   
 39  20  37  1   
 40  20  38  1   
 41  21  39  1   
 42  22  40  1   
@<TRIPOS>SUBSTRUCTURE
  1 ****   3 GROUP 4 **** **** 0

# MOE 2024.06 (io_trps.svl 2023.06)
