@<TRIPOS>MOLECULE
Untitled Document
53 56 1 0 0 
SMALL
USER_CHARGES


@<TRIPOS>ATOM
  1 O        0.3880    -1.5670    -0.7700 O.2   1 <1>  -0.5700 
  2 C       -0.0450    -2.4770    -0.0910 C.2   1 <1>   0.5440 
  3 N        0.8160    -3.0320     0.8260 N.am  1 <1>  -0.6600 
  4 C       -1.3950    -2.9800    -0.2850 C.ar  1 <1>   0.0860 
  5 C        1.3070    -4.4190     0.5860 C.3   1 <1>   0.1400 
  6 C        1.8330    -2.1460     1.4670 C.3   1 <1>   0.1400 
  7 C       -2.0750    -3.6780     0.7140 C.ar  1 <1>  -0.1500 
  8 C       -2.0710    -2.7750    -1.4880 C.ar  1 <1>  -0.1500 
  9 C        2.6020    -4.3820    -0.2550 C.3   1 <1>   0.3430 
 10 C        3.1110    -2.1020     0.6090 C.3   1 <1>   0.3430 
 11 C       -3.3650    -4.1410     0.5270 C.ar  1 <1>  -0.1500 
 12 C       -3.3600    -3.2350    -1.6850 C.ar  1 <1>  -0.1500 
 13 N        3.6500    -3.4830     0.3450 N.4   1 <1>  -0.8520 
 14 C       -4.0220    -3.9130    -0.6730 C.ar  1 <1>  -0.1430 
 15 C        4.8290    -3.4110    -0.5280 C.3   1 <1>   0.2960 
 16 C       -5.4520    -4.3820    -0.8750 C.3   1 <1>   0.4860 
 17 C        5.8410    -4.5000    -0.4270 C.3   1 <1>  -0.2000 
 18 C        6.1490    -3.1300     0.1040 C.3   1 <1>  -0.2000 
 19 N       -6.3580    -3.4640    -0.1330 N.4   1 <1>  -0.9590 
 20 C       -7.7820    -3.9440    -0.1530 C.3   1 <1>   0.3430 
 21 C       -6.2650    -2.0490    -0.6440 C.3   1 <1>   0.3430 
 22 C       -8.7290    -2.9320     0.5220 C.3   1 <1>   0.1200 
 23 C       -7.2820    -1.1280     0.0550 C.3   1 <1>   0.1200 
 24 O       -8.5690    -1.6660    -0.0490 O.3   1 <1>  -0.5600 
 25 H        0.5590    -4.9870     0.0590 H     1 <1>   0.0800 
 26 H        1.4890    -4.9060     1.5280 H     1 <1>   0.0800 
 27 H        2.0570    -2.5030     2.4570 H     1 <1>   0.0800 
 28 H        1.4350    -1.1490     1.5590 H     1 <1>   0.0800 
 29 H       -1.5860    -3.8530     1.6580 H     1 <1>   0.1500 
 30 H       -1.5730    -2.2400    -2.2800 H     1 <1>   0.1500 
 31 H        2.3530    -4.0270    -1.2420 H     1 <1>   0.0800 
 32 H        2.9930    -5.3810    -0.3540 H     1 <1>   0.0800 
 33 H        3.8560    -1.5040     1.1060 H     1 <1>   0.0800 
 34 H        2.8700    -1.6220    -0.3270 H     1 <1>   0.0800 
 35 H       -3.8450    -4.6770     1.3290 H     1 <1>   0.1500 
 36 H       -3.8350    -3.0520    -2.6350 H     1 <1>   0.1500 
 37 H        3.9490    -3.8860     1.2400 H     1 <1>   0.4500 
 38 H        4.6260    -2.9870    -1.5010 H     1 <1>   0.1000 
 39 H       -5.5540    -5.3890    -0.5030 H     1 <1>   0.0800 
 40 H       -5.6950    -4.3790    -1.9250 H     1 <1>   0.0800 
 41 H        6.3600    -4.8170    -1.3150 H     1 <1>   0.1000 
 42 H        5.7110    -5.3020     0.2790 H     1 <1>   0.1000 
 43 H        6.2260    -3.0000     1.1690 H     1 <1>   0.1000 
 44 H        6.8700    -2.5380    -0.4340 H     1 <1>   0.1000 
 45 H       -6.0360    -3.4460     0.8410 H     1 <1>   0.4500 
 46 H       -7.8620    -4.8940     0.3500 H     1 <1>   0.0800 
 47 H       -8.1080    -4.0790    -1.1720 H     1 <1>   0.0800 
 48 H       -6.4630    -2.0280    -1.7030 H     1 <1>   0.0800 
 49 H       -5.2710    -1.6620    -0.4860 H     1 <1>   0.0800 
 50 H       -8.5410    -2.8630     1.5790 H     1 <1>   0.0800 
 51 H       -9.7540    -3.2280     0.3760 H     1 <1>   0.0800 
 52 H       -7.2920    -0.1610    -0.4170 H     1 <1>   0.0800 
 53 H       -7.0410    -0.9980     1.0960 H     1 <1>   0.0800 
@<TRIPOS>BOND
  1   1   2  2   
  2   2   3  am  
  3   2   4  1   
  4   3   5  1   
  5   3   6  1   
  6   4   7  ar  
  7   4   8  ar  
  8   5   9  1   
  9   5  25  1   
 10   5  26  1   
 11   6  10  1   
 12   6  27  1   
 13   6  28  1   
 14   7  11  ar  
 15   7  29  1   
 16   8  12  ar  
 17   8  30  1   
 18   9  13  1   
 19   9  31  1   
 20   9  32  1   
 21  10  13  1   
 22  10  33  1   
 23  10  34  1   
 24  11  14  ar  
 25  11  35  1   
 26  12  14  ar  
 27  12  36  1   
 28  13  15  1   
 29  13  37  1   
 30  14  16  1   
 31  15  17  1   
 32  15  18  1   
 33  15  38  1   
 34  16  19  1   
 35  16  39  1   
 36  16  40  1   
 37  17  18  1   
 38  17  41  1   
 39  17  42  1   
 40  18  43  1   
 41  18  44  1   
 42  19  20  1   
 43  19  21  1   
 44  19  45  1   
 45  20  22  1   
 46  20  46  1   
 47  20  47  1   
 48  21  23  1   
 49  21  48  1   
 50  21  49  1   
 51  22  24  1   
 52  22  50  1   
 53  22  51  1   
 54  23  24  1   
 55  23  52  1   
 56  23  53  1   
@<TRIPOS>SUBSTRUCTURE
  1 ****   4 GROUP 4 **** **** 0

# MOE 2024.06 (io_trps.svl 2023.06)
