@<TRIPOS>MOLECULE
NONAME
54 56 1 0 0 
SMALL
USER_CHARGES


@<TRIPOS>ATOM
  1 O       -1.0890     1.0440    -2.3100 O.2   1 <1>  -0.5700 
  2 C       -2.0280     1.1930    -1.5570 C.2   1 <1>   0.5690 
  3 N       -3.1390     0.3850    -1.6400 N.am  1 <1>  -0.6600 
  4 C       -1.9450     2.3160    -0.4950 C.3   1 <1>   0.2610 
  5 C       -4.4190     0.6120    -0.9150 C.3   1 <1>   0.1400 
  6 C       -3.1490    -0.8560    -2.4610 C.3   1 <1>   0.1400 
  7 O       -2.6280     3.4580    -0.9220 O.3   1 <1>  -0.6800 
  8 C       -0.5020     2.7220    -0.1310 C.3   1 <1>  -0.1600 
  9 C       -4.6480    -0.5500     0.0530 C.3   1 <1>  -0.1600 
 10 C       -3.3680    -2.0570    -1.5370 C.3   1 <1>  -0.1600 
 11 C       -0.3780     3.7860     0.9790 C.3   1 <1>  -0.0800 
 12 C       -4.6380    -1.9110    -0.6760 C.3   1 <1>   0.4240 
 13 C        1.0960     4.1610     1.1710 C.3   1 <1>  -0.2400 
 14 C       -0.9590     3.2990     2.3140 C.3   1 <1>  -0.2400 
 15 O       -5.6790    -1.8650    -1.6290 O.3   1 <1>  -0.5600 
 16 C       -4.8050    -3.1100     0.3020 C.ar  1 <1>  -0.1430 
 17 C       -6.9640    -2.1860    -1.2080 C.3   1 <1>   0.1200 
 18 C       -3.8650    -3.3950     1.3010 C.ar  1 <1>   0.0830 
 19 C       -5.9230    -3.9380     0.1980 C.ar  1 <1>  -0.1430 
 20 C       -6.9860    -3.6620    -0.8450 C.3   1 <1>  -0.0170 
 21 O       -2.7780    -2.5880     1.4350 O.3   1 <1>  -0.3620 
 22 C       -4.0480    -4.4880     2.1460 C.ar  1 <1>  -0.1500 
 23 C       -6.0930    -5.0230     1.0420 C.ar  1 <1>  -0.1500 
 24 C       -1.7030    -2.8920     2.2950 C.3   1 <1>   0.0400 
 25 C       -5.1560    -5.2990     2.0150 C.ar  1 <1>  -0.1500 
 26 H       -2.4340     1.9650     0.3940 H     1 <1>   0.0800 
 27 H       -5.2220     0.6560    -1.6320 H     1 <1>   0.0800 
 28 H       -4.4120     1.5450    -0.3810 H     1 <1>   0.0800 
 29 H       -2.2200    -0.9720    -2.9910 H     1 <1>   0.0800 
 30 H       -3.9430    -0.7950    -3.1870 H     1 <1>   0.0800 
 31 H       -2.2550     3.7410    -1.7800 H     1 <1>   0.4000 
 32 H       -0.0140     3.0780    -1.0220 H     1 <1>   0.0800 
 33 H        0.0240     1.8360     0.1770 H     1 <1>   0.0800 
 34 H       -5.5760    -0.4190     0.5740 H     1 <1>   0.0800 
 35 H       -3.8710    -0.5160     0.7900 H     1 <1>   0.0800 
 36 H       -2.4960    -2.1520    -0.9210 H     1 <1>   0.0800 
 37 H       -3.4430    -2.9560    -2.1190 H     1 <1>   0.0800 
 38 H       -0.9100     4.6740     0.6780 H     1 <1>   0.0800 
 39 H        1.6690     3.3050     1.4820 H     1 <1>   0.0800 
 40 H        1.1930     4.9280     1.9180 H     1 <1>   0.0800 
 41 H        1.5100     4.5350     0.2510 H     1 <1>   0.0800 
 42 H       -0.4960     2.3760     2.6170 H     1 <1>   0.0800 
 43 H       -2.0200     3.1490     2.2350 H     1 <1>   0.0800 
 44 H       -0.7900     4.0340     3.0810 H     1 <1>   0.0800 
 45 H       -7.6380    -1.9860    -2.0210 H     1 <1>   0.0800 
 46 H       -7.2300    -1.5720    -0.3650 H     1 <1>   0.0800 
 47 H       -6.7960    -4.2510    -1.7240 H     1 <1>   0.0800 
 48 H       -7.9580    -3.9180    -0.4660 H     1 <1>   0.0800 
 49 H       -3.3430    -4.7250     2.9180 H     1 <1>   0.1500 
 50 H       -6.9560    -5.6580     0.9450 H     1 <1>   0.1500 
 51 H       -0.9440    -2.1430     2.1570 H     1 <1>   0.0800 
 52 H       -1.3110    -3.8600     2.0360 H     1 <1>   0.0800 
 53 H       -2.0520    -2.8740     3.3120 H     1 <1>   0.0800 
 54 H       -5.2910    -6.1430     2.6700 H     1 <1>   0.1500 
@<TRIPOS>BOND
  1   1   2  2   
  2   2   3  am  
  3   2   4  1   
  4   3   5  1   
  5   3   6  1   
  6   4   7  1   
  7   4   8  1   
  8   4  26  1   
  9   5   9  1   
 10   5  27  1   
 11   5  28  1   
 12   6  10  1   
 13   6  29  1   
 14   6  30  1   
 15   7  31  1   
 16   8  11  1   
 17   8  32  1   
 18   8  33  1   
 19   9  12  1   
 20   9  34  1   
 21   9  35  1   
 22  10  12  1   
 23  10  36  1   
 24  10  37  1   
 25  11  13  1   
 26  11  14  1   
 27  11  38  1   
 28  12  15  1   
 29  12  16  1   
 30  13  39  1   
 31  13  40  1   
 32  13  41  1   
 33  14  42  1   
 34  14  43  1   
 35  14  44  1   
 36  15  17  1   
 37  16  18  ar  
 38  16  19  ar  
 39  17  20  1   
 40  17  45  1   
 41  17  46  1   
 42  18  21  1   
 43  18  22  ar  
 44  19  20  1   
 45  19  23  ar  
 46  20  47  1   
 47  20  48  1   
 48  21  24  1   
 49  22  25  ar  
 50  22  49  1   
 51  23  25  ar  
 52  23  50  1   
 53  24  51  1   
 54  24  52  1   
 55  24  53  1   
 56  25  54  1   
@<TRIPOS>SUBSTRUCTURE
  1 ****   9 GROUP 4 **** **** 0

# MOE 2024.06 (io_trps.svl 2023.06)
