@<TRIPOS>MOLECULE
NONAME
51 54 1 0 0 
SMALL
USER_CHARGES


@<TRIPOS>ATOM
  1 N        0.7010     0.3220    -0.1460 N.ar  1 <1>  -0.6200 
  2 C       -0.4510     0.6360    -0.7420 C.ar  1 <1>   0.7200 
  3 C        1.2060     1.2680     0.6110 C.ar  1 <1>   0.1660 
  4 N       -1.1090     1.7910    -0.6400 N.ar  1 <1>  -0.6200 
  5 N       -0.9950    -0.3370    -1.5450 N.pl3 1 <1>  -0.8380 
  6 C        0.6110     2.4800     0.7860 C.ar  1 <1>  -0.1440 
  7 C        2.5220     1.1780     1.3680 C.3   1 <1>   0.1430 
  8 C       -0.5740     2.7080     0.1310 C.ar  1 <1>   0.1600 
  9 C       -1.9090     0.0360    -2.6610 C.3   1 <1>   0.1290 
 10 C       -1.1790    -1.7210    -1.0340 C.3   1 <1>   0.1290 
 11 C        1.4140     3.3740     1.6960 C.3   1 <1>  -0.0160 
 12 C        3.6150     0.6320     0.4280 C.3   1 <1>   0.3430 
 13 C        2.4040     0.2760     2.6180 C.3   1 <1>  -0.1600 
 14 C        2.7740     2.6540     1.7710 C.3   1 <1>  -0.1600 
 15 N        3.3250    -0.7910     0.0610 N.4   1 <1>  -0.9590 
 16 C        2.2760    -1.2180     2.2570 C.3   1 <1>  -0.1600 
 17 C        3.3350    -1.6850     1.2520 C.3   1 <1>   0.3430 
 18 C        4.1330    -1.3010    -1.0910 C.3   1 <1>   0.3430 
 19 C        5.6250    -1.4700    -0.7640 C.3   1 <1>   0.0000 
 20 C        6.4720    -0.1690    -0.7180 C.3   1 <1>   0.0000 
 21 C        6.4730    -1.8800    -1.9970 C.3   1 <1>   0.0000 
 22 C        7.5910    -0.9650    -1.4360 C.3   1 <1>   0.0000 
 23 H       -1.0860     3.6500     0.2370 H     1 <1>   0.1500 
 24 H       -1.6050     0.9760    -3.0910 H     1 <1>   0.0800 
 25 H       -2.9150     0.1350    -2.2900 H     1 <1>   0.0800 
 26 H       -1.8830    -0.7170    -3.4280 H     1 <1>   0.0800 
 27 H       -0.7040    -1.8410    -0.0760 H     1 <1>   0.0800 
 28 H       -0.7510    -2.4230    -1.7280 H     1 <1>   0.0800 
 29 H       -2.2280    -1.9320    -0.9200 H     1 <1>   0.0800 
 30 H        0.9480     3.4140     2.6660 H     1 <1>   0.0800 
 31 H        1.5110     4.3690     1.2970 H     1 <1>   0.0800 
 32 H        4.5730     0.6960     0.9160 H     1 <1>   0.0800 
 33 H        3.6400     1.2380    -0.4620 H     1 <1>   0.0800 
 34 H        1.5520     0.5760     3.2050 H     1 <1>   0.0800 
 35 H        3.2810     0.4040     3.2290 H     1 <1>   0.0800 
 36 H        3.4330     3.1170     1.0560 H     1 <1>   0.0800 
 37 H        3.2150     2.7520     2.7480 H     1 <1>   0.0800 
 38 H        2.3280    -0.7500    -0.2530 H     1 <1>   0.4500 
 39 H        1.2990    -1.4110     1.8500 H     1 <1>   0.0800 
 40 H        2.3620    -1.8070     3.1530 H     1 <1>   0.0800 
 41 H        4.3090    -1.6630     1.7150 H     1 <1>   0.0800 
 42 H        3.1230    -2.7000     0.9550 H     1 <1>   0.0800 
 43 H        4.0290    -0.6280    -1.9260 H     1 <1>   0.0800 
 44 H        3.7410    -2.2580    -1.3970 H     1 <1>   0.0800 
 45 H        5.8190    -2.1260     0.0680 H     1 <1>   0.0000 
 46 H        6.7340     0.1460     0.2770 H     1 <1>   0.0000 
 47 H        6.0710     0.6210    -1.3310 H     1 <1>   0.0000 
 48 H        6.0730    -1.5170    -2.9290 H     1 <1>   0.0000 
 49 H        6.7350    -2.9230    -2.0180 H     1 <1>   0.0000 
 50 H        8.2430    -1.4770    -0.7490 H     1 <1>   0.0000 
 51 H        8.1130    -0.4010    -2.1890 H     1 <1>   0.0000 
@<TRIPOS>BOND
  1   1   2  ar  
  2   1   3  ar  
  3   2   4  ar  
  4   2   5  1   
  5   3   6  ar  
  6   3   7  1   
  7   4   8  ar  
  8   5   9  1   
  9   5  10  1   
 10   6   8  ar  
 11   6  11  1   
 12   7  12  1   
 13   7  13  1   
 14   7  14  1   
 15   8  23  1   
 16   9  24  1   
 17   9  25  1   
 18   9  26  1   
 19  10  27  1   
 20  10  28  1   
 21  10  29  1   
 22  11  14  1   
 23  11  30  1   
 24  11  31  1   
 25  12  15  1   
 26  12  32  1   
 27  12  33  1   
 28  13  16  1   
 29  13  34  1   
 30  13  35  1   
 31  14  36  1   
 32  14  37  1   
 33  15  17  1   
 34  15  18  1   
 35  15  38  1   
 36  16  17  1   
 37  16  39  1   
 38  16  40  1   
 39  17  41  1   
 40  17  42  1   
 41  18  19  1   
 42  18  43  1   
 43  18  44  1   
 44  19  20  1   
 45  19  21  1   
 46  19  45  1   
 47  20  22  1   
 48  20  46  1   
 49  20  47  1   
 50  21  22  1   
 51  21  48  1   
 52  21  49  1   
 53  22  50  1   
 54  22  51  1   
@<TRIPOS>SUBSTRUCTURE
  1 ****   1 GROUP 4 **** **** 0

# MOE 2024.06 (io_trps.svl 2023.06)
