@<TRIPOS>MOLECULE
NONAME
54 57 1 0 0 
SMALL
USER_CHARGES


@<TRIPOS>ATOM
  1 O        1.0470    -1.1750     0.0270 O.3   1 <1>  -0.5600 
  2 C        0.3900    -2.2070     0.7310 C.3   1 <1>   0.4180 
  3 C        1.0690     0.0980     0.6190 C.3   1 <1>   0.1200 
  4 C       -0.8970    -1.6930     1.3620 C.2   1 <1>  -0.2880 
  5 C        1.3470    -2.7880     1.7790 C.3   1 <1>  -0.1600 
  6 C        0.0720    -3.2890    -0.3090 C.3   1 <1>  -0.1600 
  7 C       -0.3550     0.6480     0.7700 C.3   1 <1>  -0.0220 
  8 C       -1.2600    -0.4090     1.3770 C.2   1 <1>  -0.2760 
  9 C        2.6160    -3.3960     1.1690 C.3   1 <1>   0.3430 
 10 C        1.3070    -4.0420    -0.8200 C.3   1 <1>   0.3430 
 11 C       -2.5600     0.1110     1.9670 C.3   1 <1>  -0.1020 
 12 N        2.5450    -3.3990    -0.3210 N.4   1 <1>  -0.9590 
 13 C        3.7890    -3.8970    -0.9590 C.3   1 <1>   0.4860 
 14 C        4.9220    -2.9410    -0.6110 C.ar  1 <1>  -0.1430 
 15 C        5.9780    -3.3020     0.2350 C.ar  1 <1>  -0.0230 
 16 C        4.8830    -1.6660    -1.1550 C.ar  1 <1>  -0.1500 
 17 N        6.0840    -4.5990     0.8240 N.pl3 1 <1>   0.5930 
 18 C        6.9610    -2.3550     0.5150 C.ar  1 <1>  -0.1500 
 19 C        5.8630    -0.7340    -0.8680 C.ar  1 <1>   0.0820 
 20 N        5.0390    -5.2400     1.4150 N.2   1 <1>  -0.7070 
 21 C        7.1920    -5.3720     0.8930 C.2   1 <1>  -0.3020 
 22 C        6.9100    -1.0840    -0.0260 C.ar  1 <1>  -0.1500 
 23 O        5.7250     0.4860    -1.4420 O.3   1 <1>  -0.3620 
 24 C        5.5210    -6.3680     1.8420 C.2   1 <1>   0.1390 
 25 C        6.8680    -6.5100     1.5400 C.2   1 <1>  -0.1500 
 26 C        6.6930     1.4960    -1.2600 C.3   1 <1>   0.0400 
 27 H        1.6530     0.7480    -0.0090 H     1 <1>   0.0800 
 28 H        1.5450     0.0250     1.5800 H     1 <1>   0.0800 
 29 H       -1.5000    -2.4720     1.7950 H     1 <1>   0.1500 
 30 H        0.8360    -3.5620     2.3220 H     1 <1>   0.0800 
 31 H        1.6120    -2.0390     2.5020 H     1 <1>   0.0800 
 32 H       -0.4490    -2.8370    -1.1340 H     1 <1>   0.0800 
 33 H       -0.6000    -4.0100     0.1210 H     1 <1>   0.0800 
 34 H       -0.7360     0.9490    -0.1900 H     1 <1>   0.0800 
 35 H       -0.3200     1.5170     1.4030 H     1 <1>   0.0800 
 36 H        2.7480    -4.4020     1.5340 H     1 <1>   0.0800 
 37 H        3.4700    -2.8170     1.4850 H     1 <1>   0.0800 
 38 H        1.2990    -4.0410    -1.8980 H     1 <1>   0.0800 
 39 H        1.2720    -5.0660    -0.4820 H     1 <1>   0.0800 
 40 H       -3.1360     0.6120     1.2090 H     1 <1>   0.0800 
 41 H       -2.3570     0.8040     2.7640 H     1 <1>   0.0800 
 42 H       -3.1480    -0.6980     2.3610 H     1 <1>   0.0800 
 43 H        2.4450    -2.3940    -0.5650 H     1 <1>   0.4500 
 44 H        3.6670    -3.9150    -2.0300 H     1 <1>   0.0800 
 45 H        4.0030    -4.8990    -0.6290 H     1 <1>   0.0800 
 46 H        4.0880    -1.3630    -1.8160 H     1 <1>   0.1500 
 47 H        7.7790    -2.6070     1.1700 H     1 <1>   0.1500 
 48 H        8.1360    -5.0670     0.4800 H     1 <1>   0.1500 
 49 H        7.6880    -0.3840     0.2180 H     1 <1>   0.1500 
 50 H        4.9410    -7.1090     2.3690 H     1 <1>   0.1500 
 51 H        7.4890    -7.3550     1.7850 H     1 <1>   0.1500 
 52 H        6.3850     2.3600    -1.8200 H     1 <1>   0.0800 
 53 H        7.6410     1.1430    -1.6270 H     1 <1>   0.0800 
 54 H        6.7510     1.7420    -0.2140 H     1 <1>   0.0800 
@<TRIPOS>BOND
  1   1   2  1   
  2   1   3  1   
  3   2   4  1   
  4   2   5  1   
  5   2   6  1   
  6   3   7  1   
  7   3  27  1   
  8   3  28  1   
  9   4   8  2   
 10   4  29  1   
 11   5   9  1   
 12   5  30  1   
 13   5  31  1   
 14   6  10  1   
 15   6  32  1   
 16   6  33  1   
 17   7   8  1   
 18   7  34  1   
 19   7  35  1   
 20   8  11  1   
 21   9  12  1   
 22   9  36  1   
 23   9  37  1   
 24  10  12  1   
 25  10  38  1   
 26  10  39  1   
 27  11  40  1   
 28  11  41  1   
 29  11  42  1   
 30  12  13  1   
 31  12  43  1   
 32  13  14  1   
 33  13  44  1   
 34  13  45  1   
 35  14  15  ar  
 36  14  16  ar  
 37  15  17  1   
 38  15  18  ar  
 39  16  19  ar  
 40  16  46  1   
 41  17  20  1   
 42  17  21  1   
 43  18  22  ar  
 44  18  47  1   
 45  19  22  ar  
 46  19  23  1   
 47  20  24  2   
 48  21  25  2   
 49  21  48  1   
 50  22  49  1   
 51  23  26  1   
 52  24  25  1   
 53  24  50  1   
 54  25  51  1   
 55  26  52  1   
 56  26  53  1   
 57  26  54  1   
@<TRIPOS>SUBSTRUCTURE
  1 ****  12 GROUP 4 **** **** 0

# MOE 2024.06 (io_trps.svl 2023.06)
