@<TRIPOS>MOLECULE
NONAME
51 54 1 0 0 
SMALL
USER_CHARGES


@<TRIPOS>ATOM
  1 O       -0.5100    -0.6170     1.6060 O.2   1 <1>  -0.5700 
  2 C       -0.2200     0.5390     1.4000 C.2   1 <1>   0.5690 
  3 N       -1.1730     1.4590     1.0240 N.am  1 <1>  -0.6600 
  4 C        1.2350     0.9220     1.6120 C.3   1 <1>   0.1570 
  5 C       -0.8810     2.9070     0.7760 C.3   1 <1>   0.1400 
  6 C       -2.5730     1.0090     0.7570 C.3   1 <1>   0.1400 
  7 N        1.8620     1.4120     0.3670 N.pl3 1 <1>   0.0480 
  8 C       -2.1370     3.7360     1.0390 C.3   1 <1>  -0.1600 
  9 C       -3.2130     1.8760    -0.3290 C.3   1 <1>  -0.1600 
 10 C        2.5170     2.6130     0.1970 C.ar  1 <1>  -0.1520 
 11 C        1.8750     0.7580    -0.8340 C.2   1 <1>  -0.3020 
 12 C       -3.2790     3.3730     0.0680 C.3   1 <1>   0.2800 
 13 C        2.9300     2.7000    -1.1290 C.ar  1 <1>   0.0000 
 14 C        2.7950     3.6520     1.0930 C.ar  1 <1>  -0.1500 
 15 C        2.5120     1.5110    -1.7600 C.2   1 <1>  -0.1500 
 16 O       -3.0450     4.1390    -1.0840 O.3   1 <1>  -0.5600 
 17 C       -4.6440     3.7750     0.6910 C.3   1 <1>  -0.1600 
 18 C        3.6200     3.8310    -1.5740 C.ar  1 <1>  -0.1500 
 19 C        3.4740     4.7610     0.6430 C.ar  1 <1>  -0.1500 
 20 C       -3.9540     4.0380    -2.1510 C.3   1 <1>   0.1200 
 21 C       -5.5330     4.6070    -0.2400 C.3   1 <1>   0.2800 
 22 C        3.8870     4.8510    -0.6910 C.ar  1 <1>  -0.1500 
 23 C       -5.4140     4.0870    -1.6710 C.3   1 <1>  -0.1600 
 24 O       -5.0480     5.8880    -0.2310 O.3   1 <1>  -0.6800 
 25 C       -6.9790     4.6780     0.2410 C.3   1 <1>  -0.2400 
 26 H        1.7800     0.0590     1.9440 H     1 <1>   0.0800 
 27 H        1.2950     1.6730     2.3720 H     1 <1>   0.0800 
 28 H       -0.5610     3.0400    -0.2450 H     1 <1>   0.0800 
 29 H       -0.0950     3.2480     1.4250 H     1 <1>   0.0800 
 30 H       -3.1430     1.0720     1.6680 H     1 <1>   0.0800 
 31 H       -2.5720    -0.0190     0.4340 H     1 <1>   0.0800 
 32 H       -1.9120     4.7840     0.9560 H     1 <1>   0.0800 
 33 H       -2.4340     3.5500     2.0550 H     1 <1>   0.0800 
 34 H       -4.1930     1.4970    -0.5500 H     1 <1>   0.0800 
 35 H       -2.6120     1.7570    -1.2130 H     1 <1>   0.0800 
 36 H        1.4220    -0.2110    -0.9580 H     1 <1>   0.1500 
 37 H        2.4850     3.5870     2.1190 H     1 <1>   0.1500 
 38 H        2.6900     1.2830    -2.7960 H     1 <1>   0.1500 
 39 H       -4.5080     4.3260     1.6050 H     1 <1>   0.0800 
 40 H       -5.1710     2.8820     0.9710 H     1 <1>   0.0800 
 41 H        3.9320     3.8840    -2.6010 H     1 <1>   0.1500 
 42 H        3.6980     5.5720     1.3140 H     1 <1>   0.1500 
 43 H       -3.7550     3.1320    -2.6960 H     1 <1>   0.0800 
 44 H       -3.7570     4.8720    -2.8030 H     1 <1>   0.0800 
 45 H        4.4180     5.7280    -1.0180 H     1 <1>   0.1500 
 46 H       -5.8220     3.0940    -1.7170 H     1 <1>   0.0800 
 47 H       -5.9980     4.6950    -2.3390 H     1 <1>   0.0800 
 48 H       -4.1120     5.8320    -0.5240 H     1 <1>   0.4000 
 49 H       -7.4200     3.6980     0.2440 H     1 <1>   0.0800 
 50 H       -7.5560     5.3110    -0.4090 H     1 <1>   0.0800 
 51 H       -7.0180     5.0730     1.2400 H     1 <1>   0.0800 
@<TRIPOS>BOND
  1   1   2  2   
  2   2   3  am  
  3   2   4  1   
  4   3   5  1   
  5   3   6  1   
  6   4   7  1   
  7   4  26  1   
  8   4  27  1   
  9   5   8  1   
 10   5  28  1   
 11   5  29  1   
 12   6   9  1   
 13   6  30  1   
 14   6  31  1   
 15   7  10  1   
 16   7  11  1   
 17   8  12  1   
 18   8  32  1   
 19   8  33  1   
 20   9  12  1   
 21   9  34  1   
 22   9  35  1   
 23  10  13  ar  
 24  10  14  ar  
 25  11  15  2   
 26  11  36  1   
 27  12  16  1   
 28  12  17  1   
 29  13  15  1   
 30  13  18  ar  
 31  14  19  ar  
 32  14  37  1   
 33  15  38  1   
 34  16  20  1   
 35  17  21  1   
 36  17  39  1   
 37  17  40  1   
 38  18  22  ar  
 39  18  41  1   
 40  19  22  ar  
 41  19  42  1   
 42  20  23  1   
 43  20  43  1   
 44  20  44  1   
 45  21  23  1   
 46  21  24  1   
 47  21  25  1   
 48  22  45  1   
 49  23  46  1   
 50  23  47  1   
 51  24  48  1   
 52  25  49  1   
 53  25  50  1   
 54  25  51  1   
@<TRIPOS>SUBSTRUCTURE
  1 ****   5 GROUP 4 **** **** 0

# MOE 2024.06 (io_trps.svl 2023.06)
