@<TRIPOS>MOLECULE
NONAME
49 51 1 0 0 
SMALL
USER_CHARGES


@<TRIPOS>ATOM
  1 CL       2.1100     0.0440    -1.0700 Cl    1 <1>  -0.1770 
  2 C        0.8900     1.2030    -0.5880 C.ar  1 <1>   0.1770 
  3 C        1.1460     2.1740     0.3770 C.ar  1 <1>  -0.1440 
  4 C       -0.3400     1.1110    -1.2120 C.ar  1 <1>  -0.1500 
  5 C        0.1240     3.0610     0.6940 C.ar  1 <1>  -0.1500 
  6 C        2.4860     2.3070     1.1000 C.3   1 <1>   0.3640 
  7 C       -1.3460     2.0000    -0.8810 C.ar  1 <1>  -0.1500 
  8 C       -1.1100     2.9750     0.0720 C.ar  1 <1>  -0.1500 
  9 N        2.7430     1.0570     1.8570 N.am  1 <1>  -0.7300 
 10 C        3.6560     2.7040     0.1570 C.3   1 <1>   0.2610 
 11 C        3.9120     0.3810     1.8060 C.2   1 <1>   0.5690 
 12 O        4.9180     2.2950     0.6770 O.3   1 <1>  -0.5600 
 13 C        3.6410     4.2200    -0.0590 C.2   1 <1>   0.5690 
 14 O        4.0730    -0.6230     2.4520 O.2   1 <1>  -0.5700 
 15 C        5.0280     0.9060     0.9020 C.3   1 <1>   0.1810 
 16 O        2.7100     4.7380    -0.6270 O.2   1 <1>  -0.5700 
 17 N        4.6900     4.9560     0.3960 N.am  1 <1>  -0.7300 
 18 C        4.8800     6.4170     0.2190 C.3   1 <1>   0.1400 
 19 C        6.0460     6.7430    -0.7500 C.3   1 <1>   0.0000 
 20 C        7.3890     6.1890    -0.2140 C.3   1 <1>  -0.1600 
 21 C        6.1850     8.2810    -0.8540 C.3   1 <1>  -0.1600 
 22 C        5.7020     6.1310    -2.1320 C.3   1 <1>   0.1200 
 23 C        7.8530     6.9250     1.0490 C.3   1 <1>   0.1200 
 24 C        6.7230     8.9050     0.4410 C.3   1 <1>   0.1200 
 25 O        6.6930     6.3840    -3.0710 O.3   1 <1>  -0.6800 
 26 O        7.9260     8.2920     0.7870 O.3   1 <1>  -0.5600 
 27 H       -0.5070     0.3490    -1.9520 H     1 <1>   0.1500 
 28 H        0.2800     3.8350     1.4270 H     1 <1>   0.1500 
 29 H        2.3930     3.0930     1.8300 H     1 <1>   0.0800 
 30 H       -2.3070     1.9360    -1.3630 H     1 <1>   0.1500 
 31 H       -1.8900     3.6730     0.3290 H     1 <1>   0.1500 
 32 H        1.9810     0.6710     2.4150 H     1 <1>   0.3700 
 33 H        3.5360     2.2410    -0.8040 H     1 <1>   0.0800 
 34 H        4.9950     0.3990    -0.0450 H     1 <1>   0.0800 
 35 H        5.9790     0.7210     1.3660 H     1 <1>   0.0800 
 36 H        5.4690     4.4330     0.8120 H     1 <1>   0.3700 
 37 H        3.9700     6.8460    -0.1650 H     1 <1>   0.0800 
 38 H        5.0530     6.8510     1.1870 H     1 <1>   0.0800 
 39 H        8.1590     6.3100    -0.9560 H     1 <1>   0.0800 
 40 H        7.3160     5.1360    -0.0140 H     1 <1>   0.0800 
 41 H        5.2370     8.7270    -1.0990 H     1 <1>   0.0800 
 42 H        6.8740     8.5430    -1.6360 H     1 <1>   0.0800 
 43 H        4.7770     6.5350    -2.5070 H     1 <1>   0.0800 
 44 H        5.6010     5.0620    -2.0610 H     1 <1>   0.0800 
 45 H        8.8380     6.5960     1.3310 H     1 <1>   0.0800 
 46 H        7.1850     6.7670     1.8780 H     1 <1>   0.0800 
 47 H        6.0350     8.8010     1.2620 H     1 <1>   0.0800 
 48 H        6.9250     9.9530     0.2950 H     1 <1>   0.0800 
 49 H        6.8730     7.3420    -3.1300 H     1 <1>   0.4000 
@<TRIPOS>BOND
  1   1   2  1   
  2   2   3  ar  
  3   2   4  ar  
  4   3   5  ar  
  5   3   6  1   
  6   4   7  ar  
  7   4  27  1   
  8   5   8  ar  
  9   5  28  1   
 10   6   9  1   
 11   6  10  1   
 12   6  29  1   
 13   7   8  ar  
 14   7  30  1   
 15   8  31  1   
 16   9  11  am  
 17   9  32  1   
 18  10  12  1   
 19  10  13  1   
 20  10  33  1   
 21  11  14  2   
 22  11  15  1   
 23  12  15  1   
 24  13  16  2   
 25  13  17  am  
 26  15  34  1   
 27  15  35  1   
 28  17  18  1   
 29  17  36  1   
 30  18  19  1   
 31  18  37  1   
 32  18  38  1   
 33  19  20  1   
 34  19  21  1   
 35  19  22  1   
 36  20  23  1   
 37  20  39  1   
 38  20  40  1   
 39  21  24  1   
 40  21  41  1   
 41  21  42  1   
 42  22  25  1   
 43  22  43  1   
 44  22  44  1   
 45  23  26  1   
 46  23  45  1   
 47  23  46  1   
 48  24  26  1   
 49  24  47  1   
 50  24  48  1   
 51  25  49  1   
@<TRIPOS>SUBSTRUCTURE
  1 ****  13 GROUP 4 **** **** 0

# MOE 2024.06 (io_trps.svl 2023.06)
