@<TRIPOS>MOLECULE
NONAME
49 51 1 0 0 
SMALL
USER_CHARGES


@<TRIPOS>ATOM
  1 S       -1.7950    -0.2420    -1.1970 S.3   1 <1>  -0.0800 
  2 C       -1.5650    -1.3060     0.1530 C.2   1 <1>   0.4420 
  3 C       -1.1190     1.0170    -0.2220 C.2   1 <1>   0.1980 
  4 N       -1.0400    -0.7020     1.1580 N.2   1 <1>  -0.3380 
  5 N       -1.9520    -2.6170    -0.0180 N.am  1 <1>  -0.4940 
  6 N       -0.7890     0.6220     0.9370 N.2   1 <1>  -0.3380 
  7 C       -0.9910     2.4050    -0.8090 C.3   1 <1>   0.0200 
  8 C       -2.0310    -3.6250     0.8930 C.2   1 <1>   0.5690 
  9 C       -0.3510     3.3240     0.2390 C.3   1 <1>   0.3430 
 10 O       -1.8430    -3.4740     2.0710 O.2   1 <1>  -0.5700 
 11 C       -2.3830    -5.0140     0.4050 C.3   1 <1>  -0.0990 
 12 N       -0.1190     4.7200    -0.2640 N.4   1 <1>  -0.9590 
 13 C       -3.8840    -5.1670     0.1070 C.3   1 <1>   0.2440 
 14 C        0.7460     5.4620     0.7070 C.3   1 <1>   0.2630 
 15 C       -1.3960     5.4720    -0.4850 C.3   1 <1>   0.2630 
 16 C       -4.3190    -6.6110     0.3750 C.ar  1 <1>  -0.1440 
 17 C       -4.2380    -4.7620    -1.3280 C.2   1 <1>  -0.0400 
 18 C       -5.3390    -6.8740     1.2790 C.ar  1 <1>  -0.1500 
 19 C       -3.7060    -7.6750    -0.2750 C.ar  1 <1>  -0.1500 
 20 O       -3.8740    -3.5780    -1.7900 O.3   1 <1>  -0.2800 
 21 C       -4.9150    -5.4380    -2.2840 C.2   1 <1>  -0.1500 
 22 C       -5.7390    -8.1750     1.5290 C.ar  1 <1>  -0.1500 
 23 C       -4.1050    -8.9770    -0.0260 C.ar  1 <1>  -0.1500 
 24 C       -4.3050    -3.4760    -3.0320 C.2   1 <1>  -0.0100 
 25 C       -4.9570    -4.5960    -3.4010 C.2   1 <1>  -0.1500 
 26 C       -5.1220    -9.2270     0.8770 C.ar  1 <1>  -0.1500 
 27 H       -2.3290    -2.8440    -0.9390 H     1 <1>   0.3700 
 28 H       -1.9710     2.7540    -1.0750 H     1 <1>   0.0800 
 29 H       -0.3720     2.3530    -1.6860 H     1 <1>   0.0800 
 30 H        0.5910     2.8890     0.5340 H     1 <1>   0.0800 
 31 H       -0.9790     3.3500     1.1160 H     1 <1>   0.0800 
 32 H       -2.1090    -5.7030     1.1840 H     1 <1>   0.0800 
 33 H       -1.8010    -5.2580    -0.4640 H     1 <1>   0.0800 
 34 H        0.3940     4.6670    -1.1580 H     1 <1>   0.4500 
 35 H       -4.4280    -4.5210     0.7750 H     1 <1>   0.0800 
 36 H        0.2550     5.5400     1.6640 H     1 <1>   0.0800 
 37 H        0.9520     6.4560     0.3440 H     1 <1>   0.0800 
 38 H        1.6840     4.9470     0.8440 H     1 <1>   0.0800 
 39 H       -1.9590     5.5320     0.4330 H     1 <1>   0.0800 
 40 H       -2.0020     4.9810    -1.2290 H     1 <1>   0.0800 
 41 H       -1.1870     6.4730    -0.8250 H     1 <1>   0.0800 
 42 H       -5.8310    -6.0690     1.7970 H     1 <1>   0.1500 
 43 H       -2.9160    -7.4980    -0.9840 H     1 <1>   0.1500 
 44 H       -5.3530    -6.4210    -2.2330 H     1 <1>   0.1500 
 45 H       -6.5300    -8.3690     2.2320 H     1 <1>   0.1500 
 46 H       -3.6250    -9.7950    -0.5340 H     1 <1>   0.1500 
 47 H       -4.1090    -2.5730    -3.5840 H     1 <1>   0.1500 
 48 H       -5.4260    -4.8290    -4.3410 H     1 <1>   0.1500 
 49 H       -5.4330   -10.2390     1.0720 H     1 <1>   0.1500 
@<TRIPOS>BOND
  1   1   2  1   
  2   1   3  1   
  3   2   4  2   
  4   2   5  1   
  5   3   6  2   
  6   3   7  1   
  7   4   6  1   
  8   5   8  am  
  9   5  27  1   
 10   7   9  1   
 11   7  28  1   
 12   7  29  1   
 13   8  10  2   
 14   8  11  1   
 15   9  12  1   
 16   9  30  1   
 17   9  31  1   
 18  11  13  1   
 19  11  32  1   
 20  11  33  1   
 21  12  14  1   
 22  12  15  1   
 23  12  34  1   
 24  13  16  1   
 25  13  17  1   
 26  13  35  1   
 27  14  36  1   
 28  14  37  1   
 29  14  38  1   
 30  15  39  1   
 31  15  40  1   
 32  15  41  1   
 33  16  18  ar  
 34  16  19  ar  
 35  17  20  1   
 36  17  21  2   
 37  18  22  ar  
 38  18  42  1   
 39  19  23  ar  
 40  19  43  1   
 41  20  24  1   
 42  21  25  1   
 43  21  44  1   
 44  22  26  ar  
 45  22  45  1   
 46  23  26  ar  
 47  23  46  1   
 48  24  25  2   
 49  24  47  1   
 50  25  48  1   
 51  26  49  1   
@<TRIPOS>SUBSTRUCTURE
  1 ****   5 GROUP 4 **** **** 0

# MOE 2024.06 (io_trps.svl 2023.06)
