@<TRIPOS>MOLECULE
NONAME
45 46 1 0 0 
SMALL
USER_CHARGES


@<TRIPOS>ATOM
  1 S        2.2110    -0.7100    -1.2680 S.3   1 <1>  -0.0800 
  2 C        1.9540    -0.3240     0.4270 C.2   1 <1>  -0.1400 
  3 C        0.6290    -1.4600    -1.3830 C.2   1 <1>  -0.1100 
  4 C        0.7450    -0.7560     0.8300 C.2   1 <1>  -0.1500 
  5 C        3.0690     0.3950     1.1620 C.3   1 <1>   0.0200 
  6 C       -0.0110    -1.4010    -0.2010 C.2   1 <1>  -0.1500 
  7 C        3.1920     1.8460     0.6830 C.3   1 <1>  -0.1600 
  8 C        4.3450     2.5820     1.3860 C.3   1 <1>  -0.0990 
  9 C        4.4730     4.0210     0.9100 C.2   1 <1>   0.5690 
 10 O        3.8190     4.8440     1.5060 O.2   1 <1>  -0.5700 
 11 N        5.2940     4.3630    -0.1380 N.am  1 <1>  -0.6600 
 12 C        5.4190     5.7980    -0.5710 C.3   1 <1>   0.1400 
 13 C        5.9350     3.3810    -1.0560 C.3   1 <1>   0.1400 
 14 C        5.9470     6.7470     0.5220 C.3   1 <1>   0.2000 
 15 C        7.4150     3.2370    -0.7150 C.3   1 <1>  -0.2400 
 16 O        6.1510     7.9980    -0.0750 O.3   1 <1>  -0.5600 
 17 C        7.2730     6.2930     1.1580 C.3   1 <1>  -0.1600 
 18 C        6.4670     9.0230     0.8170 C.3   1 <1>   0.1200 
 19 C        7.7870     7.3370     2.1560 C.3   1 <1>  -0.1600 
 20 C        7.8120     8.7170     1.4890 C.3   1 <1>  -0.1600 
 21 H        0.3440    -1.8690    -2.3350 H     1 <1>   0.1500 
 22 H        0.3400    -0.6470     1.8210 H     1 <1>   0.1500 
 23 H        3.9930    -0.1320     0.9980 H     1 <1>   0.0800 
 24 H        2.8590     0.3820     2.2170 H     1 <1>   0.0800 
 25 H       -0.9950    -1.7880    -0.0030 H     1 <1>   0.1500 
 26 H        2.2680     2.3630     0.8840 H     1 <1>   0.0800 
 27 H        3.3460     1.8620    -0.3810 H     1 <1>   0.0800 
 28 H        5.2740     2.0640     1.2380 H     1 <1>   0.0800 
 29 H        4.1570     2.6010     2.4440 H     1 <1>   0.0800 
 30 H        4.4490     6.1450    -0.8800 H     1 <1>   0.0800 
 31 H        6.0830     5.8620    -1.4140 H     1 <1>   0.0800 
 32 H        5.8240     3.7150    -2.0740 H     1 <1>   0.0800 
 33 H        5.4550     2.4230    -0.9830 H     1 <1>   0.0800 
 34 H        5.1930     6.8680     1.2800 H     1 <1>   0.0800 
 35 H        7.9340     4.1580    -0.9030 H     1 <1>   0.0800 
 36 H        7.8540     2.4730    -1.3310 H     1 <1>   0.0800 
 37 H        7.5380     2.9590     0.3160 H     1 <1>   0.0800 
 38 H        8.0020     6.1460     0.3820 H     1 <1>   0.0800 
 39 H        7.1280     5.3560     1.6650 H     1 <1>   0.0800 
 40 H        5.6760     9.1030     1.5430 H     1 <1>   0.0800 
 41 H        6.5250     9.9390     0.2570 H     1 <1>   0.0800 
 42 H        8.7710     7.0720     2.4990 H     1 <1>   0.0800 
 43 H        7.1290     7.3660     3.0080 H     1 <1>   0.0800 
 44 H        8.0300     9.4740     2.2210 H     1 <1>   0.0800 
 45 H        8.5850     8.7480     0.7410 H     1 <1>   0.0800 
@<TRIPOS>BOND
  1   1   2  1   
  2   1   3  1   
  3   2   4  2   
  4   2   5  1   
  5   3   6  2   
  6   3  21  1   
  7   4   6  1   
  8   4  22  1   
  9   5   7  1   
 10   5  23  1   
 11   5  24  1   
 12   6  25  1   
 13   7   8  1   
 14   7  26  1   
 15   7  27  1   
 16   8   9  1   
 17   8  28  1   
 18   8  29  1   
 19   9  10  2   
 20   9  11  am  
 21  11  12  1   
 22  11  13  1   
 23  12  14  1   
 24  12  30  1   
 25  12  31  1   
 26  13  15  1   
 27  13  32  1   
 28  13  33  1   
 29  14  16  1   
 30  14  17  1   
 31  14  34  1   
 32  15  35  1   
 33  15  36  1   
 34  15  37  1   
 35  16  18  1   
 36  17  19  1   
 37  17  38  1   
 38  17  39  1   
 39  18  20  1   
 40  18  40  1   
 41  18  41  1   
 42  19  20  1   
 43  19  42  1   
 44  19  43  1   
 45  20  44  1   
 46  20  45  1   
@<TRIPOS>SUBSTRUCTURE
  1 ****   9 GROUP 4 **** **** 0

# MOE 2024.06 (io_trps.svl 2023.06)
