@<TRIPOS>MOLECULE
NONAME
49 52 1 0 0 
SMALL
USER_CHARGES


@<TRIPOS>ATOM
  1 O        3.6810     0.8160     0.8870 O.2   1 <1>  -0.5700 
  2 C        2.8030     0.4710     0.1070 C.2   1 <1>   0.7160 
  3 N        1.7480     1.3500    -0.0850 N.am  1 <1>  -0.6600 
  4 C        2.9480    -0.8340    -0.5510 C.2   1 <1>   0.2030 
  5 C        0.4500     0.9900    -0.7370 C.3   1 <1>   0.1400 
  6 C        1.8610     2.8060     0.2470 C.3   1 <1>   0.1400 
  7 N        2.2100    -1.3430    -1.5270 N.2   1 <1>  -0.7070 
  8 C        3.9570    -1.7570    -0.2230 C.2   1 <1>  -0.1810 
  9 C       -0.7460     1.6530    -0.0300 C.3   1 <1>   0.1200 
 10 C        0.5820     3.3290     0.9180 C.3   1 <1>   0.1200 
 11 N        2.7220    -2.5500    -1.8080 N.pl3 1 <1>   0.3000 
 12 C        3.7780    -2.8230    -1.0200 C.2   1 <1>  -0.3320 
 13 C        5.0600    -1.6310     0.8110 C.3   1 <1>   0.5240 
 14 O       -0.5380     3.0260     0.1370 O.3   1 <1>  -0.5600 
 15 C        4.6490    -4.0650    -0.9890 C.3   1 <1>   0.0200 
 16 N        6.0890    -2.6820     0.5420 N.4   1 <1>  -0.9590 
 17 C        5.5200    -4.0500     0.2830 C.3   1 <1>   0.3430 
 18 C        7.1930    -2.6900     1.5450 C.3   1 <1>   0.4860 
 19 C        8.4040    -3.4160     0.9630 C.ar  1 <1>   0.1670 
 20 N        8.6320    -3.2300    -0.3330 N.ar  1 <1>  -0.6200 
 21 C        9.1810    -4.2220     1.7810 C.ar  1 <1>  -0.1500 
 22 C        9.6830    -3.8610    -0.8350 C.ar  1 <1>   0.1670 
 23 C       10.2670    -4.8800     1.2460 C.ar  1 <1>  -0.1500 
 24 C       10.5150    -4.6860    -0.0950 C.ar  1 <1>  -0.1500 
 25 C        9.9550    -3.6370    -2.3080 C.3   1 <1>  -0.0970 
 26 H        0.2920    -0.0720    -0.7090 H     1 <1>   0.0800 
 27 H        0.4730     1.2990    -1.7680 H     1 <1>   0.0800 
 28 H        2.0280     3.3590    -0.6610 H     1 <1>   0.0800 
 29 H        2.6960     2.9880     0.9000 H     1 <1>   0.0800 
 30 H       -0.9060     1.2100     0.9370 H     1 <1>   0.0800 
 31 H       -1.6380     1.5260    -0.6170 H     1 <1>   0.0800 
 32 H        0.6290     4.3980     1.0220 H     1 <1>   0.0800 
 33 H        0.4560     2.8910     1.8930 H     1 <1>   0.0800 
 34 H        2.3290    -3.1560    -2.5410 H     1 <1>   0.2700 
 35 H        4.6390    -1.7540     1.7960 H     1 <1>   0.0800 
 36 H        5.5060    -0.6510     0.7480 H     1 <1>   0.0800 
 37 H        5.2810    -4.0900    -1.8600 H     1 <1>   0.0800 
 38 H        4.0410    -4.9530    -0.9910 H     1 <1>   0.0800 
 39 H        6.5710    -2.4210    -0.3350 H     1 <1>   0.4500 
 40 H        6.3180    -4.7660     0.1670 H     1 <1>   0.0800 
 41 H        4.9160    -4.3470     1.1240 H     1 <1>   0.0800 
 42 H        6.8740    -3.1660     2.4560 H     1 <1>   0.0800 
 43 H        7.4870    -1.6780     1.7680 H     1 <1>   0.0800 
 44 H        8.9550    -4.3430     2.8260 H     1 <1>   0.1500 
 45 H       10.8980    -5.5150     1.8460 H     1 <1>   0.1500 
 46 H       11.3540    -5.1730    -0.5600 H     1 <1>   0.1500 
 47 H       10.1130    -2.5890    -2.4910 H     1 <1>   0.0800 
 48 H        9.1130    -3.9680    -2.8880 H     1 <1>   0.0800 
 49 H       10.8280    -4.1760    -2.6280 H     1 <1>   0.0800 
@<TRIPOS>BOND
  1   1   2  2   
  2   2   3  am  
  3   2   4  1   
  4   3   5  1   
  5   3   6  1   
  6   4   7  2   
  7   4   8  1   
  8   5   9  1   
  9   5  26  1   
 10   5  27  1   
 11   6  10  1   
 12   6  28  1   
 13   6  29  1   
 14   7  11  1   
 15   8  12  2   
 16   8  13  1   
 17   9  14  1   
 18   9  30  1   
 19   9  31  1   
 20  10  14  1   
 21  10  32  1   
 22  10  33  1   
 23  11  12  1   
 24  11  34  1   
 25  12  15  1   
 26  13  16  1   
 27  13  35  1   
 28  13  36  1   
 29  15  17  1   
 30  15  37  1   
 31  15  38  1   
 32  16  17  1   
 33  16  18  1   
 34  16  39  1   
 35  17  40  1   
 36  17  41  1   
 37  18  19  1   
 38  18  42  1   
 39  18  43  1   
 40  19  20  ar  
 41  19  21  ar  
 42  20  22  ar  
 43  21  23  ar  
 44  21  44  1   
 45  22  24  ar  
 46  22  25  1   
 47  23  24  ar  
 48  23  45  1   
 49  24  46  1   
 50  25  47  1   
 51  25  48  1   
 52  25  49  1   
@<TRIPOS>SUBSTRUCTURE
  1 ****  13 GROUP 4 **** **** 0

# MOE 2024.06 (io_trps.svl 2023.06)
