@<TRIPOS>MOLECULE
NONAME
38 38 1 0 0 
SMALL
USER_CHARGES


@<TRIPOS>ATOM
  1 O        0.4220    -0.3280     1.1630 O.2   1 <1>  -0.5700 
  2 C        0.6570    -1.0530     0.2200 C.2   1 <1>   0.7800 
  3 O        1.7850    -0.9750    -0.4790 O.3   1 <1>  -0.4300 
  4 N       -0.2110    -1.9990    -0.2010 N.am  1 <1>  -0.6550 
  5 C        2.8570    -0.0800    -0.2640 C.3   1 <1>   0.2800 
  6 C       -1.4240    -2.4060     0.5310 C.3   1 <1>   0.2250 
  7 C        3.8840    -0.4190    -1.3440 C.3   1 <1>  -0.2400 
  8 C        3.4780    -0.3170     1.1170 C.3   1 <1>  -0.2400 
  9 C        2.3840     1.3670    -0.4520 C.3   1 <1>  -0.2400 
 10 C       -2.5920    -1.3580     0.5650 C.3   1 <1>   0.0000 
 11 C       -2.3520    -3.3200    -0.3160 C.3   1 <1>   0.0000 
 12 C       -3.5380    -2.5800     0.3540 C.3   1 <1>   0.4720 
 13 C       -2.5820    -0.3000    -0.5680 C.3   1 <1>  -0.2400 
 14 C       -2.7880    -0.6960     1.9390 C.3   1 <1>  -0.2400 
 15 N       -4.6750    -2.3190    -0.5470 N.4   1 <1>  -0.8220 
 16 H        0.1650    -2.6500    -0.8880 H     1 <1>   0.3700 
 17 H       -1.1990    -2.8320     1.4930 H     1 <1>   0.0000 
 18 H        4.7430     0.2220    -1.2570 H     1 <1>   0.0800 
 19 H        3.4580    -0.2820    -2.3220 H     1 <1>   0.0800 
 20 H        4.2110    -1.4380    -1.2430 H     1 <1>   0.0800 
 21 H        4.3730     0.2680     1.2210 H     1 <1>   0.0800 
 22 H        3.7330    -1.3540     1.2410 H     1 <1>   0.0800 
 23 H        2.8070    -0.0210     1.9020 H     1 <1>   0.0800 
 24 H        3.2270     2.0330    -0.4230 H     1 <1>   0.0800 
 25 H        1.7130     1.6630     0.3330 H     1 <1>   0.0800 
 26 H        1.8940     1.4820    -1.4020 H     1 <1>   0.0800 
 27 H       -2.2800    -3.1410    -1.3760 H     1 <1>   0.0000 
 28 H       -2.2910    -4.3570    -0.0380 H     1 <1>   0.0000 
 29 H       -3.8390    -3.0390     1.2790 H     1 <1>   0.0000 
 30 H       -3.5040     0.2540    -0.5890 H     1 <1>   0.0800 
 31 H       -2.4070    -0.7370    -1.5350 H     1 <1>   0.0800 
 32 H       -1.7910     0.4080    -0.3870 H     1 <1>   0.0800 
 33 H       -3.7180    -0.1580     1.9780 H     1 <1>   0.0800 
 34 H       -1.9910     0.0030     2.1280 H     1 <1>   0.0800 
 35 H       -2.7770    -1.4260     2.7300 H     1 <1>   0.0800 
 36 H       -4.3410    -1.8470    -1.3930 H     1 <1>   0.4500 
 37 H       -5.3510    -1.7060    -0.0810 H     1 <1>   0.4500 
 38 H       -5.1410    -3.1930    -0.8080 H     1 <1>   0.4500 
@<TRIPOS>BOND
  1   1   2  2   
  2   2   3  1   
  3   2   4  am  
  4   3   5  1   
  5   4   6  1   
  6   4  16  1   
  7   5   7  1   
  8   5   8  1   
  9   5   9  1   
 10   6  10  1   
 11   6  11  1   
 12   6  17  1   
 13   7  18  1   
 14   7  19  1   
 15   7  20  1   
 16   8  21  1   
 17   8  22  1   
 18   8  23  1   
 19   9  24  1   
 20   9  25  1   
 21   9  26  1   
 22  10  12  1   
 23  10  13  1   
 24  10  14  1   
 25  11  12  1   
 26  11  27  1   
 27  11  28  1   
 28  12  15  1   
 29  12  29  1   
 30  13  30  1   
 31  13  31  1   
 32  13  32  1   
 33  14  33  1   
 34  14  34  1   
 35  14  35  1   
 36  15  36  1   
 37  15  37  1   
 38  15  38  1   
@<TRIPOS>SUBSTRUCTURE
  1 ****   4 GROUP 4 **** **** 0

# MOE 2024.06 (io_trps.svl 2023.06)
