@<TRIPOS>MOLECULE
NONAME
54 58 1 0 0 
SMALL
USER_CHARGES


@<TRIPOS>ATOM
  1 O       -0.9090    -1.2750     1.8160 O.3   1 <1>  -0.5600 
  2 C        0.2920    -0.7030     1.3860 C.3   1 <1>   0.1200 
  3 C       -1.9840    -0.5430     1.3260 C.3   1 <1>   0.1200 
  4 C       -0.0220     0.7340     0.9620 C.3   1 <1>   0.2890 
  5 C       -1.4980     0.9020     1.2990 C.3   1 <1>  -0.0800 
  6 N        0.7980     1.7240     1.6920 N.pl3 1 <1>  -0.8690 
  7 C       -2.2420     1.7980     0.2900 C.3   1 <1>  -0.0170 
  8 C        1.0090     2.9870     1.2640 C.ar  1 <1>   0.7200 
  9 C       -3.7530     1.9530     0.5060 C.ar  1 <1>  -0.1440 
 10 N        0.8820     3.2430    -0.0300 N.ar  1 <1>  -0.6200 
 11 N        1.3040     3.8380     2.2270 N.ar  1 <1>  -0.6200 
 12 C       -4.5850     2.4040    -0.5500 C.ar  1 <1>   0.0000 
 13 C       -4.3600     1.6890     1.7020 C.ar  1 <1>  -0.1500 
 14 C        1.0760     4.4900    -0.3850 C.ar  1 <1>   0.1670 
 15 C        1.4990     5.0790     1.8570 C.ar  1 <1>   0.1670 
 16 C       -5.9780     2.4920    -0.3060 C.ar  1 <1>   0.3100 
 17 C       -4.1180     2.7840    -1.8310 C.ar  1 <1>  -0.1500 
 18 C       -5.7460     1.8240     1.8410 C.ar  1 <1>   0.1600 
 19 C        1.3870     5.4750     0.5350 C.ar  1 <1>  -0.1430 
 20 C        0.9170     4.7850    -1.8700 C.3   1 <1>  -0.0170 
 21 C        1.8530     6.0480     2.9710 C.3   1 <1>  -0.0970 
 22 N       -6.5420     2.1980     0.8920 N.ar  1 <1>  -0.6200 
 23 C       -6.8280     2.9100    -1.3420 C.ar  1 <1>  -0.1500 
 24 C       -4.9730     3.1930    -2.8190 C.ar  1 <1>  -0.1500 
 25 C        1.6040     6.9280     0.1070 C.3   1 <1>  -0.0170 
 26 C        1.4830     6.1500    -2.2810 C.3   1 <1>  -0.1600 
 27 C       -6.3470     3.2540    -2.5760 C.ar  1 <1>  -0.1500 
 28 C        1.0450     7.2280    -1.2880 C.3   1 <1>  -0.1600 
 29 H        0.9970    -0.7420     2.1970 H     1 <1>   0.0800 
 30 H        0.6550    -1.2750     0.5510 H     1 <1>   0.0800 
 31 H       -2.2080    -0.9040     0.3360 H     1 <1>   0.0800 
 32 H       -2.8320    -0.6910     1.9700 H     1 <1>   0.0800 
 33 H        0.1510     0.8180    -0.0980 H     1 <1>   0.0800 
 34 H       -1.5880     1.3070     2.2910 H     1 <1>   0.0800 
 35 H        0.7690     1.6680     2.7080 H     1 <1>   0.4000 
 36 H       -2.0720     1.3800    -0.6850 H     1 <1>   0.0800 
 37 H       -1.8020     2.7800     0.3050 H     1 <1>   0.0800 
 38 H       -3.8150     1.3750     2.5710 H     1 <1>   0.1500 
 39 H       -3.0670     2.7610    -2.0430 H     1 <1>   0.1500 
 40 H       -6.1780     1.5990     2.8010 H     1 <1>   0.1500 
 41 H        1.4050     4.0130    -2.4380 H     1 <1>   0.0800 
 42 H       -0.1320     4.7500    -2.1020 H     1 <1>   0.0800 
 43 H        2.6320     6.7180     2.6600 H     1 <1>   0.0800 
 44 H        2.2020     5.5090     3.8330 H     1 <1>   0.0800 
 45 H        0.9820     6.6120     3.2490 H     1 <1>   0.0800 
 46 H       -7.8800     2.9540    -1.1290 H     1 <1>   0.1500 
 47 H       -4.6020     3.4750    -3.7890 H     1 <1>   0.1500 
 48 H        1.1390     7.5960     0.8110 H     1 <1>   0.0800 
 49 H        2.6620     7.1260     0.1100 H     1 <1>   0.0800 
 50 H        2.5590     6.0980    -2.3020 H     1 <1>   0.0800 
 51 H        1.1430     6.3980    -3.2720 H     1 <1>   0.0800 
 52 H       -7.0110     3.5730    -3.3600 H     1 <1>   0.1500 
 53 H       -0.0310     7.2590    -1.2440 H     1 <1>   0.0800 
 54 H        1.3920     8.1920    -1.6150 H     1 <1>   0.0800 
@<TRIPOS>BOND
  1   1   2  1   
  2   1   3  1   
  3   2   4  1   
  4   2  29  1   
  5   2  30  1   
  6   3   5  1   
  7   3  31  1   
  8   3  32  1   
  9   4   5  1   
 10   4   6  1   
 11   4  33  1   
 12   5   7  1   
 13   5  34  1   
 14   6   8  1   
 15   6  35  1   
 16   7   9  1   
 17   7  36  1   
 18   7  37  1   
 19   8  10  ar  
 20   8  11  ar  
 21   9  12  ar  
 22   9  13  ar  
 23  10  14  ar  
 24  11  15  ar  
 25  12  16  ar  
 26  12  17  ar  
 27  13  18  ar  
 28  13  38  1   
 29  14  19  ar  
 30  14  20  1   
 31  15  19  ar  
 32  15  21  1   
 33  16  22  ar  
 34  16  23  ar  
 35  17  24  ar  
 36  17  39  1   
 37  18  22  ar  
 38  18  40  1   
 39  19  25  1   
 40  20  26  1   
 41  20  41  1   
 42  20  42  1   
 43  21  43  1   
 44  21  44  1   
 45  21  45  1   
 46  23  27  ar  
 47  23  46  1   
 48  24  27  ar  
 49  24  47  1   
 50  25  28  1   
 51  25  48  1   
 52  25  49  1   
 53  26  28  1   
 54  26  50  1   
 55  26  51  1   
 56  27  52  1   
 57  28  53  1   
 58  28  54  1   
@<TRIPOS>SUBSTRUCTURE
  1 ****   7 GROUP 4 **** **** 0

# MOE 2024.06 (io_trps.svl 2023.06)
