@<TRIPOS>MOLECULE
NONAME
47 50 1 0 0 
SMALL
USER_CHARGES


@<TRIPOS>ATOM
  1 CL      -0.7950    -0.6390    -0.8080 Cl    1 <1>  -0.1770 
  2 C       -2.4600    -0.2450    -0.4680 C.ar  1 <1>   0.1770 
  3 C       -2.9360     1.0160    -0.7760 C.ar  1 <1>  -0.1500 
  4 C       -3.2820    -1.1970     0.1020 C.ar  1 <1>  -0.1500 
  5 C       -4.2580     1.3250    -0.5040 C.ar  1 <1>  -0.1500 
  6 C       -4.6010    -0.8770     0.3700 C.ar  1 <1>  -0.1500 
  7 C       -5.1120     0.3870     0.0770 C.ar  1 <1>   0.0530 
  8 C       -6.4880     0.6990     0.3710 C.2   1 <1>  -0.2050 
  9 N       -6.9290     1.8950     0.8210 N.pl3 1 <1>   0.3000 
 10 C       -7.5990    -0.0710     0.2930 C.2   1 <1>  -0.1500 
 11 N       -8.2520     1.9260     1.0220 N.2   1 <1>  -0.7070 
 12 C       -8.6830     0.7140     0.7000 C.2   1 <1>   0.2030 
 13 C      -10.0500     0.1950     0.7590 C.2   1 <1>   0.7160 
 14 O      -10.2110    -1.0150     0.8360 O.2   1 <1>  -0.5700 
 15 N      -11.1870     0.9900     0.7280 N.am  1 <1>  -0.6600 
 16 C      -12.5150     0.4800     1.1870 C.3   1 <1>   0.1400 
 17 C      -11.2120     2.3870     0.2160 C.3   1 <1>   0.1400 
 18 C      -13.5780     0.5510     0.0640 C.3   1 <1>   0.0000 
 19 C      -12.2550     2.5170    -0.8990 C.3   1 <1>  -0.1600 
 20 C      -14.9200     0.0400     0.6290 C.3   1 <1>   0.2000 
 21 C      -13.6380     2.0050    -0.4670 C.3   1 <1>  -0.1600 
 22 C      -13.2620    -0.4730    -1.0450 C.3   1 <1>  -0.1600 
 23 O      -15.9660     0.4120    -0.1970 O.3   1 <1>  -0.6800 
 24 C      -14.8230    -1.4830     0.5690 C.3   1 <1>  -0.1600 
 25 C      -13.8630    -1.8080    -0.5850 C.3   1 <1>  -0.1600 
 26 H       -2.2780     1.7380    -1.2240 H     1 <1>   0.1500 
 27 H       -2.8920    -2.1720     0.3310 H     1 <1>   0.1500 
 28 H       -4.6290     2.3010    -0.7570 H     1 <1>   0.1500 
 29 H       -5.2470    -1.6120     0.8170 H     1 <1>   0.1500 
 30 H       -6.3240     2.7020     1.0140 H     1 <1>   0.2700 
 31 H       -7.6750    -1.0980    -0.0180 H     1 <1>   0.1500 
 32 H      -12.4220    -0.5300     1.5460 H     1 <1>   0.0800 
 33 H      -12.8360     1.0850     2.0170 H     1 <1>   0.0800 
 34 H      -11.4500     3.0530     1.0280 H     1 <1>   0.0800 
 35 H      -10.2560     2.6720    -0.1830 H     1 <1>   0.0800 
 36 H      -12.3310     3.5500    -1.1890 H     1 <1>   0.0800 
 37 H      -11.9130     1.9660    -1.7570 H     1 <1>   0.0800 
 38 H      -15.1320     0.4080     1.6190 H     1 <1>   0.0800 
 39 H      -14.3130     2.0740    -1.3020 H     1 <1>   0.0800 
 40 H      -14.0220     2.6440     0.3100 H     1 <1>   0.0800 
 41 H      -13.7390    -0.1740    -1.9610 H     1 <1>   0.0800 
 42 H      -12.2060    -0.5640    -1.2330 H     1 <1>   0.0800 
 43 H      -15.7990     0.0530    -1.0890 H     1 <1>   0.4000 
 44 H      -14.3940    -1.8410     1.4880 H     1 <1>   0.0800 
 45 H      -15.7870    -1.9470     0.4470 H     1 <1>   0.0800 
 46 H      -13.0830    -2.4650    -0.2380 H     1 <1>   0.0800 
 47 H      -14.3820    -2.2860    -1.3980 H     1 <1>   0.0800 
@<TRIPOS>BOND
  1   1   2  1   
  2   2   3  ar  
  3   2   4  ar  
  4   3   5  ar  
  5   3  26  1   
  6   4   6  ar  
  7   4  27  1   
  8   5   7  ar  
  9   5  28  1   
 10   6   7  ar  
 11   6  29  1   
 12   7   8  1   
 13   8   9  1   
 14   8  10  2   
 15   9  11  1   
 16   9  30  1   
 17  10  12  1   
 18  10  31  1   
 19  11  12  2   
 20  12  13  1   
 21  13  14  2   
 22  13  15  am  
 23  15  16  1   
 24  15  17  1   
 25  16  18  1   
 26  16  32  1   
 27  16  33  1   
 28  17  19  1   
 29  17  34  1   
 30  17  35  1   
 31  18  20  1   
 32  18  21  1   
 33  18  22  1   
 34  19  21  1   
 35  19  36  1   
 36  19  37  1   
 37  20  23  1   
 38  20  24  1   
 39  20  38  1   
 40  21  39  1   
 41  21  40  1   
 42  22  25  1   
 43  22  41  1   
 44  22  42  1   
 45  23  43  1   
 46  24  25  1   
 47  24  44  1   
 48  24  45  1   
 49  25  46  1   
 50  25  47  1   
@<TRIPOS>SUBSTRUCTURE
  1 ****  12 GROUP 4 **** **** 0

# MOE 2024.06 (io_trps.svl 2023.06)
