@<TRIPOS>MOLECULE
NONAME
54 57 1 0 0 
SMALL
USER_CHARGES


@<TRIPOS>ATOM
  1 O        1.3970     0.8600    -0.1140 O.3   1 <1>  -0.3630 
  2 C        0.9140     2.1310    -0.1950 C.ar  1 <1>   0.0830 
  3 C        0.5570    -0.2290     0.2040 C.3   1 <1>   0.0400 
  4 C       -0.1520     2.6610     0.5510 C.ar  1 <1>   0.0830 
  5 C        1.5810     2.9360    -1.1000 C.ar  1 <1>  -0.1500 
  6 O       -0.7910     1.8810     1.4700 O.3   1 <1>  -0.3630 
  7 C       -0.5160     3.9910     0.3530 C.ar  1 <1>  -0.1500 
  8 C        1.2200     4.2600    -1.2760 C.ar  1 <1>  -0.1430 
  9 C       -1.9680     2.2970     2.1300 C.3   1 <1>   0.0400 
 10 C        0.1640     4.7950    -0.5480 C.ar  1 <1>  -0.1430 
 11 C        1.9900     5.1460    -2.2330 C.3   1 <1>   0.3530 
 12 C       -0.2360     6.2730    -0.6950 C.3   1 <1>  -0.0160 
 13 N        2.0590     6.4700    -1.5710 N.pl3 1 <1>  -0.8380 
 14 C        0.7140     7.1090    -1.5790 C.3   1 <1>   0.2090 
 15 C        2.9530     6.8040    -0.6140 C.ar  1 <1>   0.7710 
 16 N        3.1490     8.0820    -0.3370 N.ar  1 <1>  -0.6200 
 17 N        3.5740     5.8200     0.0610 N.ar  1 <1>  -0.1790 
 18 C        4.0320     8.3940     0.5940 C.ar  1 <1>   0.4100 
 19 C        4.4620     6.0910     1.0450 C.ar  1 <1>   0.2110 
 20 N        4.2700     9.7120     0.8270 N.pl3 1 <1>  -0.8380 
 21 C        4.7050     7.3930     1.3240 C.ar  1 <1>  -0.1500 
 22 C        5.6060    10.2640     1.2340 C.3   1 <1>   0.2090 
 23 C        3.2820    10.7820     0.4810 C.3   1 <1>   0.2090 
 24 C        6.1770    11.1680     0.1260 C.3   1 <1>   0.2000 
 25 C        3.8330    11.6460    -0.6590 C.3   1 <1>  -0.1600 
 26 O        7.3360    11.7760     0.5760 O.3   1 <1>  -0.6800 
 27 C        5.1940    12.2630    -0.3000 C.3   1 <1>  -0.1600 
 28 H        1.0390    -1.1320    -0.1220 H     1 <1>   0.0800 
 29 H       -0.3840    -0.1090    -0.3040 H     1 <1>   0.0800 
 30 H        0.4140    -0.2590     1.2690 H     1 <1>   0.0800 
 31 H        2.3840     2.4980    -1.6670 H     1 <1>   0.1500 
 32 H       -1.3270     4.4250     0.9060 H     1 <1>   0.1500 
 33 H       -2.3170     1.4790     2.7340 H     1 <1>   0.0800 
 34 H       -2.7110     2.5490     1.3950 H     1 <1>   0.0800 
 35 H       -1.7400     3.1390     2.7570 H     1 <1>   0.0800 
 36 H        1.4700     5.2220    -3.1740 H     1 <1>   0.0800 
 37 H        2.9780     4.7620    -2.4250 H     1 <1>   0.0800 
 38 H       -0.2550     6.7180     0.2840 H     1 <1>   0.0800 
 39 H       -1.2340     6.3410    -1.0910 H     1 <1>   0.0800 
 40 H        0.7590     8.1240    -1.2200 H     1 <1>   0.0800 
 41 H        0.3410     7.1380    -2.5900 H     1 <1>   0.0800 
 42 H        3.2430     4.8790    -0.1460 H     1 <1>   0.4570 
 43 H        4.9290     5.2770     1.5750 H     1 <1>   0.1500 
 44 H        5.3850     7.6770     2.1040 H     1 <1>   0.1500 
 45 H        6.3130     9.4750     1.4130 H     1 <1>   0.0800 
 46 H        5.4840    10.8330     2.1390 H     1 <1>   0.0800 
 47 H        3.1090    11.3940     1.3500 H     1 <1>   0.0800 
 48 H        2.3360    10.3570     0.1910 H     1 <1>   0.0800 
 49 H        6.4420    10.5570    -0.7210 H     1 <1>   0.0800 
 50 H        3.1300    12.4290    -0.8810 H     1 <1>   0.0800 
 51 H        3.9280    11.0330    -1.5390 H     1 <1>   0.0800 
 52 H        7.1210    12.5280     1.1610 H     1 <1>   0.4000 
 53 H        5.5870    12.7870    -1.1550 H     1 <1>   0.0800 
 54 H        5.0550    12.9640     0.5040 H     1 <1>   0.0800 
@<TRIPOS>BOND
  1   1   2  1   
  2   1   3  1   
  3   2   4  ar  
  4   2   5  ar  
  5   3  28  1   
  6   3  29  1   
  7   3  30  1   
  8   4   6  1   
  9   4   7  ar  
 10   5   8  ar  
 11   5  31  1   
 12   6   9  1   
 13   7  10  ar  
 14   7  32  1   
 15   8  10  ar  
 16   8  11  1   
 17   9  33  1   
 18   9  34  1   
 19   9  35  1   
 20  10  12  1   
 21  11  13  1   
 22  11  36  1   
 23  11  37  1   
 24  12  14  1   
 25  12  38  1   
 26  12  39  1   
 27  13  14  1   
 28  13  15  1   
 29  14  40  1   
 30  14  41  1   
 31  15  16  ar  
 32  15  17  ar  
 33  16  18  ar  
 34  17  19  ar  
 35  17  42  1   
 36  18  20  1   
 37  18  21  ar  
 38  19  21  ar  
 39  19  43  1   
 40  20  22  1   
 41  20  23  1   
 42  21  44  1   
 43  22  24  1   
 44  22  45  1   
 45  22  46  1   
 46  23  25  1   
 47  23  47  1   
 48  23  48  1   
 49  24  26  1   
 50  24  27  1   
 51  24  49  1   
 52  25  27  1   
 53  25  50  1   
 54  25  51  1   
 55  26  52  1   
 56  27  53  1   
 57  27  54  1   
@<TRIPOS>SUBSTRUCTURE
  1 ****  15 GROUP 4 **** **** 0

# MOE 2024.06 (io_trps.svl 2023.06)
