@<TRIPOS>MOLECULE
NONAME
47 48 1 0 0 
SMALL
USER_CHARGES


@<TRIPOS>ATOM
  1 O        1.3660     0.2200    -1.0760 O.2   1 <1>  -0.5700 
  2 C        1.8480    -0.6040    -0.3220 C.2   1 <1>   0.5440 
  3 N        2.8740    -0.2100     0.5150 N.am  1 <1>  -0.6600 
  4 C        1.3440    -1.9660    -0.3400 C.ar  1 <1>   0.0860 
  5 C        3.9080    -1.1520     1.0450 C.3   1 <1>   0.1400 
  6 C        3.1800     1.2270     0.7470 C.3   1 <1>   0.1400 
  7 C        1.1460    -2.6380    -1.5450 C.ar  1 <1>  -0.1500 
  8 C        1.0330    -2.6480     0.8370 C.ar  1 <1>  -0.1500 
  9 C        5.2840    -0.8250     0.4510 C.3   1 <1>   0.2000 
 10 C        4.5080     1.5720     0.0720 C.3   1 <1>  -0.1600 
 11 C        0.6760    -3.9390    -1.5770 C.ar  1 <1>  -0.1500 
 12 C        0.5620    -3.9490     0.8130 C.ar  1 <1>  -0.1500 
 13 O        6.2290    -1.5970     1.1150 O.3   1 <1>  -0.6800 
 14 C        5.6380     0.6740     0.5870 C.3   1 <1>   0.2200 
 15 C        0.3850    -4.5980    -0.3960 C.ar  1 <1>  -0.1500 
 16 N        6.8730     1.0180    -0.1630 N.am  1 <1>  -0.7300 
 17 C        8.1380     0.7470     0.2370 C.2   1 <1>   0.5690 
 18 O        8.3570     0.1140     1.2400 O.2   1 <1>  -0.5700 
 19 C        9.2930     1.2340    -0.6060 C.3   1 <1>  -0.0990 
 20 C       10.2930     2.0040     0.2480 C.3   1 <1>   0.1200 
 21 O       11.2590     2.5290    -0.6010 O.3   1 <1>  -0.5600 
 22 C       12.2710     3.2160     0.0540 C.3   1 <1>   0.1200 
 23 C       13.2360     3.7330    -1.0050 C.3   1 <1>  -0.2400 
 24 H        3.9470    -1.0560     2.1160 H     1 <1>   0.0800 
 25 H        3.6640    -2.1690     0.7980 H     1 <1>   0.0800 
 26 H        2.3950     1.8510     0.3510 H     1 <1>   0.0800 
 27 H        3.2420     1.4080     1.8060 H     1 <1>   0.0800 
 28 H        1.3640    -2.1250    -2.4650 H     1 <1>   0.1500 
 29 H        1.1600    -2.1460     1.7800 H     1 <1>   0.1500 
 30 H        5.2970    -1.1090    -0.5870 H     1 <1>   0.0800 
 31 H        4.7430     2.6010     0.2750 H     1 <1>   0.0800 
 32 H        4.3860     1.4490    -0.9910 H     1 <1>   0.0800 
 33 H        0.5330    -4.4370    -2.5200 H     1 <1>   0.1500 
 34 H        0.3320    -4.4570     1.7340 H     1 <1>   0.1500 
 35 H        7.0900    -1.1020     1.1530 H     1 <1>   0.4000 
 36 H        5.7910     0.8890     1.6320 H     1 <1>   0.0800 
 37 H        0.0180    -5.6100    -0.4180 H     1 <1>   0.1500 
 38 H        6.7200     1.4950    -1.0530 H     1 <1>   0.3700 
 39 H        9.7800     0.3830    -1.0450 H     1 <1>   0.0800 
 40 H        8.9290     1.8730    -1.3890 H     1 <1>   0.0800 
 41 H       10.7660     1.3470     0.9600 H     1 <1>   0.0800 
 42 H        9.8090     2.8160     0.7640 H     1 <1>   0.0800 
 43 H       11.8390     4.0330     0.6060 H     1 <1>   0.0800 
 44 H       12.7730     2.5390     0.7270 H     1 <1>   0.0800 
 45 H       12.7230     4.3960    -1.6790 H     1 <1>   0.0800 
 46 H       13.6500     2.9100    -1.5590 H     1 <1>   0.0800 
 47 H       14.0380     4.2720    -0.5360 H     1 <1>   0.0800 
@<TRIPOS>BOND
  1   1   2  2   
  2   2   3  am  
  3   2   4  1   
  4   3   5  1   
  5   3   6  1   
  6   4   7  ar  
  7   4   8  ar  
  8   5   9  1   
  9   5  24  1   
 10   5  25  1   
 11   6  10  1   
 12   6  26  1   
 13   6  27  1   
 14   7  11  ar  
 15   7  28  1   
 16   8  12  ar  
 17   8  29  1   
 18   9  13  1   
 19   9  14  1   
 20   9  30  1   
 21  10  14  1   
 22  10  31  1   
 23  10  32  1   
 24  11  15  ar  
 25  11  33  1   
 26  12  15  ar  
 27  12  34  1   
 28  13  35  1   
 29  14  16  1   
 30  14  36  1   
 31  15  37  1   
 32  16  17  am  
 33  16  38  1   
 34  17  18  2   
 35  17  19  1   
 36  19  20  1   
 37  19  39  1   
 38  19  40  1   
 39  20  21  1   
 40  20  41  1   
 41  20  42  1   
 42  21  22  1   
 43  22  23  1   
 44  22  43  1   
 45  22  44  1   
 46  23  45  1   
 47  23  46  1   
 48  23  47  1   
@<TRIPOS>SUBSTRUCTURE
  1 ****   9 GROUP 4 **** **** 0

# MOE 2024.06 (io_trps.svl 2023.06)
