@<TRIPOS>MOLECULE
NONAME
39 41 1 0 0 
SMALL
USER_CHARGES


@<TRIPOS>ATOM
  1 O       -0.4760     0.1940     0.7840 O.2   1 <1>  -0.5700 
  2 C       -1.4670     0.8840     0.6310 C.2   1 <1>   0.7160 
  3 N       -2.7070     0.2840     0.6370 N.am  1 <1>  -0.6600 
  4 C       -1.3240     2.3030     0.4150 C.2   1 <1>  -0.0860 
  5 C       -3.8690     0.7890    -0.1430 C.3   1 <1>   0.1400 
  6 C       -2.9040    -1.1550     0.9330 C.3   1 <1>   0.1400 
  7 C       -2.1780     3.3080     0.8790 C.2   1 <1>   0.1390 
  8 C       -0.3610     3.0010    -0.2480 C.2   1 <1>  -0.3020 
  9 C       -4.8150    -0.4080    -0.3210 C.3   1 <1>   0.2000 
 10 C       -3.9130    -1.6280    -0.1130 C.3   1 <1>  -0.0800 
 11 N       -1.8070     4.4980     0.5240 N.2   1 <1>  -0.7070 
 12 N       -0.6710     4.3040    -0.1700 N.pl3 1 <1>   0.3000 
 13 O       -5.7890    -0.3930     0.6830 O.3   1 <1>  -0.5600 
 14 C       -4.6540    -2.9170     0.2860 C.3   1 <1>   0.0200 
 15 C       -6.9220     0.3680     0.4020 C.3   1 <1>   0.0400 
 16 C       -3.7510    -4.1400     0.3160 C.2   1 <1>  -0.0400 
 17 O       -4.2450    -5.2750     0.7340 O.3   1 <1>  -0.0190 
 18 C       -2.4670    -4.3520    -0.0140 C.2   1 <1>  -0.1500 
 19 N       -3.3630    -6.2320     0.7050 N.2   1 <1>  -0.4100 
 20 C       -2.2810    -5.7040     0.2590 C.2   1 <1>   0.1080 
 21 C       -0.9850    -6.4580     0.0620 C.3   1 <1>  -0.0590 
 22 H       -4.3590     1.5940     0.3750 H     1 <1>   0.0800 
 23 H       -3.5260     1.1310    -1.1030 H     1 <1>   0.0800 
 24 H       -1.9820    -1.7080     0.8780 H     1 <1>   0.0800 
 25 H       -3.3160    -1.2500     1.9230 H     1 <1>   0.0800 
 26 H       -3.0540     3.1200     1.4780 H     1 <1>   0.1500 
 27 H        0.5090     2.6230    -0.7530 H     1 <1>   0.1500 
 28 H       -5.2950    -0.4220    -1.2850 H     1 <1>   0.0800 
 29 H       -3.3810    -1.8040    -1.0310 H     1 <1>   0.0800 
 30 H       -0.1350     5.0850    -0.5690 H     1 <1>   0.2700 
 31 H       -5.4500    -3.1020    -0.4140 H     1 <1>   0.0800 
 32 H       -5.0990    -2.7970     1.2590 H     1 <1>   0.0800 
 33 H       -7.5800     0.3120     1.2510 H     1 <1>   0.0800 
 34 H       -7.4170    -0.0380    -0.4640 H     1 <1>   0.0800 
 35 H       -6.6390     1.3920     0.2320 H     1 <1>   0.0800 
 36 H       -1.7230    -3.6800    -0.3990 H     1 <1>   0.1500 
 37 H       -0.2030    -5.9950     0.6350 H     1 <1>   0.0800 
 38 H       -0.7150    -6.4520    -0.9780 H     1 <1>   0.0800 
 39 H       -1.0990    -7.4760     0.3870 H     1 <1>   0.0800 
@<TRIPOS>BOND
  1   1   2  2   
  2   2   3  am  
  3   2   4  1   
  4   3   5  1   
  5   3   6  1   
  6   4   7  1   
  7   4   8  2   
  8   5   9  1   
  9   5  22  1   
 10   5  23  1   
 11   6  10  1   
 12   6  24  1   
 13   6  25  1   
 14   7  11  2   
 15   7  26  1   
 16   8  12  1   
 17   8  27  1   
 18   9  10  1   
 19   9  13  1   
 20   9  28  1   
 21  10  14  1   
 22  10  29  1   
 23  11  12  1   
 24  12  30  1   
 25  13  15  1   
 26  14  16  1   
 27  14  31  1   
 28  14  32  1   
 29  15  33  1   
 30  15  34  1   
 31  15  35  1   
 32  16  17  1   
 33  16  18  2   
 34  17  19  1   
 35  18  20  1   
 36  18  36  1   
 37  19  20  2   
 38  20  21  1   
 39  21  37  1   
 40  21  38  1   
 41  21  39  1   
@<TRIPOS>SUBSTRUCTURE
  1 ****   6 GROUP 4 **** **** 0

# MOE 2024.06 (io_trps.svl 2023.06)
