@<TRIPOS>MOLECULE
NONAME
42 44 1 0 0 
SMALL
USER_CHARGES


@<TRIPOS>ATOM
  1 O       -0.2270     1.2320     1.5030 O.2   1 <1>  -0.5700 
  2 C       -0.0420     2.2960     0.9320 C.2   1 <1>   0.7160 
  3 N       -1.1510     3.0840     0.6620 N.am  1 <1>  -0.6600 
  4 C        1.3260     2.6570     0.5690 C.2   1 <1>   0.2030 
  5 C       -2.5050     2.7420     1.1930 C.3   1 <1>   0.1400 
  6 C       -1.1250     4.2330    -0.2950 C.3   1 <1>   0.1400 
  7 N        1.7880     3.8060     0.1610 N.2   1 <1>  -0.4100 
  8 C        2.3940     1.7720     0.6260 C.2   1 <1>  -0.1500 
  9 C       -3.4550     2.3410     0.0440 C.3   1 <1>   0.0000 
 10 C       -2.5220     4.5680    -0.8420 C.3   1 <1>  -0.1600 
 11 O        3.0780     3.7340    -0.0580 O.3   1 <1>  -0.0190 
 12 C        3.4370     2.5030     0.2260 C.2   1 <1>  -0.0400 
 13 C       -4.9000     2.2700     0.5710 C.3   1 <1>   0.2000 
 14 C       -3.3040     3.2910    -1.1870 C.3   1 <1>  -0.1600 
 15 C       -3.2340     0.8850    -0.3990 C.3   1 <1>  -0.1600 
 16 C        4.8930     2.1150     0.0700 C.3   1 <1>  -0.0600 
 17 O       -5.4910     3.5350     0.6270 O.3   1 <1>  -0.5600 
 18 C       -5.6430     1.3340    -0.3890 C.3   1 <1>  -0.1600 
 19 C       -4.5620     0.4490    -1.0280 C.3   1 <1>  -0.1600 
 20 C       -6.6780     3.5990     1.3510 C.3   1 <1>   0.0400 
 21 H       -2.4490     1.9550     1.9250 H     1 <1>   0.0800 
 22 H       -2.9010     3.6100     1.6940 H     1 <1>   0.0800 
 23 H       -0.7070     5.0970     0.1930 H     1 <1>   0.0800 
 24 H       -0.4900     3.9760    -1.1260 H     1 <1>   0.0800 
 25 H        2.3380     0.7430     0.9320 H     1 <1>   0.1500 
 26 H       -3.0700     5.1390    -0.1110 H     1 <1>   0.0800 
 27 H       -2.4220     5.1840    -1.7180 H     1 <1>   0.0800 
 28 H       -4.8940     1.8440     1.5600 H     1 <1>   0.0800 
 29 H       -2.7690     2.7920    -1.9750 H     1 <1>   0.0800 
 30 H       -4.2650     3.5590    -1.5880 H     1 <1>   0.0800 
 31 H       -2.4030     0.7720    -1.0720 H     1 <1>   0.0800 
 32 H       -3.0430     0.2700     0.4650 H     1 <1>   0.0800 
 33 H        5.0350     1.0840     0.3380 H     1 <1>   0.0800 
 34 H        5.5030     2.7300     0.7070 H     1 <1>   0.0800 
 35 H        5.2000     2.2570    -0.9500 H     1 <1>   0.0800 
 36 H       -6.3600     0.7380     0.1460 H     1 <1>   0.0800 
 37 H       -6.1410     1.9030    -1.1540 H     1 <1>   0.0800 
 38 H       -4.7480    -0.5970    -0.8520 H     1 <1>   0.0800 
 39 H       -4.5360     0.6240    -2.0900 H     1 <1>   0.0800 
 40 H       -7.0190     4.6190     1.3420 H     1 <1>   0.0800 
 41 H       -6.4940     3.2870     2.3650 H     1 <1>   0.0800 
 42 H       -7.4160     2.9680     0.8870 H     1 <1>   0.0800 
@<TRIPOS>BOND
  1   1   2  2   
  2   2   3  am  
  3   2   4  1   
  4   3   5  1   
  5   3   6  1   
  6   4   7  2   
  7   4   8  1   
  8   5   9  1   
  9   5  21  1   
 10   5  22  1   
 11   6  10  1   
 12   6  23  1   
 13   6  24  1   
 14   7  11  1   
 15   8  12  2   
 16   8  25  1   
 17   9  13  1   
 18   9  14  1   
 19   9  15  1   
 20  10  14  1   
 21  10  26  1   
 22  10  27  1   
 23  11  12  1   
 24  12  16  1   
 25  13  17  1   
 26  13  18  1   
 27  13  28  1   
 28  14  29  1   
 29  14  30  1   
 30  15  19  1   
 31  15  31  1   
 32  15  32  1   
 33  16  33  1   
 34  16  34  1   
 35  16  35  1   
 36  17  20  1   
 37  18  19  1   
 38  18  36  1   
 39  18  37  1   
 40  19  38  1   
 41  19  39  1   
 42  20  40  1   
 43  20  41  1   
 44  20  42  1   
@<TRIPOS>SUBSTRUCTURE
  1 ****   3 GROUP 4 **** **** 0

# MOE 2024.06 (io_trps.svl 2023.06)
