@<TRIPOS>MOLECULE
NONAME
52 54 1 0 0 
SMALL
USER_CHARGES


@<TRIPOS>ATOM
  1 S       -1.0210     0.0260    -1.0590 S.o2  1 <1>   1.2040 
  2 O       -1.0890    -0.6980    -2.3080 O.2   1 <1>  -0.6500 
  3 O       -1.3250     1.4380    -1.0240 O.2   1 <1>  -0.6500 
  4 C       -2.0230    -0.8360     0.1760 C.ar  1 <1>  -0.0090 
  5 C        0.6280    -0.1800    -0.4150 C.3   1 <1>  -0.1350 
  6 C       -2.1330    -2.2190     0.1620 C.ar  1 <1>  -0.1500 
  7 C       -2.6870    -0.1420     1.1810 C.ar  1 <1>  -0.1500 
  8 C       -2.8790    -2.9230     1.1040 C.ar  1 <1>   0.0860 
  9 C       -3.4300    -0.8110     2.1380 C.ar  1 <1>  -0.1500 
 10 C       -2.9730    -4.3680     1.0420 C.2   1 <1>   0.5440 
 11 C       -3.5210    -2.1880     2.0990 C.ar  1 <1>  -0.1500 
 12 O       -1.9540    -5.0240     0.9330 O.2   1 <1>  -0.5700 
 13 N       -4.1860    -5.0190     1.0760 N.am  1 <1>  -0.6600 
 14 C       -4.2830    -6.5100     1.1710 C.3   1 <1>   0.1400 
 15 C       -5.4640    -4.3970     0.6150 C.3   1 <1>   0.1400 
 16 C       -4.8530    -7.1070    -0.1280 C.3   1 <1>   0.3430 
 17 C       -5.9730    -5.0960    -0.6670 C.3   1 <1>   0.2000 
 18 O       -6.0670    -6.4770    -0.4540 O.3   1 <1>  -0.5600 
 19 C       -5.0780    -8.6090     0.0240 C.ar  1 <1>  -0.1430 
 20 C       -7.3500    -4.5940    -1.1610 C.3   1 <1>  -0.0800 
 21 C       -4.0600    -9.4890    -0.3170 C.ar  1 <1>  -0.1500 
 22 C       -6.2740    -9.1190     0.5100 C.ar  1 <1>  -0.1500 
 23 C       -7.3070    -3.1130    -1.5700 C.3   1 <1>  -0.2400 
 24 C       -8.4890    -4.8180    -0.1520 C.3   1 <1>  -0.2400 
 25 C       -4.2350   -10.8550    -0.1750 C.ar  1 <1>  -0.1500 
 26 C       -6.4510   -10.4840     0.6520 C.ar  1 <1>  -0.1500 
 27 C       -5.4310   -11.3530     0.3100 C.ar  1 <1>  -0.1500 
 28 H        0.8740    -1.2210    -0.3390 H     1 <1>   0.0800 
 29 H        0.7090     0.2680     0.5560 H     1 <1>   0.0800 
 30 H        1.3370     0.2910    -1.0680 H     1 <1>   0.0800 
 31 H       -1.6280    -2.7810    -0.6080 H     1 <1>   0.1500 
 32 H       -2.6230     0.9340     1.2160 H     1 <1>   0.1500 
 33 H       -3.9350    -0.2560     2.9110 H     1 <1>   0.1500 
 34 H       -4.0940    -2.7100     2.8470 H     1 <1>   0.1500 
 35 H       -3.3180    -6.9450     1.3660 H     1 <1>   0.0800 
 36 H       -4.9280    -6.7730     1.9900 H     1 <1>   0.0800 
 37 H       -6.1970    -4.4900     1.3960 H     1 <1>   0.0800 
 38 H       -5.3240    -3.3520     0.4120 H     1 <1>   0.0800 
 39 H       -4.1630    -6.9320    -0.9350 H     1 <1>   0.0800 
 40 H       -5.2560    -4.9380    -1.4550 H     1 <1>   0.0800 
 41 H       -7.5810    -5.1610    -2.0470 H     1 <1>   0.0800 
 42 H       -3.1240    -9.1150    -0.6950 H     1 <1>   0.1500 
 43 H       -7.0750    -8.4500     0.7750 H     1 <1>   0.1500 
 44 H       -7.1520    -2.4750    -0.7180 H     1 <1>   0.0800 
 45 H       -8.2380    -2.8330    -2.0330 H     1 <1>   0.0800 
 46 H       -6.5180    -2.9420    -2.2810 H     1 <1>   0.0800 
 47 H       -8.3550    -4.2200     0.7310 H     1 <1>   0.0800 
 48 H       -8.5320    -5.8540     0.1370 H     1 <1>   0.0800 
 49 H       -9.4320    -4.5580    -0.5970 H     1 <1>   0.0800 
 50 H       -3.4410   -11.5290    -0.4430 H     1 <1>   0.1500 
 51 H       -7.3830   -10.8680     1.0280 H     1 <1>   0.1500 
 52 H       -5.5680   -12.4150     0.4210 H     1 <1>   0.1500 
@<TRIPOS>BOND
  1   1   2  2   
  2   1   3  2   
  3   1   4  1   
  4   1   5  1   
  5   4   6  ar  
  6   4   7  ar  
  7   5  28  1   
  8   5  29  1   
  9   5  30  1   
 10   6   8  ar  
 11   6  31  1   
 12   7   9  ar  
 13   7  32  1   
 14   8  10  1   
 15   8  11  ar  
 16   9  11  ar  
 17   9  33  1   
 18  10  12  2   
 19  10  13  am  
 20  11  34  1   
 21  13  14  1   
 22  13  15  1   
 23  14  16  1   
 24  14  35  1   
 25  14  36  1   
 26  15  17  1   
 27  15  37  1   
 28  15  38  1   
 29  16  18  1   
 30  16  19  1   
 31  16  39  1   
 32  17  18  1   
 33  17  20  1   
 34  17  40  1   
 35  19  21  ar  
 36  19  22  ar  
 37  20  23  1   
 38  20  24  1   
 39  20  41  1   
 40  21  25  ar  
 41  21  42  1   
 42  22  26  ar  
 43  22  43  1   
 44  23  44  1   
 45  23  45  1   
 46  23  46  1   
 47  24  47  1   
 48  24  48  1   
 49  24  49  1   
 50  25  27  ar  
 51  25  50  1   
 52  26  27  ar  
 53  26  51  1   
 54  27  52  1   
@<TRIPOS>SUBSTRUCTURE
  1 ****  13 GROUP 4 **** **** 0

# MOE 2024.06 (io_trps.svl 2023.06)
