@<TRIPOS>MOLECULE
NONAME
43 45 1 0 0 
SMALL
USER_CHARGES


@<TRIPOS>ATOM
  1 O       -1.9840     2.1770    -2.6940 O.2   1 <1>  -0.5700 
  2 C       -1.5470     2.1490    -1.5550 C.2   1 <1>   0.5440 
  3 N       -1.2410     0.9080    -1.0180 N.am  1 <1>  -0.6600 
  4 C       -1.3950     3.4160    -0.8380 C.ar  1 <1>   0.3960 
  5 C       -1.1390    -0.3230    -1.8620 C.3   1 <1>   0.1400 
  6 C       -0.9500     0.6540     0.4280 C.3   1 <1>   0.1400 
  7 N       -0.3790     3.6080     0.0180 N.ar  1 <1>  -0.6200 
  8 C       -2.3330     4.4220    -1.0890 C.ar  1 <1>   0.1600 
  9 C       -1.8910    -1.4970    -1.2180 C.3   1 <1>   0.1200 
 10 C       -1.6950    -0.5930     0.9350 C.3   1 <1>   0.1200 
 11 C       -0.3710     4.7990     0.5900 C.ar  1 <1>   0.4100 
 12 N       -2.3440     5.6260    -0.5340 N.ar  1 <1>  -0.6200 
 13 O       -1.4630    -1.6920     0.1000 O.3   1 <1>  -0.5600 
 14 N        0.6650     5.0190     1.4820 N.pl3 1 <1>  -0.8380 
 15 C       -1.3390     5.7770     0.3040 C.ar  1 <1>   0.1600 
 16 C        2.0510     4.9200     0.9470 C.3   1 <1>   0.3900 
 17 C        0.4910     5.9100     2.6620 C.3   1 <1>   0.1290 
 18 C        2.4690     6.2610     0.3680 C.2   1 <1>  -0.1810 
 19 C        2.2220     6.8010    -0.8490 C.2   1 <1>  -0.3320 
 20 C        3.2160     7.2250     1.0370 C.2   1 <1>   0.1390 
 21 N        2.8030     8.0190    -0.8520 N.pl3 1 <1>   0.3000 
 22 C        1.4540     6.2360    -2.0330 C.3   1 <1>  -0.0600 
 23 N        3.4190     8.2830     0.3150 N.2   1 <1>  -0.7070 
 24 H       -0.1020    -0.5880    -1.9710 H     1 <1>   0.0800 
 25 H       -1.5380    -0.1480    -2.8460 H     1 <1>   0.0800 
 26 H       -1.2510     1.4900     1.0310 H     1 <1>   0.0800 
 27 H        0.1090     0.5150     0.5560 H     1 <1>   0.0800 
 28 H       -3.1190     4.2110    -1.7940 H     1 <1>   0.1500 
 29 H       -1.7000    -2.4030    -1.7630 H     1 <1>   0.0800 
 30 H       -2.9510    -1.3110    -1.2150 H     1 <1>   0.0800 
 31 H       -2.7540    -0.4090     0.9740 H     1 <1>   0.0800 
 32 H       -1.3520    -0.8520     1.9210 H     1 <1>   0.0800 
 33 H       -1.2490     6.7270     0.7950 H     1 <1>   0.1500 
 34 H        2.1010     4.1680     0.1780 H     1 <1>   0.0800 
 35 H        2.7220     4.6280     1.7350 H     1 <1>   0.0800 
 36 H       -0.5140     5.8290     3.0400 H     1 <1>   0.0800 
 37 H        0.6820     6.9340     2.3870 H     1 <1>   0.0800 
 38 H        1.1730     5.6210     3.4420 H     1 <1>   0.0800 
 39 H        3.5880     7.1190     2.0420 H     1 <1>   0.1500 
 40 H        2.7970     8.6880    -1.6310 H     1 <1>   0.2700 
 41 H        1.1720     5.2150    -1.8490 H     1 <1>   0.0800 
 42 H        2.0620     6.2630    -2.9190 H     1 <1>   0.0800 
 43 H        0.5600     6.8100    -2.2020 H     1 <1>   0.0800 
@<TRIPOS>BOND
  1   1   2  2   
  2   2   3  am  
  3   2   4  1   
  4   3   5  1   
  5   3   6  1   
  6   4   7  ar  
  7   4   8  ar  
  8   5   9  1   
  9   5  24  1   
 10   5  25  1   
 11   6  10  1   
 12   6  26  1   
 13   6  27  1   
 14   7  11  ar  
 15   8  12  ar  
 16   8  28  1   
 17   9  13  1   
 18   9  29  1   
 19   9  30  1   
 20  10  13  1   
 21  10  31  1   
 22  10  32  1   
 23  11  14  1   
 24  11  15  ar  
 25  12  15  ar  
 26  14  16  1   
 27  14  17  1   
 28  15  33  1   
 29  16  18  1   
 30  16  34  1   
 31  16  35  1   
 32  17  36  1   
 33  17  37  1   
 34  17  38  1   
 35  18  19  2   
 36  18  20  1   
 37  19  21  1   
 38  19  22  1   
 39  20  23  2   
 40  20  39  1   
 41  21  23  1   
 42  21  40  1   
 43  22  41  1   
 44  22  42  1   
 45  22  43  1   
@<TRIPOS>SUBSTRUCTURE
  1 ****   7 GROUP 4 **** **** 0

# MOE 2024.06 (io_trps.svl 2023.06)
