@<TRIPOS>MOLECULE
NONAME
47 49 1 0 0 
SMALL
USER_CHARGES


@<TRIPOS>ATOM
  1 O       -0.3780    -0.4800     1.1990 O.2   1 <1>  -0.5700 
  2 C       -0.2320    -1.6850     1.1420 C.2   1 <1>   0.5440 
  3 N       -1.2620    -2.4180     1.6180 N.am  1 <1>  -0.8000 
  4 C        0.9770    -2.2820     0.6130 C.ar  1 <1>   0.0860 
  5 C        1.0360    -3.5910     0.0880 C.ar  1 <1>   0.4100 
  6 C        2.1580    -1.5520     0.6230 C.ar  1 <1>  -0.1500 
  7 N        2.1570    -4.1540    -0.3570 N.ar  1 <1>  -0.6200 
  8 N       -0.0850    -4.3970    -0.0420 N.pl3 1 <1>  -0.8380 
  9 C        3.3160    -2.1290     0.1520 C.ar  1 <1>  -0.1430 
 10 C        3.2580    -3.4340    -0.3230 C.ar  1 <1>   0.1670 
 11 C       -0.9770    -4.1110    -1.2190 C.3   1 <1>   0.2090 
 12 C        0.0490    -5.8470     0.3130 C.3   1 <1>   0.2090 
 13 C        4.6090    -1.3230     0.1730 C.3   1 <1>  -0.0970 
 14 C        4.5010    -4.1280    -0.8480 C.3   1 <1>  -0.0970 
 15 C       -1.5550    -5.3780    -1.8730 C.3   1 <1>   0.1400 
 16 C       -1.3190    -6.5530     0.3600 C.3   1 <1>   0.1400 
 17 N       -2.1650    -6.2940    -0.8530 N.am  1 <1>  -0.6600 
 18 C       -3.4410    -6.7760    -1.0050 C.2   1 <1>   0.5770 
 19 O       -4.1100    -6.4830    -1.9680 O.2   1 <1>  -0.5700 
 20 C       -4.0460    -7.6930     0.0610 C.3   1 <1>   0.0530 
 21 C       -3.5270    -9.1560     0.0220 C.3   1 <1>   0.0000 
 22 C       -5.4590    -8.2790    -0.2290 C.3   1 <1>   0.0000 
 23 C       -4.9590    -9.5920     0.4260 C.3   1 <1>   0.0000 
 24 H       -2.1250    -1.9580     1.9020 H     1 <1>   0.3700 
 25 H       -1.2960    -3.4170     1.3850 H     1 <1>   0.3700 
 26 H        2.1540    -0.5440     1.0040 H     1 <1>   0.1500 
 27 H       -0.4250    -3.5580    -1.9610 H     1 <1>   0.0800 
 28 H       -1.7950    -3.4920    -0.8960 H     1 <1>   0.0800 
 29 H        0.5360    -5.9360     1.2680 H     1 <1>   0.0800 
 30 H        0.6720    -6.3360    -0.4160 H     1 <1>   0.0800 
 31 H        4.4620    -0.3700     0.6480 H     1 <1>   0.0800 
 32 H        4.9520    -1.1500    -0.8310 H     1 <1>   0.0800 
 33 H        5.3690    -1.8540     0.7180 H     1 <1>   0.0800 
 34 H        4.2430    -5.0700    -1.2990 H     1 <1>   0.0800 
 35 H        5.1840    -4.3120    -0.0400 H     1 <1>   0.0800 
 36 H        4.9820    -3.5200    -1.5920 H     1 <1>   0.0800 
 37 H       -0.7670    -5.9000    -2.3880 H     1 <1>   0.0800 
 38 H       -2.2840    -5.0870    -2.6090 H     1 <1>   0.0800 
 39 H       -1.8460    -6.2100     1.2340 H     1 <1>   0.0800 
 40 H       -1.1550    -7.6110     0.4610 H     1 <1>   0.0800 
 41 H       -3.9960    -7.2750     1.0530 H     1 <1>   0.0000 
 42 H       -2.7830    -9.3780     0.7660 H     1 <1>   0.0000 
 43 H       -3.2590    -9.4830    -0.9690 H     1 <1>   0.0000 
 44 H       -5.6740    -8.4110    -1.2760 H     1 <1>   0.0000 
 45 H       -6.2510    -7.7970     0.3150 H     1 <1>   0.0000 
 46 H       -5.1050    -9.6070     1.4930 H     1 <1>   0.0000 
 47 H       -5.3000   -10.4840    -0.0700 H     1 <1>   0.0000 
@<TRIPOS>BOND
  1   1   2  2   
  2   2   3  am  
  3   2   4  1   
  4   3  24  1   
  5   3  25  1   
  6   4   5  ar  
  7   4   6  ar  
  8   5   7  ar  
  9   5   8  1   
 10   6   9  ar  
 11   6  26  1   
 12   7  10  ar  
 13   8  11  1   
 14   8  12  1   
 15   9  10  ar  
 16   9  13  1   
 17  10  14  1   
 18  11  15  1   
 19  11  27  1   
 20  11  28  1   
 21  12  16  1   
 22  12  29  1   
 23  12  30  1   
 24  13  31  1   
 25  13  32  1   
 26  13  33  1   
 27  14  34  1   
 28  14  35  1   
 29  14  36  1   
 30  15  17  1   
 31  15  37  1   
 32  15  38  1   
 33  16  17  1   
 34  16  39  1   
 35  16  40  1   
 36  17  18  am  
 37  18  19  2   
 38  18  20  1   
 39  20  21  1   
 40  20  22  1   
 41  20  41  1   
 42  21  23  1   
 43  21  42  1   
 44  21  43  1   
 45  22  23  1   
 46  22  44  1   
 47  22  45  1   
 48  23  46  1   
 49  23  47  1   
@<TRIPOS>SUBSTRUCTURE
  1 ****   8 GROUP 4 **** **** 0

# MOE 2024.06 (io_trps.svl 2023.06)
