@<TRIPOS>MOLECULE
NONAME
45 47 1 0 0 
SMALL
USER_CHARGES


@<TRIPOS>ATOM
  1 S       -0.2520    -4.0930    -1.5550 S.3   1 <1>  -0.3320 
  2 C       -1.4920    -3.4320    -0.4310 C.ar  1 <1>   0.1020 
  3 C        0.5370    -2.6440    -2.3870 C.3   1 <1>  -0.0100 
  4 C       -2.1490    -4.3450     0.3720 C.ar  1 <1>  -0.1500 
  5 C       -1.7940    -2.0820    -0.3660 C.ar  1 <1>  -0.1500 
  6 C       -3.1380    -3.9150     1.2430 C.ar  1 <1>  -0.1430 
  7 C       -2.7720    -1.6510     0.5140 C.ar  1 <1>  -0.1500 
  8 C       -3.4420    -2.5620     1.3140 C.ar  1 <1>  -0.1500 
  9 C       -3.8820    -4.9290     2.0880 C.3   1 <1>   0.4860 
 10 N       -4.7950    -5.6710     1.1870 N.4   1 <1>  -0.9590 
 11 C       -5.9000    -4.8620     0.5940 C.3   1 <1>   0.3430 
 12 C       -5.3930    -6.9190     1.7060 C.3   1 <1>   0.3430 
 13 C       -7.0290    -5.8580     0.2890 C.3   1 <1>   0.2000 
 14 C       -6.5190    -7.2410     0.7210 C.3   1 <1>  -0.0800 
 15 O       -8.1470    -5.5320     1.0480 O.3   1 <1>  -0.6800 
 16 C       -6.0450    -8.1100    -0.4730 C.3   1 <1>  -0.0170 
 17 C       -4.6680    -7.7740    -1.0430 C.ar  1 <1>   0.1670 
 18 N       -4.5070    -6.5580    -1.5460 N.ar  1 <1>  -0.6200 
 19 C       -3.6640    -8.7310    -1.0100 C.ar  1 <1>  -0.1500 
 20 C       -3.3150    -6.2970    -2.0670 C.ar  1 <1>   0.1600 
 21 C       -2.4210    -8.4380    -1.5300 C.ar  1 <1>  -0.1500 
 22 C       -2.2550    -7.1840    -2.0760 C.ar  1 <1>  -0.1500 
 23 H        1.3110    -3.0210    -3.0310 H     1 <1>   0.0800 
 24 H        0.9520    -2.0080    -1.6260 H     1 <1>   0.0800 
 25 H       -0.2180    -2.1340    -2.9580 H     1 <1>   0.0800 
 26 H       -1.8750    -5.3830     0.3000 H     1 <1>   0.1500 
 27 H       -1.2880    -1.3660    -0.9840 H     1 <1>   0.1500 
 28 H       -3.0110    -0.6020     0.5740 H     1 <1>   0.1500 
 29 H       -4.2000    -2.2000     1.9890 H     1 <1>   0.1500 
 30 H       -4.4380    -4.4350     2.8680 H     1 <1>   0.0800 
 31 H       -3.1740    -5.6040     2.5380 H     1 <1>   0.0800 
 32 H       -4.2420    -5.9460     0.3480 H     1 <1>   0.4500 
 33 H       -6.2480    -4.1110     1.2820 H     1 <1>   0.0800 
 34 H       -5.5610    -4.3910    -0.3150 H     1 <1>   0.0800 
 35 H       -4.6680    -7.7160     1.7570 H     1 <1>   0.0800 
 36 H       -5.8070    -6.7460     2.6860 H     1 <1>   0.0800 
 37 H       -7.3150    -5.8180    -0.7500 H     1 <1>   0.0800 
 38 H       -7.3010    -7.7870     1.2190 H     1 <1>   0.0800 
 39 H       -8.0280    -5.6950     2.0030 H     1 <1>   0.4000 
 40 H       -6.7660    -8.0470    -1.2700 H     1 <1>   0.0800 
 41 H       -6.0400    -9.1380    -0.1550 H     1 <1>   0.0800 
 42 H       -3.8410    -9.7060    -0.5930 H     1 <1>   0.1500 
 43 H       -3.1680    -5.3230    -2.5070 H     1 <1>   0.1500 
 44 H       -1.6190    -9.1570    -1.5230 H     1 <1>   0.1500 
 45 H       -1.3130    -6.8950    -2.5090 H     1 <1>   0.1500 
@<TRIPOS>BOND
  1   1   2  1   
  2   1   3  1   
  3   2   4  ar  
  4   2   5  ar  
  5   3  23  1   
  6   3  24  1   
  7   3  25  1   
  8   4   6  ar  
  9   4  26  1   
 10   5   7  ar  
 11   5  27  1   
 12   6   8  ar  
 13   6   9  1   
 14   7   8  ar  
 15   7  28  1   
 16   8  29  1   
 17   9  10  1   
 18   9  30  1   
 19   9  31  1   
 20  10  11  1   
 21  10  12  1   
 22  10  32  1   
 23  11  13  1   
 24  11  33  1   
 25  11  34  1   
 26  12  14  1   
 27  12  35  1   
 28  12  36  1   
 29  13  14  1   
 30  13  15  1   
 31  13  37  1   
 32  14  16  1   
 33  14  38  1   
 34  15  39  1   
 35  16  17  1   
 36  16  40  1   
 37  16  41  1   
 38  17  18  ar  
 39  17  19  ar  
 40  18  20  ar  
 41  19  21  ar  
 42  19  42  1   
 43  20  22  ar  
 44  20  43  1   
 45  21  22  ar  
 46  21  44  1   
 47  22  45  1   
@<TRIPOS>SUBSTRUCTURE
  1 ****  10 GROUP 4 **** **** 0

# MOE 2024.06 (io_trps.svl 2023.06)
