@<TRIPOS>MOLECULE
NONAME
52 55 1 0 0 
SMALL
USER_CHARGES


@<TRIPOS>ATOM
  1 CL      -1.9530     4.4370     2.7300 Cl    1 <1>  -0.1770 
  2 C       -1.8420     5.1940     1.1600 C.ar  1 <1>   0.1770 
  3 C       -2.5750     4.6900     0.0880 C.ar  1 <1>   0.0860 
  4 C       -1.0080     6.2920     1.0340 C.ar  1 <1>  -0.1500 
  5 C       -2.4310     5.3710    -1.1170 C.ar  1 <1>   0.1900 
  6 C       -3.4180     3.5280     0.2040 C.2   1 <1>   0.5440 
  7 C       -0.8820     6.9310    -0.1890 C.ar  1 <1>  -0.1500 
  8 F       -3.1220     4.9840    -2.1550 F     1 <1>  -0.1900 
  9 C       -1.6010     6.4670    -1.2760 C.ar  1 <1>  -0.1500 
 10 O       -3.0710     2.4970    -0.3410 O.2   1 <1>  -0.5700 
 11 N       -4.6130     3.5500     0.8940 N.am  1 <1>  -0.6600 
 12 C       -5.4480     2.3330     1.0470 C.3   1 <1>   0.1400 
 13 C       -5.2340     4.7940     1.4320 C.3   1 <1>   0.1400 
 14 C       -6.7010     2.4800     0.1770 C.3   1 <1>  -0.1600 
 15 C       -6.7660     4.7380     1.3290 C.3   1 <1>  -0.1600 
 16 C       -7.2550     3.9260     0.1160 C.3   1 <1>   0.2800 
 17 O       -8.6410     3.8380     0.2860 O.3   1 <1>  -0.5600 
 18 C       -6.8620     4.6250    -1.2250 C.3   1 <1>   0.1400 
 19 C       -9.4140     3.5280    -0.8260 C.3   1 <1>   0.1200 
 20 N       -7.6190     5.8780    -1.5560 N.am  1 <1>  -0.6600 
 21 C       -9.9580     4.8250    -1.4140 C.3   1 <1>  -0.0990 
 22 C       -8.9810     5.9470    -1.7290 C.2   1 <1>   0.5690 
 23 C       -6.7720     7.0650    -1.9250 C.3   1 <1>   0.3200 
 24 O       -9.4910     6.9400    -2.1910 O.2   1 <1>  -0.5700 
 25 C       -5.9580     7.6270    -0.7650 C.2   1 <1>   0.2980 
 26 O       -4.6520     7.5640    -0.8520 O.3   1 <1>  -0.0190 
 27 N       -6.4020     8.1790     0.2940 N.2   1 <1>  -0.5650 
 28 N       -4.2330     8.1160     0.2460 N.2   1 <1>  -0.4100 
 29 C       -5.2650     8.4720     0.8990 C.2   1 <1>   0.3350 
 30 C       -5.2550     9.1610     2.2420 C.3   1 <1>  -0.0590 
 31 H       -0.4600     6.6430     1.8900 H     1 <1>   0.1500 
 32 H       -0.2330     7.7860    -0.2910 H     1 <1>   0.1500 
 33 H       -1.5270     6.9520    -2.2340 H     1 <1>   0.1500 
 34 H       -5.7280     2.2350     2.0820 H     1 <1>   0.0800 
 35 H       -4.9040     1.4460     0.7700 H     1 <1>   0.0800 
 36 H       -4.8760     5.6370     0.8760 H     1 <1>   0.0800 
 37 H       -4.9420     4.9270     2.4610 H     1 <1>   0.0800 
 38 H       -7.4460     1.8140     0.5750 H     1 <1>   0.0800 
 39 H       -6.4590     2.1320    -0.8100 H     1 <1>   0.0800 
 40 H       -7.1610     5.7370     1.2860 H     1 <1>   0.0800 
 41 H       -7.1480     4.2840     2.2260 H     1 <1>   0.0800 
 42 H       -6.9930     3.9350    -2.0390 H     1 <1>   0.0800 
 43 H       -5.8100     4.8400    -1.2000 H     1 <1>   0.0800 
 44 H      -10.2330     2.9190    -0.4860 H     1 <1>   0.0800 
 45 H       -8.8470     2.9580    -1.5400 H     1 <1>   0.0800 
 46 H      -10.6810     5.2200    -0.7250 H     1 <1>   0.0800 
 47 H      -10.4870     4.5910    -2.3190 H     1 <1>   0.0800 
 48 H       -7.3780     7.8680    -2.3040 H     1 <1>   0.0800 
 49 H       -6.1020     6.7770    -2.7160 H     1 <1>   0.0800 
 50 H       -5.7820     8.5600     2.9590 H     1 <1>   0.0800 
 51 H       -5.7400    10.1160     2.1580 H     1 <1>   0.0800 
 52 H       -4.2450     9.3070     2.5760 H     1 <1>   0.0800 
@<TRIPOS>BOND
  1   1   2  1   
  2   2   3  ar  
  3   2   4  ar  
  4   3   5  ar  
  5   3   6  1   
  6   4   7  ar  
  7   4  31  1   
  8   5   8  1   
  9   5   9  ar  
 10   6  10  2   
 11   6  11  am  
 12   7   9  ar  
 13   7  32  1   
 14   9  33  1   
 15  11  12  1   
 16  11  13  1   
 17  12  14  1   
 18  12  34  1   
 19  12  35  1   
 20  13  15  1   
 21  13  36  1   
 22  13  37  1   
 23  14  16  1   
 24  14  38  1   
 25  14  39  1   
 26  15  16  1   
 27  15  40  1   
 28  15  41  1   
 29  16  17  1   
 30  16  18  1   
 31  17  19  1   
 32  18  20  1   
 33  18  42  1   
 34  18  43  1   
 35  19  21  1   
 36  19  44  1   
 37  19  45  1   
 38  20  22  am  
 39  20  23  1   
 40  21  22  1   
 41  21  46  1   
 42  21  47  1   
 43  22  24  2   
 44  23  25  1   
 45  23  48  1   
 46  23  49  1   
 47  25  26  1   
 48  25  27  2   
 49  26  28  1   
 50  27  29  1   
 51  28  29  2   
 52  29  30  1   
 53  30  50  1   
 54  30  51  1   
 55  30  52  1   
@<TRIPOS>SUBSTRUCTURE
  1 ****  13 GROUP 4 **** **** 0

# MOE 2024.06 (io_trps.svl 2023.06)
