@<TRIPOS>MOLECULE
NONAME
53 56 1 0 0 
SMALL
USER_CHARGES


@<TRIPOS>ATOM
  1 O       -1.1940    -1.5660     2.1370 O.3   1 <1>  -0.6800 
  2 C       -2.1280    -2.0860     1.2550 C.3   1 <1>   0.2000 
  3 C       -1.7330    -3.5210     0.8610 C.3   1 <1>   0.2090 
  4 C       -2.1720    -1.1690     0.0290 C.3   1 <1>  -0.1600 
  5 N       -2.6600    -4.0540    -0.1920 N.pl3 1 <1>  -0.8380 
  6 C       -3.0730    -1.7700    -1.0630 C.3   1 <1>  -0.1600 
  7 C       -3.3080    -5.2470    -0.1250 C.ar  1 <1>   0.4100 
  8 C       -2.6680    -3.2050    -1.4260 C.3   1 <1>   0.2090 
  9 N       -3.5390    -5.8870    -1.2580 N.ar  1 <1>  -0.6200 
 10 C       -3.7210    -5.7850     1.1110 C.ar  1 <1>  -0.1500 
 11 C       -4.1420    -7.0570    -1.2030 C.ar  1 <1>   0.7710 
 12 C       -4.3340    -6.9920     1.1370 C.ar  1 <1>   0.2110 
 13 N       -4.5250    -7.6200    -0.0440 N.ar  1 <1>  -0.1790 
 14 N       -4.3410    -7.6560    -2.3830 N.pl3 1 <1>  -0.8690 
 15 C       -5.0520    -8.9220    -2.7950 C.3   1 <1>   0.3530 
 16 C       -6.1320    -9.4190    -1.8230 C.ar  1 <1>   0.4770 
 17 N       -5.7080   -10.0900    -0.7600 N.ar  1 <1>  -0.6200 
 18 N       -7.3750    -9.0900    -2.1080 N.ar  1 <1>  -0.6200 
 19 C       -6.6450   -10.5400     0.0490 C.ar  1 <1>   0.1670 
 20 C       -8.3010    -9.5190    -1.2800 C.ar  1 <1>   0.1670 
 21 C       -7.9850   -10.2770    -0.1680 C.ar  1 <1>  -0.1430 
 22 C       -6.1660   -11.3840     1.2250 C.3   1 <1>  -0.0170 
 23 C       -9.7260    -9.1330    -1.6350 C.3   1 <1>  -0.0970 
 24 C       -9.0680   -10.7970     0.7800 C.3   1 <1>  -0.0170 
 25 C       -7.2230   -11.5430     2.3240 C.3   1 <1>  -0.1600 
 26 C       -8.5720   -11.9130     1.7050 C.3   1 <1>  -0.1600 
 27 H       -1.2910    -1.9560     3.0260 H     1 <1>   0.4000 
 28 H       -3.0860    -2.0900     1.7470 H     1 <1>   0.0800 
 29 H       -1.7280    -4.1510     1.7290 H     1 <1>   0.0800 
 30 H       -0.7350    -3.5040     0.4560 H     1 <1>   0.0800 
 31 H       -1.1770    -1.0510    -0.3620 H     1 <1>   0.0800 
 32 H       -2.5460    -0.2010     0.3150 H     1 <1>   0.0800 
 33 H       -3.0220    -1.1570    -1.9450 H     1 <1>   0.0800 
 34 H       -4.0960    -1.7750    -0.7290 H     1 <1>   0.0800 
 35 H       -3.3620    -3.5880    -2.1540 H     1 <1>   0.0800 
 36 H       -1.6850    -3.2100    -1.8650 H     1 <1>   0.0800 
 37 H       -3.5580    -5.2240     2.0110 H     1 <1>   0.1500 
 38 H       -4.6760    -7.4630     2.0440 H     1 <1>   0.1500 
 39 H       -4.9720    -8.5400    -0.1170 H     1 <1>   0.4570 
 40 H       -3.9770    -7.1180    -3.1760 H     1 <1>   0.4000 
 41 H       -4.3260    -9.7050    -2.9300 H     1 <1>   0.0800 
 42 H       -5.5220    -8.7550    -3.7490 H     1 <1>   0.0800 
 43 H       -5.2770   -10.9540     1.6490 H     1 <1>   0.0800 
 44 H       -5.9050   -12.3570     0.8460 H     1 <1>   0.0800 
 45 H       -9.7290    -8.2740    -2.2830 H     1 <1>   0.0800 
 46 H      -10.2920    -8.8860    -0.7560 H     1 <1>   0.0800 
 47 H      -10.2040    -9.9470    -2.1490 H     1 <1>   0.0800 
 48 H       -9.9050   -11.1720     0.2170 H     1 <1>   0.0800 
 49 H       -9.4170    -9.9750     1.3820 H     1 <1>   0.0800 
 50 H       -7.3200   -10.6210     2.8720 H     1 <1>   0.0800 
 51 H       -6.9140   -12.3090     3.0140 H     1 <1>   0.0800 
 52 H       -8.4690   -12.8260     1.1420 H     1 <1>   0.0800 
 53 H       -9.2970   -12.0860     2.4820 H     1 <1>   0.0800 
@<TRIPOS>BOND
  1   1   2  1   
  2   1  27  1   
  3   2   3  1   
  4   2   4  1   
  5   2  28  1   
  6   3   5  1   
  7   3  29  1   
  8   3  30  1   
  9   4   6  1   
 10   4  31  1   
 11   4  32  1   
 12   5   7  1   
 13   5   8  1   
 14   6   8  1   
 15   6  33  1   
 16   6  34  1   
 17   7   9  ar  
 18   7  10  ar  
 19   8  35  1   
 20   8  36  1   
 21   9  11  ar  
 22  10  12  ar  
 23  10  37  1   
 24  11  13  ar  
 25  11  14  1   
 26  12  13  ar  
 27  12  38  1   
 28  13  39  1   
 29  14  15  1   
 30  14  40  1   
 31  15  16  1   
 32  15  41  1   
 33  15  42  1   
 34  16  17  ar  
 35  16  18  ar  
 36  17  19  ar  
 37  18  20  ar  
 38  19  21  ar  
 39  19  22  1   
 40  20  21  ar  
 41  20  23  1   
 42  21  24  1   
 43  22  25  1   
 44  22  43  1   
 45  22  44  1   
 46  23  45  1   
 47  23  46  1   
 48  23  47  1   
 49  24  26  1   
 50  24  48  1   
 51  24  49  1   
 52  25  26  1   
 53  25  50  1   
 54  25  51  1   
 55  26  52  1   
 56  26  53  1   
@<TRIPOS>SUBSTRUCTURE
  1 ****  13 GROUP 4 **** **** 0

# MOE 2024.06 (io_trps.svl 2023.06)
