@<TRIPOS>MOLECULE
NONAME
50 52 1 0 0 
SMALL
USER_CHARGES


@<TRIPOS>ATOM
  1 O       -1.1050    -0.1900     1.5950 O.2   1 <1>  -0.5700 
  2 C       -1.5530     0.6330     0.8190 C.2   1 <1>   0.5440 
  3 N       -2.3790     0.1760    -0.1880 N.am  1 <1>  -0.6600 
  4 C       -1.2790     2.0470     1.0100 C.ar  1 <1>   0.0860 
  5 C       -2.5190    -1.2840    -0.4230 C.3   1 <1>   0.1400 
  6 C       -3.5500     0.9690    -0.6490 C.3   1 <1>   0.1400 
  7 C       -0.6850     2.8610     0.0320 C.ar  1 <1>  -0.1440 
  8 C       -1.6440     2.6300     2.2240 C.ar  1 <1>  -0.1500 
  9 C       -3.7250    -1.7920     0.3960 C.3   1 <1>   0.4230 
 10 C       -4.7810     0.4900     0.1350 C.3   1 <1>  -0.1600 
 11 C       -0.5300     4.2210     0.2850 C.ar  1 <1>   0.0830 
 12 C       -0.2010     2.2710    -1.2940 C.3   1 <1>  -0.0960 
 13 C       -1.4690     3.9780     2.4690 C.ar  1 <1>  -0.1500 
 14 N       -3.8560    -3.3080     0.4310 N.4   1 <1>  -0.9590 
 15 C       -5.0410    -1.0430     0.0210 C.3   1 <1>   0.0000 
 16 O       -0.0050     5.0440    -0.6360 O.3   1 <1>  -0.5330 
 17 C       -0.9150     4.7790     1.4910 C.ar  1 <1>  -0.1500 
 18 C       -5.2090    -3.7940     0.8560 C.3   1 <1>   0.3430 
 19 C       -3.4180    -4.0260    -0.8100 C.3   1 <1>   0.2630 
 20 C       -6.1590    -1.4370     1.0320 C.3   1 <1>  -0.1600 
 21 C       -5.4690    -1.4090    -1.4290 C.3   1 <1>   0.1200 
 22 C       -5.9010    -2.7720     1.7570 C.3   1 <1>  -0.1600 
 23 O       -6.5170    -0.6190    -1.8720 O.3   1 <1>  -0.6800 
 24 H       -2.6480    -1.4550    -1.4760 H     1 <1>   0.0800 
 25 H       -1.6210    -1.7880    -0.1070 H     1 <1>   0.0800 
 26 H       -3.3940     2.0200    -0.4740 H     1 <1>   0.0800 
 27 H       -3.6940     0.8290    -1.7070 H     1 <1>   0.0800 
 28 H       -2.0740     2.0080     2.9910 H     1 <1>   0.1500 
 29 H       -3.5090    -1.4890     1.4080 H     1 <1>   0.0800 
 30 H       -4.6220     0.7570     1.1660 H     1 <1>   0.0800 
 31 H       -5.6390     1.0490    -0.1940 H     1 <1>   0.0800 
 32 H       -0.0140     1.2160    -1.2120 H     1 <1>   0.0800 
 33 H        0.7250     2.7240    -1.5990 H     1 <1>   0.0800 
 34 H       -0.9400     2.4300    -2.0590 H     1 <1>   0.0800 
 35 H       -1.7610     4.4030     3.4130 H     1 <1>   0.1500 
 36 H       -3.2060    -3.5930     1.1810 H     1 <1>   0.4500 
 37 H        0.2260     4.5860    -1.4620 H     1 <1>   0.4500 
 38 H       -0.7750     5.8320     1.6570 H     1 <1>   0.1500 
 39 H       -5.8280    -3.9560    -0.0120 H     1 <1>   0.0800 
 40 H       -5.1140    -4.7340     1.3760 H     1 <1>   0.0800 
 41 H       -4.0290    -3.7370    -1.6500 H     1 <1>   0.0800 
 42 H       -3.5050    -5.0920    -0.6740 H     1 <1>   0.0800 
 43 H       -2.3890    -3.7990    -1.0360 H     1 <1>   0.0800 
 44 H       -6.2690    -0.6790     1.7900 H     1 <1>   0.0800 
 45 H       -7.1090    -1.4910     0.5300 H     1 <1>   0.0800 
 46 H       -5.7890    -2.4330    -1.5010 H     1 <1>   0.0800 
 47 H       -4.6650    -1.2560    -2.1270 H     1 <1>   0.0800 
 48 H       -6.8410    -3.1760     2.0950 H     1 <1>   0.0800 
 49 H       -5.2970    -2.6090     2.6330 H     1 <1>   0.0800 
 50 H       -7.3260    -0.7390    -1.3350 H     1 <1>   0.4000 
@<TRIPOS>BOND
  1   1   2  2   
  2   2   3  am  
  3   2   4  1   
  4   3   5  1   
  5   3   6  1   
  6   4   7  ar  
  7   4   8  ar  
  8   5   9  1   
  9   5  24  1   
 10   5  25  1   
 11   6  10  1   
 12   6  26  1   
 13   6  27  1   
 14   7  11  ar  
 15   7  12  1   
 16   8  13  ar  
 17   8  28  1   
 18   9  14  1   
 19   9  15  1   
 20   9  29  1   
 21  10  15  1   
 22  10  30  1   
 23  10  31  1   
 24  11  16  1   
 25  11  17  ar  
 26  12  32  1   
 27  12  33  1   
 28  12  34  1   
 29  13  17  ar  
 30  13  35  1   
 31  14  18  1   
 32  14  19  1   
 33  14  36  1   
 34  15  20  1   
 35  15  21  1   
 36  16  37  1   
 37  17  38  1   
 38  18  22  1   
 39  18  39  1   
 40  18  40  1   
 41  19  41  1   
 42  19  42  1   
 43  19  43  1   
 44  20  22  1   
 45  20  44  1   
 46  20  45  1   
 47  21  23  1   
 48  21  46  1   
 49  21  47  1   
 50  22  48  1   
 51  22  49  1   
 52  23  50  1   
@<TRIPOS>SUBSTRUCTURE
  1 ****   3 GROUP 4 **** **** 0

# MOE 2024.06 (io_trps.svl 2023.06)
