@<TRIPOS>MOLECULE
NONAME
48 50 1 0 0 
SMALL
USER_CHARGES


@<TRIPOS>ATOM
  1 S       -0.4820    -0.2260    -1.0540 S.o2  1 <1>   1.4470 
  2 O       -1.1080     0.5080    -2.1300 O.2   1 <1>  -0.6500 
  3 O       -0.1220    -1.6090    -1.3100 O.2   1 <1>  -0.6500 
  4 N       -1.5360    -0.2600     0.2830 N.am  1 <1>  -0.8490 
  5 C        0.9740     0.6540    -0.4470 C.ar  1 <1>  -0.0090 
  6 C       -1.7740    -1.5950     0.8610 C.3   1 <1>   0.1960 
  7 C       -2.7970     0.4890     0.1320 C.3   1 <1>   0.1960 
  8 C        0.8990     1.9800    -0.0550 C.ar  1 <1>   0.1900 
  9 C        2.2190     0.0400    -0.3460 C.ar  1 <1>  -0.1500 
 10 C       -2.7160    -2.4330    -0.0510 C.3   1 <1>   0.4230 
 11 C       -3.8220    -0.2950    -0.7100 C.3   1 <1>  -0.1600 
 12 F       -0.2410     2.6130    -0.1290 F     1 <1>  -0.1900 
 13 C        1.9860     2.6880     0.4200 C.ar  1 <1>  -0.1500 
 14 C        3.3300     0.7250     0.1250 C.ar  1 <1>  -0.1440 
 15 N       -2.8990    -3.8650     0.3690 N.4   1 <1>  -0.9590 
 16 C       -4.0800    -1.7240    -0.1580 C.3   1 <1>  -0.1060 
 17 C        3.2100     2.0520     0.5100 C.ar  1 <1>  -0.1500 
 18 C        4.6740     0.0240     0.2210 C.3   1 <1>  -0.0970 
 19 C       -3.7150    -4.6250    -0.6110 C.3   1 <1>   0.3430 
 20 C       -1.6430    -4.5770     0.7250 C.3   1 <1>   0.2630 
 21 C       -4.7130    -1.6680     1.2450 C.2   1 <1>   0.9060 
 22 C       -4.9920    -2.4890    -1.1460 C.3   1 <1>  -0.1600 
 23 C       -5.0910    -3.9770    -0.7810 C.3   1 <1>  -0.1600 
 24 O       -4.4930    -2.5980     2.0390 O.co2 1 <1>  -0.9000 
 25 O       -5.4010    -0.7000     1.5640 O.co2 1 <1>  -0.9000 
 26 H       -0.8280    -2.0880     0.9880 H     1 <1>   0.0800 
 27 H       -2.2090    -1.4780     1.8390 H     1 <1>   0.0800 
 28 H       -3.2140     0.6730     1.1100 H     1 <1>   0.0800 
 29 H       -2.6100     1.4500    -0.3170 H     1 <1>   0.0800 
 30 H        2.3210    -0.9900    -0.6430 H     1 <1>   0.1500 
 31 H       -2.2750    -2.4430    -1.0320 H     1 <1>   0.0800 
 32 H       -4.7460     0.2580    -0.7140 H     1 <1>   0.0800 
 33 H       -3.4850    -0.3390    -1.7300 H     1 <1>   0.0800 
 34 H        1.8730     3.7170     0.7130 H     1 <1>   0.1500 
 35 H       -3.5010    -3.7450     1.2290 H     1 <1>   0.4500 
 36 H        4.0670     2.5910     0.8790 H     1 <1>   0.1500 
 37 H        5.4770     0.7290     0.1020 H     1 <1>   0.0800 
 38 H        4.7660    -0.7220    -0.5480 H     1 <1>   0.0800 
 39 H        4.7700    -0.4520     1.1800 H     1 <1>   0.0800 
 40 H       -3.2080    -4.6470    -1.5620 H     1 <1>   0.0800 
 41 H       -3.8440    -5.6390    -0.2690 H     1 <1>   0.0800 
 42 H       -0.9680    -4.5840    -0.1150 H     1 <1>   0.0800 
 43 H       -1.8620    -5.5920     1.0100 H     1 <1>   0.0800 
 44 H       -1.1620    -4.0890     1.5570 H     1 <1>   0.0800 
 45 H       -5.9760    -2.0490    -1.1360 H     1 <1>   0.0800 
 46 H       -4.6020    -2.3990    -2.1460 H     1 <1>   0.0800 
 47 H       -5.6350    -4.4980    -1.5490 H     1 <1>   0.0800 
 48 H       -5.6480    -4.0910     0.1350 H     1 <1>   0.0800 
@<TRIPOS>BOND
  1   1   2  2   
  2   1   3  2   
  3   1   4  am  
  4   1   5  1   
  5   4   6  1   
  6   4   7  1   
  7   5   8  ar  
  8   5   9  ar  
  9   6  10  1   
 10   6  26  1   
 11   6  27  1   
 12   7  11  1   
 13   7  28  1   
 14   7  29  1   
 15   8  12  1   
 16   8  13  ar  
 17   9  14  ar  
 18   9  30  1   
 19  10  15  1   
 20  10  16  1   
 21  10  31  1   
 22  11  16  1   
 23  11  32  1   
 24  11  33  1   
 25  13  17  ar  
 26  13  34  1   
 27  14  17  ar  
 28  14  18  1   
 29  15  19  1   
 30  15  20  1   
 31  15  35  1   
 32  16  21  1   
 33  16  22  1   
 34  17  36  1   
 35  18  37  1   
 36  18  38  1   
 37  18  39  1   
 38  19  23  1   
 39  19  40  1   
 40  19  41  1   
 41  20  42  1   
 42  20  43  1   
 43  20  44  1   
 44  21  24  ar  
 45  21  25  ar  
 46  22  23  1   
 47  22  45  1   
 48  22  46  1   
 49  23  47  1   
 50  23  48  1   
@<TRIPOS>SUBSTRUCTURE
  1 ****   4 GROUP 4 **** **** 0

# MOE 2024.06 (io_trps.svl 2023.06)
