@<TRIPOS>MOLECULE
NONAME
50 53 1 0 0 
SMALL
USER_CHARGES


@<TRIPOS>ATOM
  1 S        0.1040    -0.0750     1.8960 S.o2  1 <1>   1.4470 
  2 O        0.4900     1.1640     2.5370 O.2   1 <1>  -0.6500 
  3 O       -0.6330    -1.0640     2.6530 O.2   1 <1>  -0.6500 
  4 N       -0.8540     0.3460     0.5630 N.am  1 <1>  -0.8490 
  5 C        1.5440    -0.8660     1.1290 C.ar  1 <1>  -0.0090 
  6 C       -2.2320     0.6620     0.9750 C.3   1 <1>   0.1960 
  7 C       -0.2840     1.4600    -0.2000 C.3   1 <1>   0.1960 
  8 C        2.8380    -0.4620     1.4380 C.ar  1 <1>  -0.1500 
  9 C        1.3860    -1.9020     0.2150 C.ar  1 <1>  -0.1500 
 10 C       -3.1640     0.8710    -0.2450 C.3   1 <1>   0.0000 
 11 C       -1.1050     1.7080    -1.4710 C.3   1 <1>  -0.1600 
 12 C        3.9410    -1.0560     0.8480 C.ar  1 <1>   0.0830 
 13 C        2.4790    -2.5130    -0.3760 C.ar  1 <1>  -0.1500 
 14 C       -4.6130     1.1900     0.1740 C.3   1 <1>   0.2000 
 15 C       -2.5800     1.9820    -1.1420 C.3   1 <1>  -0.1600 
 16 C       -3.3480    -0.4530    -1.0080 C.3   1 <1>  -0.1600 
 17 O        5.1620    -0.6130     1.2310 O.3   1 <1>  -0.3630 
 18 C        3.7610    -2.0930    -0.0700 C.ar  1 <1>   0.0830 
 19 O       -4.6910     1.9900     1.3020 O.3   1 <1>  -0.6800 
 20 C       -5.3070    -0.1500     0.4290 C.3   1 <1>  -0.1600 
 21 C       -4.4350    -1.2160    -0.2470 C.3   1 <1>  -0.1600 
 22 C        6.0340    -0.1140     0.2460 C.3   1 <1>   0.1200 
 23 O        4.7890    -2.7460    -0.6600 O.3   1 <1>  -0.3630 
 24 C        6.6890    -1.2590    -0.5270 C.3   1 <1>  -0.1600 
 25 C        5.7040    -2.0030    -1.4280 C.3   1 <1>   0.1200 
 26 H       -2.6220    -0.1400     1.5780 H     1 <1>   0.0800 
 27 H       -2.2160     1.5520     1.5830 H     1 <1>   0.0800 
 28 H       -0.2730     2.3530     0.4040 H     1 <1>   0.0800 
 29 H        0.7300     1.2300    -0.4790 H     1 <1>   0.0800 
 30 H        2.9960     0.3260     2.1530 H     1 <1>   0.1500 
 31 H        0.3920    -2.2360    -0.0320 H     1 <1>   0.1500 
 32 H       -0.6930     2.5500    -1.9980 H     1 <1>   0.0800 
 33 H       -1.0220     0.8490    -2.1130 H     1 <1>   0.0800 
 34 H        2.3430    -3.3200    -1.0730 H     1 <1>   0.1500 
 35 H       -5.1160     1.7050    -0.6280 H     1 <1>   0.0800 
 36 H       -3.1470     2.0720    -2.0520 H     1 <1>   0.0800 
 37 H       -2.6520     2.9220    -0.6190 H     1 <1>   0.0800 
 38 H       -3.7030    -0.2510    -2.0050 H     1 <1>   0.0800 
 39 H       -2.4390    -1.0250    -1.0810 H     1 <1>   0.0800 
 40 H       -4.4990     1.4660     2.1020 H     1 <1>   0.4000 
 41 H       -5.3910    -0.3640     1.4810 H     1 <1>   0.0800 
 42 H       -6.2890    -0.1370    -0.0090 H     1 <1>   0.0800 
 43 H       -3.9780    -1.8390     0.5040 H     1 <1>   0.0800 
 44 H       -5.0100    -1.8410    -0.9090 H     1 <1>   0.0800 
 45 H        5.4780     0.5390    -0.4060 H     1 <1>   0.0800 
 46 H        6.7860     0.4610     0.7560 H     1 <1>   0.0800 
 47 H        7.4560    -0.8390    -1.1510 H     1 <1>   0.0800 
 48 H        7.1630    -1.9440     0.1530 H     1 <1>   0.0800 
 49 H        6.2330    -2.7040    -2.0490 H     1 <1>   0.0800 
 50 H        5.1530    -1.3260    -2.0590 H     1 <1>   0.0800 
@<TRIPOS>BOND
  1   1   2  2   
  2   1   3  2   
  3   1   4  am  
  4   1   5  1   
  5   4   6  1   
  6   4   7  1   
  7   5   8  ar  
  8   5   9  ar  
  9   6  10  1   
 10   6  26  1   
 11   6  27  1   
 12   7  11  1   
 13   7  28  1   
 14   7  29  1   
 15   8  12  ar  
 16   8  30  1   
 17   9  13  ar  
 18   9  31  1   
 19  10  14  1   
 20  10  15  1   
 21  10  16  1   
 22  11  15  1   
 23  11  32  1   
 24  11  33  1   
 25  12  17  1   
 26  12  18  ar  
 27  13  18  ar  
 28  13  34  1   
 29  14  19  1   
 30  14  20  1   
 31  14  35  1   
 32  15  36  1   
 33  15  37  1   
 34  16  21  1   
 35  16  38  1   
 36  16  39  1   
 37  17  22  1   
 38  18  23  1   
 39  19  40  1   
 40  20  21  1   
 41  20  41  1   
 42  20  42  1   
 43  21  43  1   
 44  21  44  1   
 45  22  24  1   
 46  22  45  1   
 47  22  46  1   
 48  23  25  1   
 49  24  25  1   
 50  24  47  1   
 51  24  48  1   
 52  25  49  1   
 53  25  50  1   
@<TRIPOS>SUBSTRUCTURE
  1 ****   5 GROUP 4 **** **** 0

# MOE 2024.06 (io_trps.svl 2023.06)
