@<TRIPOS>MOLECULE
NONAME
49 51 1 0 0 
SMALL
USER_CHARGES


@<TRIPOS>ATOM
  1 O        2.7110     2.5470     1.1150 O.co2 1 <1>  -0.9000 
  2 C        2.3530     1.3770     0.9720 C.2   1 <1>   0.9060 
  3 O        2.2010     0.6370     1.9480 O.co2 1 <1>  -0.9000 
  4 C        2.4810     0.7300    -0.4220 C.3   1 <1>  -0.1060 
  5 C        3.5540    -0.3630    -0.2480 C.3   1 <1>   0.4230 
  6 C        3.0090     1.7430    -1.4910 C.3   1 <1>  -0.1600 
  7 C        1.1390     0.1390    -0.9300 C.3   1 <1>  -0.1600 
  8 N        3.0150    -1.4860     0.6060 N.4   1 <1>  -0.9590 
  9 C        4.8700     0.2940     0.3060 C.3   1 <1>   0.3430 
 10 C        4.4920     2.1460    -1.3620 C.3   1 <1>   0.3430 
 11 C        0.6920    -1.0900    -0.1270 C.3   1 <1>  -0.1600 
 12 C        1.8060    -2.1260     0.0180 C.3   1 <1>   0.3430 
 13 C        3.9930    -2.5040     1.0860 C.3   1 <1>   0.2630 
 14 N        5.0190     1.7600    -0.0250 N.4   1 <1>  -0.9590 
 15 C        6.3360     2.3550     0.3100 C.3   1 <1>   0.5240 
 16 C        6.2190     3.8590     0.2250 C.2   1 <1>  -0.1810 
 17 C        7.1090     4.7230    -0.4030 C.2   1 <1>   0.1390 
 18 C        5.2510     4.6660     0.7140 C.2   1 <1>  -0.3020 
 19 N        6.7250     5.9580    -0.3240 N.2   1 <1>  -0.7070 
 20 N        5.5730     5.9270     0.3720 N.pl3 1 <1>   0.3140 
 21 C        4.8050     7.1480     0.6900 C.3   1 <1>   0.0960 
 22 C        3.5460     7.2550    -0.1800 C.3   1 <1>  -0.2400 
 23 H        3.7760    -0.7640    -1.2220 H     1 <1>   0.0800 
 24 H        2.4140     2.6400    -1.4400 H     1 <1>   0.0800 
 25 H        2.8720     1.3530    -2.4840 H     1 <1>   0.0800 
 26 H        0.3720     0.8950    -0.8790 H     1 <1>   0.0800 
 27 H        1.2340    -0.1550    -1.9620 H     1 <1>   0.0800 
 28 H        2.6380    -0.9550     1.4420 H     1 <1>   0.4500 
 29 H        5.7150    -0.2500    -0.0800 H     1 <1>   0.0800 
 30 H        4.8610     0.1990     1.3800 H     1 <1>   0.0800 
 31 H        4.5750     3.2130    -1.4990 H     1 <1>   0.0800 
 32 H        5.0720     1.6640    -2.1330 H     1 <1>   0.0800 
 33 H       -0.1520    -1.5470    -0.6140 H     1 <1>   0.0800 
 34 H        0.3600    -0.7890     0.8530 H     1 <1>   0.0800 
 35 H        2.0430    -2.5460    -0.9460 H     1 <1>   0.0800 
 36 H        1.4620    -2.9200     0.6620 H     1 <1>   0.0800 
 37 H        4.4170    -3.0420     0.2540 H     1 <1>   0.0800 
 38 H        3.4990    -3.2100     1.7350 H     1 <1>   0.0800 
 39 H        4.7840    -2.0340     1.6460 H     1 <1>   0.0800 
 40 H        4.3470     2.2700     0.6140 H     1 <1>   0.4500 
 41 H        6.6200     2.0840     1.3140 H     1 <1>   0.0800 
 42 H        7.0900     2.0050    -0.3740 H     1 <1>   0.0800 
 43 H        8.0160     4.4300    -0.9060 H     1 <1>   0.1500 
 44 H        4.3600     4.4310     1.2750 H     1 <1>   0.1500 
 45 H        4.5360     7.1190     1.7300 H     1 <1>   0.0800 
 46 H        5.4410     7.9990     0.5240 H     1 <1>   0.0800 
 47 H        2.8940     6.4180    -0.0010 H     1 <1>   0.0800 
 48 H        3.8170     7.2810    -1.2210 H     1 <1>   0.0800 
 49 H        3.0140     8.1580     0.0580 H     1 <1>   0.0800 
@<TRIPOS>BOND
  1   1   2  ar  
  2   2   3  ar  
  3   2   4  1   
  4   4   5  1   
  5   4   6  1   
  6   4   7  1   
  7   5   8  1   
  8   5   9  1   
  9   5  23  1   
 10   6  10  1   
 11   6  24  1   
 12   6  25  1   
 13   7  11  1   
 14   7  26  1   
 15   7  27  1   
 16   8  12  1   
 17   8  13  1   
 18   8  28  1   
 19   9  14  1   
 20   9  29  1   
 21   9  30  1   
 22  10  14  1   
 23  10  31  1   
 24  10  32  1   
 25  11  12  1   
 26  11  33  1   
 27  11  34  1   
 28  12  35  1   
 29  12  36  1   
 30  13  37  1   
 31  13  38  1   
 32  13  39  1   
 33  14  15  1   
 34  14  40  1   
 35  15  16  1   
 36  15  41  1   
 37  15  42  1   
 38  16  17  1   
 39  16  18  2   
 40  17  19  2   
 41  17  43  1   
 42  18  20  1   
 43  18  44  1   
 44  19  20  1   
 45  20  21  1   
 46  21  22  1   
 47  21  45  1   
 48  21  46  1   
 49  22  47  1   
 50  22  48  1   
 51  22  49  1   
@<TRIPOS>SUBSTRUCTURE
  1 ****  14 GROUP 4 **** **** 0

# MOE 2024.06 (io_trps.svl 2023.06)
