@<TRIPOS>MOLECULE
NONAME
51 53 1 0 0 
SMALL
USER_CHARGES


@<TRIPOS>ATOM
  1 F       -1.6890    -0.8590     3.0200 F     1 <1>  -0.1900 
  2 C       -2.3980    -1.4960     2.1280 C.ar  1 <1>   0.1900 
  3 C       -3.3200    -0.7910     1.3800 C.ar  1 <1>  -0.1500 
  4 C       -2.1990    -2.8540     1.9650 C.ar  1 <1>  -0.1500 
  5 C       -4.0680    -1.4750     0.4360 C.ar  1 <1>  -0.1500 
  6 C       -2.9520    -3.5250     1.0160 C.ar  1 <1>  -0.1500 
  7 C       -3.8880    -2.8400     0.2490 C.ar  1 <1>  -0.1430 
  8 C       -4.7120    -3.5820    -0.7980 C.3   1 <1>   0.2540 
  9 N       -6.1600    -3.3750    -0.5910 N.3   1 <1>  -0.8100 
 10 C       -6.9330    -3.8660    -1.7710 C.3   1 <1>   0.1710 
 11 C       -6.6120    -3.9720     0.6740 C.3   1 <1>   0.0300 
 12 C       -6.8210    -5.3710    -2.0970 C.2   1 <1>   0.5690 
 13 O       -5.8430    -5.7130    -2.7270 O.2   1 <1>  -0.5700 
 14 N       -7.7760    -6.2940    -1.7170 N.am  1 <1>  -0.6600 
 15 C       -8.9910    -5.9480    -0.9160 C.3   1 <1>   0.2200 
 16 C       -7.6100    -7.7250    -2.1270 C.3   1 <1>   0.0600 
 17 C       -9.2930    -6.9070     0.2350 C.3   1 <1>  -0.1600 
 18 C      -10.2650    -5.9400    -1.7540 C.3   1 <1>  -0.1600 
 19 C      -10.7760    -6.6710     0.5450 C.3   1 <1>  -0.0800 
 20 C      -11.4000    -6.0720    -0.7290 C.3   1 <1>  -0.0800 
 21 C      -11.0150    -5.6500     1.6660 C.3   1 <1>  -0.1600 
 22 C      -12.0150    -4.7250    -0.3190 C.3   1 <1>  -0.1600 
 23 C      -12.2040    -4.8330     1.1860 C.3   1 <1>   0.2000 
 24 O      -12.1870    -3.5820     1.7610 O.3   1 <1>  -0.6800 
 25 H       -3.4490     0.2650     1.5350 H     1 <1>   0.1500 
 26 H       -1.4710    -3.3680     2.5660 H     1 <1>   0.1500 
 27 H       -4.7990    -0.9510    -0.1560 H     1 <1>   0.1500 
 28 H       -2.8080    -4.5830     0.8760 H     1 <1>   0.1500 
 29 H       -4.4840    -4.6340    -0.7690 H     1 <1>   0.0800 
 30 H       -4.4330    -3.2120    -1.7700 H     1 <1>   0.0800 
 31 H       -7.9620    -3.5860    -1.6590 H     1 <1>   0.0800 
 32 H       -6.5810    -3.3350    -2.6380 H     1 <1>   0.0800 
 33 H       -6.0560    -3.5590     1.4980 H     1 <1>   0.0800 
 34 H       -6.4730    -5.0400     0.6620 H     1 <1>   0.0800 
 35 H       -7.6510    -3.7460     0.8350 H     1 <1>   0.0800 
 36 H       -8.8860    -4.9740    -0.4810 H     1 <1>   0.0800 
 37 H       -8.5600    -8.1720    -2.3530 H     1 <1>   0.0800 
 38 H       -7.1410    -8.2740    -1.3300 H     1 <1>   0.0800 
 39 H       -6.9910    -7.8010    -3.0040 H     1 <1>   0.0800 
 40 H       -9.1810    -7.9300    -0.0720 H     1 <1>   0.0800 
 41 H       -8.6600    -6.7230     1.0850 H     1 <1>   0.0800 
 42 H      -10.3470    -5.0470    -2.3480 H     1 <1>   0.0800 
 43 H      -10.2890    -6.7950    -2.4040 H     1 <1>   0.0800 
 44 H      -11.2650    -7.5990     0.7940 H     1 <1>   0.0800 
 45 H      -12.1740    -6.7220    -1.1040 H     1 <1>   0.0800 
 46 H      -10.1570    -5.0110     1.7780 H     1 <1>   0.0800 
 47 H      -11.2290    -6.1360     2.6010 H     1 <1>   0.0800 
 48 H      -12.9530    -4.5530    -0.8170 H     1 <1>   0.0800 
 49 H      -11.3360    -3.9210    -0.5420 H     1 <1>   0.0800 
 50 H      -13.1350    -5.3200     1.4280 H     1 <1>   0.0800 
 51 H      -11.3550    -3.1240     1.5440 H     1 <1>   0.4000 
@<TRIPOS>BOND
  1   1   2  1   
  2   2   3  ar  
  3   2   4  ar  
  4   3   5  ar  
  5   3  25  1   
  6   4   6  ar  
  7   4  26  1   
  8   5   7  ar  
  9   5  27  1   
 10   6   7  ar  
 11   6  28  1   
 12   7   8  1   
 13   8   9  1   
 14   8  29  1   
 15   8  30  1   
 16   9  10  1   
 17   9  11  1   
 18  10  12  1   
 19  10  31  1   
 20  10  32  1   
 21  11  33  1   
 22  11  34  1   
 23  11  35  1   
 24  12  13  2   
 25  12  14  am  
 26  14  15  1   
 27  14  16  1   
 28  15  17  1   
 29  15  18  1   
 30  15  36  1   
 31  16  37  1   
 32  16  38  1   
 33  16  39  1   
 34  17  19  1   
 35  17  40  1   
 36  17  41  1   
 37  18  20  1   
 38  18  42  1   
 39  18  43  1   
 40  19  20  1   
 41  19  21  1   
 42  19  44  1   
 43  20  22  1   
 44  20  45  1   
 45  21  23  1   
 46  21  46  1   
 47  21  47  1   
 48  22  23  1   
 49  22  48  1   
 50  22  49  1   
 51  23  24  1   
 52  23  50  1   
 53  24  51  1   
@<TRIPOS>SUBSTRUCTURE
  1 ****  11 GROUP 4 **** **** 0

# MOE 2024.06 (io_trps.svl 2023.06)
