@<TRIPOS>MOLECULE
NONAME
21 21 1 0 0 
SMALL
USER_CHARGES


@<TRIPOS>ATOM
  1 CL       0.4030    -0.0790    -1.4060 Cl    1 <1>  -0.1770 
  2 C        1.7940     0.8340    -0.8940 C.ar  1 <1>   0.4870 
  3 N        2.9550     0.2050    -0.9390 N.ar  1 <1>  -0.6200 
  4 C        1.5920     2.1390    -0.4790 C.ar  1 <1>  -0.1500 
  5 C        3.9830     0.9370    -0.5460 C.ar  1 <1>   0.1600 
  6 C        2.6720     2.8970    -0.0600 C.ar  1 <1>  -0.1440 
  7 C        3.8970     2.2500    -0.1110 C.ar  1 <1>  -0.1500 
  8 C        2.5610     4.3530     0.4130 C.3   1 <1>   0.4240 
  9 O        3.3790     4.4990     1.5040 O.3   1 <1>  -0.6800 
 10 C        3.0710     5.3140    -0.6540 C.3   1 <1>  -0.2400 
 11 C        1.1630     4.7500     0.8860 C.3   1 <1>  -0.2400 
 12 H        0.5920     2.5260    -0.4980 H     1 <1>   0.1500 
 13 H        4.9510     0.4660    -0.5710 H     1 <1>   0.1500 
 14 H        4.7950     2.7640     0.1850 H     1 <1>   0.1500 
 15 H        3.1340     3.8260     2.1630 H     1 <1>   0.4000 
 16 H        4.0840     5.0720    -0.9210 H     1 <1>   0.0800 
 17 H        3.0330     6.3270    -0.2960 H     1 <1>   0.0800 
 18 H        2.4610     5.2380    -1.5360 H     1 <1>   0.0800 
 19 H        0.7980     4.0530     1.6180 H     1 <1>   0.0800 
 20 H        0.4810     4.7660     0.0560 H     1 <1>   0.0800 
 21 H        1.1820     5.7360     1.3150 H     1 <1>   0.0800 
@<TRIPOS>BOND
  1   1   2  1   
  2   2   3  ar  
  3   2   4  ar  
  4   3   5  ar  
  5   4   6  ar  
  6   4  12  1   
  7   5   7  ar  
  8   5  13  1   
  9   6   7  ar  
 10   6   8  1   
 11   7  14  1   
 12   8   9  1   
 13   8  10  1   
 14   8  11  1   
 15   9  15  1   
 16  10  16  1   
 17  10  17  1   
 18  10  18  1   
 19  11  19  1   
 20  11  20  1   
 21  11  21  1   
@<TRIPOS>SUBSTRUCTURE
  1 ****   6 GROUP 4 **** **** 0

# MOE 2024.06 (io_trps.svl 2023.06)
