@<TRIPOS>MOLECULE
NONAME
42 44 1 0 0 
SMALL
USER_CHARGES


@<TRIPOS>ATOM
  1 O       -0.5570     0.0950    -0.1020 O.2   1 <1>  -0.5700 
  2 C       -1.5820     0.7100    -0.3500 C.2   1 <1>   0.7160 
  3 N       -2.7750     0.0500    -0.1270 N.am  1 <1>  -0.6600 
  4 C       -1.4940     2.0840    -0.8440 C.2   1 <1>   0.1410 
  5 C       -4.1300     0.6370    -0.2180 C.3   1 <1>   0.1400 
  6 C       -2.8420    -1.3570     0.3210 C.3   1 <1>   0.1400 
  7 N       -2.4690     2.7280    -1.5650 N.2   1 <1>  -0.5650 
  8 C       -0.4650     2.9610    -0.7100 C.2   1 <1>  -0.0400 
  9 C       -5.0340    -0.3130     0.5810 C.3   1 <1>  -0.0800 
 10 C       -4.3300    -1.6810     0.4860 C.3   1 <1>  -0.0800 
 11 C       -1.9730     3.8830    -1.8010 C.2   1 <1>   0.3280 
 12 O       -0.7770     4.0710    -1.3080 O.3   1 <1>  -0.2800 
 13 C        0.8900     2.8820    -0.0300 C.3   1 <1>  -0.0600 
 14 C       -6.5450    -0.3200     0.1950 C.3   1 <1>   0.2800 
 15 C       -4.8870    -2.5050    -0.6860 C.3   1 <1>  -0.1600 
 16 O       -6.7040     0.0290    -1.1330 O.3   1 <1>  -0.6800 
 17 C       -7.1230    -1.7400     0.3430 C.3   1 <1>  -0.1600 
 18 C       -7.3810     0.6790     1.0260 C.3   1 <1>  -0.1600 
 19 C       -6.3880    -2.7980    -0.5090 C.3   1 <1>  -0.1600 
 20 C       -6.9680     2.1560     0.9050 C.3   1 <1>  -0.2400 
 21 H       -4.1490     1.6320     0.1880 H     1 <1>   0.0800 
 22 H       -4.4060     0.6730    -1.2580 H     1 <1>   0.0800 
 23 H       -2.3670    -2.0010    -0.3990 H     1 <1>   0.0800 
 24 H       -2.3320    -1.4470     1.2650 H     1 <1>   0.0800 
 25 H       -4.9600    -0.0160     1.6120 H     1 <1>   0.0800 
 26 H       -4.4710    -2.2420     1.3930 H     1 <1>   0.0800 
 27 H       -2.4380     4.6830    -2.3490 H     1 <1>   0.1500 
 28 H        1.0140     1.9500     0.4890 H     1 <1>   0.0800 
 29 H        0.9850     3.6830     0.6790 H     1 <1>   0.0800 
 30 H        1.6680     2.9730    -0.7660 H     1 <1>   0.0800 
 31 H       -4.7450    -1.9460    -1.5970 H     1 <1>   0.0800 
 32 H       -4.3470    -3.4300    -0.7850 H     1 <1>   0.0800 
 33 H       -7.6450    -0.0330    -1.3730 H     1 <1>   0.4000 
 34 H       -7.0380    -2.0240     1.3770 H     1 <1>   0.0800 
 35 H       -8.1720    -1.7490     0.1040 H     1 <1>   0.0800 
 36 H       -8.4140     0.5900     0.7400 H     1 <1>   0.0800 
 37 H       -7.3220     0.3980     2.0620 H     1 <1>   0.0800 
 38 H       -6.5150    -3.7610    -0.0460 H     1 <1>   0.0800 
 39 H       -6.8390    -2.8480    -1.4860 H     1 <1>   0.0800 
 40 H       -6.9520     2.4660    -0.1260 H     1 <1>   0.0800 
 41 H       -5.9940     2.3180     1.3300 H     1 <1>   0.0800 
 42 H       -7.6690     2.7760     1.4340 H     1 <1>   0.0800 
@<TRIPOS>BOND
  1   1   2  2   
  2   2   3  am  
  3   2   4  1   
  4   3   5  1   
  5   3   6  1   
  6   4   7  1   
  7   4   8  2   
  8   5   9  1   
  9   5  21  1   
 10   5  22  1   
 11   6  10  1   
 12   6  23  1   
 13   6  24  1   
 14   7  11  2   
 15   8  12  1   
 16   8  13  1   
 17   9  10  1   
 18   9  14  1   
 19   9  25  1   
 20  10  15  1   
 21  10  26  1   
 22  11  12  1   
 23  11  27  1   
 24  13  28  1   
 25  13  29  1   
 26  13  30  1   
 27  14  16  1   
 28  14  17  1   
 29  14  18  1   
 30  15  19  1   
 31  15  31  1   
 32  15  32  1   
 33  16  33  1   
 34  17  19  1   
 35  17  34  1   
 36  17  35  1   
 37  18  20  1   
 38  18  36  1   
 39  18  37  1   
 40  19  38  1   
 41  19  39  1   
 42  20  40  1   
 43  20  41  1   
 44  20  42  1   
@<TRIPOS>SUBSTRUCTURE
  1 ****   5 GROUP 4 **** **** 0

# MOE 2024.06 (io_trps.svl 2023.06)
