@<TRIPOS>MOLECULE
NONAME
49 52 1 0 0 
SMALL
USER_CHARGES


@<TRIPOS>ATOM
  1 CL       0.3420    -0.1550     1.4500 Cl    1 <1>  -0.1770 
  2 C        0.9590    -1.6100     0.6980 C.ar  1 <1>   0.1770 
  3 C        1.7280    -1.5120    -0.4710 C.ar  1 <1>  -0.1440 
  4 C        0.6630    -2.8200     1.2870 C.ar  1 <1>  -0.1500 
  5 C        2.2080    -2.6710    -1.0520 C.ar  1 <1>  -0.1500 
  6 C        2.0340    -0.1570    -1.0920 C.3   1 <1>  -0.0960 
  7 C        1.1480    -3.9860     0.6950 C.ar  1 <1>   0.0000 
  8 C        1.9090    -3.8910    -0.4580 C.ar  1 <1>   0.1400 
  9 C        1.0720    -5.3700     0.9650 C.2   1 <1>  -0.1810 
 10 O        2.2790    -5.1040    -0.8700 O.3   1 <1>  -0.2800 
 11 C        1.7770    -5.9800    -0.0080 C.2   1 <1>  -0.0100 
 12 C        0.3200    -5.9770     2.1430 C.3   1 <1>   0.0820 
 13 C        0.0340    -7.4630     1.9740 C.2   1 <1>   0.5690 
 14 O        0.5390    -8.2330     2.7570 O.2   1 <1>  -0.5700 
 15 N       -0.7830    -7.9090     0.9700 N.am  1 <1>  -0.6600 
 16 C       -1.5070    -7.0840    -0.0340 C.3   1 <1>   0.1400 
 17 C       -1.0530    -9.3500     0.7330 C.3   1 <1>   0.1400 
 18 C       -2.6190    -8.0000    -0.5370 C.3   1 <1>   0.2000 
 19 C       -1.9780    -9.3900    -0.4900 C.3   1 <1>  -0.0800 
 20 O       -3.6650    -7.9390     0.3730 O.3   1 <1>  -0.6800 
 21 C       -2.9580   -10.5780    -0.4890 C.3   1 <1>   0.0210 
 22 C       -2.2080   -11.8940    -0.4210 C.2   1 <1>   0.1080 
 23 N       -1.3590   -12.2680    -1.3280 N.2   1 <1>  -0.7070 
 24 C       -2.3280   -12.8260     0.6030 C.2   1 <1>  -0.1500 
 25 N       -0.9120   -13.4650    -0.9010 N.pl3 1 <1>   0.3000 
 26 C       -1.4830   -13.8230     0.2680 C.2   1 <1>  -0.3320 
 27 C       -1.1810   -15.1160     1.0030 C.3   1 <1>  -0.0600 
 28 H        0.0730    -2.8640     2.1830 H     1 <1>   0.1500 
 29 H        2.8040    -2.6590    -1.9470 H     1 <1>   0.1500 
 30 H        2.6320    -0.2650    -1.9790 H     1 <1>   0.0800 
 31 H        2.5730     0.4560    -0.3910 H     1 <1>   0.0800 
 32 H        1.1190     0.3420    -1.3570 H     1 <1>   0.0800 
 33 H        1.9760    -7.0260    -0.1730 H     1 <1>   0.1500 
 34 H       -0.6160    -5.4680     2.2760 H     1 <1>   0.0800 
 35 H        0.8990    -5.8330     3.0360 H     1 <1>   0.0800 
 36 H       -1.9010    -6.1750     0.3860 H     1 <1>   0.0800 
 37 H       -0.8370    -6.8470    -0.8430 H     1 <1>   0.0800 
 38 H       -0.1370    -9.8870     0.5470 H     1 <1>   0.0800 
 39 H       -1.5360    -9.7670     1.6000 H     1 <1>   0.0800 
 40 H       -2.9900    -7.7290    -1.5100 H     1 <1>   0.0800 
 41 H       -1.3480    -9.4860    -1.3570 H     1 <1>   0.0800 
 42 H       -3.3030    -8.0820     1.2710 H     1 <1>   0.4000 
 43 H       -3.5430   -10.5610    -1.3900 H     1 <1>   0.0800 
 44 H       -3.6310   -10.5160     0.3460 H     1 <1>   0.0800 
 45 H       -2.9650   -12.7440     1.4660 H     1 <1>   0.1500 
 46 H       -0.2200   -14.0090    -1.4290 H     1 <1>   0.2700 
 47 H       -1.7610   -15.1700     1.9080 H     1 <1>   0.0800 
 48 H       -0.1380   -15.1630     1.2620 H     1 <1>   0.0800 
 49 H       -1.4300   -15.9620     0.3860 H     1 <1>   0.0800 
@<TRIPOS>BOND
  1   1   2  1   
  2   2   3  ar  
  3   2   4  ar  
  4   3   5  ar  
  5   3   6  1   
  6   4   7  ar  
  7   4  28  1   
  8   5   8  ar  
  9   5  29  1   
 10   6  30  1   
 11   6  31  1   
 12   6  32  1   
 13   7   8  ar  
 14   7   9  1   
 15   8  10  1   
 16   9  11  2   
 17   9  12  1   
 18  10  11  1   
 19  11  33  1   
 20  12  13  1   
 21  12  34  1   
 22  12  35  1   
 23  13  14  2   
 24  13  15  am  
 25  15  16  1   
 26  15  17  1   
 27  16  18  1   
 28  16  36  1   
 29  16  37  1   
 30  17  19  1   
 31  17  38  1   
 32  17  39  1   
 33  18  19  1   
 34  18  20  1   
 35  18  40  1   
 36  19  21  1   
 37  19  41  1   
 38  20  42  1   
 39  21  22  1   
 40  21  43  1   
 41  21  44  1   
 42  22  23  2   
 43  22  24  1   
 44  23  25  1   
 45  24  26  2   
 46  24  45  1   
 47  25  26  1   
 48  25  46  1   
 49  26  27  1   
 50  27  47  1   
 51  27  48  1   
 52  27  49  1   
@<TRIPOS>SUBSTRUCTURE
  1 ****  15 GROUP 4 **** **** 0

# MOE 2024.06 (io_trps.svl 2023.06)
