@<TRIPOS>MOLECULE
NONAME
56 60 1 0 0 
SMALL
USER_CHARGES


@<TRIPOS>ATOM
  1 N        0.1020     0.3600    -0.0890 N.ar  1 <1>  -0.6200 
  2 C       -1.1440     0.8280     0.0890 C.ar  1 <1>   0.6200 
  3 C        0.9360     1.1890    -0.6630 C.ar  1 <1>   0.1660 
  4 N       -1.5630     2.0510    -0.2610 N.ar  1 <1>  -0.6200 
  5 C       -2.1090    -0.0610     0.7180 C.ar  1 <1>   0.0000 
  6 C        0.5990     2.4470    -1.0510 C.ar  1 <1>  -0.1430 
  7 C        2.3850     0.8780    -0.9550 C.3   1 <1>   0.1440 
  8 C       -0.6920     2.8520    -0.8320 C.ar  1 <1>   0.1600 
  9 C       -2.0800    -1.4420     0.5060 C.ar  1 <1>  -0.1500 
 10 C       -3.1080     0.4280     1.5640 C.ar  1 <1>  -0.1500 
 11 C        1.7680     3.1730    -1.6680 C.3   1 <1>  -0.0160 
 12 C        3.0100     0.2460     0.3020 C.3   1 <1>   0.3430 
 13 C        2.4900    -0.0920    -2.1510 C.3   1 <1>  -0.1600 
 14 C        2.9660     2.2790    -1.2890 C.3   1 <1>  -0.1600 
 15 C       -2.9930    -2.2890     1.1080 C.ar  1 <1>  -0.1500 
 16 C       -4.0240    -0.4130     2.1700 C.ar  1 <1>  -0.1500 
 17 N        4.4140    -0.2260     0.0590 N.4   1 <1>  -0.9590 
 18 C        3.9210    -0.6300    -2.3330 C.3   1 <1>  -0.1600 
 19 C       -3.9680    -1.7750     1.9440 C.ar  1 <1>  -0.1500 
 20 C        4.4790    -1.2320    -1.0420 C.3   1 <1>   0.3430 
 21 C        5.0320    -0.7550     1.3020 C.3   1 <1>   0.5240 
 22 C        6.5050    -0.9550     1.0300 C.2   1 <1>  -0.1810 
 23 C        7.4670     0.0500     0.9540 C.2   1 <1>   0.1080 
 24 C        7.1830    -2.1040     0.7980 C.2   1 <1>  -0.3320 
 25 N        8.6360    -0.4220     0.6780 N.2   1 <1>  -0.7070 
 26 C        7.2700     1.5380     1.1570 C.3   1 <1>  -0.0590 
 27 N        8.4710    -1.7520     0.5930 N.pl3 1 <1>   0.3000 
 28 C        6.7160    -3.5510     0.7610 C.3   1 <1>  -0.0600 
 29 H       -1.0170     3.8380    -1.1220 H     1 <1>   0.1500 
 30 H       -1.3330    -1.8580    -0.1450 H     1 <1>   0.1500 
 31 H       -3.1690     1.4870     1.7500 H     1 <1>   0.1500 
 32 H        1.8730     4.1700    -1.2750 H     1 <1>   0.0800 
 33 H        1.6440     3.2150    -2.7370 H     1 <1>   0.0800 
 34 H        2.3970    -0.5900     0.5980 H     1 <1>   0.0800 
 35 H        2.9900     0.9670     1.1020 H     1 <1>   0.0800 
 36 H        2.1590     0.3950    -3.0540 H     1 <1>   0.0800 
 37 H        1.8280    -0.9250    -1.9810 H     1 <1>   0.0800 
 38 H        3.6950     2.2580    -2.0790 H     1 <1>   0.0800 
 39 H        3.4260     2.7000    -0.4120 H     1 <1>   0.0800 
 40 H       -2.9480    -3.3490     0.9260 H     1 <1>   0.1500 
 41 H       -4.7820    -0.0060     2.8170 H     1 <1>   0.1500 
 42 H        5.0000     0.5650    -0.2340 H     1 <1>   0.4500 
 43 H        4.5780     0.1510    -2.6750 H     1 <1>   0.0800 
 44 H        3.9150    -1.3900    -3.0950 H     1 <1>   0.0800 
 45 H       -4.6800    -2.4320     2.4130 H     1 <1>   0.1500 
 46 H        3.9030    -2.1030    -0.7740 H     1 <1>   0.0800 
 47 H        5.5020    -1.5400    -1.2040 H     1 <1>   0.0800 
 48 H        4.5770    -1.6910     1.5790 H     1 <1>   0.0800 
 49 H        4.9100    -0.0570     2.1130 H     1 <1>   0.0800 
 50 H        6.3450     1.7510     1.6560 H     1 <1>   0.0800 
 51 H        7.2940     2.0390     0.2060 H     1 <1>   0.0800 
 52 H        8.0760     1.9200     1.7580 H     1 <1>   0.0800 
 53 H        9.2590    -2.3860     0.4000 H     1 <1>   0.2700 
 54 H        5.6630    -3.6260     0.9620 H     1 <1>   0.0800 
 55 H        7.2420    -4.1260     1.5040 H     1 <1>   0.0800 
 56 H        6.9130    -3.9820    -0.2060 H     1 <1>   0.0800 
@<TRIPOS>BOND
  1   1   2  ar  
  2   1   3  ar  
  3   2   4  ar  
  4   2   5  1   
  5   3   6  ar  
  6   3   7  1   
  7   4   8  ar  
  8   5   9  ar  
  9   5  10  ar  
 10   6   8  ar  
 11   6  11  1   
 12   7  12  1   
 13   7  13  1   
 14   7  14  1   
 15   8  29  1   
 16   9  15  ar  
 17   9  30  1   
 18  10  16  ar  
 19  10  31  1   
 20  11  14  1   
 21  11  32  1   
 22  11  33  1   
 23  12  17  1   
 24  12  34  1   
 25  12  35  1   
 26  13  18  1   
 27  13  36  1   
 28  13  37  1   
 29  14  38  1   
 30  14  39  1   
 31  15  19  ar  
 32  15  40  1   
 33  16  19  ar  
 34  16  41  1   
 35  17  20  1   
 36  17  21  1   
 37  17  42  1   
 38  18  20  1   
 39  18  43  1   
 40  18  44  1   
 41  19  45  1   
 42  20  46  1   
 43  20  47  1   
 44  21  22  1   
 45  21  48  1   
 46  21  49  1   
 47  22  23  1   
 48  22  24  2   
 49  23  25  2   
 50  23  26  1   
 51  24  27  1   
 52  24  28  1   
 53  25  27  1   
 54  26  50  1   
 55  26  51  1   
 56  26  52  1   
 57  27  53  1   
 58  28  54  1   
 59  28  55  1   
 60  28  56  1   
@<TRIPOS>SUBSTRUCTURE
  1 ****  12 GROUP 4 **** **** 0

# MOE 2024.06 (io_trps.svl 2023.06)
