@<TRIPOS>MOLECULE
NONAME
55 57 1 0 0 
SMALL
USER_CHARGES


@<TRIPOS>ATOM
  1 O       -0.6820    -0.1210     0.8460 O.2   1 <1>  -0.5700 
  2 C       -1.5350     0.6010     0.3890 C.2   1 <1>   0.5690 
  3 N       -2.6300     0.0750    -0.2510 N.am  1 <1>  -0.6600 
  4 C       -1.3780     2.1020     0.5520 C.3   1 <1>  -0.0990 
  5 C       -2.7320    -1.3920    -0.4980 C.3   1 <1>   0.1400 
  6 C       -3.8640     0.8340    -0.6010 C.3   1 <1>   0.1400 
  7 C        0.0040     2.4950     1.0910 C.3   1 <1>   0.0960 
  8 C       -3.9020    -1.9800     0.3220 C.3   1 <1>   0.4230 
  9 C       -5.0250     0.2740     0.2310 C.3   1 <1>  -0.1600 
 10 N        0.1060     3.9650     1.1800 N.pl3 1 <1>   0.0480 
 11 N       -3.9930    -3.5000     0.2650 N.4   1 <1>  -0.9590 
 12 C       -5.2500    -1.2540     0.0310 C.3   1 <1>   0.0000 
 13 C        0.5910     4.8530     0.2750 C.2   1 <1>   0.0060 
 14 C       -0.3340     4.7230     2.2010 C.2   1 <1>  -0.3020 
 15 C       -5.3210    -4.0510     0.6930 C.3   1 <1>   0.3430 
 16 C       -3.5780    -4.1270    -1.0340 C.3   1 <1>   0.2630 
 17 C       -6.3230    -1.7360     1.0500 C.3   1 <1>  -0.1600 
 18 C       -5.7150    -1.5470    -1.4250 C.3   1 <1>   0.1200 
 19 N        0.4820     6.0860     0.6510 N.2   1 <1>  -0.5650 
 20 C        1.2030     4.4600    -1.0600 C.3   1 <1>   0.0200 
 21 C       -0.0960     6.0080     1.8630 C.2   1 <1>   0.0770 
 22 C       -6.0140    -3.1100     1.6770 C.3   1 <1>  -0.1600 
 23 O       -6.7740    -0.7360    -1.7960 O.3   1 <1>  -0.6800 
 24 C        2.6680     4.0440    -0.8990 C.3   1 <1>  -0.2400 
 25 H       -1.5230     2.5680    -0.4050 H     1 <1>   0.0800 
 26 H       -2.1320     2.4520     1.2330 H     1 <1>   0.0800 
 27 H       -2.8760    -1.5460    -1.5520 H     1 <1>   0.0800 
 28 H       -1.8180    -1.8820    -0.2130 H     1 <1>   0.0800 
 29 H       -3.7540     1.8840    -0.3930 H     1 <1>   0.0800 
 30 H       -4.0690     0.7320    -1.6540 H     1 <1>   0.0800 
 31 H        0.7760     2.1230     0.4430 H     1 <1>   0.0800 
 32 H        0.1550     2.0780     2.0700 H     1 <1>   0.0800 
 33 H       -3.6690    -1.7340     1.3450 H     1 <1>   0.0800 
 34 H       -4.8080     0.4810     1.2660 H     1 <1>   0.0800 
 35 H       -5.9180     0.8240    -0.0090 H     1 <1>   0.0800 
 36 H       -3.3160    -3.8230     0.9730 H     1 <1>   0.4500 
 37 H       -0.7810     4.3220     3.0920 H     1 <1>   0.1500 
 38 H       -5.9590    -4.1750    -0.1670 H     1 <1>   0.0800 
 39 H       -5.1870    -5.0200     1.1470 H     1 <1>   0.0800 
 40 H       -4.2210    -3.8000    -1.8350 H     1 <1>   0.0800 
 41 H       -3.6370    -5.2010    -0.9650 H     1 <1>   0.0800 
 42 H       -2.5620    -3.8610    -1.2760 H     1 <1>   0.0800 
 43 H       -6.4230    -1.0310     1.8590 H     1 <1>   0.0800 
 44 H       -7.2890    -1.7780     0.5760 H     1 <1>   0.0800 
 45 H       -6.0340    -2.5660    -1.5420 H     1 <1>   0.0800 
 46 H       -4.9300    -1.3550    -2.1340 H     1 <1>   0.0800 
 47 H        0.6360     3.6630    -1.5060 H     1 <1>   0.0800 
 48 H        1.1510     5.3070    -1.7220 H     1 <1>   0.0800 
 49 H       -0.3120     6.8940     2.4350 H     1 <1>   0.1500 
 50 H       -6.9350    -3.5600     2.0080 H     1 <1>   0.0800 
 51 H       -5.3930    -2.9900     2.5480 H     1 <1>   0.0800 
 52 H       -7.5820    -0.9180    -1.2770 H     1 <1>   0.4000 
 53 H        2.7560     3.1930    -0.2490 H     1 <1>   0.0800 
 54 H        3.2290     4.8590    -0.4750 H     1 <1>   0.0800 
 55 H        3.0910     3.7960    -1.8560 H     1 <1>   0.0800 
@<TRIPOS>BOND
  1   1   2  2   
  2   2   3  am  
  3   2   4  1   
  4   3   5  1   
  5   3   6  1   
  6   4   7  1   
  7   4  25  1   
  8   4  26  1   
  9   5   8  1   
 10   5  27  1   
 11   5  28  1   
 12   6   9  1   
 13   6  29  1   
 14   6  30  1   
 15   7  10  1   
 16   7  31  1   
 17   7  32  1   
 18   8  11  1   
 19   8  12  1   
 20   8  33  1   
 21   9  12  1   
 22   9  34  1   
 23   9  35  1   
 24  10  13  1   
 25  10  14  1   
 26  11  15  1   
 27  11  16  1   
 28  11  36  1   
 29  12  17  1   
 30  12  18  1   
 31  13  19  2   
 32  13  20  1   
 33  14  21  2   
 34  14  37  1   
 35  15  22  1   
 36  15  38  1   
 37  15  39  1   
 38  16  40  1   
 39  16  41  1   
 40  16  42  1   
 41  17  22  1   
 42  17  43  1   
 43  17  44  1   
 44  18  23  1   
 45  18  45  1   
 46  18  46  1   
 47  19  21  1   
 48  20  24  1   
 49  20  47  1   
 50  20  48  1   
 51  21  49  1   
 52  22  50  1   
 53  22  51  1   
 54  23  52  1   
 55  24  53  1   
 56  24  54  1   
 57  24  55  1   
@<TRIPOS>SUBSTRUCTURE
  1 ****   3 GROUP 4 **** **** 0

# MOE 2024.06 (io_trps.svl 2023.06)
