@<TRIPOS>MOLECULE
NONAME
43 45 1 0 0 
SMALL
USER_CHARGES


@<TRIPOS>ATOM
  1 O       -0.4000     0.1300     1.1240 O.2   1 <1>  -0.5700 
  2 C       -1.3920     0.7560     0.8090 C.2   1 <1>   0.5440 
  3 N       -2.5220     0.0650     0.4400 N.am  1 <1>  -0.6600 
  4 C       -1.3600     2.2030     0.8220 C.ar  1 <1>   0.0860 
  5 C       -3.7220     0.6470    -0.2160 C.3   1 <1>   0.1400 
  6 C       -2.5520    -1.4180     0.3250 C.3   1 <1>   0.1400 
  7 C       -0.4610     2.9230     0.0560 C.ar  1 <1>  -0.1500 
  8 C       -2.2140     2.9700     1.6020 C.ar  1 <1>  -0.1500 
  9 C       -4.7200    -0.5080    -0.2650 C.3   1 <1>   0.2000 
 10 C       -3.8280    -1.7360    -0.4620 C.3   1 <1>  -0.0800 
 11 C       -0.4660     4.3050     0.0790 C.ar  1 <1>   0.3920 
 12 C       -2.1430     4.3490     1.5620 C.ar  1 <1>   0.1600 
 13 O       -5.3440    -0.5810     0.9720 O.3   1 <1>  -0.6800 
 14 C       -4.4660    -3.0890    -0.0950 C.3   1 <1>   0.0210 
 15 O        0.4350     4.9330    -0.7050 O.3   1 <1>  -0.3630 
 16 N       -1.2970     5.0360     0.8160 N.ar  1 <1>  -0.6200 
 17 C       -3.4900    -4.2250    -0.3300 C.2   1 <1>   0.1080 
 18 C        0.5220     6.3450    -0.7280 C.3   1 <1>   0.0400 
 19 N       -3.0120    -4.5100    -1.5020 N.2   1 <1>  -0.7070 
 20 C       -2.9940    -5.0660     0.6590 C.2   1 <1>  -0.1500 
 21 N       -2.1890    -5.5540    -1.2880 N.pl3 1 <1>   0.3000 
 22 C       -2.1600    -5.9080     0.0140 C.2   1 <1>  -0.3320 
 23 C       -1.3240    -7.0460     0.5690 C.3   1 <1>  -0.0600 
 24 H       -4.1190     1.4870     0.3240 H     1 <1>   0.0800 
 25 H       -3.4610     0.9490    -1.2160 H     1 <1>   0.0800 
 26 H       -1.6770    -1.7840    -0.1880 H     1 <1>   0.0800 
 27 H       -2.5860    -1.8460     1.3120 H     1 <1>   0.0800 
 28 H        0.2500     2.4080    -0.5630 H     1 <1>   0.1500 
 29 H       -2.9280     2.4850     2.2420 H     1 <1>   0.1500 
 30 H       -5.4710    -0.3930    -1.0270 H     1 <1>   0.0800 
 31 H       -3.5540    -1.7750    -1.5030 H     1 <1>   0.0800 
 32 H       -2.8180     4.9200     2.1780 H     1 <1>   0.1500 
 33 H       -4.6520    -0.5830     1.6640 H     1 <1>   0.4000 
 34 H       -5.3370    -3.2530    -0.7030 H     1 <1>   0.0800 
 35 H       -4.7740    -3.0980     0.9350 H     1 <1>   0.0800 
 36 H        1.3040     6.6250    -1.4090 H     1 <1>   0.0800 
 37 H        0.7500     6.6950     0.2630 H     1 <1>   0.0800 
 38 H       -0.4200     6.7450    -1.0590 H     1 <1>   0.0800 
 39 H       -3.2380    -5.0300     1.7060 H     1 <1>   0.1500 
 40 H       -1.6640    -5.9990    -2.0490 H     1 <1>   0.2700 
 41 H       -1.4710    -7.1290     1.6310 H     1 <1>   0.0800 
 42 H       -0.2800    -6.8660     0.3820 H     1 <1>   0.0800 
 43 H       -1.6090    -7.9760     0.1100 H     1 <1>   0.0800 
@<TRIPOS>BOND
  1   1   2  2   
  2   2   3  am  
  3   2   4  1   
  4   3   5  1   
  5   3   6  1   
  6   4   7  ar  
  7   4   8  ar  
  8   5   9  1   
  9   5  24  1   
 10   5  25  1   
 11   6  10  1   
 12   6  26  1   
 13   6  27  1   
 14   7  11  ar  
 15   7  28  1   
 16   8  12  ar  
 17   8  29  1   
 18   9  10  1   
 19   9  13  1   
 20   9  30  1   
 21  10  14  1   
 22  10  31  1   
 23  11  15  1   
 24  11  16  ar  
 25  12  16  ar  
 26  12  32  1   
 27  13  33  1   
 28  14  17  1   
 29  14  34  1   
 30  14  35  1   
 31  15  18  1   
 32  17  19  2   
 33  17  20  1   
 34  18  36  1   
 35  18  37  1   
 36  18  38  1   
 37  19  21  1   
 38  20  22  2   
 39  20  39  1   
 40  21  22  1   
 41  21  40  1   
 42  22  23  1   
 43  23  41  1   
 44  23  42  1   
 45  23  43  1   
@<TRIPOS>SUBSTRUCTURE
  1 ****   3 GROUP 4 **** **** 0

# MOE 2024.06 (io_trps.svl 2023.06)
