@<TRIPOS>MOLECULE
NONAME
56 59 1 0 0 
SMALL
USER_CHARGES


@<TRIPOS>ATOM
  1 CL      -0.4800     0.3040    -1.4490 Cl    1 <1>  -0.1770 
  2 C       -1.0170     1.8200    -0.7560 C.ar  1 <1>   0.1770 
  3 C       -0.1400     2.8950    -0.6570 C.ar  1 <1>   0.0820 
  4 C       -2.3230     1.9070    -0.3180 C.ar  1 <1>  -0.1500 
  5 O        1.1360     2.7360    -1.1110 O.3   1 <1>  -0.3630 
  6 C       -0.6110     4.0790    -0.0980 C.ar  1 <1>  -0.1500 
  7 C       -2.8000     3.0910     0.2360 C.ar  1 <1>   0.1170 
  8 C        2.0900     3.7670    -0.9860 C.3   1 <1>   0.0400 
  9 C       -1.9220     4.1670     0.3390 C.ar  1 <1>  -0.1500 
 10 N       -4.1360     3.1960     0.6730 N.am  1 <1>  -0.4770 
 11 C       -4.6280     3.8920     1.7400 C.2   1 <1>   0.5690 
 12 C       -5.2360     2.5160    -0.0450 C.3   1 <1>   0.1400 
 13 O       -4.0000     4.5570     2.5260 O.2   1 <1>  -0.5700 
 14 C       -6.1220     3.7610     1.8400 C.3   1 <1>  -0.0990 
 15 C       -6.5110     3.2070     0.4630 C.3   1 <1>  -0.0190 
 16 C       -7.7340     2.2950     0.5050 C.2   1 <1>   0.5690 
 17 O       -7.5470     1.1160     0.6930 O.2   1 <1>  -0.5700 
 18 N       -9.0010     2.7990     0.3420 N.am  1 <1>  -0.6600 
 19 C      -10.1630     1.8580     0.2660 C.3   1 <1>   0.1400 
 20 C       -9.3210     4.2590     0.2550 C.3   1 <1>   0.1400 
 21 C      -11.2720     2.4390    -0.6130 C.3   1 <1>  -0.1600 
 22 C      -10.7370     4.5200     0.7650 C.3   1 <1>  -0.1600 
 23 C      -11.7790     3.8030    -0.1090 C.3   1 <1>   0.4180 
 24 O      -11.9930     4.5690    -1.2690 O.3   1 <1>  -0.5600 
 25 C      -13.0830     3.6150     0.6640 C.2   1 <1>  -0.2880 
 26 C      -12.9010     5.6350    -1.1980 C.3   1 <1>   0.1200 
 27 C      -14.2410     4.1940     0.3390 C.2   1 <1>  -0.2760 
 28 C      -14.3080     5.1330    -0.8500 C.3   1 <1>  -0.0220 
 29 C      -15.5510     3.9770     1.0760 C.3   1 <1>  -0.1020 
 30 H       -2.9570     1.0470    -0.4060 H     1 <1>   0.1500 
 31 H        0.0210     4.9400     0.0070 H     1 <1>   0.1500 
 32 H        3.0210     3.4090    -1.3880 H     1 <1>   0.0800 
 33 H        2.2110     4.0070     0.0550 H     1 <1>   0.0800 
 34 H        1.7570     4.6220    -1.5460 H     1 <1>   0.0800 
 35 H       -2.2700     5.0900     0.7690 H     1 <1>   0.1500 
 36 H       -5.2190     1.4710     0.2140 H     1 <1>   0.0800 
 37 H       -5.1280     2.6270    -1.1100 H     1 <1>   0.0800 
 38 H       -6.5790     4.7110     2.0440 H     1 <1>   0.0800 
 39 H       -6.3540     3.0620     2.6230 H     1 <1>   0.0800 
 40 H       -6.7000     4.0260    -0.2060 H     1 <1>   0.0800 
 41 H      -10.5350     1.6790     1.2600 H     1 <1>   0.0800 
 42 H       -9.8440     0.9150    -0.1460 H     1 <1>   0.0800 
 43 H       -9.2440     4.5800    -0.7710 H     1 <1>   0.0800 
 44 H       -8.6290     4.8290     0.8480 H     1 <1>   0.0800 
 45 H      -12.0890     1.7430    -0.6600 H     1 <1>   0.0800 
 46 H      -10.8790     2.5400    -1.6100 H     1 <1>   0.0800 
 47 H      -10.9320     5.5740     0.7950 H     1 <1>   0.0800 
 48 H      -10.8010     4.1590     1.7750 H     1 <1>   0.0800 
 49 H      -12.9770     2.9490     1.5010 H     1 <1>   0.1500 
 50 H      -12.9070     6.1260    -2.1550 H     1 <1>   0.0800 
 51 H      -12.5590     6.3320    -0.4540 H     1 <1>   0.0800 
 52 H      -14.7340     4.6240    -1.6960 H     1 <1>   0.0800 
 53 H      -14.9260     5.9830    -0.6210 H     1 <1>   0.0800 
 54 H      -16.2890     3.5740     0.4060 H     1 <1>   0.0800 
 55 H      -15.9120     4.9080     1.4740 H     1 <1>   0.0800 
 56 H      -15.4150     3.2870     1.8900 H     1 <1>   0.0800 
@<TRIPOS>BOND
  1   1   2  1   
  2   2   3  ar  
  3   2   4  ar  
  4   3   5  1   
  5   3   6  ar  
  6   4   7  ar  
  7   4  30  1   
  8   5   8  1   
  9   6   9  ar  
 10   6  31  1   
 11   7   9  ar  
 12   7  10  1   
 13   8  32  1   
 14   8  33  1   
 15   8  34  1   
 16   9  35  1   
 17  10  11  am  
 18  10  12  1   
 19  11  13  2   
 20  11  14  1   
 21  12  15  1   
 22  12  36  1   
 23  12  37  1   
 24  14  15  1   
 25  14  38  1   
 26  14  39  1   
 27  15  16  1   
 28  15  40  1   
 29  16  17  2   
 30  16  18  am  
 31  18  19  1   
 32  18  20  1   
 33  19  21  1   
 34  19  41  1   
 35  19  42  1   
 36  20  22  1   
 37  20  43  1   
 38  20  44  1   
 39  21  23  1   
 40  21  45  1   
 41  21  46  1   
 42  22  23  1   
 43  22  47  1   
 44  22  48  1   
 45  23  24  1   
 46  23  25  1   
 47  24  26  1   
 48  25  27  2   
 49  25  49  1   
 50  26  28  1   
 51  26  50  1   
 52  26  51  1   
 53  27  28  1   
 54  27  29  1   
 55  28  52  1   
 56  28  53  1   
 57  29  54  1   
 58  29  55  1   
 59  29  56  1   
@<TRIPOS>SUBSTRUCTURE
  1 ****  15 GROUP 4 **** **** 0

# MOE 2024.06 (io_trps.svl 2023.06)
