@<TRIPOS>MOLECULE
NONAME
44 46 1 0 0 
SMALL
USER_CHARGES


@<TRIPOS>ATOM
  1 O       -3.8720    -1.9220    -2.2820 O.co2 1 <1>  -0.9000 
  2 C       -3.0350    -1.3250    -1.5820 C.2   1 <1>   0.9790 
  3 O       -1.9770    -1.9070    -1.3260 O.co2 1 <1>  -0.9000 
  4 C       -3.4850    -0.2330    -0.7480 C.ar  1 <1>  -0.1790 
  5 C       -3.9560    -0.5210     0.5380 C.ar  1 <1>  -0.1440 
  6 C       -3.4940     1.0900    -1.1810 C.ar  1 <1>  -0.1500 
  7 C       -4.4210     0.4960     1.3580 C.ar  1 <1>  -0.1500 
  8 C       -3.9470    -1.9720     1.0170 C.3   1 <1>   0.4870 
  9 C       -3.9580     2.1010    -0.3600 C.ar  1 <1>  -0.1500 
 10 C       -4.4230     1.8050     0.9090 C.ar  1 <1>  -0.1500 
 11 N       -4.7990    -2.8070     0.1280 N.4   1 <1>  -0.9590 
 12 C       -6.1600    -2.2880    -0.1760 C.3   1 <1>   0.3430 
 13 C       -4.8690    -4.2500     0.4370 C.3   1 <1>   0.3430 
 14 C       -7.1080    -3.4810    -0.0190 C.3   1 <1>   0.2000 
 15 C       -6.2010    -4.7090    -0.1530 C.3   1 <1>  -0.0800 
 16 O       -7.6790    -3.4410     1.2500 O.3   1 <1>  -0.6800 
 17 C       -6.7350    -6.0120     0.4760 C.3   1 <1>   0.0210 
 18 C       -5.6970    -7.1130     0.4000 C.2   1 <1>   0.1080 
 19 N       -4.6360    -7.1230     1.1480 N.2   1 <1>  -0.7070 
 20 C       -5.7510    -8.2070    -0.4550 C.2   1 <1>  -0.1500 
 21 N       -3.9790    -8.2450     0.7870 N.pl3 1 <1>   0.3000 
 22 C       -4.6350    -8.9150    -0.1840 C.2   1 <1>  -0.3320 
 23 C       -4.1470   -10.2130    -0.8020 C.3   1 <1>  -0.0600 
 24 H       -3.1340     1.3180    -2.1700 H     1 <1>   0.1500 
 25 H       -4.7810     0.2830     2.3490 H     1 <1>   0.1500 
 26 H       -4.3040    -2.0250     2.0310 H     1 <1>   0.0800 
 27 H       -2.9320    -2.3390     0.9880 H     1 <1>   0.0800 
 28 H       -3.9570     3.1180    -0.7100 H     1 <1>   0.1500 
 29 H       -4.7810     2.5960     1.5460 H     1 <1>   0.1500 
 30 H       -4.3160    -2.7380    -0.8070 H     1 <1>   0.4500 
 31 H       -6.4420    -1.4810     0.4800 H     1 <1>   0.0800 
 32 H       -6.1730    -1.9360    -1.1960 H     1 <1>   0.0800 
 33 H       -4.0400    -4.7880     0.0040 H     1 <1>   0.0800 
 34 H       -4.8710    -4.4070     1.5030 H     1 <1>   0.0800 
 35 H       -7.9040    -3.4630    -0.7450 H     1 <1>   0.0800 
 36 H       -6.0300    -4.8890    -1.2000 H     1 <1>   0.0800 
 37 H       -6.9990    -3.4960     1.9490 H     1 <1>   0.4000 
 38 H       -7.6290    -6.3220    -0.0340 H     1 <1>   0.0800 
 39 H       -6.9810    -5.8700     1.5130 H     1 <1>   0.0800 
 40 H       -6.5270    -8.4220    -1.1690 H     1 <1>   0.1500 
 41 H       -3.0900    -8.5260     1.2180 H     1 <1>   0.2700 
 42 H       -4.8390   -10.5470    -1.5550 H     1 <1>   0.0800 
 43 H       -4.0660   -10.9770    -0.0490 H     1 <1>   0.0800 
 44 H       -3.1850   -10.0690    -1.2620 H     1 <1>   0.0800 
@<TRIPOS>BOND
  1   1   2  ar  
  2   2   3  ar  
  3   2   4  1   
  4   4   5  ar  
  5   4   6  ar  
  6   5   7  ar  
  7   5   8  1   
  8   6   9  ar  
  9   6  24  1   
 10   7  10  ar  
 11   7  25  1   
 12   8  11  1   
 13   8  26  1   
 14   8  27  1   
 15   9  10  ar  
 16   9  28  1   
 17  10  29  1   
 18  11  12  1   
 19  11  13  1   
 20  11  30  1   
 21  12  14  1   
 22  12  31  1   
 23  12  32  1   
 24  13  15  1   
 25  13  33  1   
 26  13  34  1   
 27  14  15  1   
 28  14  16  1   
 29  14  35  1   
 30  15  17  1   
 31  15  36  1   
 32  16  37  1   
 33  17  18  1   
 34  17  38  1   
 35  17  39  1   
 36  18  19  2   
 37  18  20  1   
 38  19  21  1   
 39  20  22  2   
 40  20  40  1   
 41  21  22  1   
 42  21  41  1   
 43  22  23  1   
 44  23  42  1   
 45  23  43  1   
 46  23  44  1   
@<TRIPOS>SUBSTRUCTURE
  1 ****  11 GROUP 4 **** **** 0

# MOE 2024.06 (io_trps.svl 2023.06)
