@<TRIPOS>MOLECULE
NONAME
57 60 1 0 0 
SMALL
USER_CHARGES


@<TRIPOS>ATOM
  1 S        0.2490     0.1460    -1.6130 S.3   1 <1>  -0.0800 
  2 C        0.6710     1.5330    -0.6000 C.ar  1 <1>   0.0400 
  3 C        1.1460    -0.9620    -0.5660 C.2   1 <1>  -0.1400 
  4 C        1.4620     1.1210     0.4620 C.ar  1 <1>   0.0000 
  5 C        0.2910     2.8470    -0.7980 C.ar  1 <1>  -0.1500 
  6 C        1.7170    -0.2930     0.4520 C.2   1 <1>  -0.1500 
  7 C        1.1450    -2.4360    -0.9550 C.3   1 <1>   0.4970 
  8 C        1.8900     2.0860     1.3690 C.ar  1 <1>  -0.1500 
  9 C        0.7260     3.7910     0.1150 C.ar  1 <1>  -0.1500 
 10 N       -0.0540    -3.1370    -0.3380 N.4   1 <1>  -0.9590 
 11 C        2.4160    -3.1580    -0.4520 C.2   1 <1>   0.9060 
 12 C        1.5220     3.4090     1.1920 C.ar  1 <1>  -0.1500 
 13 C       -0.2430    -4.4560    -0.9770 C.3   1 <1>   0.3430 
 14 C       -1.2950    -2.3490    -0.1600 C.3   1 <1>   0.3430 
 15 O        3.3720    -3.3480    -1.2050 O.co2 1 <1>  -0.9000 
 16 O        2.3240    -3.6720     0.6790 O.co2 1 <1>  -0.9000 
 17 C       -1.1950    -5.2900    -0.1180 C.3   1 <1>  -0.1600 
 18 C       -2.2760    -3.1570     0.6970 C.3   1 <1>  -0.1600 
 19 C       -2.5380    -4.5730     0.1430 C.3   1 <1>  -0.0800 
 20 C       -3.4620    -5.3430     1.1100 C.3   1 <1>   0.3430 
 21 N       -3.7280    -6.7180     0.6130 N.4   1 <1>  -0.9590 
 22 C       -5.1770    -7.1110     0.5910 C.3   1 <1>   0.3430 
 23 C       -2.9260    -7.7980     1.2850 C.3   1 <1>   0.3430 
 24 C       -5.3500    -8.4620    -0.1510 C.3   1 <1>   0.1100 
 25 C       -3.1180    -9.1470     0.5470 C.3   1 <1>   0.1100 
 26 N       -4.0500    -9.0210    -0.6000 N.3   1 <1>  -0.8100 
 27 C       -4.2320   -10.3080    -1.2840 C.3   1 <1>   0.0300 
 28 H       -0.3220     3.1200    -1.6390 H     1 <1>   0.1500 
 29 H        2.3290    -0.7340     1.2230 H     1 <1>   0.1500 
 30 H        1.1270    -2.5190    -2.0260 H     1 <1>   0.0800 
 31 H        2.5080     1.7950     2.2000 H     1 <1>   0.1500 
 32 H        0.4510     4.8250    -0.0050 H     1 <1>   0.1500 
 33 H        0.3750    -3.3470     0.5910 H     1 <1>   0.4500 
 34 H        1.8540     4.1540     1.8940 H     1 <1>   0.1500 
 35 H        0.7060    -4.9660    -1.0560 H     1 <1>   0.0800 
 36 H       -0.6470    -4.3290    -1.9680 H     1 <1>   0.0800 
 37 H       -1.7290    -2.1310    -1.1230 H     1 <1>   0.0800 
 38 H       -1.0750    -1.4150     0.3340 H     1 <1>   0.0800 
 39 H       -0.6990    -5.5100     0.8130 H     1 <1>   0.0800 
 40 H       -1.3570    -6.2220    -0.6290 H     1 <1>   0.0800 
 41 H       -3.2010    -2.6090     0.7560 H     1 <1>   0.0800 
 42 H       -1.8750    -3.2170     1.6950 H     1 <1>   0.0800 
 43 H       -3.0560    -4.4640    -0.7960 H     1 <1>   0.0800 
 44 H       -4.3920    -4.8050     1.2010 H     1 <1>   0.0800 
 45 H       -3.0110    -5.3890     2.0880 H     1 <1>   0.0800 
 46 H       -3.4610    -6.8120    -0.3800 H     1 <1>   0.4500 
 47 H       -5.7590    -6.3580     0.0840 H     1 <1>   0.0800 
 48 H       -5.5550    -7.2020     1.5950 H     1 <1>   0.0800 
 49 H       -3.2340    -7.9050     2.3120 H     1 <1>   0.0800 
 50 H       -1.8800    -7.5440     1.2800 H     1 <1>   0.0800 
 51 H       -5.9860    -8.3100    -1.0070 H     1 <1>   0.0800 
 52 H       -5.8470    -9.1620     0.5000 H     1 <1>   0.0800 
 53 H       -3.4860    -9.8820     1.2430 H     1 <1>   0.0800 
 54 H       -2.1600    -9.4900     0.1920 H     1 <1>   0.0800 
 55 H       -4.8790   -10.1850    -2.1360 H     1 <1>   0.0800 
 56 H       -4.6660   -11.0370    -0.6200 H     1 <1>   0.0800 
 57 H       -3.2830   -10.6780    -1.6350 H     1 <1>   0.0800 
@<TRIPOS>BOND
  1   1   2  1   
  2   1   3  1   
  3   2   4  ar  
  4   2   5  ar  
  5   3   6  2   
  6   3   7  1   
  7   4   6  1   
  8   4   8  ar  
  9   5   9  ar  
 10   5  28  1   
 11   6  29  1   
 12   7  10  1   
 13   7  11  1   
 14   7  30  1   
 15   8  12  ar  
 16   8  31  1   
 17   9  12  ar  
 18   9  32  1   
 19  10  13  1   
 20  10  14  1   
 21  10  33  1   
 22  11  15  ar  
 23  11  16  ar  
 24  12  34  1   
 25  13  17  1   
 26  13  35  1   
 27  13  36  1   
 28  14  18  1   
 29  14  37  1   
 30  14  38  1   
 31  17  19  1   
 32  17  39  1   
 33  17  40  1   
 34  18  19  1   
 35  18  41  1   
 36  18  42  1   
 37  19  20  1   
 38  19  43  1   
 39  20  21  1   
 40  20  44  1   
 41  20  45  1   
 42  21  22  1   
 43  21  23  1   
 44  21  46  1   
 45  22  24  1   
 46  22  47  1   
 47  22  48  1   
 48  23  25  1   
 49  23  49  1   
 50  23  50  1   
 51  24  26  1   
 52  24  51  1   
 53  24  52  1   
 54  25  26  1   
 55  25  53  1   
 56  25  54  1   
 57  26  27  1   
 58  27  55  1   
 59  27  56  1   
 60  27  57  1   
@<TRIPOS>SUBSTRUCTURE
  1 ****  10 GROUP 4 **** **** 0

# MOE 2024.06 (io_trps.svl 2023.06)
