@<TRIPOS>MOLECULE
NONAME
28 29 1 0 0 
SMALL
USER_CHARGES


@<TRIPOS>ATOM
  1 S       -0.4760     0.1530    -1.0710 S.3   1 <1>  -0.0800 
  2 C       -0.5950    -1.4530    -0.3550 C.2   1 <1>   0.4620 
  3 C        0.8890    -0.3820    -2.0100 C.2   1 <1>  -0.1100 
  4 N        0.2930    -2.2720    -0.7900 N.2   1 <1>  -0.5650 
  5 N       -1.5830    -1.7310     0.5650 N.pl3 1 <1>  -0.8220 
  6 C        1.1240    -1.6690    -1.7150 C.2   1 <1>   0.0770 
  7 C       -1.5670    -3.0250     1.3140 C.3   1 <1>   0.2090 
  8 C       -2.9210    -1.0860     0.5140 C.3   1 <1>   0.2090 
  9 C       -2.5250    -4.0320     0.6520 C.3   1 <1>   0.2000 
 10 C       -3.9140    -2.0450    -0.1530 C.3   1 <1>  -0.1600 
 11 O       -2.0310    -4.3350    -0.6070 O.3   1 <1>  -0.6800 
 12 C       -3.9450    -3.4380     0.5200 C.3   1 <1>  -0.0800 
 13 C       -4.8740    -4.4080    -0.2280 C.3   1 <1>   0.1200 
 14 O       -6.1820    -3.9480    -0.1590 O.3   1 <1>  -0.6800 
 15 H        1.3590     0.3220    -2.6710 H     1 <1>   0.1500 
 16 H        1.9090    -2.2690    -2.1430 H     1 <1>   0.1500 
 17 H       -0.5720    -3.4350     1.3480 H     1 <1>   0.0800 
 18 H       -1.8790    -2.8450     2.3270 H     1 <1>   0.0800 
 19 H       -3.2420    -0.8630     1.5180 H     1 <1>   0.0800 
 20 H       -2.8900    -0.1610    -0.0330 H     1 <1>   0.0800 
 21 H       -2.5520    -4.9480     1.2160 H     1 <1>   0.0800 
 22 H       -4.8950    -1.6040    -0.1240 H     1 <1>   0.0800 
 23 H       -3.6420    -2.1500    -1.1890 H     1 <1>   0.0800 
 24 H       -1.4700    -3.5740    -0.8930 H     1 <1>   0.4000 
 25 H       -4.3230    -3.3210     1.5200 H     1 <1>   0.0800 
 26 H       -4.8400    -5.3920     0.2060 H     1 <1>   0.0800 
 27 H       -4.5980    -4.4750    -1.2670 H     1 <1>   0.0800 
 28 H       -6.5060    -3.9630     0.7610 H     1 <1>   0.4000 
@<TRIPOS>BOND
  1   1   2  1   
  2   1   3  1   
  3   2   4  2   
  4   2   5  1   
  5   3   6  2   
  6   3  15  1   
  7   4   6  1   
  8   5   7  1   
  9   5   8  1   
 10   6  16  1   
 11   7   9  1   
 12   7  17  1   
 13   7  18  1   
 14   8  10  1   
 15   8  19  1   
 16   8  20  1   
 17   9  11  1   
 18   9  12  1   
 19   9  21  1   
 20  10  12  1   
 21  10  22  1   
 22  10  23  1   
 23  11  24  1   
 24  12  13  1   
 25  12  25  1   
 26  13  14  1   
 27  13  26  1   
 28  13  27  1   
 29  14  28  1   
@<TRIPOS>SUBSTRUCTURE
  1 ****   5 GROUP 4 **** **** 0

# MOE 2024.06 (io_trps.svl 2023.06)
