@<TRIPOS>MOLECULE
NONAME
49 52 1 0 0 
SMALL
USER_CHARGES


@<TRIPOS>ATOM
  1 CL      -0.1040    -1.6940     1.0690 Cl    1 <1>  -0.1770 
  2 C       -1.7890    -2.0780     0.8330 C.ar  1 <1>   0.1770 
  3 C       -2.4390    -1.6130    -0.2940 C.ar  1 <1>  -0.1500 
  4 C       -2.4500    -2.8430     1.7740 C.ar  1 <1>  -0.1500 
  5 C       -3.7770    -1.9190    -0.4770 C.ar  1 <1>  -0.1500 
  6 C       -3.7880    -3.1460     1.5850 C.ar  1 <1>  -0.1500 
  7 C       -4.4640    -2.6810     0.4610 C.ar  1 <1>  -0.1080 
  8 C       -5.9410    -3.0060     0.2170 C.3   1 <1>   0.1610 
  9 C       -6.1150    -4.1570    -0.7860 C.2   1 <1>   0.5770 
 10 C       -6.8180    -1.7450    -0.0710 C.3   1 <1>   0.0000 
 11 C       -6.8140    -3.1830     1.5010 C.3   1 <1>   0.0000 
 12 O       -6.5160    -3.9410    -1.9060 O.2   1 <1>  -0.5700 
 13 N       -5.8110    -5.4210    -0.3930 N.am  1 <1>  -0.7300 
 14 C       -7.9400    -2.4190     0.7600 C.3   1 <1>   0.0000 
 15 C       -5.8970    -6.6260    -1.2490 C.3   1 <1>   0.2200 
 16 C       -7.1320    -7.4530    -0.9150 C.3   1 <1>  -0.0800 
 17 C       -4.7960    -7.5920    -0.8380 C.3   1 <1>   0.1200 
 18 C       -6.6670    -8.3050     0.2730 C.3   1 <1>   0.1200 
 19 C       -8.4260    -6.6580    -0.6580 C.3   1 <1>  -0.0160 
 20 O       -5.2730    -8.2040     0.3220 O.3   1 <1>  -0.5600 
 21 C       -9.6040    -7.5940    -0.4380 C.ar  1 <1>  -0.1430 
 22 C      -10.2780    -8.1710    -1.4960 C.ar  1 <1>  -0.1500 
 23 C      -10.0600    -7.9180     0.8240 C.ar  1 <1>  -0.1500 
 24 C      -11.3410    -9.0230    -1.2480 C.ar  1 <1>   0.1600 
 25 C      -11.1330    -8.7830     0.9630 C.ar  1 <1>   0.1600 
 26 N      -11.7830    -9.3460    -0.0430 N.ar  1 <1>  -0.6200 
 27 H       -1.9040    -1.0220    -1.0150 H     1 <1>   0.1500 
 28 H       -1.9190    -3.1950     2.6400 H     1 <1>   0.1500 
 29 H       -4.2830    -1.5620    -1.3590 H     1 <1>   0.1500 
 30 H       -4.2900    -3.7470     2.3230 H     1 <1>   0.1500 
 31 H       -6.4430    -0.8560     0.4090 H     1 <1>   0.0000 
 32 H       -7.0760    -1.5830    -1.1020 H     1 <1>   0.0000 
 33 H       -7.0700    -4.1990     1.7430 H     1 <1>   0.0000 
 34 H       -6.4490    -2.6260     2.3480 H     1 <1>   0.0000 
 35 H       -5.4540    -5.6090     0.5460 H     1 <1>   0.3700 
 36 H       -8.5680    -3.0650     0.1710 H     1 <1>   0.0000 
 37 H       -8.4880    -1.7370     1.3850 H     1 <1>   0.0000 
 38 H       -5.8420    -6.3590    -2.2920 H     1 <1>   0.0800 
 39 H       -7.3090    -8.1220    -1.7380 H     1 <1>   0.0800 
 40 H       -3.8610    -7.1010    -0.6350 H     1 <1>   0.0800 
 41 H       -4.6570    -8.3560    -1.5840 H     1 <1>   0.0800 
 42 H       -6.9400    -9.3390     0.1510 H     1 <1>   0.0800 
 43 H       -7.0530    -7.9340     1.2060 H     1 <1>   0.0800 
 44 H       -8.6290    -6.0240    -1.5050 H     1 <1>   0.0800 
 45 H       -8.3150    -6.0210     0.2010 H     1 <1>   0.0800 
 46 H       -9.9870    -7.9640    -2.5100 H     1 <1>   0.1500 
 47 H       -9.5930    -7.5080     1.7000 H     1 <1>   0.1500 
 48 H      -11.8540    -9.4630    -2.0850 H     1 <1>   0.1500 
 49 H      -11.4750    -9.0250     1.9550 H     1 <1>   0.1500 
@<TRIPOS>BOND
  1   1   2  1   
  2   2   3  ar  
  3   2   4  ar  
  4   3   5  ar  
  5   3  27  1   
  6   4   6  ar  
  7   4  28  1   
  8   5   7  ar  
  9   5  29  1   
 10   6   7  ar  
 11   6  30  1   
 12   7   8  1   
 13   8   9  1   
 14   8  10  1   
 15   8  11  1   
 16   9  12  2   
 17   9  13  am  
 18  10  14  1   
 19  10  31  1   
 20  10  32  1   
 21  11  14  1   
 22  11  33  1   
 23  11  34  1   
 24  13  15  1   
 25  13  35  1   
 26  14  36  1   
 27  14  37  1   
 28  15  16  1   
 29  15  17  1   
 30  15  38  1   
 31  16  18  1   
 32  16  19  1   
 33  16  39  1   
 34  17  20  1   
 35  17  40  1   
 36  17  41  1   
 37  18  20  1   
 38  18  42  1   
 39  18  43  1   
 40  19  21  1   
 41  19  44  1   
 42  19  45  1   
 43  21  22  ar  
 44  21  23  ar  
 45  22  24  ar  
 46  22  46  1   
 47  23  25  ar  
 48  23  47  1   
 49  24  26  ar  
 50  24  48  1   
 51  25  26  ar  
 52  25  49  1   
@<TRIPOS>SUBSTRUCTURE
  1 ****  13 GROUP 4 **** **** 0

# MOE 2024.06 (io_trps.svl 2023.06)
