@<TRIPOS>MOLECULE
NONAME
37 38 1 0 0 
SMALL
USER_CHARGES


@<TRIPOS>ATOM
  1 O        5.2180    -0.5720    -1.9930 O.3   1 <1>  -0.8540 
  2 C        4.6600     0.2210    -1.2250 C.2   1 <1>  -0.1600 
  3 C        3.7170     1.1290    -1.6750 C.2   1 <1>  -0.1460 
  4 C        5.1260     0.3560     0.1100 C.2   1 <1>  -0.1600 
  5 C        3.4480     2.2830    -0.9490 C.2   1 <1>   0.6100 
  6 C        4.9110     1.5030     0.8000 C.2   1 <1>  -0.0410 
  7 O        2.6510     3.1520    -1.3460 O.2   1 <1>  -0.5760 
  8 N        4.2080     2.5470     0.2000 N.am  1 <1>  -0.4760 
  9 C        5.4210     1.6810     2.2200 C.3   1 <1>  -0.1120 
 10 C        4.6500     3.9540     0.3710 C.3   1 <1>   0.1300 
 11 C        5.6770     4.3140    -0.7240 C.3   1 <1>   0.1580 
 12 N        6.9930     3.6360    -0.5400 N.pl3 1 <1>  -0.7190 
 13 C        7.5360     2.5750    -1.1610 C.cat 1 <1>   1.0680 
 14 N        6.9290     1.7080    -1.9220 N.pl3 1 <1>  -0.7050 
 15 N        8.8150     2.1950    -1.1040 N.pl3 1 <1>  -0.4640 
 16 C        7.8260     0.7480    -2.2470 C.2   1 <1>   0.4960 
 17 N        8.9940     1.0240    -1.8000 N.2   1 <1>  -0.2690 
 18 C        9.9480     2.8010    -0.3880 C.3   1 <1>   0.6280 
 19 O        9.4700     3.7860     0.4750 O.3   1 <1>  -0.5670 
 20 C       10.4660     4.3820     1.2470 C.3   1 <1>   0.0290 
 21 H        3.2350     0.9710    -2.6190 H     1 <1>   0.1400 
 22 H        5.6620    -0.4840     0.5120 H     1 <1>   0.1400 
 23 H        4.6220     2.0240     2.8520 H     1 <1>   0.0690 
 24 H        6.2280     2.3890     2.2470 H     1 <1>   0.0690 
 25 H        5.7790     0.7440     2.6060 H     1 <1>   0.0690 
 26 H        5.0660     4.1150     1.3470 H     1 <1>   0.0690 
 27 H        3.7930     4.5980     0.2780 H     1 <1>   0.0690 
 28 H        5.8390     5.3780    -0.7010 H     1 <1>   0.0690 
 29 H        5.2730     4.0750    -1.6930 H     1 <1>   0.0690 
 30 H        7.6300     4.0710     0.1370 H     1 <1>   0.4420 
 31 H        5.9310     1.4290    -1.9110 H     1 <1>   0.4420 
 32 H        7.5340    -0.1370    -2.7970 H     1 <1>   0.1400 
 33 H       10.6310     3.2510    -1.0890 H     1 <1>   0.0690 
 34 H       10.4570     2.0490     0.1910 H     1 <1>   0.0690 
 35 H       10.0070     5.1260     1.8760 H     1 <1>   0.0690 
 36 H       11.1880     4.8540     0.6020 H     1 <1>   0.0690 
 37 H       10.9400     3.6360     1.8630 H     1 <1>   0.0690 
@<TRIPOS>BOND
  1   1   2  1   
  2   2   3  2   
  3   2   4  1   
  4   3   5  1   
  5   3  21  1   
  6   4   6  2   
  7   4  22  1   
  8   5   7  2   
  9   5   8  am  
 10   6   8  1   
 11   6   9  1   
 12   8  10  1   
 13   9  23  1   
 14   9  24  1   
 15   9  25  1   
 16  10  11  1   
 17  10  26  1   
 18  10  27  1   
 19  11  12  1   
 20  11  28  1   
 21  11  29  1   
 22  12  13  ar  
 23  12  30  1   
 24  13  14  ar  
 25  13  15  ar  
 26  14  16  1   
 27  14  31  1   
 28  15  17  1   
 29  15  18  1   
 30  16  17  2   
 31  16  32  1   
 32  18  19  1   
 33  18  33  1   
 34  18  34  1   
 35  19  20  1   
 36  20  35  1   
 37  20  36  1   
 38  20  37  1   
@<TRIPOS>SUBSTRUCTURE
  1 ****  13 GROUP 4 **** **** 0

# MOE 2024.06 (io_trps.svl 2023.06)
