@<TRIPOS>MOLECULE
NONAME
54 56 1 0 0 
SMALL
USER_CHARGES


@<TRIPOS>ATOM
  1 F       -0.3430    -1.2080     1.3820 F     1 <1>  -0.1900 
  2 C       -1.5300    -1.7080     1.1880 C.ar  1 <1>   0.1900 
  3 C       -1.6440    -3.0100     0.7440 C.ar  1 <1>  -0.1500 
  4 C       -2.6380    -0.9230     1.4330 C.ar  1 <1>  -0.1500 
  5 C       -2.9070    -3.5370     0.5400 C.ar  1 <1>  -0.1500 
  6 C       -3.8930    -1.4660     1.2230 C.ar  1 <1>  -0.1500 
  7 C       -4.0670    -2.7810     0.7710 C.ar  1 <1>   0.0860 
  8 C       -5.4060    -3.3030     0.5660 C.2   1 <1>   0.4230 
  9 O       -6.3990    -2.6690     0.8250 O.2   1 <1>  -0.5700 
 10 C       -5.5970    -4.7080     0.0000 C.3   1 <1>  -0.0990 
 11 C       -7.0750    -5.0800    -0.2460 C.3   1 <1>  -0.0990 
 12 C       -7.2760    -6.4720    -0.8250 C.2   1 <1>   0.5690 
 13 O       -6.3470    -7.2410    -0.8250 O.2   1 <1>  -0.5700 
 14 N       -8.5020    -6.8540    -1.3120 N.am  1 <1>  -0.6600 
 15 C       -9.7900    -6.1240    -1.0750 C.3   1 <1>   0.1400 
 16 C       -8.6710    -8.1660    -2.0240 C.3   1 <1>   0.1400 
 17 C      -10.8130    -7.0020    -0.3020 C.3   1 <1>   0.4230 
 18 C       -9.8520    -8.9880    -1.4640 C.3   1 <1>   0.3430 
 19 N      -10.3470    -8.4390    -0.1510 N.4   1 <1>  -0.9590 
 20 C      -12.2090    -6.9380    -0.9640 C.3   1 <1>   0.1200 
 21 C      -11.4070    -9.2580     0.5290 C.3   1 <1>   0.4230 
 22 O      -13.1200    -7.7440    -0.2760 O.3   1 <1>  -0.5600 
 23 C      -12.7740    -9.0980    -0.1790 C.3   1 <1>   0.1200 
 24 C      -10.9640   -10.7250     0.6540 C.3   1 <1>  -0.1600 
 25 C      -11.8240   -11.5140     1.6540 C.3   1 <1>  -0.1600 
 26 C      -11.3020   -12.9450     1.8110 C.3   1 <1>  -0.2400 
 27 H       -0.7590    -3.5940     0.5640 H     1 <1>   0.1500 
 28 H       -2.5160     0.0880     1.7790 H     1 <1>   0.1500 
 29 H       -2.9770    -4.5530     0.1960 H     1 <1>   0.1500 
 30 H       -4.7630    -0.8580     1.4120 H     1 <1>   0.1500 
 31 H       -5.0650    -4.7820    -0.9320 H     1 <1>   0.0800 
 32 H       -5.1700    -5.4140     0.6900 H     1 <1>   0.0800 
 33 H       -7.4960    -4.3620    -0.9260 H     1 <1>   0.0800 
 34 H       -7.6060    -5.0180     0.6870 H     1 <1>   0.0800 
 35 H       -9.6310    -5.2160    -0.5220 H     1 <1>   0.0800 
 36 H      -10.1970    -5.8370    -2.0300 H     1 <1>   0.0800 
 37 H       -8.8270    -7.9840    -3.0730 H     1 <1>   0.0800 
 38 H       -7.7750    -8.7580    -1.9420 H     1 <1>   0.0800 
 39 H      -10.9190    -6.5740     0.6810 H     1 <1>   0.0800 
 40 H       -9.5280   -10.0090    -1.3460 H     1 <1>   0.0800 
 41 H      -10.6530    -8.9850    -2.1850 H     1 <1>   0.0800 
 42 H       -9.5180    -8.4030     0.4590 H     1 <1>   0.4500 
 43 H      -12.1740    -7.2590    -1.9910 H     1 <1>   0.0800 
 44 H      -12.5870    -5.9300    -0.9360 H     1 <1>   0.0800 
 45 H      -11.5310    -8.8780     1.5310 H     1 <1>   0.0800 
 46 H      -13.5480    -9.5830     0.3900 H     1 <1>   0.0800 
 47 H      -12.7590    -9.5260    -1.1660 H     1 <1>   0.0800 
 48 H      -11.0170   -11.2150    -0.3020 H     1 <1>   0.0800 
 49 H       -9.9450   -10.7550     1.0010 H     1 <1>   0.0800 
 50 H      -11.8080   -11.0320     2.6170 H     1 <1>   0.0800 
 51 H      -12.8480   -11.5610     1.3210 H     1 <1>   0.0800 
 52 H      -10.2900   -12.9450     2.1780 H     1 <1>   0.0800 
 53 H      -11.3300   -13.4680     0.8710 H     1 <1>   0.0800 
 54 H      -11.9140   -13.4840     2.5140 H     1 <1>   0.0800 
@<TRIPOS>BOND
  1   1   2  1   
  2   2   3  ar  
  3   2   4  ar  
  4   3   5  ar  
  5   3  27  1   
  6   4   6  ar  
  7   4  28  1   
  8   5   7  ar  
  9   5  29  1   
 10   6   7  ar  
 11   6  30  1   
 12   7   8  1   
 13   8   9  2   
 14   8  10  1   
 15  10  11  1   
 16  10  31  1   
 17  10  32  1   
 18  11  12  1   
 19  11  33  1   
 20  11  34  1   
 21  12  13  2   
 22  12  14  am  
 23  14  15  1   
 24  14  16  1   
 25  15  17  1   
 26  15  35  1   
 27  15  36  1   
 28  16  18  1   
 29  16  37  1   
 30  16  38  1   
 31  17  19  1   
 32  17  20  1   
 33  17  39  1   
 34  18  19  1   
 35  18  40  1   
 36  18  41  1   
 37  19  21  1   
 38  19  42  1   
 39  20  22  1   
 40  20  43  1   
 41  20  44  1   
 42  21  23  1   
 43  21  24  1   
 44  21  45  1   
 45  22  23  1   
 46  23  46  1   
 47  23  47  1   
 48  24  25  1   
 49  24  48  1   
 50  24  49  1   
 51  25  26  1   
 52  25  50  1   
 53  25  51  1   
 54  26  52  1   
 55  26  53  1   
 56  26  54  1   
@<TRIPOS>SUBSTRUCTURE
  1 ****  12 GROUP 4 **** **** 0

# MOE 2024.06 (io_trps.svl 2023.06)
