@<TRIPOS>MOLECULE
NONAME
48 49 1 0 0 
SMALL
USER_CHARGES


@<TRIPOS>ATOM
  1 S        2.3130    -1.1120    -1.8060 S.3   1 <1>  -0.0800 
  2 C        2.2040    -0.9430    -0.0690 C.2   1 <1>   0.1980 
  3 C        0.7500    -1.8730    -1.8000 C.2   1 <1>  -0.1100 
  4 N        1.1260    -1.3990     0.4340 N.2   1 <1>  -0.5650 
  5 C        3.3690    -0.2750     0.6400 C.3   1 <1>   0.3200 
  6 C        0.2860    -1.9360    -0.5390 C.2   1 <1>   0.0460 
  7 N        3.3140     1.1930     0.4390 N.am  1 <1>  -0.7300 
  8 C       -1.0580    -2.5350    -0.0840 C.3   1 <1>   0.1810 
  9 C        4.3610     1.9560     0.0440 C.2   1 <1>   0.5690 
 10 C       -1.8630    -3.0780    -1.2760 C.3   1 <1>  -0.2400 
 11 C       -1.8980    -1.4550     0.6140 C.3   1 <1>  -0.2400 
 12 C       -0.8050    -3.6910     0.8950 C.3   1 <1>  -0.2400 
 13 O        5.4680     1.4940    -0.0810 O.2   1 <1>  -0.5700 
 14 C        4.1370     3.4370    -0.2470 C.3   1 <1>  -0.0190 
 15 C        3.6010     4.1950     0.9840 C.3   1 <1>  -0.1600 
 16 C        3.2280     3.6520    -1.4820 C.3   1 <1>  -0.1600 
 17 C        3.5320     5.7180     0.7400 C.3   1 <1>   0.2000 
 18 C        2.5380     5.0300    -1.5110 C.3   1 <1>  -0.1600 
 19 O        2.4450     6.2250     1.4750 O.3   1 <1>  -0.5600 
 20 C        3.3530     6.0840    -0.7580 C.3   1 <1>   0.2000 
 21 C        2.7020     6.4630     2.8240 C.3   1 <1>   0.0400 
 22 O        2.6880     7.2880    -0.8540 O.3   1 <1>  -0.6800 
 23 H        0.3490    -2.1930    -2.7440 H     1 <1>   0.1500 
 24 H        4.2960    -0.6740     0.2650 H     1 <1>   0.0800 
 25 H        3.3070    -0.4880     1.6920 H     1 <1>   0.0800 
 26 H        2.3800     1.5970     0.5160 H     1 <1>   0.3700 
 27 H       -2.7980    -3.4910    -0.9430 H     1 <1>   0.0800 
 28 H       -1.3120    -3.8520    -1.7800 H     1 <1>   0.0800 
 29 H       -2.0730    -2.2900    -1.9780 H     1 <1>   0.0800 
 30 H       -2.8480    -1.8500     0.9250 H     1 <1>   0.0800 
 31 H       -2.0660    -0.6280    -0.0520 H     1 <1>   0.0800 
 32 H       -1.3830    -1.0860     1.4830 H     1 <1>   0.0800 
 33 H       -1.7320    -4.1350     1.2110 H     1 <1>   0.0800 
 34 H       -0.2830    -3.3350     1.7650 H     1 <1>   0.0800 
 35 H       -0.2000    -4.4470     0.4270 H     1 <1>   0.0800 
 36 H        5.1040     3.8520    -0.4770 H     1 <1>   0.0800 
 37 H        4.2390     4.0010     1.8280 H     1 <1>   0.0800 
 38 H        2.6150     3.8280     1.2120 H     1 <1>   0.0800 
 39 H        3.8330     3.5370    -2.3660 H     1 <1>   0.0800 
 40 H        2.4640     2.8950    -1.5250 H     1 <1>   0.0800 
 41 H        4.4370     6.1900     1.0850 H     1 <1>   0.0800 
 42 H        1.5720     4.9480    -1.0420 H     1 <1>   0.0800 
 43 H        2.3920     5.3400    -2.5310 H     1 <1>   0.0800 
 44 H        4.3130     6.1980    -1.2320 H     1 <1>   0.0800 
 45 H        1.8040     6.8490     3.2720 H     1 <1>   0.0800 
 46 H        3.4910     7.1890     2.9140 H     1 <1>   0.0800 
 47 H        2.9770     5.5410     3.3070 H     1 <1>   0.0800 
 48 H        2.1070     7.3360    -0.0610 H     1 <1>   0.4000 
@<TRIPOS>BOND
  1   1   2  1   
  2   1   3  1   
  3   2   4  2   
  4   2   5  1   
  5   3   6  2   
  6   3  23  1   
  7   4   6  1   
  8   5   7  1   
  9   5  24  1   
 10   5  25  1   
 11   6   8  1   
 12   7   9  am  
 13   7  26  1   
 14   8  10  1   
 15   8  11  1   
 16   8  12  1   
 17   9  13  2   
 18   9  14  1   
 19  10  27  1   
 20  10  28  1   
 21  10  29  1   
 22  11  30  1   
 23  11  31  1   
 24  11  32  1   
 25  12  33  1   
 26  12  34  1   
 27  12  35  1   
 28  14  15  1   
 29  14  16  1   
 30  14  36  1   
 31  15  17  1   
 32  15  37  1   
 33  15  38  1   
 34  16  18  1   
 35  16  39  1   
 36  16  40  1   
 37  17  19  1   
 38  17  20  1   
 39  17  41  1   
 40  18  20  1   
 41  18  42  1   
 42  18  43  1   
 43  19  21  1   
 44  20  22  1   
 45  20  44  1   
 46  21  45  1   
 47  21  46  1   
 48  21  47  1   
 49  22  48  1   
@<TRIPOS>SUBSTRUCTURE
  1 ****   7 GROUP 4 **** **** 0

# MOE 2024.06 (io_trps.svl 2023.06)
