@<TRIPOS>MOLECULE
NONAME
57 59 1 0 0 
SMALL
USER_CHARGES


@<TRIPOS>ATOM
  1 O        1.6930    -0.2810     2.0870 O.2   1 <1>  -0.5700 
  2 C        1.6070    -0.9260     1.0660 C.2   1 <1>   0.5690 
  3 N        2.7280    -1.2770     0.3570 N.am  1 <1>  -0.6600 
  4 C        0.2110    -1.3500     0.5900 C.3   1 <1>  -0.0190 
  5 C        4.0870    -0.8240     0.7100 C.3   1 <1>   0.2810 
  6 C        2.7940    -2.3730    -0.6000 C.3   1 <1>   0.1400 
  7 C       -0.7960    -0.1820     0.6470 C.3   1 <1>  -0.1600 
  8 C       -0.3130    -2.5460     1.4090 C.3   1 <1>  -0.1600 
  9 C        4.3720     0.7090     0.6160 C.2   1 <1>   0.5690 
 10 C        5.0080    -1.6590    -0.1950 C.3   1 <1>  -0.1600 
 11 C        4.2040    -2.9330    -0.4480 C.3   1 <1>  -0.1600 
 12 C       -2.1910    -0.6170     0.1750 C.3   1 <1>  -0.1600 
 13 C       -1.7080    -2.9840     0.9410 C.3   1 <1>  -0.1600 
 14 O        5.3140     1.1440    -0.0480 O.2   1 <1>  -0.5700 
 15 N        3.5790     1.5730     1.3040 N.am  1 <1>  -0.7300 
 16 C       -2.7000    -1.8150     0.9870 C.3   1 <1>  -0.1600 
 17 C        3.6620     3.0510     1.2500 C.3   1 <1>   0.1400 
 18 C        4.7200     3.5670     2.2330 C.3   1 <1>   0.2090 
 19 N        5.1210     4.9630     1.8890 N.pl3 1 <1>  -0.8690 
 20 C        6.0290     5.3470     0.9560 C.ar  1 <1>   0.1000 
 21 C        6.3670     6.7020     0.7850 C.ar  1 <1>  -0.1440 
 22 C        6.6640     4.4190     0.1170 C.ar  1 <1>  -0.1500 
 23 C        7.2850     7.0630    -0.1730 C.ar  1 <1>   0.2110 
 24 C        5.7170     7.7690     1.6620 C.3   1 <1>  -0.0970 
 25 C        7.5700     4.8190    -0.8250 C.ar  1 <1>   0.2110 
 26 N        7.8750     6.1310    -0.9630 N.ar  1 <1>  -0.1790 
 27 H        0.2750    -1.6480    -0.4400 H     1 <1>   0.0800 
 28 H        4.2690    -1.1170     1.7450 H     1 <1>   0.0800 
 29 H        2.0620    -3.1550    -0.3880 H     1 <1>   0.0800 
 30 H        2.6510    -1.9890    -1.6120 H     1 <1>   0.0800 
 31 H       -0.8660     0.1810     1.6590 H     1 <1>   0.0800 
 32 H       -0.4440     0.6270     0.0320 H     1 <1>   0.0800 
 33 H        0.3690    -3.3740     1.3230 H     1 <1>   0.0800 
 34 H       -0.3580    -2.2680     2.4480 H     1 <1>   0.0800 
 35 H        5.1680    -1.1440    -1.1450 H     1 <1>   0.0800 
 36 H        5.9630    -1.8650     0.2880 H     1 <1>   0.0800 
 37 H        4.2520    -3.5880     0.4240 H     1 <1>   0.0800 
 38 H        4.5340    -3.4550    -1.3470 H     1 <1>   0.0800 
 39 H       -2.8780     0.2050     0.2780 H     1 <1>   0.0800 
 40 H       -2.1500    -0.8840    -0.8680 H     1 <1>   0.0800 
 41 H       -1.6470    -3.3600    -0.0660 H     1 <1>   0.0800 
 42 H       -2.0640    -3.7820     1.5690 H     1 <1>   0.0800 
 43 H        2.7730     1.1640     1.8100 H     1 <1>   0.3700 
 44 H       -3.6530    -2.1340     0.6000 H     1 <1>   0.0800 
 45 H       -2.8450    -1.5130     2.0100 H     1 <1>   0.0800 
 46 H        3.9320     3.3420     0.2500 H     1 <1>   0.0800 
 47 H        2.7020     3.4750     1.4840 H     1 <1>   0.0800 
 48 H        5.5880     2.9300     2.1960 H     1 <1>   0.0800 
 49 H        4.3290     3.5390     3.2350 H     1 <1>   0.0800 
 50 H        4.6480     5.6710     2.4630 H     1 <1>   0.4000 
 51 H        6.4340     3.3740     0.2100 H     1 <1>   0.1500 
 52 H        7.5560     8.0970    -0.3160 H     1 <1>   0.1500 
 53 H        5.9320     7.5740     2.6980 H     1 <1>   0.0800 
 54 H        4.6500     7.7600     1.5230 H     1 <1>   0.0800 
 55 H        6.0790     8.7530     1.4230 H     1 <1>   0.0800 
 56 H        8.0510     4.0970    -1.4670 H     1 <1>   0.1500 
 57 H        8.5560     6.4220    -1.6720 H     1 <1>   0.4570 
@<TRIPOS>BOND
  1   1   2  2   
  2   2   3  am  
  3   2   4  1   
  4   3   5  1   
  5   3   6  1   
  6   4   7  1   
  7   4   8  1   
  8   4  27  1   
  9   5   9  1   
 10   5  10  1   
 11   5  28  1   
 12   6  11  1   
 13   6  29  1   
 14   6  30  1   
 15   7  12  1   
 16   7  31  1   
 17   7  32  1   
 18   8  13  1   
 19   8  33  1   
 20   8  34  1   
 21   9  14  2   
 22   9  15  am  
 23  10  11  1   
 24  10  35  1   
 25  10  36  1   
 26  11  37  1   
 27  11  38  1   
 28  12  16  1   
 29  12  39  1   
 30  12  40  1   
 31  13  16  1   
 32  13  41  1   
 33  13  42  1   
 34  15  17  1   
 35  15  43  1   
 36  16  44  1   
 37  16  45  1   
 38  17  18  1   
 39  17  46  1   
 40  17  47  1   
 41  18  19  1   
 42  18  48  1   
 43  18  49  1   
 44  19  20  1   
 45  19  50  1   
 46  20  21  ar  
 47  20  22  ar  
 48  21  23  ar  
 49  21  24  1   
 50  22  25  ar  
 51  22  51  1   
 52  23  26  ar  
 53  23  52  1   
 54  24  53  1   
 55  24  54  1   
 56  24  55  1   
 57  25  26  ar  
 58  25  56  1   
 59  26  57  1   
@<TRIPOS>SUBSTRUCTURE
  1 ****  15 GROUP 4 **** **** 0

# MOE 2024.06 (io_trps.svl 2023.06)
