@<TRIPOS>MOLECULE
NONAME
45 49 1 0 0 
SMALL
USER_CHARGES


@<TRIPOS>ATOM
  1 S        1.1110     0.2900    -1.0860 S.3   1 <1>  -0.0800 
  2 C       -0.3880     1.1570    -0.7940 C.2   1 <1>  -0.1400 
  3 C        0.2400    -1.0180    -1.8750 C.2   1 <1>  -0.1100 
  4 C       -1.4330     0.4730    -1.2820 C.2   1 <1>  -0.1810 
  5 C       -0.4320     2.5030    -0.0730 C.3   1 <1>   0.4600 
  6 C       -1.0850    -0.7720    -1.8960 C.2   1 <1>  -0.1500 
  7 C       -2.8240     1.0470    -1.1510 C.3   1 <1>   0.0210 
  8 O       -1.7940     2.8430     0.1370 O.3   1 <1>  -0.5600 
  9 C        0.2170     3.6140    -0.9130 C.3   1 <1>  -0.1600 
 10 C        0.1910     2.3980     1.3340 C.3   1 <1>  -0.1600 
 11 C       -2.7190     2.5620    -0.8880 C.3   1 <1>   0.1200 
 12 C        0.3930     4.8830    -0.0790 C.3   1 <1>   0.1400 
 13 C        1.4900     3.1960     1.4730 C.3   1 <1>   0.1400 
 14 N        1.2620     4.6250     1.1130 N.am  1 <1>  -0.6600 
 15 C        2.0670     5.5870     1.6860 C.2   1 <1>   0.5440 
 16 O        2.3770     5.4570     2.8590 O.2   1 <1>  -0.5700 
 17 C        2.4980     6.7800     0.9850 C.ar  1 <1>   0.0860 
 18 C        3.1630     6.7490    -0.2550 C.ar  1 <1>   0.0410 
 19 C        2.2420     8.0220     1.5700 C.ar  1 <1>  -0.1500 
 20 C        3.4840     5.5200    -0.9350 C.2   1 <1>   0.6960 
 21 C        3.5090     7.9610    -0.8590 C.ar  1 <1>  -0.1500 
 22 C        2.6010     9.2080     0.9600 C.ar  1 <1>  -0.1500 
 23 N        4.1560     4.5290    -0.4250 N.2   1 <1>  -0.6190 
 24 N        3.1290     5.2910    -2.1720 N.2   1 <1>  -0.6190 
 25 C        3.2360     9.1770    -0.2670 C.ar  1 <1>  -0.1500 
 26 N        4.1960     3.6720    -1.3790 N.2   1 <1>  -0.2500 
 27 N        3.5860     4.1170    -2.4350 N.2   1 <1>  -0.2500 
 28 H        0.8230    -1.8410    -2.2450 H     1 <1>   0.1500 
 29 H       -1.8350    -1.4140    -2.3200 H     1 <1>   0.1500 
 30 H       -3.3400     0.5700    -0.3380 H     1 <1>   0.0800 
 31 H       -3.3800     0.8810    -2.0560 H     1 <1>   0.0800 
 32 H       -0.3580     3.8210    -1.7920 H     1 <1>   0.0800 
 33 H        1.1870     3.2950    -1.2520 H     1 <1>   0.0800 
 34 H        0.3960     1.3710     1.5690 H     1 <1>   0.0800 
 35 H       -0.4990     2.7660     2.0720 H     1 <1>   0.0800 
 36 H       -3.6730     2.9530    -0.5830 H     1 <1>   0.0800 
 37 H       -2.4070     3.0740    -1.7810 H     1 <1>   0.0800 
 38 H       -0.5690     5.2180     0.2660 H     1 <1>   0.0800 
 39 H        0.8090     5.6530    -0.7000 H     1 <1>   0.0800 
 40 H        2.2470     2.7930     0.8190 H     1 <1>   0.0800 
 41 H        1.8540     3.1200     2.4830 H     1 <1>   0.0800 
 42 H        1.7520     8.0430     2.5280 H     1 <1>   0.1500 
 43 H        4.0040     7.9270    -1.8160 H     1 <1>   0.1500 
 44 H        2.3880    10.1490     1.4360 H     1 <1>   0.1500 
 45 H        3.5180    10.0930    -0.7560 H     1 <1>   0.1500 
@<TRIPOS>BOND
  1   1   2  1   
  2   1   3  1   
  3   2   4  2   
  4   2   5  1   
  5   3   6  2   
  6   3  28  1   
  7   4   6  1   
  8   4   7  1   
  9   5   8  1   
 10   5   9  1   
 11   5  10  1   
 12   6  29  1   
 13   7  11  1   
 14   7  30  1   
 15   7  31  1   
 16   8  11  1   
 17   9  12  1   
 18   9  32  1   
 19   9  33  1   
 20  10  13  1   
 21  10  34  1   
 22  10  35  1   
 23  11  36  1   
 24  11  37  1   
 25  12  14  1   
 26  12  38  1   
 27  12  39  1   
 28  13  14  1   
 29  13  40  1   
 30  13  41  1   
 31  14  15  am  
 32  15  16  2   
 33  15  17  1   
 34  17  18  ar  
 35  17  19  ar  
 36  18  20  1   
 37  18  21  ar  
 38  19  22  ar  
 39  19  42  1   
 40  20  23  2   
 41  20  24  1   
 42  21  25  ar  
 43  21  43  1   
 44  22  25  ar  
 45  22  44  1   
 46  23  26  1   
 47  24  27  2   
 48  25  45  1   
 49  26  27  1   
@<TRIPOS>SUBSTRUCTURE
  1 ****  12 GROUP 4 **** **** 0

# MOE 2024.06 (io_trps.svl 2023.06)
