@<TRIPOS>MOLECULE
NONAME
43 44 1 0 0 
SMALL
USER_CHARGES


@<TRIPOS>ATOM
  1 O       -0.1650    -0.0420    -0.8700 O.2   1 <1>  -0.5700 
  2 C        0.8300    -0.5680    -0.4360 C.2   1 <1>   0.5690 
  3 N        1.8560     0.1040     0.1550 N.am  1 <1>  -0.4930 
  4 C        0.9430    -2.0730    -0.5530 C.3   1 <1>  -0.0990 
  5 C        2.0100     1.4930     0.3950 C.2   1 <1>   0.0630 
  6 C        0.0410    -2.7720     0.4700 C.3   1 <1>  -0.0160 
  7 C        1.0780     2.4400     0.8360 C.2   1 <1>   0.1080 
  8 C        3.1640     2.1840     0.2630 C.2   1 <1>  -0.3320 
  9 C        0.1920    -4.2800     0.3640 C.ar  1 <1>  -0.1430 
 10 N        1.6040     3.6180     0.9680 N.2   1 <1>  -0.7070 
 11 C       -0.3780     2.1920     1.1580 C.3   1 <1>  -0.0590 
 12 N        2.8890     3.4680     0.6080 N.pl3 1 <1>   0.3140 
 13 C        4.5350     1.6970    -0.1880 C.3   1 <1>  -0.0600 
 14 C        1.0200    -4.9950     1.2050 C.ar  1 <1>  -0.1500 
 15 C       -0.4920    -5.0110    -0.5860 C.ar  1 <1>  -0.1500 
 16 C        3.8130     4.6210     0.6160 C.3   1 <1>   0.0960 
 17 C        1.1230    -6.3690     1.0570 C.ar  1 <1>   0.1600 
 18 C       -0.3180    -6.3830    -0.6500 C.ar  1 <1>   0.1600 
 19 C        3.8260     5.3240    -0.7500 C.3   1 <1>  -0.1600 
 20 N        0.4750    -7.0790     0.1480 N.ar  1 <1>  -0.6200 
 21 C        4.7930     6.5130    -0.7580 C.3   1 <1>  -0.2400 
 22 H        2.6770    -0.4410     0.4020 H     1 <1>   0.3700 
 23 H        1.9620    -2.3810    -0.4110 H     1 <1>   0.0800 
 24 H        0.6470    -2.3580    -1.5460 H     1 <1>   0.0800 
 25 H       -0.9860    -2.4990     0.2920 H     1 <1>   0.0800 
 26 H        0.2960    -2.4480     1.4640 H     1 <1>   0.0800 
 27 H       -0.5070     1.2090     1.5690 H     1 <1>   0.0800 
 28 H       -0.9610     2.2790     0.2600 H     1 <1>   0.0800 
 29 H       -0.7230     2.9180     1.8700 H     1 <1>   0.0800 
 30 H        4.5010     0.6580    -0.4590 H     1 <1>   0.0800 
 31 H        5.2520     1.8220     0.6030 H     1 <1>   0.0800 
 32 H        4.8610     2.2560    -1.0470 H     1 <1>   0.0800 
 33 H        1.5850    -4.5010     1.9740 H     1 <1>   0.1500 
 34 H       -1.1580    -4.5260    -1.2760 H     1 <1>   0.1500 
 35 H        4.7970     4.2760     0.8720 H     1 <1>   0.0800 
 36 H        3.4830     5.3050     1.3760 H     1 <1>   0.0800 
 37 H        1.7720    -6.9120     1.7220 H     1 <1>   0.1500 
 38 H       -0.8600    -6.9370    -1.3970 H     1 <1>   0.1500 
 39 H        2.8310     5.6730    -0.9720 H     1 <1>   0.0800 
 40 H        4.1170     4.6250    -1.5140 H     1 <1>   0.0800 
 41 H        4.5050     7.2370    -0.0150 H     1 <1>   0.0800 
 42 H        4.7770     6.9920    -1.7220 H     1 <1>   0.0800 
 43 H        5.7980     6.1870    -0.5550 H     1 <1>   0.0800 
@<TRIPOS>BOND
  1   1   2  2   
  2   2   3  am  
  3   2   4  1   
  4   3   5  1   
  5   3  22  1   
  6   4   6  1   
  7   4  23  1   
  8   4  24  1   
  9   5   7  1   
 10   5   8  2   
 11   6   9  1   
 12   6  25  1   
 13   6  26  1   
 14   7  10  2   
 15   7  11  1   
 16   8  12  1   
 17   8  13  1   
 18   9  14  ar  
 19   9  15  ar  
 20  10  12  1   
 21  11  27  1   
 22  11  28  1   
 23  11  29  1   
 24  12  16  1   
 25  13  30  1   
 26  13  31  1   
 27  13  32  1   
 28  14  17  ar  
 29  14  33  1   
 30  15  18  ar  
 31  15  34  1   
 32  16  19  1   
 33  16  35  1   
 34  16  36  1   
 35  17  20  ar  
 36  17  37  1   
 37  18  20  ar  
 38  18  38  1   
 39  19  21  1   
 40  19  39  1   
 41  19  40  1   
 42  21  41  1   
 43  21  42  1   
 44  21  43  1   
@<TRIPOS>SUBSTRUCTURE
  1 ****   3 GROUP 4 **** **** 0

# MOE 2024.06 (io_trps.svl 2023.06)
