@<TRIPOS>MOLECULE
NONAME
52 55 1 0 0 
SMALL
USER_CHARGES


@<TRIPOS>ATOM
  1 O       -2.8270    -0.5790    -1.1870 O.2   1 <1>  -0.5700 
  2 C       -2.0190    -1.1220    -0.4570 C.2   1 <1>   0.6160 
  3 N       -1.4740    -0.3600     0.5380 N.am  1 <1>  -0.7300 
  4 C       -1.5920    -2.4770    -0.7190 C.2   1 <1>   0.0290 
  5 C       -1.3650     1.1170     0.5090 C.3   1 <1>   0.1400 
  6 C       -0.5670    -3.0850     0.0840 C.2   1 <1>   0.6160 
  7 C       -2.0870    -3.1970    -1.7810 C.2   1 <1>  -0.1500 
  8 C       -0.4590     1.5450    -0.6570 C.3   1 <1>   0.1400 
  9 O       -0.2300    -2.6450     1.1830 O.2   1 <1>  -0.5700 
 10 N        0.0610    -4.2310    -0.3850 N.am  1 <1>  -0.4690 
 11 C       -1.5310    -4.4410    -2.1360 C.2   1 <1>  -0.1500 
 12 N        0.5830     2.5250    -0.2290 N.am  1 <1>  -0.6600 
 13 C       -0.4590    -4.9240    -1.4530 C.2   1 <1>  -0.0410 
 14 C        1.3470    -4.6580     0.2340 C.3   1 <1>   0.3210 
 15 C        1.8730     2.2040     0.1060 C.2   1 <1>   0.5690 
 16 C        0.1560     3.9500    -0.3560 C.3   1 <1>   0.0600 
 17 C        2.3770    -3.5350     0.1560 C.2   1 <1>   0.0460 
 18 O        2.7390     3.0470     0.1650 O.2   1 <1>  -0.5700 
 19 C        2.2830     0.7640     0.4250 C.3   1 <1>  -0.0990 
 20 N        3.0040    -3.1910    -0.9770 N.2   1 <1>  -0.2270 
 21 C        2.7730    -2.7210     1.1470 C.2   1 <1>  -0.3020 
 22 C        3.7990     0.6320     0.7400 C.3   1 <1>  -0.0800 
 23 N        3.7600    -2.1820    -0.7180 N.2   1 <1>  -0.4180 
 24 N        3.6250    -1.8740     0.5780 N.pl3 1 <1>   0.3140 
 25 C        4.3120    -0.7360     1.2270 C.3   1 <1>   0.1760 
 26 C        4.6770     1.0000    -0.4680 C.3   1 <1>   0.3430 
 27 C        5.7700    -0.7290     0.7750 C.3   1 <1>   0.3430 
 28 N        5.7610    -0.0190    -0.5320 N.4   1 <1>  -0.9060 
 29 H       -0.8730    -0.8560     1.2120 H     1 <1>   0.3700 
 30 H       -2.3480     1.5390     0.3760 H     1 <1>   0.0800 
 31 H       -0.9650     1.4620     1.4460 H     1 <1>   0.0800 
 32 H       -2.8910    -2.8080    -2.3860 H     1 <1>   0.1500 
 33 H       -1.0710     1.9880    -1.4250 H     1 <1>   0.0800 
 34 H        0.0130     0.6850    -1.0960 H     1 <1>   0.0800 
 35 H       -1.9540    -4.9800    -2.9670 H     1 <1>   0.1500 
 36 H        0.0090    -5.8540    -1.7350 H     1 <1>   0.1500 
 37 H        1.1670    -4.9100     1.2640 H     1 <1>   0.0800 
 38 H        1.7310    -5.5280    -0.2680 H     1 <1>   0.0800 
 39 H       -0.7880     4.0960     0.1400 H     1 <1>   0.0800 
 40 H        0.0540     4.2070    -1.3960 H     1 <1>   0.0800 
 41 H        0.8790     4.6090     0.0930 H     1 <1>   0.0800 
 42 H        1.7070     0.4370     1.2720 H     1 <1>   0.0800 
 43 H        2.0310     0.1390    -0.4120 H     1 <1>   0.0800 
 44 H        2.4740    -2.6940     2.1800 H     1 <1>   0.1500 
 45 H        4.0320     1.3410     1.5170 H     1 <1>   0.0800 
 46 H        4.2290    -0.8430     2.2940 H     1 <1>   0.0800 
 47 H        5.0810     1.9920    -0.3350 H     1 <1>   0.0800 
 48 H        4.0970     0.9840    -1.3780 H     1 <1>   0.0800 
 49 H        6.1650    -1.7290     0.6880 H     1 <1>   0.0800 
 50 H        6.3610    -0.1700     1.4840 H     1 <1>   0.0800 
 51 H        6.6710     0.3780    -0.8020 H     1 <1>   0.4500 
 52 H        5.4850    -0.7130    -1.2530 H     1 <1>   0.4500 
@<TRIPOS>BOND
  1   1   2  2   
  2   2   3  am  
  3   2   4  1   
  4   3   5  1   
  5   3  29  1   
  6   4   6  1   
  7   4   7  2   
  8   5   8  1   
  9   5  30  1   
 10   5  31  1   
 11   6   9  2   
 12   6  10  am  
 13   7  11  1   
 14   7  32  1   
 15   8  12  1   
 16   8  33  1   
 17   8  34  1   
 18  10  13  1   
 19  10  14  1   
 20  11  13  2   
 21  11  35  1   
 22  12  15  am  
 23  12  16  1   
 24  13  36  1   
 25  14  17  1   
 26  14  37  1   
 27  14  38  1   
 28  15  18  2   
 29  15  19  1   
 30  16  39  1   
 31  16  40  1   
 32  16  41  1   
 33  17  20  1   
 34  17  21  2   
 35  19  22  1   
 36  19  42  1   
 37  19  43  1   
 38  20  23  2   
 39  21  24  1   
 40  21  44  1   
 41  22  25  1   
 42  22  26  1   
 43  22  45  1   
 44  23  24  1   
 45  24  25  1   
 46  25  27  1   
 47  25  46  1   
 48  26  28  1   
 49  26  47  1   
 50  26  48  1   
 51  27  28  1   
 52  27  49  1   
 53  27  50  1   
 54  28  51  1   
 55  28  52  1   
@<TRIPOS>SUBSTRUCTURE
  1 ****  19 GROUP 4 **** **** 0

# MOE 2024.06 (io_trps.svl 2023.06)
