@<TRIPOS>MOLECULE
NONAME
56 58 1 0 0 
SMALL
USER_CHARGES


@<TRIPOS>ATOM
  1 O       -0.0790    -0.6260    -0.6580 O.2   1 <1>  -0.5700 
  2 C       -0.0540    -1.8330    -0.5740 C.2   1 <1>   0.5690 
  3 N        1.1050    -2.5490    -0.7550 N.am  1 <1>  -0.6600 
  4 C       -1.3600    -2.5530    -0.2560 C.3   1 <1>  -0.0990 
  5 C        1.1790    -4.0370    -0.7220 C.3   1 <1>   0.1400 
  6 C        2.3970    -1.8530    -1.0090 C.3   1 <1>   0.1400 
  7 C       -2.5160    -1.6100     0.1380 C.3   1 <1>  -0.0990 
  8 C        1.6020    -4.4990     0.6760 C.3   1 <1>  -0.1600 
  9 C        3.3970    -2.0770     0.1320 C.3   1 <1>  -0.1600 
 10 C       -3.8150    -2.3250     0.4820 C.2   1 <1>   0.5690 
 11 C        3.1210    -4.5280     0.9270 C.3   1 <1>  -0.1600 
 12 C        3.9750    -3.5010     0.1650 C.3   1 <1>  -0.1600 
 13 O       -3.8360    -3.5340     0.4210 O.2   1 <1>  -0.5700 
 14 N       -4.9250    -1.6040     0.8470 N.am  1 <1>  -0.6600 
 15 C       -6.2200    -2.2810     1.1600 C.3   1 <1>   0.1400 
 16 C       -5.0010    -0.1190     0.9210 C.3   1 <1>   0.1400 
 17 C       -7.3440    -1.8300     0.1950 C.3   1 <1>   0.0000 
 18 C       -6.0750     0.3830    -0.0480 C.3   1 <1>  -0.1600 
 19 C       -8.6540    -2.5330     0.6080 C.3   1 <1>   0.2000 
 20 C       -7.4360    -0.2830     0.2160 C.3   1 <1>  -0.1600 
 21 C       -7.0900    -2.3860    -1.2220 C.3   1 <1>  -0.1600 
 22 O       -9.7430    -1.9080     0.0250 O.3   1 <1>  -0.6800 
 23 C       -8.5650    -3.9320     0.0020 C.3   1 <1>  -0.1600 
 24 C       -7.6770    -3.8040    -1.2440 C.3   1 <1>  -0.1600 
 25 H       -1.6540    -3.1190    -1.1200 H     1 <1>   0.0800 
 26 H       -1.1870    -3.2350     0.5550 H     1 <1>   0.0800 
 27 H        0.2180    -4.4580    -0.9590 H     1 <1>   0.0800 
 28 H        1.8710    -4.3920    -1.4660 H     1 <1>   0.0800 
 29 H        2.8100    -2.2010    -1.9400 H     1 <1>   0.0800 
 30 H        2.2300    -0.7940    -1.1130 H     1 <1>   0.0800 
 31 H       -2.7070    -0.9390    -0.6800 H     1 <1>   0.0800 
 32 H       -2.2120    -1.0300     0.9890 H     1 <1>   0.0800 
 33 H        1.1310    -3.8660     1.4080 H     1 <1>   0.0800 
 34 H        1.2230    -5.4930     0.8350 H     1 <1>   0.0800 
 35 H        4.2140    -1.3950    -0.0290 H     1 <1>   0.0800 
 36 H        2.9480    -1.8180     1.0740 H     1 <1>   0.0800 
 37 H        3.2840    -4.3970     1.9830 H     1 <1>   0.0800 
 38 H        3.4910    -5.5080     0.6770 H     1 <1>   0.0800 
 39 H        4.1390    -3.8420    -0.8420 H     1 <1>   0.0800 
 40 H        4.9410    -3.4650     0.6390 H     1 <1>   0.0800 
 41 H       -6.1010    -3.3490     1.1140 H     1 <1>   0.0800 
 42 H       -6.4950    -2.0330     2.1700 H     1 <1>   0.0800 
 43 H       -5.2600     0.1660     1.9270 H     1 <1>   0.0800 
 44 H       -4.0600     0.3410     0.6810 H     1 <1>   0.0800 
 45 H       -6.1730     1.4490     0.0560 H     1 <1>   0.0800 
 46 H       -5.7570     0.1830    -1.0560 H     1 <1>   0.0800 
 47 H       -8.8100    -2.5470     1.6740 H     1 <1>   0.0800 
 48 H       -8.1440     0.0630    -0.5160 H     1 <1>   0.0800 
 49 H       -7.7960     0.0290     1.1810 H     1 <1>   0.0800 
 50 H       -7.6100    -1.7840    -1.9470 H     1 <1>   0.0800 
 51 H       -6.0450    -2.3910    -1.4800 H     1 <1>   0.0800 
 52 H       -9.6370    -1.9380    -0.9440 H     1 <1>   0.4000 
 53 H       -8.0820    -4.5860     0.7070 H     1 <1>   0.0800 
 54 H       -9.5350    -4.3410    -0.2220 H     1 <1>   0.0800 
 55 H       -6.8850    -4.5340    -1.2050 H     1 <1>   0.0800 
 56 H       -8.2480    -3.9610    -2.1430 H     1 <1>   0.0800 
@<TRIPOS>BOND
  1   1   2  2   
  2   2   3  am  
  3   2   4  1   
  4   3   5  1   
  5   3   6  1   
  6   4   7  1   
  7   4  25  1   
  8   4  26  1   
  9   5   8  1   
 10   5  27  1   
 11   5  28  1   
 12   6   9  1   
 13   6  29  1   
 14   6  30  1   
 15   7  10  1   
 16   7  31  1   
 17   7  32  1   
 18   8  11  1   
 19   8  33  1   
 20   8  34  1   
 21   9  12  1   
 22   9  35  1   
 23   9  36  1   
 24  10  13  2   
 25  10  14  am  
 26  11  12  1   
 27  11  37  1   
 28  11  38  1   
 29  12  39  1   
 30  12  40  1   
 31  14  15  1   
 32  14  16  1   
 33  15  17  1   
 34  15  41  1   
 35  15  42  1   
 36  16  18  1   
 37  16  43  1   
 38  16  44  1   
 39  17  19  1   
 40  17  20  1   
 41  17  21  1   
 42  18  20  1   
 43  18  45  1   
 44  18  46  1   
 45  19  22  1   
 46  19  23  1   
 47  19  47  1   
 48  20  48  1   
 49  20  49  1   
 50  21  24  1   
 51  21  50  1   
 52  21  51  1   
 53  22  52  1   
 54  23  24  1   
 55  23  53  1   
 56  23  54  1   
 57  24  55  1   
 58  24  56  1   
@<TRIPOS>SUBSTRUCTURE
  1 ****  10 GROUP 4 **** **** 0

# MOE 2024.06 (io_trps.svl 2023.06)
