@<TRIPOS>MOLECULE
NONAME
28 28 1 0 0 
SMALL
USER_CHARGES


@<TRIPOS>ATOM
  1 O       -0.0550    -0.8800     1.1410 O.2   1 <1>  -0.5700 
  2 C        0.0940    -1.5010     0.1200 C.2   1 <1>   0.6590 
  3 O       -0.9090    -1.7320    -0.7160 O.3   1 <1>  -0.4300 
  4 C        1.4340    -2.0720    -0.3020 C.3   1 <1>  -0.0990 
  5 C       -2.2150    -1.2610    -0.4560 C.3   1 <1>   0.0400 
  6 C        2.5560    -1.8090     0.7120 C.3   1 <1>  -0.0170 
  7 C        3.8630    -2.4110     0.2230 C.ar  1 <1>  -0.1440 
  8 C        4.1800    -3.7280     0.5220 C.ar  1 <1>  -0.1500 
  9 C        4.7460    -1.6500    -0.5280 C.ar  1 <1>  -0.1500 
 10 C        5.3660    -4.2920     0.0790 C.ar  1 <1>  -0.1440 
 11 C        5.9340    -2.2000    -0.9750 C.ar  1 <1>  -0.1500 
 12 C        6.2410    -3.5170    -0.6720 C.ar  1 <1>   0.0830 
 13 C        5.6970    -5.7390     0.4160 C.3   1 <1>  -0.0970 
 14 O        7.4000    -4.0360    -1.1130 O.3   1 <1>  -0.5320 
 15 H        1.7010    -1.6400    -1.2480 H     1 <1>   0.0800 
 16 H        1.3200    -3.1310    -0.4400 H     1 <1>   0.0800 
 17 H       -2.8560    -1.5660    -1.2650 H     1 <1>   0.0800 
 18 H       -2.1900    -0.1880    -0.3860 H     1 <1>   0.0800 
 19 H       -2.5600    -1.6860     0.4710 H     1 <1>   0.0800 
 20 H        2.2940    -2.2380     1.6650 H     1 <1>   0.0800 
 21 H        2.6750    -0.7490     0.8580 H     1 <1>   0.0800 
 22 H        3.4950    -4.3180     1.1040 H     1 <1>   0.1500 
 23 H        4.5120    -0.6270    -0.7660 H     1 <1>   0.1500 
 24 H        6.6110    -1.6020    -1.5550 H     1 <1>   0.1500 
 25 H        4.9160    -6.1910     1.0000 H     1 <1>   0.0800 
 26 H        6.6140    -5.7790     0.9760 H     1 <1>   0.0800 
 27 H        5.8210    -6.3020    -0.4900 H     1 <1>   0.0800 
 28 H        7.9320    -3.3990    -1.6190 H     1 <1>   0.4500 
@<TRIPOS>BOND
  1   1   2  2   
  2   2   3  1   
  3   2   4  1   
  4   3   5  1   
  5   4   6  1   
  6   4  15  1   
  7   4  16  1   
  8   5  17  1   
  9   5  18  1   
 10   5  19  1   
 11   6   7  1   
 12   6  20  1   
 13   6  21  1   
 14   7   8  ar  
 15   7   9  ar  
 16   8  10  ar  
 17   8  22  1   
 18   9  11  ar  
 19   9  23  1   
 20  10  12  ar  
 21  10  13  1   
 22  11  12  ar  
 23  11  24  1   
 24  12  14  1   
 25  13  25  1   
 26  13  26  1   
 27  13  27  1   
 28  14  28  1   
@<TRIPOS>SUBSTRUCTURE
  1 ****   7 GROUP 4 **** **** 0

# MOE 2024.06 (io_trps.svl 2023.06)
