@<TRIPOS>MOLECULE
NONAME
44 46 1 0 0 
SMALL
USER_CHARGES


@<TRIPOS>ATOM
  1 F       -2.7000     1.0160    -0.7550 F     1 <1>  -0.1900 
  2 C       -1.5920     1.6160    -0.4160 C.ar  1 <1>   0.1900 
  3 C       -1.4410     2.9760    -0.6790 C.ar  1 <1>   0.0860 
  4 C       -0.6150     0.8530     0.1950 C.ar  1 <1>  -0.1500 
  5 C       -2.4740     3.7640    -1.3100 C.2   1 <1>   0.5440 
  6 C       -0.2260     3.5510    -0.3050 C.ar  1 <1>  -0.1500 
  7 C        0.5750     1.4560     0.5630 C.ar  1 <1>  -0.1500 
  8 O       -2.2780     4.1900    -2.4330 O.2   1 <1>  -0.5700 
  9 N       -3.6550     4.0780    -0.6670 N.am  1 <1>  -0.6600 
 10 C        0.7660     2.8060     0.3100 C.ar  1 <1>  -0.1500 
 11 C       -4.7660     4.7880    -1.3510 C.3   1 <1>   0.1400 
 12 C       -3.9420     3.7770     0.7600 C.3   1 <1>   0.1400 
 13 C       -6.0280     3.9240    -1.2850 C.3   1 <1>  -0.1600 
 14 C       -5.1980     2.9060     0.8480 C.3   1 <1>  -0.1600 
 15 C       -6.4140     3.5570     0.1660 C.3   1 <1>   0.2800 
 16 O       -6.6810     4.7220     0.9000 O.3   1 <1>  -0.5600 
 17 C       -7.6200     2.5930     0.2660 C.3   1 <1>  -0.1600 
 18 C       -7.8500     5.4370     0.6270 C.3   1 <1>   0.1200 
 19 C       -8.9930     3.2480     0.0850 C.3   1 <1>   0.2800 
 20 C       -9.0690     4.5500     0.8810 C.3   1 <1>  -0.1600 
 21 O       -9.1710     3.5460    -1.2430 O.3   1 <1>  -0.6800 
 22 C      -10.1270     2.2960     0.4580 C.3   1 <1>  -0.2400 
 23 H       -0.7840    -0.1940     0.3770 H     1 <1>   0.1500 
 24 H       -0.0670     4.5970    -0.5060 H     1 <1>   0.1500 
 25 H        1.3500     0.8810     1.0410 H     1 <1>   0.1500 
 26 H        1.6940     3.2760     0.5900 H     1 <1>   0.1500 
 27 H       -4.5180     4.9850    -2.3800 H     1 <1>   0.0800 
 28 H       -4.9360     5.7300    -0.8600 H     1 <1>   0.0800 
 29 H       -4.1060     4.7030     1.2860 H     1 <1>   0.0800 
 30 H       -3.1160     3.2730     1.2270 H     1 <1>   0.0800 
 31 H       -5.8400     3.0210    -1.8380 H     1 <1>   0.0800 
 32 H       -6.8180     4.4380    -1.7920 H     1 <1>   0.0800 
 33 H       -5.4210     2.7200     1.8830 H     1 <1>   0.0800 
 34 H       -4.9910     1.9580     0.3850 H     1 <1>   0.0800 
 35 H       -7.6050     2.1580     1.2480 H     1 <1>   0.0800 
 36 H       -7.5060     1.7810    -0.4290 H     1 <1>   0.0800 
 37 H       -7.8220     5.7960    -0.3860 H     1 <1>   0.0800 
 38 H       -7.8690     6.2870     1.2870 H     1 <1>   0.0800 
 39 H       -9.9710     5.0800     0.6350 H     1 <1>   0.0800 
 40 H       -9.1020     4.3250     1.9320 H     1 <1>   0.0800 
 41 H       -8.4390     4.1100    -1.5450 H     1 <1>   0.4000 
 42 H      -10.0610     2.0240     1.4960 H     1 <1>   0.0800 
 43 H      -10.0690     1.3990    -0.1330 H     1 <1>   0.0800 
 44 H      -11.0790     2.7660     0.2900 H     1 <1>   0.0800 
@<TRIPOS>BOND
  1   1   2  1   
  2   2   3  ar  
  3   2   4  ar  
  4   3   5  1   
  5   3   6  ar  
  6   4   7  ar  
  7   4  23  1   
  8   5   8  2   
  9   5   9  am  
 10   6  10  ar  
 11   6  24  1   
 12   7  10  ar  
 13   7  25  1   
 14   9  11  1   
 15   9  12  1   
 16  10  26  1   
 17  11  13  1   
 18  11  27  1   
 19  11  28  1   
 20  12  14  1   
 21  12  29  1   
 22  12  30  1   
 23  13  15  1   
 24  13  31  1   
 25  13  32  1   
 26  14  15  1   
 27  14  33  1   
 28  14  34  1   
 29  15  16  1   
 30  15  17  1   
 31  16  18  1   
 32  17  19  1   
 33  17  35  1   
 34  17  36  1   
 35  18  20  1   
 36  18  37  1   
 37  18  38  1   
 38  19  20  1   
 39  19  21  1   
 40  19  22  1   
 41  20  39  1   
 42  20  40  1   
 43  21  41  1   
 44  22  42  1   
 45  22  43  1   
 46  22  44  1   
@<TRIPOS>SUBSTRUCTURE
  1 ****  12 GROUP 4 **** **** 0

# MOE 2024.06 (io_trps.svl 2023.06)
