@<TRIPOS>MOLECULE
NONAME
51 55 1 0 0 
SMALL
USER_CHARGES


@<TRIPOS>ATOM
  1 O       -1.0620     2.2240    -1.1330 O.2   1 <1>  -0.5700 
  2 C       -1.8060     1.8930    -0.2390 C.2   1 <1>   0.5690 
  3 N       -3.0630     1.3920    -0.4930 N.am  1 <1>  -0.6600 
  4 C       -1.2590     2.0260     1.1740 C.3   1 <1>   0.1570 
  5 C       -4.0650     1.0860     0.5790 C.3   1 <1>   0.1400 
  6 C       -3.4290     0.9530    -1.8740 C.3   1 <1>   0.1400 
  7 N       -1.2200     0.7130     1.8580 N.pl3 1 <1>   0.0480 
  8 C       -5.3330     0.4420     0.0230 C.3   1 <1>  -0.1600 
  9 C       -3.8240    -0.5210    -1.8140 C.3   1 <1>  -0.1600 
 10 C       -0.7880    -0.4910     1.4000 C.2   1 <1>   0.0060 
 11 C       -1.7680     0.4430     3.0590 C.2   1 <1>  -0.3020 
 12 C       -5.0190    -0.7660    -0.8750 C.3   1 <1>   0.4600 
 13 N       -1.0520    -1.4710     2.1990 N.2   1 <1>  -0.5650 
 14 C       -0.0590    -0.7010     0.0860 C.3   1 <1>  -0.0600 
 15 C       -1.6580    -0.8880     3.2480 C.2   1 <1>   0.0770 
 16 O       -6.1330    -0.9450    -1.7190 O.3   1 <1>  -0.5600 
 17 C       -4.8020    -2.0340    -0.0470 C.2   1 <1>  -0.3320 
 18 C       -7.2680    -1.5850    -1.1880 C.3   1 <1>   0.1200 
 19 N       -3.7350    -2.3280     0.7700 N.pl3 1 <1>   0.0330 
 20 C       -5.6740    -3.0630    -0.0180 C.2   1 <1>  -0.1810 
 21 C       -6.9550    -3.0420    -0.8130 C.3   1 <1>   0.0210 
 22 C       -3.9510    -3.5720     1.3100 C.ar  1 <1>  -0.1520 
 23 C       -5.1630    -4.0630     0.8350 C.ar  1 <1>   0.0000 
 24 C       -3.1680    -4.3250     2.1870 C.ar  1 <1>  -0.1500 
 25 C       -5.6080    -5.3230     1.2460 C.ar  1 <1>  -0.1500 
 26 C       -3.6160    -5.5630     2.5850 C.ar  1 <1>  -0.1500 
 27 C       -4.8370    -6.0630     2.1140 C.ar  1 <1>  -0.1500 
 28 H       -1.8770     2.7020     1.7310 H     1 <1>   0.0800 
 29 H       -0.2620     2.4210     1.1350 H     1 <1>   0.0800 
 30 H       -4.3200     1.9920     1.1010 H     1 <1>   0.0800 
 31 H       -3.6440     0.3950     1.2820 H     1 <1>   0.0800 
 32 H       -2.6000     1.0730    -2.5500 H     1 <1>   0.0800 
 33 H       -4.2470     1.5490    -2.2430 H     1 <1>   0.0800 
 34 H       -5.8750     1.1820    -0.5380 H     1 <1>   0.0800 
 35 H       -5.9510     0.1280     0.8440 H     1 <1>   0.0800 
 36 H       -2.9690    -1.0750    -1.4780 H     1 <1>   0.0800 
 37 H       -4.0560    -0.8770    -2.8010 H     1 <1>   0.0800 
 38 H       -2.2000     1.1880     3.7020 H     1 <1>   0.1500 
 39 H        0.7170     0.0330    -0.0330 H     1 <1>   0.0800 
 40 H       -0.7400    -0.6310    -0.7410 H     1 <1>   0.0800 
 41 H        0.3910    -1.6770     0.0720 H     1 <1>   0.0800 
 42 H       -1.9880    -1.4670     4.0960 H     1 <1>   0.1500 
 43 H       -8.0430    -1.5520    -1.9340 H     1 <1>   0.0800 
 44 H       -7.5980    -1.0380    -0.3230 H     1 <1>   0.0800 
 45 H       -2.8930    -1.7670     0.9670 H     1 <1>   0.2700 
 46 H       -6.8380    -3.6330    -1.7030 H     1 <1>   0.0800 
 47 H       -7.7610    -3.4480    -0.2310 H     1 <1>   0.0800 
 48 H       -2.2290    -3.9300     2.5360 H     1 <1>   0.1500 
 49 H       -6.5440    -5.6940     0.8750 H     1 <1>   0.1500 
 50 H       -3.0300    -6.1600     3.2600 H     1 <1>   0.1500 
 51 H       -5.1650    -7.0340     2.4390 H     1 <1>   0.1500 
@<TRIPOS>BOND
  1   1   2  2   
  2   2   3  am  
  3   2   4  1   
  4   3   5  1   
  5   3   6  1   
  6   4   7  1   
  7   4  28  1   
  8   4  29  1   
  9   5   8  1   
 10   5  30  1   
 11   5  31  1   
 12   6   9  1   
 13   6  32  1   
 14   6  33  1   
 15   7  10  1   
 16   7  11  1   
 17   8  12  1   
 18   8  34  1   
 19   8  35  1   
 20   9  12  1   
 21   9  36  1   
 22   9  37  1   
 23  10  13  2   
 24  10  14  1   
 25  11  15  2   
 26  11  38  1   
 27  12  16  1   
 28  12  17  1   
 29  13  15  1   
 30  14  39  1   
 31  14  40  1   
 32  14  41  1   
 33  15  42  1   
 34  16  18  1   
 35  17  19  1   
 36  17  20  2   
 37  18  21  1   
 38  18  43  1   
 39  18  44  1   
 40  19  22  1   
 41  19  45  1   
 42  20  21  1   
 43  20  23  1   
 44  21  46  1   
 45  21  47  1   
 46  22  23  ar  
 47  22  24  ar  
 48  23  25  ar  
 49  24  26  ar  
 50  24  48  1   
 51  25  27  ar  
 52  25  49  1   
 53  26  27  ar  
 54  26  50  1   
 55  27  51  1   
@<TRIPOS>SUBSTRUCTURE
  1 ****  19 GROUP 4 **** **** 0

# MOE 2024.06 (io_trps.svl 2023.06)
