@<TRIPOS>MOLECULE
NONAME
20 20 1 0 0 
SMALL
USER_CHARGES


@<TRIPOS>ATOM
  1 CL       0.5420     0.4210     1.1640 Cl    1 <1>  -0.1770 
  2 C        0.2900     2.0670     0.6560 C.ar  1 <1>   0.4870 
  3 N        0.2510     2.9810     1.6090 N.ar  1 <1>  -0.6200 
  4 C        0.1450     2.3310    -0.7010 C.ar  1 <1>   0.1600 
  5 C        0.0550     4.1890     1.1050 C.ar  1 <1>   0.1600 
  6 N       -0.0510     3.5420    -1.2020 N.ar  1 <1>  -0.6200 
  7 C       -0.0940     4.4820    -0.2520 C.ar  1 <1>   0.1670 
  8 C       -0.3170     5.9510    -0.6780 C.3   1 <1>   0.4240 
  9 O       -0.4330     5.9890    -2.0450 O.3   1 <1>  -0.6800 
 10 C        0.8760     6.8430    -0.3310 C.3   1 <1>  -0.2400 
 11 C       -1.6230     6.5220    -0.1270 C.3   1 <1>  -0.2400 
 12 H        0.1950     1.5050    -1.3870 H     1 <1>   0.1500 
 13 H        0.0090     4.9960     1.8150 H     1 <1>   0.1500 
 14 H       -0.3370     5.0530    -2.3350 H     1 <1>   0.4000 
 15 H        1.7760     6.4310    -0.7510 H     1 <1>   0.0800 
 16 H        0.9990     6.9170     0.7330 H     1 <1>   0.0800 
 17 H        0.7250     7.8320    -0.7240 H     1 <1>   0.0800 
 18 H       -2.4470     5.8900    -0.4060 H     1 <1>   0.0800 
 19 H       -1.7900     7.5100    -0.5190 H     1 <1>   0.0800 
 20 H       -1.5890     6.5850     0.9450 H     1 <1>   0.0800 
@<TRIPOS>BOND
  1   1   2  1   
  2   2   3  ar  
  3   2   4  ar  
  4   3   5  ar  
  5   4   6  ar  
  6   4  12  1   
  7   5   7  ar  
  8   5  13  1   
  9   6   7  ar  
 10   7   8  1   
 11   8   9  1   
 12   8  10  1   
 13   8  11  1   
 14   9  14  1   
 15  10  15  1   
 16  10  16  1   
 17  10  17  1   
 18  11  18  1   
 19  11  19  1   
 20  11  20  1   
@<TRIPOS>SUBSTRUCTURE
  1 ****   7 GROUP 4 **** **** 0

# MOE 2024.06 (io_trps.svl 2023.06)
