@<TRIPOS>MOLECULE
NONAME
44 44 1 0 0 
SMALL
USER_CHARGES


@<TRIPOS>ATOM
  1 O        0.8500     1.6930    -1.1360 O.3   1 <1>  -0.6800 
  2 C        0.4340     0.4800    -0.5980 C.3   1 <1>   0.1200 
  3 C        1.1990     0.1570     0.7010 C.3   1 <1>   0.3430 
  4 N        2.6750     0.0060     0.5010 N.4   1 <1>  -0.9590 
  5 C        3.2570    -0.9230     1.5040 C.3   1 <1>   0.5240 
  6 C        3.4160     1.2960     0.3680 C.3   1 <1>   0.3430 
  7 C        2.8920    -2.3340     1.0620 C.2   1 <1>   0.0460 
  8 C        4.5650     1.2440    -0.6740 C.3   1 <1>   0.0000 
  9 N        2.8290    -2.6340    -0.2550 N.2   1 <1>  -0.5650 
 10 C        2.5870    -3.4140     1.8140 C.2   1 <1>  -0.3020 
 11 C        5.1640     2.6630    -0.7990 C.3   1 <1>  -0.0220 
 12 C        5.6820     0.2590    -0.2710 C.3   1 <1>  -0.2400 
 13 C        4.0370     0.8200    -2.0600 C.3   1 <1>  -0.2400 
 14 C        2.5020    -3.8850    -0.2760 C.2   1 <1>   0.0060 
 15 N        2.3390    -4.4200     0.9540 N.pl3 1 <1>   0.0330 
 16 C        5.6520     3.2310     0.5270 C.2   1 <1>  -0.2880 
 17 C        2.3210    -4.6900    -1.5460 C.3   1 <1>  -0.0600 
 18 C        6.9370     3.3510     0.8710 C.2   1 <1>  -0.3000 
 19 H        0.3250     1.9220    -1.9330 H     1 <1>   0.4000 
 20 H        0.5940    -0.2950    -1.3300 H     1 <1>   0.0800 
 21 H       -0.6200     0.5530    -0.3910 H     1 <1>   0.0800 
 22 H        0.8020    -0.7700     1.0820 H     1 <1>   0.0800 
 23 H        0.9990     0.9230     1.4310 H     1 <1>   0.0800 
 24 H        2.7970    -0.5240    -0.3800 H     1 <1>   0.4500 
 25 H        2.8760    -0.7190     2.4900 H     1 <1>   0.0800 
 26 H        4.3280    -0.8340     1.5190 H     1 <1>   0.0800 
 27 H        3.8150     1.5860     1.3260 H     1 <1>   0.0800 
 28 H        2.7330     2.0690     0.0600 H     1 <1>   0.0800 
 29 H        2.5360    -3.5350     2.8820 H     1 <1>   0.1500 
 30 H        4.4320     3.3380    -1.2100 H     1 <1>   0.0800 
 31 H        5.9880     2.6390    -1.4930 H     1 <1>   0.0800 
 32 H        6.0320     0.4580     0.7270 H     1 <1>   0.0800 
 33 H        6.5220     0.3560    -0.9380 H     1 <1>   0.0800 
 34 H        5.3480    -0.7620    -0.3300 H     1 <1>   0.0800 
 35 H        3.2510     1.4780    -2.3870 H     1 <1>   0.0800 
 36 H        3.6580    -0.1860    -2.0510 H     1 <1>   0.0800 
 37 H        4.8280     0.8620    -2.7900 H     1 <1>   0.0800 
 38 H        2.0880    -5.3900     1.1740 H     1 <1>   0.2700 
 39 H        4.8590     3.5530     1.1810 H     1 <1>   0.1500 
 40 H        2.5080    -4.0690    -2.4040 H     1 <1>   0.0800 
 41 H        1.3170    -5.0670    -1.6070 H     1 <1>   0.0800 
 42 H        3.0110    -5.5140    -1.5630 H     1 <1>   0.0800 
 43 H        7.2750     3.7640     1.8070 H     1 <1>   0.1500 
 44 H        7.7640     3.0520     0.2480 H     1 <1>   0.1500 
@<TRIPOS>BOND
  1   1   2  1   
  2   1  19  1   
  3   2   3  1   
  4   2  20  1   
  5   2  21  1   
  6   3   4  1   
  7   3  22  1   
  8   3  23  1   
  9   4   5  1   
 10   4   6  1   
 11   4  24  1   
 12   5   7  1   
 13   5  25  1   
 14   5  26  1   
 15   6   8  1   
 16   6  27  1   
 17   6  28  1   
 18   7   9  1   
 19   7  10  2   
 20   8  11  1   
 21   8  12  1   
 22   8  13  1   
 23   9  14  2   
 24  10  15  1   
 25  10  29  1   
 26  11  16  1   
 27  11  30  1   
 28  11  31  1   
 29  12  32  1   
 30  12  33  1   
 31  12  34  1   
 32  13  35  1   
 33  13  36  1   
 34  13  37  1   
 35  14  15  1   
 36  14  17  1   
 37  15  38  1   
 38  16  18  2   
 39  16  39  1   
 40  17  40  1   
 41  17  41  1   
 42  17  42  1   
 43  18  43  1   
 44  18  44  1   
@<TRIPOS>SUBSTRUCTURE
  1 ****   4 GROUP 4 **** **** 0

# MOE 2024.06 (io_trps.svl 2023.06)
