@<TRIPOS>MOLECULE
NONAME
49 51 1 0 0 
SMALL
USER_CHARGES


@<TRIPOS>ATOM
  1 F       -2.1950    -0.6820     1.2470 F     1 <1>  -0.1900 
  2 C       -2.2580     0.3490     0.4450 C.ar  1 <1>   0.1900 
  3 C       -2.7440     0.1580    -0.8480 C.ar  1 <1>   0.0860 
  4 C       -1.8340     1.5800     0.9270 C.ar  1 <1>  -0.1440 
  5 C       -3.1890    -1.1310    -1.3290 C.2   1 <1>   0.5440 
  6 C       -2.7750     1.2800    -1.6750 C.ar  1 <1>  -0.1500 
  7 C       -1.8920     2.6710     0.0750 C.ar  1 <1>  -0.1500 
  8 C       -1.3130     1.7390     2.3480 C.3   1 <1>  -0.0960 
  9 O       -2.6350    -1.6330    -2.2890 O.2   1 <1>  -0.5700 
 10 N       -4.2390    -1.8240    -0.7590 N.am  1 <1>  -0.6600 
 11 C       -2.3580     2.5190    -1.2210 C.ar  1 <1>  -0.1500 
 12 C       -4.5140    -3.2260    -1.1970 C.3   1 <1>   0.1400 
 13 C       -5.1350    -1.2330     0.2880 C.3   1 <1>   0.1400 
 14 C       -5.2680    -3.9720    -0.0880 C.3   1 <1>   0.4230 
 15 C       -6.5590    -1.7900     0.1500 C.3   1 <1>  -0.1600 
 16 N       -5.2700    -5.4860    -0.1910 N.4   1 <1>  -0.9590 
 17 C       -6.6640    -3.3480     0.1850 C.3   1 <1>   0.0000 
 18 C       -6.2600    -6.1380     0.7340 C.3   1 <1>   0.3430 
 19 C       -5.3960    -6.0240    -1.5860 C.3   1 <1>   0.2630 
 20 C       -7.0890    -3.8430     1.5960 C.3   1 <1>  -0.1600 
 21 C       -7.7020    -3.7800    -0.8890 C.3   1 <1>   0.1200 
 22 C       -6.5570    -5.2530     1.9530 C.3   1 <1>  -0.1600 
 23 O       -8.9130    -3.1290    -0.7140 O.3   1 <1>  -0.6800 
 24 H       -3.1270     1.1700    -2.6870 H     1 <1>   0.1500 
 25 H       -1.5710     3.6430     0.4110 H     1 <1>   0.1500 
 26 H       -0.9990     2.7500     2.5350 H     1 <1>   0.0800 
 27 H       -0.4720     1.0870     2.5060 H     1 <1>   0.0800 
 28 H       -2.0840     1.4850     3.0540 H     1 <1>   0.0800 
 29 H       -2.3920     3.3710    -1.8790 H     1 <1>   0.1500 
 30 H       -5.0880    -3.1970    -2.1070 H     1 <1>   0.0800 
 31 H       -3.5760    -3.7180    -1.3890 H     1 <1>   0.0800 
 32 H       -4.7420    -1.4610     1.2640 H     1 <1>   0.0800 
 33 H       -5.1640    -0.1610     0.1830 H     1 <1>   0.0800 
 34 H       -4.6950    -3.7520     0.7970 H     1 <1>   0.0800 
 35 H       -7.1870    -1.3540     0.9080 H     1 <1>   0.0800 
 36 H       -6.9320    -1.4150    -0.7890 H     1 <1>   0.0800 
 37 H       -4.3370    -5.7660     0.1470 H     1 <1>   0.4500 
 38 H       -7.1840    -6.3170     0.2100 H     1 <1>   0.0800 
 39 H       -5.8810    -7.0930     1.0610 H     1 <1>   0.0800 
 40 H       -6.3420    -5.7430    -2.0190 H     1 <1>   0.0800 
 41 H       -5.3310    -7.1010    -1.5780 H     1 <1>   0.0800 
 42 H       -4.6050    -5.6430    -2.2110 H     1 <1>   0.0800 
 43 H       -6.7190    -3.1630     2.3460 H     1 <1>   0.0800 
 44 H       -8.1610    -3.8320     1.6860 H     1 <1>   0.0800 
 45 H       -7.9070    -4.8330    -0.8670 H     1 <1>   0.0800 
 46 H       -7.3540    -3.5200    -1.8740 H     1 <1>   0.0800 
 47 H       -7.2750    -5.7520     2.5810 H     1 <1>   0.0800 
 48 H       -5.6540    -5.1610     2.5330 H     1 <1>   0.0800 
 49 H       -9.3350    -3.3470     0.1400 H     1 <1>   0.4000 
@<TRIPOS>BOND
  1   1   2  1   
  2   2   3  ar  
  3   2   4  ar  
  4   3   5  1   
  5   3   6  ar  
  6   4   7  ar  
  7   4   8  1   
  8   5   9  2   
  9   5  10  am  
 10   6  11  ar  
 11   6  24  1   
 12   7  11  ar  
 13   7  25  1   
 14   8  26  1   
 15   8  27  1   
 16   8  28  1   
 17  10  12  1   
 18  10  13  1   
 19  11  29  1   
 20  12  14  1   
 21  12  30  1   
 22  12  31  1   
 23  13  15  1   
 24  13  32  1   
 25  13  33  1   
 26  14  16  1   
 27  14  17  1   
 28  14  34  1   
 29  15  17  1   
 30  15  35  1   
 31  15  36  1   
 32  16  18  1   
 33  16  19  1   
 34  16  37  1   
 35  17  20  1   
 36  17  21  1   
 37  18  22  1   
 38  18  38  1   
 39  18  39  1   
 40  19  40  1   
 41  19  41  1   
 42  19  42  1   
 43  20  22  1   
 44  20  43  1   
 45  20  44  1   
 46  21  23  1   
 47  21  45  1   
 48  21  46  1   
 49  22  47  1   
 50  22  48  1   
 51  23  49  1   
@<TRIPOS>SUBSTRUCTURE
  1 ****  10 GROUP 4 **** **** 0

# MOE 2024.06 (io_trps.svl 2023.06)
