@<TRIPOS>MOLECULE
NONAME
45 48 1 0 0 
SMALL
USER_CHARGES


@<TRIPOS>ATOM
  1 S       -0.3220    -0.3460     1.3540 S.3   1 <1>  -0.0800 
  2 C       -0.1830    -2.0400     0.9250 C.2   1 <1>  -0.1100 
  3 C       -1.4650    -0.0650     0.0560 C.2   1 <1>  -0.1100 
  4 C       -0.9750    -2.3360    -0.1250 C.2   1 <1>  -0.1810 
  5 C       -1.7010    -1.2010    -0.6250 C.2   1 <1>  -0.1500 
  6 C       -1.1180    -3.7060    -0.7520 C.3   1 <1>   0.5240 
  7 N       -2.1210    -4.4750     0.0290 N.4   1 <1>  -0.9590 
  8 C       -3.4910    -3.8420    -0.0210 C.3   1 <1>   0.3430 
  9 C       -2.1700    -5.9150    -0.4040 C.3   1 <1>   0.3430 
 10 C       -4.5480    -4.6720     0.7390 C.3   1 <1>   0.1900 
 11 C       -3.2480    -6.7090     0.3580 C.3   1 <1>   0.1100 
 12 N       -4.5710    -6.0640     0.2280 N.3   1 <1>  -0.8100 
 13 C       -5.9400    -4.0260     0.6030 C.3   1 <1>   0.1200 
 14 C       -5.6480    -6.8450     0.8960 C.3   1 <1>   0.3330 
 15 O       -6.8830    -4.7870     1.2940 O.3   1 <1>  -0.5600 
 16 C       -5.7720    -8.2260     0.2590 C.ar  1 <1>  -0.1440 
 17 C       -7.0000    -6.1020     0.8180 C.3   1 <1>   0.1200 
 18 C       -5.7320    -9.3640     1.0520 C.ar  1 <1>  -0.1500 
 19 C       -5.9200    -8.3650    -1.1150 C.ar  1 <1>  -0.1500 
 20 C       -5.8340   -10.6200     0.4800 C.ar  1 <1>  -0.1500 
 21 C       -6.0230    -9.6210    -1.6880 C.ar  1 <1>  -0.1500 
 22 C       -5.9780   -10.7490    -0.8900 C.ar  1 <1>  -0.1500 
 23 H        0.4900    -2.6300     1.5250 H     1 <1>   0.1500 
 24 H       -1.8380     0.9380    -0.0620 H     1 <1>   0.1500 
 25 H       -2.3590    -1.2710    -1.4750 H     1 <1>   0.1500 
 26 H       -0.1660    -4.2090    -0.7190 H     1 <1>   0.0800 
 27 H       -1.4230    -3.6150    -1.7830 H     1 <1>   0.0800 
 28 H       -1.8160    -4.4430     1.0090 H     1 <1>   0.4500 
 29 H       -3.4530    -2.8540     0.4080 H     1 <1>   0.0800 
 30 H       -3.8100    -3.7490    -1.0450 H     1 <1>   0.0800 
 31 H       -2.4000    -5.9710    -1.4560 H     1 <1>   0.0800 
 32 H       -1.2120    -6.3820    -0.2480 H     1 <1>   0.0800 
 33 H       -4.2930    -4.6750     1.7850 H     1 <1>   0.0800 
 34 H       -2.9770    -6.7960     1.3970 H     1 <1>   0.0800 
 35 H       -3.2860    -7.7030    -0.0550 H     1 <1>   0.0800 
 36 H       -6.2410    -3.9600    -0.4290 H     1 <1>   0.0800 
 37 H       -5.9460    -3.0390     1.0330 H     1 <1>   0.0800 
 38 H       -5.4020    -6.9620     1.9380 H     1 <1>   0.0800 
 39 H       -7.7310    -6.6080     1.4230 H     1 <1>   0.0800 
 40 H       -7.3580    -6.0710    -0.1950 H     1 <1>   0.0800 
 41 H       -5.6230    -9.2840     2.1190 H     1 <1>   0.1500 
 42 H       -5.9520    -7.4920    -1.7440 H     1 <1>   0.1500 
 43 H       -5.8020   -11.4990     1.1000 H     1 <1>   0.1500 
 44 H       -6.1390    -9.7200    -2.7530 H     1 <1>   0.1500 
 45 H       -6.0580   -11.7270    -1.3340 H     1 <1>   0.1500 
@<TRIPOS>BOND
  1   1   2  1   
  2   1   3  1   
  3   2   4  2   
  4   2  23  1   
  5   3   5  2   
  6   3  24  1   
  7   4   5  1   
  8   4   6  1   
  9   5  25  1   
 10   6   7  1   
 11   6  26  1   
 12   6  27  1   
 13   7   8  1   
 14   7   9  1   
 15   7  28  1   
 16   8  10  1   
 17   8  29  1   
 18   8  30  1   
 19   9  11  1   
 20   9  31  1   
 21   9  32  1   
 22  10  12  1   
 23  10  13  1   
 24  10  33  1   
 25  11  12  1   
 26  11  34  1   
 27  11  35  1   
 28  12  14  1   
 29  13  15  1   
 30  13  36  1   
 31  13  37  1   
 32  14  16  1   
 33  14  17  1   
 34  14  38  1   
 35  15  17  1   
 36  16  18  ar  
 37  16  19  ar  
 38  17  39  1   
 39  17  40  1   
 40  18  20  ar  
 41  18  41  1   
 42  19  21  ar  
 43  19  42  1   
 44  20  22  ar  
 45  20  43  1   
 46  21  22  ar  
 47  21  44  1   
 48  22  45  1   
@<TRIPOS>SUBSTRUCTURE
  1 ****  12 GROUP 4 **** **** 0

# MOE 2024.06 (io_trps.svl 2023.06)
