@<TRIPOS>MOLECULE
NONAME
48 49 1 0 0 
SMALL
USER_CHARGES


@<TRIPOS>ATOM
  1 S       -0.0310     0.0740    -0.6850 S.o2  1 <1>   1.3330 
  2 O       -0.9630     0.3030    -1.7660 O.2   1 <1>  -0.6500 
  3 O        1.3760    -0.0850    -0.9820 O.2   1 <1>  -0.6500 
  4 N       -0.5370    -1.3030     0.1680 N.am  1 <1>  -0.8490 
  5 C       -0.2440     1.3960     0.5050 C.3   1 <1>  -0.0550 
  6 C       -1.0090    -2.3630    -0.7270 C.3   1 <1>   0.1160 
  7 C        0.4860    -1.8340     1.0750 C.3   1 <1>   0.1160 
  8 C        0.0520     2.7910    -0.0800 C.3   1 <1>  -0.0800 
  9 C       -0.2810     3.9530     0.8530 C.3   1 <1>   0.2000 
 10 C        1.5260     3.0160    -0.4620 C.3   1 <1>   0.1100 
 11 O        0.1290     3.6360     2.1360 O.3   1 <1>  -0.6800 
 12 C        0.6500     5.0450     0.3440 C.3   1 <1>   0.1100 
 13 N        1.9110     4.3330     0.0790 N.3   1 <1>  -0.8100 
 14 C        2.8200     5.0540    -0.8210 C.3   1 <1>   0.1100 
 15 C        3.4920     6.2010    -0.0730 C.3   1 <1>  -0.0550 
 16 S        4.5910     7.0990    -1.1540 S.o2  1 <1>   1.2040 
 17 O        3.7650     7.7520    -2.1460 O.2   1 <1>  -0.6500 
 18 O        5.6270     6.1820    -1.5770 O.2   1 <1>  -0.6500 
 19 C        5.2880     8.3320    -0.0300 C.ar  1 <1>  -0.0090 
 20 C        6.4200     8.0510     0.7280 C.ar  1 <1>  -0.1500 
 21 C        4.6920     9.5780     0.1280 C.ar  1 <1>  -0.1500 
 22 C        6.9380     8.9790     1.6150 C.ar  1 <1>  -0.1500 
 23 C        5.2030    10.5120     1.0130 C.ar  1 <1>  -0.1500 
 24 C        6.3280    10.2110     1.7590 C.ar  1 <1>  -0.1500 
 25 H       -1.2580     1.3810     0.8540 H     1 <1>   0.0800 
 26 H        0.3920     1.2200     1.3500 H     1 <1>   0.0800 
 27 H       -1.3400    -3.2140    -0.1560 H     1 <1>   0.0800 
 28 H       -0.2210    -2.6670    -1.3950 H     1 <1>   0.0800 
 29 H       -1.8410    -2.0080    -1.3120 H     1 <1>   0.0800 
 30 H        0.0830    -2.6520     1.6470 H     1 <1>   0.0800 
 31 H        0.8090    -1.0700     1.7600 H     1 <1>   0.0800 
 32 H        1.3400    -2.1830     0.5170 H     1 <1>   0.0800 
 33 H       -0.5360     2.9140    -0.9740 H     1 <1>   0.0800 
 34 H       -1.3220     4.2270     0.8670 H     1 <1>   0.0800 
 35 H        1.6310     2.9870    -1.5350 H     1 <1>   0.0800 
 36 H        2.1660     2.2630    -0.0340 H     1 <1>   0.0800 
 37 H        1.1110     3.6410     2.1130 H     1 <1>   0.4000 
 38 H        0.7750     5.8300     1.0700 H     1 <1>   0.0800 
 39 H        0.2540     5.4560    -0.5690 H     1 <1>   0.0800 
 40 H        3.5850     4.3780    -1.1690 H     1 <1>   0.0800 
 41 H        2.2840     5.4240    -1.6800 H     1 <1>   0.0800 
 42 H        4.0450     5.7940     0.7510 H     1 <1>   0.0800 
 43 H        2.7440     6.8680     0.3060 H     1 <1>   0.0800 
 44 H        6.9070     7.0960     0.6200 H     1 <1>   0.1500 
 45 H        3.8180     9.8260    -0.4520 H     1 <1>   0.1500 
 46 H        7.8170     8.7430     2.1910 H     1 <1>   0.1500 
 47 H        4.7280    11.4720     1.1200 H     1 <1>   0.1500 
 48 H        6.7290    10.9350     2.4480 H     1 <1>   0.1500 
@<TRIPOS>BOND
  1   1   2  2   
  2   1   3  2   
  3   1   4  am  
  4   1   5  1   
  5   4   6  1   
  6   4   7  1   
  7   5   8  1   
  8   5  25  1   
  9   5  26  1   
 10   6  27  1   
 11   6  28  1   
 12   6  29  1   
 13   7  30  1   
 14   7  31  1   
 15   7  32  1   
 16   8   9  1   
 17   8  10  1   
 18   8  33  1   
 19   9  11  1   
 20   9  12  1   
 21   9  34  1   
 22  10  13  1   
 23  10  35  1   
 24  10  36  1   
 25  11  37  1   
 26  12  13  1   
 27  12  38  1   
 28  12  39  1   
 29  13  14  1   
 30  14  15  1   
 31  14  40  1   
 32  14  41  1   
 33  15  16  1   
 34  15  42  1   
 35  15  43  1   
 36  16  17  2   
 37  16  18  2   
 38  16  19  1   
 39  19  20  ar  
 40  19  21  ar  
 41  20  22  ar  
 42  20  44  1   
 43  21  23  ar  
 44  21  45  1   
 45  22  24  ar  
 46  22  46  1   
 47  23  24  ar  
 48  23  47  1   
 49  24  48  1   
@<TRIPOS>SUBSTRUCTURE
  1 ****  13 GROUP 4 **** **** 0

# MOE 2024.06 (io_trps.svl 2023.06)
