@<TRIPOS>MOLECULE
NONAME
37 38 1 0 0 
SMALL
USER_CHARGES


@<TRIPOS>ATOM
  1 O       -0.1140     0.9970     0.5640 O.2   1 <1>  -0.5700 
  2 C       -0.1750     2.1670     0.2840 C.2   1 <1>   0.5690 
  3 N       -0.9090     3.0200     1.0290 N.am  1 <1>  -0.7300 
  4 C        0.5490     2.7050    -0.9480 C.3   1 <1>   0.1810 
  5 C       -1.1270     4.4470     0.6810 C.3   1 <1>   0.3640 
  6 O        0.7860     4.0910    -0.8590 O.3   1 <1>  -0.5600 
  7 C       -2.6330     4.6720     0.5510 C.ar  1 <1>  -0.1440 
  8 C       -0.3740     4.8840    -0.6090 C.3   1 <1>   0.2610 
  9 C       -3.2180     5.7870     1.1340 C.ar  1 <1>  -0.1500 
 10 C       -3.4410     3.7810    -0.1470 C.ar  1 <1>  -0.1500 
 11 C        0.0140     6.3640    -0.5010 C.2   1 <1>   0.5690 
 12 C       -4.5800     6.0070     1.0280 C.ar  1 <1>  -0.1500 
 13 C       -4.8030     3.9990    -0.2540 C.ar  1 <1>  -0.1500 
 14 O       -0.8430     7.1980    -0.3280 O.2   1 <1>  -0.5700 
 15 N        1.3280     6.7070    -0.5900 N.am  1 <1>  -0.7300 
 16 C       -5.3740     5.1130     0.3340 C.ar  1 <1>  -0.1500 
 17 C        1.8880     8.0690    -0.4900 C.3   1 <1>   0.1400 
 18 C        2.9280     8.0970     0.6300 C.3   1 <1>  -0.1600 
 19 C        3.5470     9.4910     0.7790 C.3   1 <1>  -0.2400 
 20 H       -1.4470     2.6480     1.8130 H     1 <1>   0.3700 
 21 H       -0.0370     2.5120    -1.8280 H     1 <1>   0.0800 
 22 H        1.5000     2.2140    -1.0460 H     1 <1>   0.0800 
 23 H       -0.7590     5.0400     1.5020 H     1 <1>   0.0800 
 24 H       -1.0270     4.7760    -1.4560 H     1 <1>   0.0800 
 25 H       -2.6150     6.5020     1.6700 H     1 <1>   0.1500 
 26 H       -3.0180     2.9070    -0.6110 H     1 <1>   0.1500 
 27 H       -5.0200     6.8780     1.4820 H     1 <1>   0.1500 
 28 H       -5.4200     3.3020    -0.7940 H     1 <1>   0.1500 
 29 H        1.9930     5.9440    -0.7530 H     1 <1>   0.3700 
 30 H       -6.4330     5.2840     0.2510 H     1 <1>   0.1500 
 31 H        2.3420     8.3350    -1.4290 H     1 <1>   0.0800 
 32 H        1.1010     8.7750    -0.2800 H     1 <1>   0.0800 
 33 H        2.4560     7.8210     1.5570 H     1 <1>   0.0800 
 34 H        3.7070     7.3870     0.4150 H     1 <1>   0.0800 
 35 H        2.7880    10.2170     1.0130 H     1 <1>   0.0800 
 36 H        4.0400     9.7850    -0.1310 H     1 <1>   0.0800 
 37 H        4.2720     9.4880     1.5750 H     1 <1>   0.0800 
@<TRIPOS>BOND
  1   1   2  2   
  2   2   3  am  
  3   2   4  1   
  4   3   5  1   
  5   3  20  1   
  6   4   6  1   
  7   4  21  1   
  8   4  22  1   
  9   5   7  1   
 10   5   8  1   
 11   5  23  1   
 12   6   8  1   
 13   7   9  ar  
 14   7  10  ar  
 15   8  11  1   
 16   8  24  1   
 17   9  12  ar  
 18   9  25  1   
 19  10  13  ar  
 20  10  26  1   
 21  11  14  2   
 22  11  15  am  
 23  12  16  ar  
 24  12  27  1   
 25  13  16  ar  
 26  13  28  1   
 27  15  17  1   
 28  15  29  1   
 29  16  30  1   
 30  17  18  1   
 31  17  31  1   
 32  17  32  1   
 33  18  19  1   
 34  18  33  1   
 35  18  34  1   
 36  19  35  1   
 37  19  36  1   
 38  19  37  1   
@<TRIPOS>SUBSTRUCTURE
  1 ****   8 GROUP 4 **** **** 0

# MOE 2024.06 (io_trps.svl 2023.06)
