@<TRIPOS>MOLECULE
NONAME
45 46 1 0 0 
SMALL
USER_CHARGES


@<TRIPOS>ATOM
  1 O       -1.0200    -1.1420     1.1740 O.3   1 <1>  -0.6800 
  2 C       -1.7130    -0.6840     0.0870 C.3   1 <1>   0.2800 
  3 C       -3.0660    -1.4070     0.0740 C.3   1 <1>  -0.1600 
  4 C       -0.8630    -0.9900    -1.1460 C.3   1 <1>  -0.2400 
  5 C       -1.8890     0.8220     0.2700 C.3   1 <1>  -0.2400 
  6 C       -2.9000    -2.9230     0.1930 C.3   1 <1>   0.3430 
  7 N       -4.2270    -3.5840     0.3110 N.4   1 <1>  -0.9590 
  8 C       -5.1150    -3.4910    -0.8760 C.3   1 <1>   0.3430 
  9 C       -4.1280    -5.0400     0.6170 C.3   1 <1>   0.3430 
 10 C       -6.1730    -4.5610    -0.6130 C.3   1 <1>   0.2000 
 11 C       -5.3750    -5.7090     0.0100 C.3   1 <1>  -0.0800 
 12 O       -7.0450    -4.0670     0.3510 O.3   1 <1>  -0.6800 
 13 C       -4.9900    -6.7650    -1.0430 C.3   1 <1>   0.0210 
 14 C       -4.1840    -7.8910    -0.4280 C.2   1 <1>   0.1080 
 15 N       -2.9720    -7.7300     0.0070 N.2   1 <1>  -0.7070 
 16 C       -4.6340    -9.1960    -0.2640 C.2   1 <1>  -0.1500 
 17 N       -2.6080    -8.9510     0.4560 N.pl3 1 <1>   0.3000 
 18 C       -3.6020    -9.8510     0.3060 C.2   1 <1>  -0.3320 
 19 C       -3.4990   -11.3080     0.7180 C.3   1 <1>  -0.0600 
 20 H       -0.2060    -0.6120     1.2870 H     1 <1>   0.4000 
 21 H       -3.6500    -1.0500     0.9030 H     1 <1>   0.0800 
 22 H       -3.5800    -1.1560    -0.8360 H     1 <1>   0.0800 
 23 H       -1.3810    -0.6810    -2.0360 H     1 <1>   0.0800 
 24 H       -0.6490    -2.0400    -1.2240 H     1 <1>   0.0800 
 25 H        0.0680    -0.4530    -1.1040 H     1 <1>   0.0800 
 26 H       -2.4490     1.2290    -0.5530 H     1 <1>   0.0800 
 27 H       -0.9360     1.3190     0.3000 H     1 <1>   0.0800 
 28 H       -2.4230     1.0340     1.1790 H     1 <1>   0.0800 
 29 H       -2.3140    -3.1390     1.0730 H     1 <1>   0.0800 
 30 H       -2.3690    -3.3060    -0.6620 H     1 <1>   0.0800 
 31 H       -4.7570    -3.1610     1.0890 H     1 <1>   0.4500 
 32 H       -5.5610    -2.5160    -0.9740 H     1 <1>   0.0800 
 33 H       -4.5630    -3.7350    -1.7680 H     1 <1>   0.0800 
 34 H       -3.2380    -5.4450     0.1650 H     1 <1>   0.0800 
 35 H       -4.0800    -5.2080     1.6810 H     1 <1>   0.0800 
 36 H       -6.7360    -4.8260    -1.4930 H     1 <1>   0.0800 
 37 H       -5.9390    -6.2010     0.7840 H     1 <1>   0.0800 
 38 H       -7.8030    -4.6720     0.4920 H     1 <1>   0.4000 
 39 H       -4.4050    -6.3220    -1.8300 H     1 <1>   0.0800 
 40 H       -5.8780    -7.1800    -1.4850 H     1 <1>   0.0800 
 41 H       -5.5990    -9.5820    -0.5420 H     1 <1>   0.1500 
 42 H       -1.6790    -9.1420     0.8530 H     1 <1>   0.2700 
 43 H       -4.4170   -11.8220     0.4940 H     1 <1>   0.0800 
 44 H       -3.3130   -11.3870     1.7740 H     1 <1>   0.0800 
 45 H       -2.6990   -11.7910     0.1840 H     1 <1>   0.0800 
@<TRIPOS>BOND
  1   1   2  1   
  2   1  20  1   
  3   2   3  1   
  4   2   4  1   
  5   2   5  1   
  6   3   6  1   
  7   3  21  1   
  8   3  22  1   
  9   4  23  1   
 10   4  24  1   
 11   4  25  1   
 12   5  26  1   
 13   5  27  1   
 14   5  28  1   
 15   6   7  1   
 16   6  29  1   
 17   6  30  1   
 18   7   8  1   
 19   7   9  1   
 20   7  31  1   
 21   8  10  1   
 22   8  32  1   
 23   8  33  1   
 24   9  11  1   
 25   9  34  1   
 26   9  35  1   
 27  10  11  1   
 28  10  12  1   
 29  10  36  1   
 30  11  13  1   
 31  11  37  1   
 32  12  38  1   
 33  13  14  1   
 34  13  39  1   
 35  13  40  1   
 36  14  15  2   
 37  14  16  1   
 38  15  17  1   
 39  16  18  2   
 40  16  41  1   
 41  17  18  1   
 42  17  42  1   
 43  18  19  1   
 44  19  43  1   
 45  19  44  1   
 46  19  45  1   
@<TRIPOS>SUBSTRUCTURE
  1 ****   9 GROUP 4 **** **** 0

# MOE 2024.06 (io_trps.svl 2023.06)
