@<TRIPOS>MOLECULE
NONAME
56 58 1 0 0 
SMALL
USER_CHARGES


@<TRIPOS>ATOM
  1 CL      -1.5380    -0.2130    -2.4870 Cl    1 <1>  -0.1770 
  2 C       -2.2790    -0.7770    -1.0140 C.ar  1 <1>   0.1770 
  3 C       -2.3040    -2.1340    -0.7520 C.ar  1 <1>  -0.1500 
  4 C       -2.8300     0.1360    -0.1360 C.ar  1 <1>  -0.1500 
  5 C       -2.9010    -2.5950     0.4140 C.ar  1 <1>  -0.1440 
  6 C       -3.4200    -0.3210     1.0300 C.ar  1 <1>  -0.1500 
  7 C       -3.4530    -1.6800     1.3030 C.ar  1 <1>  -0.1500 
  8 C       -2.9580    -4.0830     0.7080 C.3   1 <1>   0.4870 
  9 N       -4.0520    -4.6830    -0.1030 N.4   1 <1>  -0.9590 
 10 C       -5.3840    -4.1190     0.3220 C.3   1 <1>   0.3430 
 11 C       -4.0160    -6.1740    -0.0320 C.3   1 <1>   0.3430 
 12 C       -6.5870    -4.7510    -0.4230 C.3   1 <1>   0.2200 
 13 C       -5.1590    -6.7520    -0.8670 C.3   1 <1>  -0.1600 
 14 N       -7.9500    -4.2620    -0.0100 N.am  1 <1>  -0.6600 
 15 C       -6.5430    -6.2940    -0.3420 C.3   1 <1>   0.0000 
 16 C       -8.2260    -3.5010     1.1100 C.2   1 <1>   0.5690 
 17 C       -9.0030    -4.7220    -0.9670 C.3   1 <1>   0.1400 
 18 C       -7.6470    -6.8710    -1.2650 C.3   1 <1>  -0.1600 
 19 C       -6.7640    -6.7430     1.1330 C.3   1 <1>   0.1200 
 20 O       -7.3720    -3.2460     1.9270 O.2   1 <1>  -0.5700 
 21 C       -9.6200    -2.9400     1.3860 C.3   1 <1>   0.1310 
 22 C       -9.0340    -6.2560    -0.9950 C.3   1 <1>  -0.1600 
 23 O       -6.4030    -8.0690     1.3030 O.3   1 <1>  -0.6800 
 24 S      -10.0550    -1.6590     0.1600 S.3   1 <1>  -0.4600 
 25 C       -8.8920    -0.3200     0.5310 C.3   1 <1>   0.0700 
 26 C       -9.1190     0.7820    -0.4980 C.3   1 <1>  -0.2400 
 27 H       -1.8530    -2.8010    -1.4650 H     1 <1>   0.1500 
 28 H       -2.7950     1.1870    -0.3640 H     1 <1>   0.1500 
 29 H       -3.8500     0.3810     1.7240 H     1 <1>   0.1500 
 30 H       -3.9180    -2.0090     2.2190 H     1 <1>   0.1500 
 31 H       -3.1400    -4.2440     1.7590 H     1 <1>   0.0800 
 32 H       -2.0130    -4.5330     0.4510 H     1 <1>   0.0800 
 33 H       -3.8900    -4.3930    -1.0750 H     1 <1>   0.4500 
 34 H       -5.5060    -4.2910     1.3770 H     1 <1>   0.0800 
 35 H       -5.4020    -3.0540     0.1560 H     1 <1>   0.0800 
 36 H       -3.0750    -6.5420    -0.4080 H     1 <1>   0.0800 
 37 H       -4.1220    -6.5030     0.9910 H     1 <1>   0.0800 
 38 H       -6.4670    -4.4710    -1.4550 H     1 <1>   0.0800 
 39 H       -5.0280    -6.4610    -1.8940 H     1 <1>   0.0800 
 40 H       -5.0910    -7.8260    -0.8420 H     1 <1>   0.0800 
 41 H       -9.9780    -4.3540    -0.7030 H     1 <1>   0.0800 
 42 H       -8.7760    -4.3430    -1.9500 H     1 <1>   0.0800 
 43 H       -7.3920    -6.6690    -2.2920 H     1 <1>   0.0800 
 44 H       -7.7020    -7.9410    -1.1580 H     1 <1>   0.0800 
 45 H       -7.7880    -6.6280     1.4410 H     1 <1>   0.0800 
 46 H       -6.1580    -6.1720     1.8130 H     1 <1>   0.0800 
 47 H       -9.6530    -2.4730     2.3540 H     1 <1>   0.0800 
 48 H      -10.3670    -3.7080     1.3370 H     1 <1>   0.0800 
 49 H       -9.4280    -6.6130    -0.0610 H     1 <1>   0.0800 
 50 H       -9.7180    -6.5750    -1.7630 H     1 <1>   0.0800 
 51 H       -7.1090    -8.6670     0.9830 H     1 <1>   0.4000 
 52 H       -9.0970     0.0210     1.5310 H     1 <1>   0.0800 
 53 H       -7.8960    -0.7210     0.4690 H     1 <1>   0.0800 
 54 H      -10.1300     1.1430    -0.4360 H     1 <1>   0.0800 
 55 H       -8.9410     0.4070    -1.4900 H     1 <1>   0.0800 
 56 H       -8.4480     1.6020    -0.3130 H     1 <1>   0.0800 
@<TRIPOS>BOND
  1   1   2  1   
  2   2   3  ar  
  3   2   4  ar  
  4   3   5  ar  
  5   3  27  1   
  6   4   6  ar  
  7   4  28  1   
  8   5   7  ar  
  9   5   8  1   
 10   6   7  ar  
 11   6  29  1   
 12   7  30  1   
 13   8   9  1   
 14   8  31  1   
 15   8  32  1   
 16   9  10  1   
 17   9  11  1   
 18   9  33  1   
 19  10  12  1   
 20  10  34  1   
 21  10  35  1   
 22  11  13  1   
 23  11  36  1   
 24  11  37  1   
 25  12  14  1   
 26  12  15  1   
 27  12  38  1   
 28  13  15  1   
 29  13  39  1   
 30  13  40  1   
 31  14  16  am  
 32  14  17  1   
 33  15  18  1   
 34  15  19  1   
 35  16  20  2   
 36  16  21  1   
 37  17  22  1   
 38  17  41  1   
 39  17  42  1   
 40  18  22  1   
 41  18  43  1   
 42  18  44  1   
 43  19  23  1   
 44  19  45  1   
 45  19  46  1   
 46  21  24  1   
 47  21  47  1   
 48  21  48  1   
 49  22  49  1   
 50  22  50  1   
 51  23  51  1   
 52  24  25  1   
 53  25  26  1   
 54  25  52  1   
 55  25  53  1   
 56  26  54  1   
 57  26  55  1   
 58  26  56  1   
@<TRIPOS>SUBSTRUCTURE
  1 ****  10 GROUP 4 **** **** 0

# MOE 2024.06 (io_trps.svl 2023.06)
