@<TRIPOS>MOLECULE
NONAME
34 35 1 0 0 
SMALL
USER_CHARGES


@<TRIPOS>ATOM
  1 S       -0.1380     0.0810     0.5960 S.3   1 <1>  -0.0800 
  2 C       -1.3220    -1.0480    -0.0380 C.2   1 <1>  -0.1400 
  3 C       -0.7120     1.3560    -0.4630 C.2   1 <1>  -0.1400 
  4 C       -2.0740    -0.4540    -0.9880 C.2   1 <1>  -0.1500 
  5 C       -1.2910    -2.4350     0.5680 C.3   1 <1>   0.5230 
  6 C       -1.7270     0.9130    -1.2260 C.2   1 <1>  -0.1500 
  7 C       -0.0180     2.6990    -0.3720 C.3   1 <1>  -0.0600 
  8 N       -2.5890    -3.1080     0.3480 N.4   1 <1>  -0.9590 
  9 C       -2.5580    -4.5810     0.5940 C.3   1 <1>   0.3430 
 10 C       -3.7310    -2.4620     1.0580 C.3   1 <1>   0.3430 
 11 C       -3.7950    -5.1840    -0.0800 C.3   1 <1>   0.2000 
 12 C       -5.0470    -3.0460     0.5380 C.3   1 <1>  -0.1600 
 13 O       -3.7580    -4.8060    -1.4170 O.3   1 <1>  -0.6800 
 14 C       -5.0620    -4.5940     0.5530 C.3   1 <1>  -0.1860 
 15 C       -6.2870    -5.1520    -0.1360 C.2   1 <1>   0.9060 
 16 O       -7.1580    -5.6670     0.5590 O.co2 1 <1>  -0.9000 
 17 O       -6.3400    -5.0770    -1.3700 O.co2 1 <1>  -0.9000 
 18 H       -2.8710    -0.9080    -1.5530 H     1 <1>   0.1500 
 19 H       -1.0940    -2.3620     1.6250 H     1 <1>   0.0800 
 20 H       -0.4950    -3.0000     0.1090 H     1 <1>   0.0800 
 21 H       -2.2540     1.4970    -1.9610 H     1 <1>   0.1500 
 22 H       -0.4570     3.3920    -1.0670 H     1 <1>   0.0800 
 23 H        1.0260     2.5890    -0.6040 H     1 <1>   0.0800 
 24 H       -0.1150     3.0970     0.6220 H     1 <1>   0.0800 
 25 H       -2.8170    -3.0640    -0.6620 H     1 <1>   0.4500 
 26 H       -1.6790    -5.0220     0.1560 H     1 <1>   0.0800 
 27 H       -2.5710    -4.7930     1.6490 H     1 <1>   0.0800 
 28 H       -3.6510    -2.6400     2.1180 H     1 <1>   0.0800 
 29 H       -3.7240    -1.3970     0.8890 H     1 <1>   0.0800 
 30 H       -3.8020    -6.2600    -0.0270 H     1 <1>   0.0800 
 31 H       -5.8650    -2.6790     1.1340 H     1 <1>   0.0800 
 32 H       -5.2120    -2.6960    -0.4680 H     1 <1>   0.0800 
 33 H       -4.7030    -4.9290    -1.7560 H     1 <1>   0.4000 
 34 H       -5.1100    -4.9240     1.5750 H     1 <1>   0.0800 
@<TRIPOS>BOND
  1   1   2  1   
  2   1   3  1   
  3   2   4  2   
  4   2   5  1   
  5   3   6  2   
  6   3   7  1   
  7   4   6  1   
  8   4  18  1   
  9   5   8  1   
 10   5  19  1   
 11   5  20  1   
 12   6  21  1   
 13   7  22  1   
 14   7  23  1   
 15   7  24  1   
 16   8   9  1   
 17   8  10  1   
 18   8  25  1   
 19   9  11  1   
 20   9  26  1   
 21   9  27  1   
 22  10  12  1   
 23  10  28  1   
 24  10  29  1   
 25  11  13  1   
 26  11  14  1   
 27  11  30  1   
 28  12  14  1   
 29  12  31  1   
 30  12  32  1   
 31  13  33  1   
 32  14  15  1   
 33  14  34  1   
 34  15  16  ar  
 35  15  17  ar  
@<TRIPOS>SUBSTRUCTURE
  1 ****   8 GROUP 4 **** **** 0

# MOE 2024.06 (io_trps.svl 2023.06)
