@<TRIPOS>MOLECULE
NONAME
29 30 1 0 0 
SMALL
USER_CHARGES


@<TRIPOS>ATOM
  1 F       -9.1400     3.1790    -2.0000 F     1 <1>  -0.3400 
  2 C       -9.0780     3.0090    -0.6860 C.3   1 <1>   1.1640 
  3 F      -10.1170     3.6580    -0.1730 F     1 <1>  -0.3400 
  4 F       -7.9950     3.6600    -0.2780 F     1 <1>  -0.3400 
  5 C       -9.0410     1.5210    -0.3020 C.ar  1 <1>  -0.1440 
  6 C       -7.8440     0.8120    -0.3480 C.ar  1 <1>  -0.1500 
  7 C      -10.1950     0.8500     0.0870 C.ar  1 <1>  -0.1500 
  8 C       -7.7700    -0.5380    -0.0100 C.ar  1 <1>   0.0280 
  9 C      -10.1450    -0.4900     0.4230 C.ar  1 <1>  -0.1500 
 10 C       -6.5230    -1.2720    -0.0510 C.2   1 <1>  -0.1670 
 11 C       -8.9460    -1.1730     0.3750 C.ar  1 <1>  -0.1500 
 12 C       -6.3830    -2.4880    -0.6100 C.2   1 <1>  -0.2880 
 13 C       -5.3260    -0.5970     0.6110 C.3   1 <1>  -0.0220 
 14 C       -5.1050    -3.2980    -0.6760 C.3   1 <1>   0.4810 
 15 C       -4.1790    -1.5860     0.8470 C.3   1 <1>   0.3430 
 16 N       -3.9550    -2.4080    -0.3770 N.4   1 <1>  -0.9060 
 17 H       -6.9500     1.3190    -0.6640 H     1 <1>   0.1500 
 18 H      -11.1420     1.3630     0.1310 H     1 <1>   0.1500 
 19 H      -11.0450    -1.0010     0.7240 H     1 <1>   0.1500 
 20 H       -8.9250    -2.2130     0.6450 H     1 <1>   0.1500 
 21 H       -7.2120    -3.0000    -1.0690 H     1 <1>   0.1500 
 22 H       -5.6250    -0.1860     1.5600 H     1 <1>   0.0800 
 23 H       -4.9780     0.2160    -0.0010 H     1 <1>   0.0800 
 24 H       -4.9920    -3.7190    -1.6630 H     1 <1>   0.0800 
 25 H       -5.1530    -4.1060     0.0370 H     1 <1>   0.0800 
 26 H       -4.4340    -2.2320     1.6730 H     1 <1>   0.0800 
 27 H       -3.2840    -1.0430     1.1060 H     1 <1>   0.0800 
 28 H       -3.8510    -1.7720    -1.1760 H     1 <1>   0.4500 
 29 H       -3.0950    -2.9610    -0.2980 H     1 <1>   0.4500 
@<TRIPOS>BOND
  1   1   2  1   
  2   2   3  1   
  3   2   4  1   
  4   2   5  1   
  5   5   6  ar  
  6   5   7  ar  
  7   6   8  ar  
  8   6  17  1   
  9   7   9  ar  
 10   7  18  1   
 11   8  10  1   
 12   8  11  ar  
 13   9  11  ar  
 14   9  19  1   
 15  10  12  2   
 16  10  13  1   
 17  11  20  1   
 18  12  14  1   
 19  12  21  1   
 20  13  15  1   
 21  13  22  1   
 22  13  23  1   
 23  14  16  1   
 24  14  24  1   
 25  14  25  1   
 26  15  16  1   
 27  15  26  1   
 28  15  27  1   
 29  16  28  1   
 30  16  29  1   
@<TRIPOS>SUBSTRUCTURE
  1 ****   6 GROUP 4 **** **** 0

# MOE 2024.06 (io_trps.svl 2023.06)
