@<TRIPOS>MOLECULE
NONAME
40 42 1 0 0 
SMALL
USER_CHARGES


@<TRIPOS>ATOM
  1 F        2.2560     1.1200     1.2910 F     1 <1>  -0.1900 
  2 C        2.3300     0.0700     0.5140 C.ar  1 <1>   0.1900 
  3 C        1.1980    -0.7110     0.3480 C.ar  1 <1>   0.1900 
  4 C        3.5340    -0.2450    -0.1180 C.ar  1 <1>   0.0860 
  5 F        0.0810    -0.3840     0.9440 F     1 <1>  -0.1900 
  6 C        1.2160    -1.8430    -0.4430 C.ar  1 <1>  -0.1500 
  7 C        4.7380     0.5540     0.0170 C.2   1 <1>   0.5440 
  8 C        3.5340    -1.4030    -0.9060 C.ar  1 <1>  -0.1500 
  9 C        2.4020    -2.1870    -1.0710 C.ar  1 <1>  -0.1500 
 10 O        5.8380     0.0390    -0.0390 O.2   1 <1>  -0.5700 
 11 N        4.7210     1.9220     0.1160 N.am  1 <1>  -0.6600 
 12 C        5.6930     2.6000     1.0530 C.3   1 <1>   0.2200 
 13 C        4.0540     2.7240    -0.9460 C.3   1 <1>   0.1400 
 14 C        5.1930     3.9670     1.5470 C.3   1 <1>   0.1200 
 15 C        7.0940     2.7390     0.4080 C.3   1 <1>   0.3430 
 16 C        4.8850     3.9300    -1.4240 C.3   1 <1>  -0.0800 
 17 O        5.5650     4.9760     0.6520 O.3   1 <1>  -0.5600 
 18 N        7.0470     2.5410    -1.0790 N.4   1 <1>  -0.9590 
 19 C        4.7560     5.1260    -0.4650 C.3   1 <1>   0.1200 
 20 C        6.3530     3.6440    -1.8260 C.3   1 <1>   0.3430 
 21 C        8.4010     2.2510    -1.6270 C.3   1 <1>   0.2630 
 22 H        0.3260    -2.4380    -0.5600 H     1 <1>   0.1500 
 23 H        4.4470    -1.6970    -1.3990 H     1 <1>   0.1500 
 24 H        2.4420    -3.0710    -1.6870 H     1 <1>   0.1500 
 25 H        5.7910     1.9760     1.9240 H     1 <1>   0.0800 
 26 H        3.8560     2.0850    -1.7910 H     1 <1>   0.0800 
 27 H        3.1000     3.0640    -0.5760 H     1 <1>   0.0800 
 28 H        5.6710     4.2000     2.4820 H     1 <1>   0.0800 
 29 H        4.1270     3.9760     1.7020 H     1 <1>   0.0800 
 30 H        7.7260     1.9840     0.8420 H     1 <1>   0.0800 
 31 H        7.5180     3.7000     0.6490 H     1 <1>   0.0800 
 32 H        4.4010     4.2680    -2.3230 H     1 <1>   0.0800 
 33 H        6.4670     1.6810    -1.1590 H     1 <1>   0.4500 
 34 H        3.7380     5.2720    -0.1420 H     1 <1>   0.0800 
 35 H        5.0770     6.0270    -0.9600 H     1 <1>   0.0800 
 36 H        6.9190     4.5550    -1.7170 H     1 <1>   0.0800 
 37 H        6.3590     3.3880    -2.8730 H     1 <1>   0.0800 
 38 H        9.0470     3.1050    -1.5000 H     1 <1>   0.0800 
 39 H        8.3370     2.0160    -2.6770 H     1 <1>   0.0800 
 40 H        8.8350     1.4080    -1.1150 H     1 <1>   0.0800 
@<TRIPOS>BOND
  1   1   2  1   
  2   2   3  ar  
  3   2   4  ar  
  4   3   5  1   
  5   3   6  ar  
  6   4   7  1   
  7   4   8  ar  
  8   6   9  ar  
  9   6  22  1   
 10   7  10  2   
 11   7  11  am  
 12   8   9  ar  
 13   8  23  1   
 14   9  24  1   
 15  11  12  1   
 16  11  13  1   
 17  12  14  1   
 18  12  15  1   
 19  12  25  1   
 20  13  16  1   
 21  13  26  1   
 22  13  27  1   
 23  14  17  1   
 24  14  28  1   
 25  14  29  1   
 26  15  18  1   
 27  15  30  1   
 28  15  31  1   
 29  16  19  1   
 30  16  20  1   
 31  16  32  1   
 32  17  19  1   
 33  18  20  1   
 34  18  21  1   
 35  18  33  1   
 36  19  34  1   
 37  19  35  1   
 38  20  36  1   
 39  20  37  1   
 40  21  38  1   
 41  21  39  1   
 42  21  40  1   
@<TRIPOS>SUBSTRUCTURE
  1 ****  11 GROUP 4 **** **** 0

# MOE 2024.06 (io_trps.svl 2023.06)
