@<TRIPOS>MOLECULE
NONAME
43 45 1 0 0 
SMALL
USER_CHARGES


@<TRIPOS>ATOM
  1 O        0.1270    -0.5290     1.1780 O.2   1 <1>  -0.5700 
  2 C        0.0800    -1.7430     1.0310 C.2   1 <1>   0.6160 
  3 N        0.7960    -2.3650     0.0180 N.am  1 <1>  -0.4690 
  4 C       -0.7040    -2.5660     1.8840 C.2   1 <1>  -0.1360 
  5 C        0.7240    -3.7270    -0.1500 C.2   1 <1>  -0.0410 
  6 C        1.6500    -1.5410    -0.8760 C.3   1 <1>   0.0600 
  7 C       -0.7680    -3.9120     1.7090 C.2   1 <1>  -0.1500 
  8 C       -0.0470    -4.5370     0.6460 C.2   1 <1>   0.0140 
  9 C       -0.1150    -5.9640     0.4290 C.2   1 <1>   0.6160 
 10 O        0.8900    -6.5720     0.1100 O.2   1 <1>  -0.5700 
 11 N       -1.2960    -6.6660     0.5450 N.am  1 <1>  -0.6600 
 12 C       -2.6380    -6.0800     0.2930 C.3   1 <1>   0.1400 
 13 C       -1.3440    -8.1440     0.3860 C.3   1 <1>   0.1400 
 14 C       -3.4570    -7.2190    -0.3100 C.3   1 <1>   0.2000 
 15 C       -2.8260    -8.4930     0.2430 C.3   1 <1>  -0.0800 
 16 O       -4.7900    -7.1410     0.0580 O.3   1 <1>  -0.6800 
 17 C       -3.0840    -9.7290    -0.6320 C.3   1 <1>   0.0210 
 18 C       -2.3420   -10.9370    -0.0940 C.2   1 <1>   0.1080 
 19 N       -2.5500   -11.4190     1.0920 N.2   1 <1>  -0.7070 
 20 C       -1.3660   -11.6450    -0.7860 C.2   1 <1>  -0.1500 
 21 N       -1.7040   -12.4620     1.1880 N.pl3 1 <1>   0.3000 
 22 C       -0.9740   -12.6180     0.0640 C.2   1 <1>  -0.3320 
 23 C        0.0690   -13.7020    -0.1320 C.3   1 <1>  -0.0600 
 24 H       -1.2310    -2.0600     2.6710 H     1 <1>   0.1500 
 25 H        1.3060    -4.1650    -0.9460 H     1 <1>   0.1500 
 26 H        2.1510    -2.1600    -1.5980 H     1 <1>   0.0800 
 27 H        2.3840    -1.0180    -0.2880 H     1 <1>   0.0800 
 28 H        1.0390    -0.8200    -1.3910 H     1 <1>   0.0800 
 29 H       -1.3490    -4.5360     2.3660 H     1 <1>   0.1500 
 30 H       -3.0660    -5.7640     1.2280 H     1 <1>   0.0800 
 31 H       -2.5760    -5.2510    -0.3900 H     1 <1>   0.0800 
 32 H       -0.7970    -8.4240    -0.4990 H     1 <1>   0.0800 
 33 H       -0.9080    -8.6350     1.2390 H     1 <1>   0.0800 
 34 H       -3.3960    -7.1810    -1.3840 H     1 <1>   0.0800 
 35 H       -3.2010    -8.6820     1.2340 H     1 <1>   0.0800 
 36 H       -4.8960    -7.3750     1.0010 H     1 <1>   0.4000 
 37 H       -2.7700    -9.5400    -1.6430 H     1 <1>   0.0800 
 38 H       -4.1360    -9.9480    -0.6440 H     1 <1>   0.0800 
 39 H       -1.0150   -11.4400    -1.7810 H     1 <1>   0.1500 
 40 H       -1.6500   -13.0450     2.0320 H     1 <1>   0.2700 
 41 H        0.5120   -13.6170    -1.1080 H     1 <1>   0.0800 
 42 H       -0.3840   -14.6740    -0.0450 H     1 <1>   0.0800 
 43 H        0.8460   -13.6090     0.6060 H     1 <1>   0.0800 
@<TRIPOS>BOND
  1   1   2  2   
  2   2   3  am  
  3   2   4  1   
  4   3   5  1   
  5   3   6  1   
  6   4   7  2   
  7   4  24  1   
  8   5   8  2   
  9   5  25  1   
 10   6  26  1   
 11   6  27  1   
 12   6  28  1   
 13   7   8  1   
 14   7  29  1   
 15   8   9  1   
 16   9  10  2   
 17   9  11  am  
 18  11  12  1   
 19  11  13  1   
 20  12  14  1   
 21  12  30  1   
 22  12  31  1   
 23  13  15  1   
 24  13  32  1   
 25  13  33  1   
 26  14  15  1   
 27  14  16  1   
 28  14  34  1   
 29  15  17  1   
 30  15  35  1   
 31  16  36  1   
 32  17  18  1   
 33  17  37  1   
 34  17  38  1   
 35  18  19  2   
 36  18  20  1   
 37  19  21  1   
 38  20  22  2   
 39  20  39  1   
 40  21  22  1   
 41  21  40  1   
 42  22  23  1   
 43  23  41  1   
 44  23  42  1   
 45  23  43  1   
@<TRIPOS>SUBSTRUCTURE
  1 ****  11 GROUP 4 **** **** 0

# MOE 2024.06 (io_trps.svl 2023.06)
