@<TRIPOS>MOLECULE
NONAME
48 50 1 0 0 
SMALL
USER_CHARGES


@<TRIPOS>ATOM
  1 O       -0.5780     1.5270    -1.5340 O.co2 1 <1>  -0.9000 
  2 C        0.2480     1.8810    -0.6840 C.2   1 <1>   0.9060 
  3 O        0.9940     1.0580    -0.1290 O.co2 1 <1>  -0.9000 
  4 C        0.3260     3.3480    -0.2480 C.3   1 <1>  -0.1060 
  5 C        0.0810     3.3570     1.2790 C.3   1 <1>   0.2000 
  6 C       -0.8370     4.1330    -0.8970 C.3   1 <1>   0.1400 
  7 C        1.7070     3.9730    -0.6310 C.3   1 <1>  -0.1600 
  8 O        1.1170     2.7280     1.9370 O.3   1 <1>  -0.6800 
  9 C       -0.0870     4.7580     1.8720 C.3   1 <1>  -0.1600 
 10 N       -0.9640     5.5100    -0.3090 N.am  1 <1>  -0.6600 
 11 C        2.0170     3.9630    -2.1390 C.3   1 <1>  -0.1600 
 12 C       -1.2200     5.4940     1.1580 C.3   1 <1>   0.1400 
 13 C       -0.7840     6.6360    -1.0780 C.2   1 <1>   0.5690 
 14 C        3.4470     4.4390    -2.4050 C.3   1 <1>  -0.2400 
 15 O       -0.6070     6.5740    -2.2740 O.2   1 <1>  -0.5700 
 16 C       -0.8580     8.0340    -0.4890 C.3   1 <1>   0.1570 
 17 N        0.2590     8.3330     0.4340 N.pl3 1 <1>   0.0480 
 18 C        1.6000     8.3770     0.1230 C.ar  1 <1>  -0.1520 
 19 C        0.1180     8.7830     1.7200 C.2   1 <1>  -0.3020 
 20 C        2.2930     8.8500     1.2340 C.ar  1 <1>   0.0000 
 21 C        2.2860     8.0460    -1.0500 C.ar  1 <1>  -0.1500 
 22 C        1.3310     9.0960     2.2330 C.2   1 <1>  -0.1500 
 23 C        3.6830     9.0000     1.1790 C.ar  1 <1>  -0.1500 
 24 C        3.6530     8.2000    -1.0920 C.ar  1 <1>  -0.1500 
 25 C        4.3520     8.6770     0.0220 C.ar  1 <1>  -0.1500 
 26 H       -0.8070     2.7820     1.4840 H     1 <1>   0.0800 
 27 H       -1.7590     3.6040    -0.7250 H     1 <1>   0.0800 
 28 H       -0.7050     4.1760    -1.9630 H     1 <1>   0.0800 
 29 H        1.7630     4.9870    -0.2800 H     1 <1>   0.0800 
 30 H        2.4810     3.4180    -0.1300 H     1 <1>   0.0800 
 31 H        1.3250     1.9210     1.3820 H     1 <1>   0.4000 
 32 H       -0.3220     4.6740     2.9170 H     1 <1>   0.0800 
 33 H        0.8230     5.3210     1.7750 H     1 <1>   0.0800 
 34 H        1.9010     2.9650    -2.5300 H     1 <1>   0.0800 
 35 H        1.3330     4.6080    -2.6600 H     1 <1>   0.0800 
 36 H       -1.3120     6.4850     1.5570 H     1 <1>   0.0800 
 37 H       -2.1490     4.9790     1.3390 H     1 <1>   0.0800 
 38 H        4.1510     3.7780    -1.9330 H     1 <1>   0.0800 
 39 H        3.5860     5.4310    -2.0160 H     1 <1>   0.0800 
 40 H        3.6380     4.4500    -3.4630 H     1 <1>   0.0800 
 41 H       -1.7880     8.1490     0.0300 H     1 <1>   0.0800 
 42 H       -0.8280     8.7490    -1.2890 H     1 <1>   0.0800 
 43 H       -0.8410     8.8590     2.1980 H     1 <1>   0.1500 
 44 H        1.7510     7.6700    -1.9050 H     1 <1>   0.1500 
 45 H        1.5650     9.4720     3.2130 H     1 <1>   0.1500 
 46 H        4.2040     9.3670     2.0440 H     1 <1>   0.1500 
 47 H        4.1960     7.9500    -1.9860 H     1 <1>   0.1500 
 48 H        5.4210     8.7880    -0.0370 H     1 <1>   0.1500 
@<TRIPOS>BOND
  1   1   2  ar  
  2   2   3  ar  
  3   2   4  1   
  4   4   5  1   
  5   4   6  1   
  6   4   7  1   
  7   5   8  1   
  8   5   9  1   
  9   5  26  1   
 10   6  10  1   
 11   6  27  1   
 12   6  28  1   
 13   7  11  1   
 14   7  29  1   
 15   7  30  1   
 16   8  31  1   
 17   9  12  1   
 18   9  32  1   
 19   9  33  1   
 20  10  12  1   
 21  10  13  am  
 22  11  14  1   
 23  11  34  1   
 24  11  35  1   
 25  12  36  1   
 26  12  37  1   
 27  13  15  2   
 28  13  16  1   
 29  14  38  1   
 30  14  39  1   
 31  14  40  1   
 32  16  17  1   
 33  16  41  1   
 34  16  42  1   
 35  17  18  1   
 36  17  19  1   
 37  18  20  ar  
 38  18  21  ar  
 39  19  22  2   
 40  19  43  1   
 41  20  22  1   
 42  20  23  ar  
 43  21  24  ar  
 44  21  44  1   
 45  22  45  1   
 46  23  25  ar  
 47  23  46  1   
 48  24  25  ar  
 49  24  47  1   
 50  25  48  1   
@<TRIPOS>SUBSTRUCTURE
  1 ****  10 GROUP 4 **** **** 0

# MOE 2024.06 (io_trps.svl 2023.06)
