@<TRIPOS>MOLECULE
NONAME
34 36 1 0 0 
SMALL
USER_CHARGES


@<TRIPOS>ATOM
  1 S        0.3860     0.6920     1.5250 S.3   1 <1>  -0.0800 
  2 C        1.6770     1.4980     0.6580 C.2   1 <1>  -0.1400 
  3 C        1.2580    -0.8340     1.4470 C.2   1 <1>  -0.1100 
  4 C        2.6740     0.6530     0.3580 C.2   1 <1>  -0.1810 
  5 C        1.6180     2.9680     0.3200 C.3   1 <1>   0.0200 
  6 C        2.4340    -0.6860     0.8060 C.2   1 <1>  -0.1500 
  7 C        3.9310     1.1030    -0.3780 C.3   1 <1>   0.3900 
  8 C        2.6130     3.2370    -0.8180 C.3   1 <1>   0.2090 
  9 N        3.9450     2.5950    -0.5470 N.pl3 1 <1>  -0.8380 
 10 C        5.1160     3.3000    -0.4930 C.ar  1 <1>   0.7200 
 11 N        5.0370     4.6250    -0.3740 N.ar  1 <1>  -0.6200 
 12 N        6.2520     2.6100    -0.5760 N.ar  1 <1>  -0.6200 
 13 C        6.1570     5.2980    -0.3110 C.ar  1 <1>   0.1670 
 14 C        7.3600     3.3030    -0.5030 C.ar  1 <1>   0.1600 
 15 C        7.4030     4.6760    -0.3360 C.ar  1 <1>   0.0860 
 16 C        5.9910     6.8070    -0.2380 C.3   1 <1>  -0.0970 
 17 C        8.6810     5.3200    -0.2070 C.2   1 <1>   0.4230 
 18 O        9.6250     5.0220    -0.8910 O.2   1 <1>  -0.5700 
 19 C        8.9230     6.3690     0.8610 C.3   1 <1>  -0.1790 
 20 H        0.7900    -1.6910     1.8970 H     1 <1>   0.1500 
 21 H        1.8810     3.5520     1.1830 H     1 <1>   0.0800 
 22 H        0.6270     3.2400     0.0050 H     1 <1>   0.0800 
 23 H        3.1490    -1.4700     0.6300 H     1 <1>   0.1500 
 24 H        3.9720     0.6370    -1.3460 H     1 <1>   0.0800 
 25 H        4.7860     0.7830     0.1920 H     1 <1>   0.0800 
 26 H        2.7060     4.2980    -0.9680 H     1 <1>   0.0800 
 27 H        2.2200     2.8170    -1.7280 H     1 <1>   0.0800 
 28 H        8.2910     2.7640    -0.5710 H     1 <1>   0.1500 
 29 H        5.0520     7.0940    -0.6780 H     1 <1>   0.0800 
 30 H        6.7720     7.3080    -0.7800 H     1 <1>   0.0800 
 31 H        5.9940     7.1280     0.7870 H     1 <1>   0.0800 
 32 H        8.1840     6.3040     1.6380 H     1 <1>   0.0800 
 33 H        8.9060     7.3480     0.4210 H     1 <1>   0.0800 
 34 H        9.8910     6.2100     1.3000 H     1 <1>   0.0800 
@<TRIPOS>BOND
  1   1   2  1   
  2   1   3  1   
  3   2   4  2   
  4   2   5  1   
  5   3   6  2   
  6   3  20  1   
  7   4   6  1   
  8   4   7  1   
  9   5   8  1   
 10   5  21  1   
 11   5  22  1   
 12   6  23  1   
 13   7   9  1   
 14   7  24  1   
 15   7  25  1   
 16   8   9  1   
 17   8  26  1   
 18   8  27  1   
 19   9  10  1   
 20  10  11  ar  
 21  10  12  ar  
 22  11  13  ar  
 23  12  14  ar  
 24  13  15  ar  
 25  13  16  1   
 26  14  15  ar  
 27  14  28  1   
 28  15  17  1   
 29  16  29  1   
 30  16  30  1   
 31  16  31  1   
 32  17  18  2   
 33  17  19  1   
 34  19  32  1   
 35  19  33  1   
 36  19  34  1   
@<TRIPOS>SUBSTRUCTURE
  1 ****  10 GROUP 4 **** **** 0

# MOE 2024.06 (io_trps.svl 2023.06)
