@<TRIPOS>MOLECULE
NONAME
50 52 1 0 0 
SMALL
USER_CHARGES


@<TRIPOS>ATOM
  1 S       -0.4510     0.1370     1.9500 S.o2  1 <1>   1.5760 
  2 O       -1.1380     1.0920     2.7920 O.2   1 <1>  -0.6500 
  3 O        0.1070    -1.0590     2.5400 O.2   1 <1>  -0.6500 
  4 N       -1.4830    -0.2410     0.6680 N.am  1 <1>  -0.8490 
  5 N        0.8290     0.9730     1.2200 N.am  1 <1>  -0.8490 
  6 C       -1.1640    -1.4900    -0.0470 C.3   1 <1>   0.1960 
  7 C       -1.7570     0.8980    -0.2040 C.3   1 <1>   0.1960 
  8 C        1.6080     1.6290     2.2690 C.3   1 <1>   0.3770 
  9 C        1.7030     0.1300     0.3820 C.3   1 <1>   0.1160 
 10 C       -2.2270    -1.8490    -1.0870 C.3   1 <1>  -0.1860 
 11 C       -2.9060     0.5730    -1.1590 C.3   1 <1>  -0.1600 
 12 C        2.5830     2.6310     1.6710 C.2   1 <1>  -0.1810 
 13 C       -1.7140    -3.0310    -1.8850 C.2   1 <1>   0.9060 
 14 C       -2.5750    -0.6600    -2.0030 C.3   1 <1>  -0.1600 
 15 C        3.8340     2.9590     2.1790 C.2   1 <1>   0.1390 
 16 C        2.4630     3.3930     0.5630 C.2   1 <1>  -0.3020 
 17 O       -0.5790    -2.9650    -2.3750 O.co2 1 <1>  -0.9000 
 18 O       -2.4370    -4.0210    -2.0160 O.co2 1 <1>  -0.9000 
 19 N        4.4430     3.8410     1.4520 N.2   1 <1>  -0.7070 
 20 N        3.5920     4.1260     0.4320 N.pl3 1 <1>   0.5930 
 21 C        3.8730     5.0420    -0.6180 C.ar  1 <1>  -0.0230 
 22 C        3.7850     6.4230    -0.4320 C.ar  1 <1>  -0.1440 
 23 C        4.2310     4.5490    -1.8700 C.ar  1 <1>  -0.1500 
 24 C        4.0450     7.2760    -1.4930 C.ar  1 <1>  -0.1500 
 25 C        3.4080     7.0100     0.9220 C.3   1 <1>  -0.0970 
 26 C        4.4900     5.4070    -2.9220 C.ar  1 <1>  -0.1500 
 27 C        4.3950     6.7730    -2.7330 C.ar  1 <1>  -0.1500 
 28 H       -1.0880    -2.3020     0.6580 H     1 <1>   0.0800 
 29 H       -0.2200    -1.4060    -0.5450 H     1 <1>   0.0800 
 30 H       -0.8760     1.1450    -0.7720 H     1 <1>   0.0800 
 31 H       -2.0260     1.7520     0.3950 H     1 <1>   0.0800 
 32 H        2.1370     0.8900     2.8470 H     1 <1>   0.0800 
 33 H        0.9620     2.1760     2.9350 H     1 <1>   0.0800 
 34 H        1.2280    -0.0610    -0.5620 H     1 <1>   0.0800 
 35 H        1.9260    -0.8060     0.8660 H     1 <1>   0.0800 
 36 H        2.6310     0.6260     0.1590 H     1 <1>   0.0800 
 37 H       -3.1110    -2.1680    -0.5680 H     1 <1>   0.0800 
 38 H       -3.0840     1.4150    -1.8040 H     1 <1>   0.0800 
 39 H       -3.7990     0.3950    -0.5860 H     1 <1>   0.0800 
 40 H       -3.4090    -0.9230    -2.6300 H     1 <1>   0.0800 
 41 H       -1.7320    -0.4490    -2.6400 H     1 <1>   0.0800 
 42 H        4.2630     2.5350     3.0730 H     1 <1>   0.1500 
 43 H        1.6510     3.4570    -0.1370 H     1 <1>   0.1500 
 44 H        4.3100     3.4860    -2.0190 H     1 <1>   0.1500 
 45 H        3.9790     8.3420    -1.3600 H     1 <1>   0.1500 
 46 H        2.4420     6.6500     1.2270 H     1 <1>   0.0800 
 47 H        3.3750     8.0830     0.8850 H     1 <1>   0.0800 
 48 H        4.1350     6.7190     1.6610 H     1 <1>   0.0800 
 49 H        4.7670     5.0150    -3.8850 H     1 <1>   0.1500 
 50 H        4.5960     7.4450    -3.5490 H     1 <1>   0.1500 
@<TRIPOS>BOND
  1   1   2  2   
  2   1   3  2   
  3   1   4  am  
  4   1   5  am  
  5   4   6  1   
  6   4   7  1   
  7   5   8  1   
  8   5   9  1   
  9   6  10  1   
 10   6  28  1   
 11   6  29  1   
 12   7  11  1   
 13   7  30  1   
 14   7  31  1   
 15   8  12  1   
 16   8  32  1   
 17   8  33  1   
 18   9  34  1   
 19   9  35  1   
 20   9  36  1   
 21  10  13  1   
 22  10  14  1   
 23  10  37  1   
 24  11  14  1   
 25  11  38  1   
 26  11  39  1   
 27  12  15  1   
 28  12  16  2   
 29  13  17  ar  
 30  13  18  ar  
 31  14  40  1   
 32  14  41  1   
 33  15  19  2   
 34  15  42  1   
 35  16  20  1   
 36  16  43  1   
 37  19  20  1   
 38  20  21  1   
 39  21  22  ar  
 40  21  23  ar  
 41  22  24  ar  
 42  22  25  1   
 43  23  26  ar  
 44  23  44  1   
 45  24  27  ar  
 46  24  45  1   
 47  25  46  1   
 48  25  47  1   
 49  25  48  1   
 50  26  27  ar  
 51  26  49  1   
 52  27  50  1   
@<TRIPOS>SUBSTRUCTURE
  1 ****   5 GROUP 4 **** **** 0

# MOE 2024.06 (io_trps.svl 2023.06)
