@<TRIPOS>MOLECULE
NONAME
41 43 1 0 0 
SMALL
USER_CHARGES


@<TRIPOS>ATOM
  1 O       -0.6170     0.5340     1.1610 O.2   1 <1>  -0.5700 
  2 C       -1.5120     1.0800     0.5350 C.2   1 <1>   0.7160 
  3 N       -2.6110     0.3090     0.2060 N.am  1 <1>  -0.6600 
  4 C       -1.3690     2.4860     0.1710 C.2   1 <1>   0.2030 
  5 C       -3.8380     0.7690    -0.4950 C.3   1 <1>   0.1400 
  6 C       -2.7500    -1.1150     0.5800 C.3   1 <1>   0.1400 
  7 N       -2.1410     3.2110    -0.5890 N.2   1 <1>  -0.4100 
  8 C       -0.3250     3.2930     0.6020 C.2   1 <1>  -0.1500 
  9 C       -4.8100    -0.4190    -0.4590 C.3   1 <1>   0.2000 
 10 C       -3.8940    -1.6360    -0.2930 C.3   1 <1>  -0.0800 
 11 O       -1.6790     4.4340    -0.6840 O.3   1 <1>  -0.0190 
 12 C       -0.5820     4.4750     0.0380 C.2   1 <1>  -0.0400 
 13 O       -5.6400    -0.3270     0.6650 O.3   1 <1>  -0.5600 
 14 C       -4.5850    -2.8860     0.2820 C.3   1 <1>   0.0200 
 15 C        0.1860     5.7780     0.1200 C.3   1 <1>  -0.0600 
 16 C       -6.7680     0.4760     0.5070 C.3   1 <1>   0.0400 
 17 C       -3.6960    -4.1190     0.2710 C.2   1 <1>  -0.0400 
 18 O       -4.1400    -5.2160     0.8240 O.3   1 <1>  -0.0190 
 19 C       -2.4690    -4.3750    -0.2120 C.2   1 <1>  -0.1500 
 20 N       -3.2790    -6.1890     0.7400 N.2   1 <1>  -0.4100 
 21 C       -2.2620    -5.7100     0.1210 C.2   1 <1>   0.1080 
 22 C       -1.0120    -6.5000    -0.1980 C.3   1 <1>  -0.0590 
 23 H       -4.2530     1.6380    -0.0160 H     1 <1>   0.0800 
 24 H       -3.5860     1.0040    -1.5140 H     1 <1>   0.0800 
 25 H       -1.8320    -1.6500     0.4100 H     1 <1>   0.0800 
 26 H       -3.0120    -1.1740     1.6240 H     1 <1>   0.0800 
 27 H        0.4810     2.9850     1.2440 H     1 <1>   0.1500 
 28 H       -5.4170    -0.4880    -1.3450 H     1 <1>   0.0800 
 29 H       -3.4890    -1.8760    -1.2600 H     1 <1>   0.0800 
 30 H       -5.4680    -3.1010    -0.2930 H     1 <1>   0.0800 
 31 H       -4.8950    -2.6970     1.2950 H     1 <1>   0.0800 
 32 H        1.0550     5.6610     0.7420 H     1 <1>   0.0800 
 33 H       -0.4420     6.5440     0.5380 H     1 <1>   0.0800 
 34 H        0.4970     6.0800    -0.8630 H     1 <1>   0.0800 
 35 H       -7.3140     0.4670     1.4340 H     1 <1>   0.0800 
 36 H       -7.3840     0.0740    -0.2780 H     1 <1>   0.0800 
 37 H       -6.4680     1.4830     0.2770 H     1 <1>   0.0800 
 38 H       -1.7790    -3.7420    -0.7360 H     1 <1>   0.1500 
 39 H       -0.8460    -6.5080    -1.2590 H     1 <1>   0.0800 
 40 H       -1.1200    -7.5120     0.1470 H     1 <1>   0.0800 
 41 H       -0.1650    -6.0550     0.2920 H     1 <1>   0.0800 
@<TRIPOS>BOND
  1   1   2  2   
  2   2   3  am  
  3   2   4  1   
  4   3   5  1   
  5   3   6  1   
  6   4   7  2   
  7   4   8  1   
  8   5   9  1   
  9   5  23  1   
 10   5  24  1   
 11   6  10  1   
 12   6  25  1   
 13   6  26  1   
 14   7  11  1   
 15   8  12  2   
 16   8  27  1   
 17   9  10  1   
 18   9  13  1   
 19   9  28  1   
 20  10  14  1   
 21  10  29  1   
 22  11  12  1   
 23  12  15  1   
 24  13  16  1   
 25  14  17  1   
 26  14  30  1   
 27  14  31  1   
 28  15  32  1   
 29  15  33  1   
 30  15  34  1   
 31  16  35  1   
 32  16  36  1   
 33  16  37  1   
 34  17  18  1   
 35  17  19  2   
 36  18  20  1   
 37  19  21  1   
 38  19  38  1   
 39  20  21  2   
 40  21  22  1   
 41  22  39  1   
 42  22  40  1   
 43  22  41  1   
@<TRIPOS>SUBSTRUCTURE
  1 ****   6 GROUP 4 **** **** 0

# MOE 2024.06 (io_trps.svl 2023.06)
