@<TRIPOS>MOLECULE
NONAME
46 47 1 0 0 
SMALL
USER_CHARGES


@<TRIPOS>ATOM
  1 O       -0.8020     0.7220    -1.6130 O.co2 1 <1>  -0.9000 
  2 C       -1.2460     1.0860    -0.5150 C.2   1 <1>   0.9060 
  3 O       -2.1360     0.4380     0.0610 O.co2 1 <1>  -0.9000 
  4 C       -0.6660     2.3370     0.1670 C.3   1 <1>  -0.1060 
  5 C       -1.8170     3.1230     0.8300 C.3   1 <1>   0.2000 
  6 C       -0.0940     3.2690    -0.9360 C.3   1 <1>   0.1100 
  7 C        0.4000     1.8820     1.2210 C.3   1 <1>  -0.1600 
  8 O       -2.4300     2.3590     1.8040 O.3   1 <1>  -0.6800 
  9 C       -1.3720     4.4460     1.4660 C.3   1 <1>  -0.1600 
 10 N       -0.1150     4.7330    -0.6430 N.3   1 <1>  -0.8100 
 11 C        1.6270     1.1470     0.6510 C.3   1 <1>  -0.1600 
 12 C       -0.1510     5.0750     0.7820 C.3   1 <1>   0.1100 
 13 C        0.9280     5.4230    -1.4540 C.3   1 <1>   0.1710 
 14 C        2.5250     0.6250     1.7760 C.3   1 <1>  -0.2400 
 15 C        0.9960     6.9550    -1.3640 C.2   1 <1>   0.5690 
 16 O        0.5630     7.6170    -2.2770 O.2   1 <1>  -0.5700 
 17 N        1.6170     7.4990    -0.2690 N.am  1 <1>  -0.5470 
 18 C        1.8400     8.8310     0.1130 C.ar  1 <1>   0.1170 
 19 C        1.1090     9.9000    -0.3960 C.ar  1 <1>  -0.1500 
 20 C        2.8240     9.0960     1.0600 C.ar  1 <1>  -0.1500 
 21 C        1.3580    11.1950     0.0240 C.ar  1 <1>  -0.1500 
 22 C        3.0750    10.3890     1.4840 C.ar  1 <1>  -0.1500 
 23 C        2.3410    11.4410     0.9650 C.ar  1 <1>  -0.1500 
 24 H       -2.5590     3.3290     0.0750 H     1 <1>   0.0800 
 25 H       -0.6880     3.1380    -1.8260 H     1 <1>   0.0800 
 26 H        0.8960     2.9480    -1.1960 H     1 <1>   0.0800 
 27 H        0.7430     2.7100     1.8070 H     1 <1>   0.0800 
 28 H       -0.0910     1.2090     1.9040 H     1 <1>   0.0800 
 29 H       -2.5390     1.4550     1.3820 H     1 <1>   0.4000 
 30 H       -2.1940     5.1360     1.4110 H     1 <1>   0.0800 
 31 H       -1.1370     4.2960     2.5040 H     1 <1>   0.0800 
 32 H        1.3040     0.3140     0.0470 H     1 <1>   0.0800 
 33 H        2.2040     1.8050     0.0280 H     1 <1>   0.0800 
 34 H        0.7580     4.7460     1.2510 H     1 <1>   0.0800 
 35 H       -0.2270     6.1410     0.9040 H     1 <1>   0.0800 
 36 H        1.8920     5.0310    -1.1880 H     1 <1>   0.0800 
 37 H        0.7590     5.1770    -2.4880 H     1 <1>   0.0800 
 38 H        1.9790    -0.0680     2.3930 H     1 <1>   0.0800 
 39 H        2.8740     1.4370     2.3880 H     1 <1>   0.0800 
 40 H        3.3750     0.1140     1.3590 H     1 <1>   0.0800 
 41 H        1.9640     6.8080     0.3920 H     1 <1>   0.3700 
 42 H        0.3360     9.7280    -1.1230 H     1 <1>   0.1500 
 43 H        3.4030     8.2890     1.4680 H     1 <1>   0.1500 
 44 H        0.7840    12.0090    -0.3820 H     1 <1>   0.1500 
 45 H        3.8410    10.5790     2.2150 H     1 <1>   0.1500 
 46 H        2.5350    12.4490     1.2920 H     1 <1>   0.1500 
@<TRIPOS>BOND
  1   1   2  ar  
  2   2   3  ar  
  3   2   4  1   
  4   4   5  1   
  5   4   6  1   
  6   4   7  1   
  7   5   8  1   
  8   5   9  1   
  9   5  24  1   
 10   6  10  1   
 11   6  25  1   
 12   6  26  1   
 13   7  11  1   
 14   7  27  1   
 15   7  28  1   
 16   8  29  1   
 17   9  12  1   
 18   9  30  1   
 19   9  31  1   
 20  10  12  1   
 21  10  13  1   
 22  11  14  1   
 23  11  32  1   
 24  11  33  1   
 25  12  34  1   
 26  12  35  1   
 27  13  15  1   
 28  13  36  1   
 29  13  37  1   
 30  14  38  1   
 31  14  39  1   
 32  14  40  1   
 33  15  16  2   
 34  15  17  am  
 35  17  18  1   
 36  17  41  1   
 37  18  19  ar  
 38  18  20  ar  
 39  19  21  ar  
 40  19  42  1   
 41  20  22  ar  
 42  20  43  1   
 43  21  23  ar  
 44  21  44  1   
 45  22  23  ar  
 46  22  45  1   
 47  23  46  1   
@<TRIPOS>SUBSTRUCTURE
  1 ****  12 GROUP 4 **** **** 0

# MOE 2024.06 (io_trps.svl 2023.06)
