@<TRIPOS>MOLECULE
NONAME
57 59 1 0 0 
SMALL
USER_CHARGES


@<TRIPOS>ATOM
  1 O       -2.0690     0.6770    -2.4600 O.2   1 <1>  -0.5700 
  2 C       -2.4680     1.0570    -1.3730 C.2   1 <1>   0.5440 
  3 N       -2.9500     0.1180    -0.4860 N.am  1 <1>  -0.6600 
  4 C       -2.3910     2.4760    -1.0640 C.ar  1 <1>   0.0860 
  5 C       -3.1030    -1.3260    -0.8720 C.3   1 <1>   0.1400 
  6 C       -3.3870     0.4010     0.9030 C.3   1 <1>   0.1400 
  7 C       -3.4790     3.2080    -0.5890 C.ar  1 <1>  -0.1500 
  8 C       -1.1990     3.1730    -1.2610 C.ar  1 <1>  -0.1500 
  9 C       -4.2530    -2.0440    -0.1230 C.3   1 <1>   0.2000 
 10 C       -4.8900     0.1160     1.0530 C.3   1 <1>  -0.1600 
 11 C       -3.3810     4.5600    -0.3160 C.ar  1 <1>  -0.1500 
 12 C       -1.0980     4.5250    -0.9870 C.ar  1 <1>  -0.1500 
 13 O       -3.7510    -2.6040     1.0440 O.3   1 <1>  -0.6800 
 14 C       -5.4380    -1.0910     0.2140 C.3   1 <1>  -0.1060 
 15 C       -2.1870     5.2390    -0.5100 C.ar  1 <1>   0.0730 
 16 C       -6.4930    -1.8250     1.0660 C.2   1 <1>   0.9060 
 17 C       -6.1290    -0.7090    -1.1440 C.3   1 <1>  -0.0160 
 18 C       -2.0810     6.6380    -0.2330 C.1   1 <1>  -0.0730 
 19 O       -6.2780    -2.9800     1.4660 O.co2 1 <1>  -0.9000 
 20 O       -7.5430    -1.2410     1.3570 O.co2 1 <1>  -0.9000 
 21 C       -6.4590     0.7550    -1.4260 C.ar  1 <1>  -0.1430 
 22 C       -1.9770     7.8050    -0.0190 C.1   1 <1>  -0.2000 
 23 C       -5.7530     1.4610    -2.3890 C.ar  1 <1>  -0.1500 
 24 C       -7.4890     1.3840    -0.7450 C.ar  1 <1>  -0.1500 
 25 C       -1.8320     9.2650     0.2330 C.3   1 <1>   0.4800 
 26 C       -6.0680     2.7810    -2.6620 C.ar  1 <1>  -0.1500 
 27 C       -7.8040     2.7050    -1.0130 C.ar  1 <1>  -0.1500 
 28 O       -0.7870     9.7120    -0.5300 O.3   1 <1>  -0.6800 
 29 C       -1.4790     9.5390     1.6900 C.3   1 <1>  -0.2400 
 30 C       -3.0750    10.0260    -0.2090 C.3   1 <1>  -0.2400 
 31 C       -7.0930     3.4050    -1.9720 C.ar  1 <1>  -0.1500 
 32 H       -3.3030    -1.3760    -1.9270 H     1 <1>   0.0800 
 33 H       -2.1780    -1.8450    -0.6940 H     1 <1>   0.0800 
 34 H       -2.8390    -0.2500     1.5630 H     1 <1>   0.0800 
 35 H       -3.1630     1.4090     1.2000 H     1 <1>   0.0800 
 36 H       -4.4190     2.7080    -0.4350 H     1 <1>   0.1500 
 37 H       -0.3460     2.6360    -1.6390 H     1 <1>   0.1500 
 38 H       -4.6070    -2.8690    -0.7170 H     1 <1>   0.0800 
 39 H       -5.0460    -0.1020     2.0950 H     1 <1>   0.0800 
 40 H       -5.4480     1.0110     0.8740 H     1 <1>   0.0800 
 41 H       -4.2410     5.0940     0.0490 H     1 <1>   0.1500 
 42 H       -0.1650     5.0370    -1.1490 H     1 <1>   0.1500 
 43 H       -4.5620    -2.9710     1.5080 H     1 <1>   0.4000 
 44 H       -5.5420    -1.0620    -1.9700 H     1 <1>   0.0800 
 45 H       -7.0540    -1.2550    -1.2250 H     1 <1>   0.0800 
 46 H       -4.9510     0.9860    -2.9270 H     1 <1>   0.1500 
 47 H       -8.0430     0.8350     0.0010 H     1 <1>   0.1500 
 48 H       -5.5110     3.3200    -3.4080 H     1 <1>   0.1500 
 49 H       -8.6030     3.1790    -0.4730 H     1 <1>   0.1500 
 50 H       -0.6730    10.6650    -0.3820 H     1 <1>   0.4000 
 51 H       -2.2680     9.1820     2.3270 H     1 <1>   0.0800 
 52 H       -1.3530    10.5920     1.8620 H     1 <1>   0.0800 
 53 H       -0.5740     9.0210     1.9540 H     1 <1>   0.0800 
 54 H       -3.9260     9.6880     0.3550 H     1 <1>   0.0800 
 55 H       -3.2690     9.8420    -1.2510 H     1 <1>   0.0800 
 56 H       -2.9570    11.0810    -0.0470 H     1 <1>   0.0800 
 57 H       -7.3360     4.4320    -2.1810 H     1 <1>   0.1500 
@<TRIPOS>BOND
  1   1   2  2   
  2   2   3  am  
  3   2   4  1   
  4   3   5  1   
  5   3   6  1   
  6   4   7  ar  
  7   4   8  ar  
  8   5   9  1   
  9   5  32  1   
 10   5  33  1   
 11   6  10  1   
 12   6  34  1   
 13   6  35  1   
 14   7  11  ar  
 15   7  36  1   
 16   8  12  ar  
 17   8  37  1   
 18   9  13  1   
 19   9  14  1   
 20   9  38  1   
 21  10  14  1   
 22  10  39  1   
 23  10  40  1   
 24  11  15  ar  
 25  11  41  1   
 26  12  15  ar  
 27  12  42  1   
 28  13  43  1   
 29  14  16  1   
 30  14  17  1   
 31  15  18  1   
 32  16  19  ar  
 33  16  20  ar  
 34  17  21  1   
 35  17  44  1   
 36  17  45  1   
 37  18  22  3   
 38  21  23  ar  
 39  21  24  ar  
 40  22  25  1   
 41  23  26  ar  
 42  23  46  1   
 43  24  27  ar  
 44  24  47  1   
 45  25  28  1   
 46  25  29  1   
 47  25  30  1   
 48  26  31  ar  
 49  26  48  1   
 50  27  31  ar  
 51  27  49  1   
 52  28  50  1   
 53  29  51  1   
 54  29  52  1   
 55  29  53  1   
 56  30  54  1   
 57  30  55  1   
 58  30  56  1   
 59  31  57  1   
@<TRIPOS>SUBSTRUCTURE
  1 ****   7 GROUP 4 **** **** 0

# MOE 2024.06 (io_trps.svl 2023.06)
