@<TRIPOS>MOLECULE
NONAME
40 42 1 0 0 
SMALL
USER_CHARGES


@<TRIPOS>ATOM
  1 F        0.8510    -2.3350    -1.6110 F     1 <1>  -0.3400 
  2 C        0.2440    -1.5890    -0.6970 C.3   1 <1>   1.1640 
  3 F        1.1720    -1.2620     0.1940 F     1 <1>  -0.3400 
  4 F       -0.1020    -0.4630    -1.3060 F     1 <1>  -0.3400 
  5 C       -0.9560    -2.3010    -0.0850 C.ar  1 <1>  -0.1440 
  6 C       -1.9850    -2.6980    -0.9230 C.ar  1 <1>   0.1600 
  7 C       -1.0700    -2.5710     1.2720 C.ar  1 <1>  -0.1500 
  8 N       -3.0850    -3.3220    -0.5380 N.ar  1 <1>  -0.6200 
  9 C       -2.2100    -3.2180     1.6850 C.ar  1 <1>  -0.1500 
 10 C       -3.1860    -3.5710     0.7620 C.ar  1 <1>   0.4100 
 11 N       -4.3230    -4.2150     1.1940 N.pl3 1 <1>  -0.8380 
 12 C       -5.6190    -3.5540     0.8680 C.3   1 <1>   0.2090 
 13 C       -4.4200    -5.6590     0.8350 C.3   1 <1>   0.2090 
 14 C       -6.3710    -4.5440    -0.0170 C.3   1 <1>   0.2000 
 15 C       -5.8730    -5.9100     0.4300 C.3   1 <1>  -0.0800 
 16 O       -7.7470    -4.4540     0.1460 O.3   1 <1>  -0.6800 
 17 C       -6.0320    -6.9940    -0.6470 C.3   1 <1>   0.0210 
 18 C       -5.4020    -8.3030    -0.2110 C.2   1 <1>   0.1080 
 19 N       -5.6990    -8.8960     0.9040 N.2   1 <1>  -0.7070 
 20 C       -4.4440    -9.0030    -0.9380 C.2   1 <1>  -0.1500 
 21 N       -4.9320   -10.0020     0.9170 N.pl3 1 <1>   0.3000 
 22 C       -4.1620   -10.0890    -0.1880 C.2   1 <1>  -0.3320 
 23 C       -3.1900   -11.2200    -0.4630 C.3   1 <1>  -0.0600 
 24 H       -1.9050    -2.4940    -1.9790 H     1 <1>   0.1500 
 25 H       -0.3080    -2.2920     1.9810 H     1 <1>   0.1500 
 26 H       -2.3730    -3.4610     2.7180 H     1 <1>   0.1500 
 27 H       -6.1560    -3.3790     1.7830 H     1 <1>   0.0800 
 28 H       -5.4670    -2.6210     0.3520 H     1 <1>   0.0800 
 29 H       -3.7580    -5.8760     0.0130 H     1 <1>   0.0800 
 30 H       -4.1470    -6.2760     1.6740 H     1 <1>   0.0800 
 31 H       -6.1310    -4.3520    -1.0500 H     1 <1>   0.0800 
 32 H       -6.3980    -6.2140     1.3180 H     1 <1>   0.0800 
 33 H       -7.9980    -4.7540     1.0410 H     1 <1>   0.4000 
 34 H       -5.5750    -6.6680    -1.5640 H     1 <1>   0.0800 
 35 H       -7.0770    -7.1600    -0.8350 H     1 <1>   0.0800 
 36 H       -4.0360    -8.7170    -1.8910 H     1 <1>   0.1500 
 37 H       -4.9590   -10.6760     1.6910 H     1 <1>   0.2700 
 38 H       -2.6960   -11.0620    -1.4060 H     1 <1>   0.0800 
 39 H       -3.7130   -12.1590    -0.5050 H     1 <1>   0.0800 
 40 H       -2.4440   -11.2670     0.3100 H     1 <1>   0.0800 
@<TRIPOS>BOND
  1   1   2  1   
  2   2   3  1   
  3   2   4  1   
  4   2   5  1   
  5   5   6  ar  
  6   5   7  ar  
  7   6   8  ar  
  8   6  24  1   
  9   7   9  ar  
 10   7  25  1   
 11   8  10  ar  
 12   9  10  ar  
 13   9  26  1   
 14  10  11  1   
 15  11  12  1   
 16  11  13  1   
 17  12  14  1   
 18  12  27  1   
 19  12  28  1   
 20  13  15  1   
 21  13  29  1   
 22  13  30  1   
 23  14  15  1   
 24  14  16  1   
 25  14  31  1   
 26  15  17  1   
 27  15  32  1   
 28  16  33  1   
 29  17  18  1   
 30  17  34  1   
 31  17  35  1   
 32  18  19  2   
 33  18  20  1   
 34  19  21  1   
 35  20  22  2   
 36  20  36  1   
 37  21  22  1   
 38  21  37  1   
 39  22  23  1   
 40  23  38  1   
 41  23  39  1   
 42  23  40  1   
@<TRIPOS>SUBSTRUCTURE
  1 ****  13 GROUP 4 **** **** 0

# MOE 2024.06 (io_trps.svl 2023.06)
