@<TRIPOS>MOLECULE
NONAME
43 44 1 0 0 
SMALL
USER_CHARGES


@<TRIPOS>ATOM
  1 F       -0.9450    -1.4050     2.1850 F     1 <1>  -0.1900 
  2 C       -1.6220    -1.7190     1.1150 C.ar  1 <1>   0.1900 
  3 C       -1.9740    -3.0410     0.9190 C.ar  1 <1>  -0.1500 
  4 C       -1.9630    -0.7210     0.2230 C.ar  1 <1>  -0.1500 
  5 C       -2.7010    -3.3800    -0.2150 C.ar  1 <1>  -0.1440 
  6 C       -2.6820    -1.0650    -0.9080 C.ar  1 <1>  -0.1500 
  7 C       -3.0470    -2.3860    -1.1250 C.ar  1 <1>  -0.1500 
  8 C       -3.1170    -4.8200    -0.4590 C.3   1 <1>   0.4870 
  9 N       -4.2320    -5.1660     0.4560 N.4   1 <1>  -0.9590 
 10 C       -4.5280    -6.6390     0.3450 C.3   1 <1>   0.3430 
 11 C       -5.4380    -4.2980     0.2110 C.3   1 <1>   0.3430 
 12 C       -5.8410    -6.9350     1.0640 C.3   1 <1>   0.2000 
 13 C       -6.7230    -4.8560     0.8570 C.3   1 <1>  -0.1600 
 14 O       -5.8650    -8.2830     1.4450 O.3   1 <1>  -0.6800 
 15 C       -7.0140    -6.2740     0.1740 C.3   1 <1>  -0.1060 
 16 C       -7.2160    -7.6380    -0.5250 C.2   1 <1>   0.9060 
 17 C       -8.2230    -5.6780    -0.7030 C.3   1 <1>  -0.1600 
 18 O       -7.9550    -8.5060    -0.0450 O.co2 1 <1>  -0.9000 
 19 O       -6.5080    -7.8460    -1.5190 O.co2 1 <1>  -0.9000 
 20 C       -9.5480    -5.6430     0.0890 C.3   1 <1>  -0.1600 
 21 C      -10.6640    -4.9840    -0.7270 C.3   1 <1>  -0.2400 
 22 H       -1.6710    -3.7730     1.6470 H     1 <1>   0.1500 
 23 H       -1.6690     0.2970     0.4120 H     1 <1>   0.1500 
 24 H       -2.9540    -0.3030    -1.6210 H     1 <1>   0.1500 
 25 H       -3.6020    -2.6280    -2.0170 H     1 <1>   0.1500 
 26 H       -2.2760    -5.4710    -0.2790 H     1 <1>   0.0800 
 27 H       -3.4300    -4.9470    -1.4830 H     1 <1>   0.0800 
 28 H       -3.9200    -4.9870     1.4170 H     1 <1>   0.4500 
 29 H       -4.6270    -6.9260    -0.6890 H     1 <1>   0.0800 
 30 H       -3.7390    -7.2170     0.7960 H     1 <1>   0.0800 
 31 H       -5.2490    -3.3020     0.5790 H     1 <1>   0.0800 
 32 H       -5.6090    -4.2290    -0.8520 H     1 <1>   0.0800 
 33 H       -5.7400    -6.5030     2.0410 H     1 <1>   0.0800 
 34 H       -6.6600    -4.8500     1.9310 H     1 <1>   0.0800 
 35 H       -7.4600    -4.0830     0.7210 H     1 <1>   0.0800 
 36 H       -6.6550    -8.7140     0.9880 H     1 <1>   0.4000 
 37 H       -8.0110    -4.7060    -1.1160 H     1 <1>   0.0800 
 38 H       -8.4500    -6.2180    -1.6150 H     1 <1>   0.0800 
 39 H       -9.8400    -6.6540     0.3240 H     1 <1>   0.0800 
 40 H       -9.4380    -5.1180     1.0210 H     1 <1>   0.0800 
 41 H      -10.8240    -5.5240    -1.6430 H     1 <1>   0.0800 
 42 H      -10.4130    -3.9650    -0.9610 H     1 <1>   0.0800 
 43 H      -11.5810    -4.9910    -0.1640 H     1 <1>   0.0800 
@<TRIPOS>BOND
  1   1   2  1   
  2   2   3  ar  
  3   2   4  ar  
  4   3   5  ar  
  5   3  22  1   
  6   4   6  ar  
  7   4  23  1   
  8   5   7  ar  
  9   5   8  1   
 10   6   7  ar  
 11   6  24  1   
 12   7  25  1   
 13   8   9  1   
 14   8  26  1   
 15   8  27  1   
 16   9  10  1   
 17   9  11  1   
 18   9  28  1   
 19  10  12  1   
 20  10  29  1   
 21  10  30  1   
 22  11  13  1   
 23  11  31  1   
 24  11  32  1   
 25  12  14  1   
 26  12  15  1   
 27  12  33  1   
 28  13  15  1   
 29  13  34  1   
 30  13  35  1   
 31  14  36  1   
 32  15  16  1   
 33  15  17  1   
 34  16  18  ar  
 35  16  19  ar  
 36  17  20  1   
 37  17  37  1   
 38  17  38  1   
 39  20  21  1   
 40  20  39  1   
 41  20  40  1   
 42  21  41  1   
 43  21  42  1   
 44  21  43  1   
@<TRIPOS>SUBSTRUCTURE
  1 ****  11 GROUP 4 **** **** 0

# MOE 2024.06 (io_trps.svl 2023.06)
