@<TRIPOS>MOLECULE
NONAME
51 53 1 0 0 
SMALL
USER_CHARGES


@<TRIPOS>ATOM
  1 O        1.3070     0.7220    -1.8890 O.2   1 <1>  -0.5700 
  2 C        1.4810    -0.3070    -1.2770 C.2   1 <1>   0.5690 
  3 N        2.1890    -0.2920    -0.0970 N.am  1 <1>  -0.6600 
  4 C        0.9410    -1.5930    -1.8920 C.3   1 <1>   0.0440 
  5 C        2.3760     0.9910     0.6500 C.3   1 <1>   0.1400 
  6 C        2.9610    -1.4520     0.4290 C.3   1 <1>   0.1400 
  7 C        0.1090    -2.4180    -0.9080 C.ar  1 <1>  -0.1440 
  8 C        3.8510     1.4310     0.8090 C.3   1 <1>   0.4230 
  9 C        4.4650    -1.3240     0.0960 C.3   1 <1>  -0.0800 
 10 C        0.4320    -3.7360    -0.5880 C.ar  1 <1>   0.0820 
 11 C       -1.0020    -1.8280    -0.3230 C.ar  1 <1>  -0.1500 
 12 N        4.7200     1.1940    -0.4110 N.4   1 <1>  -0.9590 
 13 C        4.5030     0.8240     2.0770 C.3   1 <1>   0.1200 
 14 C        5.3670    -1.2610     1.3470 C.3   1 <1>   0.1200 
 15 C        4.7720    -0.2190    -0.9370 C.3   1 <1>   0.3430 
 16 O        1.5220    -4.2940    -1.1820 O.3   1 <1>  -0.3630 
 17 C       -0.3530    -4.4340     0.3240 C.ar  1 <1>  -0.1500 
 18 C       -1.7810    -2.5270     0.5810 C.ar  1 <1>  -0.1500 
 19 C        4.3780     2.1370    -1.5180 C.3   1 <1>   0.2630 
 20 O        5.6230     0.0490     1.7560 O.3   1 <1>  -0.5600 
 21 C        1.7130    -5.6940    -1.1780 C.3   1 <1>   0.0400 
 22 C       -1.4550    -3.8380     0.9100 C.ar  1 <1>   0.0820 
 23 O       -2.1590    -4.5920     1.7900 O.3   1 <1>  -0.3620 
 24 C       -3.3360    -4.1050     2.3950 C.3   1 <1>   0.0400 
 25 H        0.3120    -1.3350    -2.7250 H     1 <1>   0.0800 
 26 H        1.7660    -2.1510    -2.2880 H     1 <1>   0.0800 
 27 H        1.8460     1.7840     0.1520 H     1 <1>   0.0800 
 28 H        1.9190     0.8960     1.6200 H     1 <1>   0.0800 
 29 H        2.7990    -1.5360     1.4910 H     1 <1>   0.0800 
 30 H        2.5970    -2.3620    -0.0050 H     1 <1>   0.0800 
 31 H        3.8180     2.4920     0.9900 H     1 <1>   0.0800 
 32 H        4.7140    -2.2560    -0.3800 H     1 <1>   0.0800 
 33 H       -1.2680    -0.8140    -0.5700 H     1 <1>   0.1500 
 34 H        5.6730     1.3720    -0.0580 H     1 <1>   0.4500 
 35 H        3.8120     0.2330     2.6540 H     1 <1>   0.0800 
 36 H        4.8460     1.6250     2.7080 H     1 <1>   0.0800 
 37 H        6.3250    -1.7000     1.1210 H     1 <1>   0.0800 
 38 H        4.9440    -1.8070     2.1730 H     1 <1>   0.0800 
 39 H        4.0660    -0.3170    -1.7450 H     1 <1>   0.0800 
 40 H        5.7520    -0.3950    -1.3480 H     1 <1>   0.0800 
 41 H       -0.1320    -5.4450     0.6030 H     1 <1>   0.1500 
 42 H       -2.6320    -2.0370     1.0140 H     1 <1>   0.1500 
 43 H        3.3780     1.9430    -1.8750 H     1 <1>   0.0800 
 44 H        5.0650     2.0160    -2.3390 H     1 <1>   0.0800 
 45 H        4.4290     3.1570    -1.1730 H     1 <1>   0.0800 
 46 H        2.5450    -5.9210    -1.8190 H     1 <1>   0.0800 
 47 H        0.8230    -6.1690    -1.5540 H     1 <1>   0.0800 
 48 H        1.9250    -6.0180    -0.1750 H     1 <1>   0.0800 
 49 H       -3.7330    -4.8810     3.0260 H     1 <1>   0.0800 
 50 H       -4.0480    -3.8600     1.6270 H     1 <1>   0.0800 
 51 H       -3.0940    -3.2410     2.9880 H     1 <1>   0.0800 
@<TRIPOS>BOND
  1   1   2  2   
  2   2   3  am  
  3   2   4  1   
  4   3   5  1   
  5   3   6  1   
  6   4   7  1   
  7   4  25  1   
  8   4  26  1   
  9   5   8  1   
 10   5  27  1   
 11   5  28  1   
 12   6   9  1   
 13   6  29  1   
 14   6  30  1   
 15   7  10  ar  
 16   7  11  ar  
 17   8  12  1   
 18   8  13  1   
 19   8  31  1   
 20   9  14  1   
 21   9  15  1   
 22   9  32  1   
 23  10  16  1   
 24  10  17  ar  
 25  11  18  ar  
 26  11  33  1   
 27  12  15  1   
 28  12  19  1   
 29  12  34  1   
 30  13  20  1   
 31  13  35  1   
 32  13  36  1   
 33  14  20  1   
 34  14  37  1   
 35  14  38  1   
 36  15  39  1   
 37  15  40  1   
 38  16  21  1   
 39  17  22  ar  
 40  17  41  1   
 41  18  22  ar  
 42  18  42  1   
 43  19  43  1   
 44  19  44  1   
 45  19  45  1   
 46  21  46  1   
 47  21  47  1   
 48  21  48  1   
 49  22  23  1   
 50  23  24  1   
 51  24  49  1   
 52  24  50  1   
 53  24  51  1   
@<TRIPOS>SUBSTRUCTURE
  1 ****   6 GROUP 4 **** **** 0

# MOE 2024.06 (io_trps.svl 2023.06)
