@<TRIPOS>MOLECULE
NONAME
44 46 1 0 0 
SMALL
USER_CHARGES


@<TRIPOS>ATOM
  1 S       -0.7050     0.5450     0.7310 S.o2  1 <1>   1.5010 
  2 O       -1.1660     1.9120     0.8410 O.2   1 <1>  -0.6500 
  3 O       -0.8210    -0.3410     1.8710 O.2   1 <1>  -0.6500 
  4 N       -1.5330    -0.1650    -0.5700 N.am  1 <1>  -0.8490 
  5 C        0.9960     0.5510     0.1520 C.2   1 <1>  -0.0630 
  6 C       -2.9810     0.0250    -0.5070 C.3   1 <1>   0.1960 
  7 C       -1.3430    -1.6120    -0.6650 C.3   1 <1>   0.1960 
  8 C        1.4770     1.3910    -0.8430 C.2   1 <1>   0.1390 
  9 C        2.0790    -0.1930     0.4940 C.2   1 <1>  -0.3020 
 10 C       -3.5140    -1.1300     0.3430 C.3   1 <1>  -0.0800 
 11 C       -2.5600    -2.2850    -0.0110 C.3   1 <1>  -0.0800 
 12 N        2.7360     1.1980    -1.1000 N.2   1 <1>  -0.7070 
 13 N        3.1090     0.2170    -0.2670 N.pl3 1 <1>   0.3140 
 14 C       -5.0310    -1.4490     0.2250 C.3   1 <1>   0.2800 
 15 C       -3.2030    -3.3200    -0.9480 C.3   1 <1>  -0.1600 
 16 C        4.4860    -0.2900    -0.2480 C.3   1 <1>   0.0160 
 17 O       -5.4610    -1.2320    -1.0710 O.3   1 <1>  -0.6800 
 18 C       -5.2690    -2.9370     0.5430 C.3   1 <1>  -0.1600 
 19 C       -5.9160    -0.5810     1.1500 C.3   1 <1>  -0.1600 
 20 C       -4.4930    -3.9160    -0.3620 C.3   1 <1>  -0.1600 
 21 C       -5.8500     0.9390     0.9310 C.3   1 <1>  -0.2400 
 22 H       -3.2430     0.9900    -0.1120 H     1 <1>   0.0800 
 23 H       -3.3690    -0.0440    -1.5090 H     1 <1>   0.0800 
 24 H       -1.2950    -1.8750    -1.7090 H     1 <1>   0.0800 
 25 H       -0.4240    -1.9270    -0.1990 H     1 <1>   0.0800 
 26 H        0.8710     2.1250    -1.3500 H     1 <1>   0.1500 
 27 H        2.1560    -0.9730     1.2290 H     1 <1>   0.1500 
 28 H       -3.3280    -0.8820     1.3730 H     1 <1>   0.0800 
 29 H       -2.2480    -2.7800     0.8930 H     1 <1>   0.0800 
 30 H       -3.4460    -2.8360    -1.8800 H     1 <1>   0.0800 
 31 H       -2.5070    -4.1110    -1.1670 H     1 <1>   0.0800 
 32 H        4.5880    -1.0330     0.5200 H     1 <1>   0.0800 
 33 H        5.1530     0.5290    -0.0560 H     1 <1>   0.0800 
 34 H        4.7120    -0.7190    -1.2060 H     1 <1>   0.0800 
 35 H       -6.3960    -1.4920    -1.1460 H     1 <1>   0.4000 
 36 H       -4.9500    -3.1050     1.5570 H     1 <1>   0.0800 
 37 H       -6.3180    -3.1690     0.5070 H     1 <1>   0.0800 
 38 H       -6.9390    -0.8940     1.0380 H     1 <1>   0.0800 
 39 H       -5.6440    -0.7810     2.1720 H     1 <1>   0.0800 
 40 H       -4.2550    -4.7980     0.2090 H     1 <1>   0.0800 
 41 H       -5.1240    -4.2230    -1.1790 H     1 <1>   0.0800 
 42 H       -5.9950     1.1870    -0.1060 H     1 <1>   0.0800 
 43 H       -4.9050     1.3320     1.2590 H     1 <1>   0.0800 
 44 H       -6.6210     1.4230     1.5040 H     1 <1>   0.0800 
@<TRIPOS>BOND
  1   1   2  2   
  2   1   3  2   
  3   1   4  am  
  4   1   5  1   
  5   4   6  1   
  6   4   7  1   
  7   5   8  1   
  8   5   9  2   
  9   6  10  1   
 10   6  22  1   
 11   6  23  1   
 12   7  11  1   
 13   7  24  1   
 14   7  25  1   
 15   8  12  2   
 16   8  26  1   
 17   9  13  1   
 18   9  27  1   
 19  10  11  1   
 20  10  14  1   
 21  10  28  1   
 22  11  15  1   
 23  11  29  1   
 24  12  13  1   
 25  13  16  1   
 26  14  17  1   
 27  14  18  1   
 28  14  19  1   
 29  15  20  1   
 30  15  30  1   
 31  15  31  1   
 32  16  32  1   
 33  16  33  1   
 34  16  34  1   
 35  17  35  1   
 36  18  20  1   
 37  18  36  1   
 38  18  37  1   
 39  19  21  1   
 40  19  38  1   
 41  19  39  1   
 42  20  40  1   
 43  20  41  1   
 44  21  42  1   
 45  21  43  1   
 46  21  44  1   
@<TRIPOS>SUBSTRUCTURE
  1 ****   4 GROUP 4 **** **** 0

# MOE 2024.06 (io_trps.svl 2023.06)
