@<TRIPOS>MOLECULE
NONAME
47 49 1 0 0 
SMALL
USER_CHARGES


@<TRIPOS>ATOM
  1 S       -0.7120    -0.0470    -0.3310 S.3   1 <1>  -0.3320 
  2 C       -0.3930    -1.8060    -0.1720 C.ar  1 <1>   0.1020 
  3 C        0.9280     0.7980    -0.4530 C.3   1 <1>  -0.0100 
  4 C       -1.4840    -2.6290    -0.0660 C.ar  1 <1>  -0.1500 
  5 C        0.8990    -2.3280    -0.1560 C.ar  1 <1>  -0.1500 
  6 C       -1.3120    -4.0080     0.0610 C.ar  1 <1>   0.3610 
  7 C        1.0780    -3.6850    -0.0320 C.ar  1 <1>  -0.1500 
  8 N       -2.4050    -4.8500     0.1670 N.ar  1 <1>  -0.1790 
  9 C       -0.0160    -4.5620     0.0800 C.ar  1 <1>   0.0000 
 10 C       -2.3220    -6.1760     0.2860 C.ar  1 <1>   0.4610 
 11 C        0.1010    -5.9800     0.2140 C.ar  1 <1>  -0.1430 
 12 N       -3.4510    -6.8980     0.3770 N.pl3 1 <1>  -0.8690 
 13 C       -1.0240    -6.7420     0.3130 C.ar  1 <1>  -0.1500 
 14 C        1.4760    -6.6360     0.2480 C.3   1 <1>  -0.0970 
 15 C       -3.5550    -8.3750     0.4780 C.3   1 <1>   0.2090 
 16 C       -4.9740    -8.7940     0.0900 C.3   1 <1>  -0.1600 
 17 C       -5.2040   -10.3100     0.2360 C.3   1 <1>  -0.0800 
 18 C       -4.3390   -11.1340    -0.7390 C.3   1 <1>   0.1200 
 19 C       -6.6890   -10.6460     0.0170 C.3   1 <1>  -0.1600 
 20 O       -4.6090   -12.4910    -0.5700 O.3   1 <1>  -0.5600 
 21 C       -6.8930   -12.1650     0.0530 C.3   1 <1>  -0.1600 
 22 C       -5.9120   -12.8730    -0.8880 C.3   1 <1>   0.1200 
 23 H        0.7420     1.8530    -0.5490 H     1 <1>   0.0800 
 24 H        1.4340     0.4220    -1.3240 H     1 <1>   0.0800 
 25 H        1.4800     0.5900     0.4450 H     1 <1>   0.0800 
 26 H       -2.4650    -2.1910    -0.0820 H     1 <1>   0.1500 
 27 H        1.7530    -1.6810    -0.2390 H     1 <1>   0.1500 
 28 H        2.0820    -4.0740    -0.0210 H     1 <1>   0.1500 
 29 H       -3.3290    -4.4300     0.1460 H     1 <1>   0.4570 
 30 H       -4.3830    -6.4700     0.3980 H     1 <1>   0.4000 
 31 H       -0.9440    -7.8080     0.4190 H     1 <1>   0.1500 
 32 H        2.0490    -6.2610     1.0780 H     1 <1>   0.0800 
 33 H        2.0100    -6.4340    -0.6650 H     1 <1>   0.0800 
 34 H        1.3960    -7.7040     0.3560 H     1 <1>   0.0800 
 35 H       -3.3460    -8.6830     1.4900 H     1 <1>   0.0800 
 36 H       -2.8410    -8.8390    -0.1830 H     1 <1>   0.0800 
 37 H       -5.1710    -8.5020    -0.9270 H     1 <1>   0.0800 
 38 H       -5.6710    -8.2850     0.7330 H     1 <1>   0.0800 
 39 H       -4.9370   -10.6030     1.2380 H     1 <1>   0.0800 
 40 H       -3.2920   -10.9970    -0.5390 H     1 <1>   0.0800 
 41 H       -4.5400   -10.8710    -1.7630 H     1 <1>   0.0800 
 42 H       -7.0080   -10.2730    -0.9410 H     1 <1>   0.0800 
 43 H       -7.2940   -10.1830     0.7770 H     1 <1>   0.0800 
 44 H       -7.9020   -12.4070    -0.2310 H     1 <1>   0.0800 
 45 H       -6.7360   -12.5330     1.0530 H     1 <1>   0.0800 
 46 H       -5.9790   -13.9410    -0.7710 H     1 <1>   0.0800 
 47 H       -6.1040   -12.6200    -1.9170 H     1 <1>   0.0800 
@<TRIPOS>BOND
  1   1   2  1   
  2   1   3  1   
  3   2   4  ar  
  4   2   5  ar  
  5   3  23  1   
  6   3  24  1   
  7   3  25  1   
  8   4   6  ar  
  9   4  26  1   
 10   5   7  ar  
 11   5  27  1   
 12   6   8  ar  
 13   6   9  ar  
 14   7   9  ar  
 15   7  28  1   
 16   8  10  ar  
 17   8  29  1   
 18   9  11  ar  
 19  10  12  1   
 20  10  13  ar  
 21  11  13  ar  
 22  11  14  1   
 23  12  15  1   
 24  12  30  1   
 25  13  31  1   
 26  14  32  1   
 27  14  33  1   
 28  14  34  1   
 29  15  16  1   
 30  15  35  1   
 31  15  36  1   
 32  16  17  1   
 33  16  37  1   
 34  16  38  1   
 35  17  18  1   
 36  17  19  1   
 37  17  39  1   
 38  18  20  1   
 39  18  40  1   
 40  18  41  1   
 41  19  21  1   
 42  19  42  1   
 43  19  43  1   
 44  20  22  1   
 45  21  22  1   
 46  21  44  1   
 47  21  45  1   
 48  22  46  1   
 49  22  47  1   
@<TRIPOS>SUBSTRUCTURE
  1 ****  10 GROUP 4 **** **** 0

# MOE 2024.06 (io_trps.svl 2023.06)
