@<TRIPOS>MOLECULE
NONAME
47 49 1 0 0 
SMALL
USER_CHARGES


@<TRIPOS>ATOM
  1 O       -0.3330     1.3000     0.8660 O.2   1 <1>  -0.5700 
  2 C       -0.1190     2.4480     0.5240 C.2   1 <1>   0.6160 
  3 N       -1.1860     3.2870     0.2820 N.am  1 <1>  -0.6600 
  4 C        1.2420     2.8960     0.3890 C.2   1 <1>  -0.1360 
  5 C       -2.5570     2.9660     0.7940 C.3   1 <1>   0.1400 
  6 C       -1.1410     4.4840    -0.6010 C.3   1 <1>   0.1400 
  7 C        2.3490     2.1210     0.3140 C.2   1 <1>  -0.1780 
  8 C       -3.5570     2.7460    -0.3680 C.3   1 <1>   0.0000 
  9 C       -2.1120     4.3070    -1.7740 C.3   1 <1>  -0.1600 
 10 C        3.7280     2.5220     0.1870 C.ar  1 <1>   0.0280 
 11 C       -4.9740     2.4630     0.1610 C.3   1 <1>   0.2000 
 12 C       -3.5370     3.9770    -1.3000 C.3   1 <1>  -0.1600 
 13 C       -3.2390     1.4390    -1.1150 C.3   1 <1>  -0.1600 
 14 C        4.7040     1.5660    -0.0900 C.ar  1 <1>  -0.1500 
 15 C        4.1490     3.8440     0.3320 C.ar  1 <1>  -0.1500 
 16 O       -5.2860     3.2760     1.2530 O.3   1 <1>  -0.5600 
 17 C       -4.9840     0.9790     0.5450 C.3   1 <1>  -0.1600 
 18 C       -3.8610     0.3230    -0.2700 C.3   1 <1>  -0.1600 
 19 C        6.0370     1.9100    -0.2220 C.ar  1 <1>  -0.1500 
 20 C        5.4800     4.1960     0.2000 C.ar  1 <1>  -0.1500 
 21 C       -6.6340     3.3000     1.6020 C.3   1 <1>   0.0400 
 22 C        6.4290     3.2290    -0.0780 C.ar  1 <1>  -0.1500 
 23 H        1.3400     3.9590     0.3600 H     1 <1>   0.1500 
 24 H       -2.5290     2.0980     1.4290 H     1 <1>   0.0800 
 25 H       -2.8870     3.7910     1.4000 H     1 <1>   0.0800 
 26 H       -1.4180     5.3510    -0.0260 H     1 <1>   0.0800 
 27 H       -0.1530     4.6390    -0.9950 H     1 <1>   0.0800 
 28 H        2.2100     1.0530     0.3490 H     1 <1>   0.1500 
 29 H       -2.1300     5.2120    -2.3560 H     1 <1>   0.0800 
 30 H       -1.7470     3.5200    -2.4110 H     1 <1>   0.0800 
 31 H       -5.6870     2.6420    -0.6270 H     1 <1>   0.0800 
 32 H       -4.1720     3.8090    -2.1530 H     1 <1>   0.0800 
 33 H       -3.9300     4.8220    -0.7620 H     1 <1>   0.0800 
 34 H       -3.7130     1.4480    -2.0810 H     1 <1>   0.0800 
 35 H       -2.1830     1.2830    -1.2540 H     1 <1>   0.0800 
 36 H        4.4150     0.5370    -0.2050 H     1 <1>   0.1500 
 37 H        3.4350     4.6130     0.5560 H     1 <1>   0.1500 
 38 H       -4.7770     0.8650     1.5950 H     1 <1>   0.0800 
 39 H       -5.9350     0.5360     0.3130 H     1 <1>   0.0800 
 40 H       -3.1170    -0.0780     0.3980 H     1 <1>   0.0800 
 41 H       -4.2320    -0.4730    -0.8930 H     1 <1>   0.0800 
 42 H        6.7700     1.1530    -0.4380 H     1 <1>   0.1500 
 43 H        5.7810     5.2230     0.3160 H     1 <1>   0.1500 
 44 H       -6.7510     3.9720     2.4330 H     1 <1>   0.0800 
 45 H       -6.9480     2.3120     1.8900 H     1 <1>   0.0800 
 46 H       -7.2120     3.6540     0.7660 H     1 <1>   0.0800 
 47 H        7.4650     3.5000    -0.1810 H     1 <1>   0.1500 
@<TRIPOS>BOND
  1   1   2  2   
  2   2   3  am  
  3   2   4  1   
  4   3   5  1   
  5   3   6  1   
  6   4   7  2   
  7   4  23  1   
  8   5   8  1   
  9   5  24  1   
 10   5  25  1   
 11   6   9  1   
 12   6  26  1   
 13   6  27  1   
 14   7  10  1   
 15   7  28  1   
 16   8  11  1   
 17   8  12  1   
 18   8  13  1   
 19   9  12  1   
 20   9  29  1   
 21   9  30  1   
 22  10  14  ar  
 23  10  15  ar  
 24  11  16  1   
 25  11  17  1   
 26  11  31  1   
 27  12  32  1   
 28  12  33  1   
 29  13  18  1   
 30  13  34  1   
 31  13  35  1   
 32  14  19  ar  
 33  14  36  1   
 34  15  20  ar  
 35  15  37  1   
 36  16  21  1   
 37  17  18  1   
 38  17  38  1   
 39  17  39  1   
 40  18  40  1   
 41  18  41  1   
 42  19  22  ar  
 43  19  42  1   
 44  20  22  ar  
 45  20  43  1   
 46  21  44  1   
 47  21  45  1   
 48  21  46  1   
 49  22  47  1   
@<TRIPOS>SUBSTRUCTURE
  1 ****   2 GROUP 4 **** **** 0

# MOE 2024.06 (io_trps.svl 2023.06)
