@<TRIPOS>MOLECULE
NONAME
53 55 1 0 0 
SMALL
USER_CHARGES


@<TRIPOS>ATOM
  1 O        0.8300    -0.1470     2.4110 O.2   1 <1>  -0.5700 
  2 C        1.7470     0.2760     1.7350 C.2   1 <1>   0.5440 
  3 N        1.5720     1.5230     1.2030 N.am  1 <1>  -0.5470 
  4 C        2.9610    -0.4770     1.5690 C.ar  1 <1>   0.0860 
  5 C        2.3730     2.3910     0.4350 C.ar  1 <1>   0.1170 
  6 C        3.0260    -1.6200     0.7480 C.ar  1 <1>   0.4100 
  7 C        4.1150    -0.0840     2.2340 C.ar  1 <1>  -0.1500 
  8 C        2.1050     3.7640     0.4930 C.ar  1 <1>   0.0820 
  9 C        3.4030     1.9460    -0.3880 C.ar  1 <1>  -0.1500 
 10 N        4.1280    -2.3530     0.5990 N.ar  1 <1>  -0.6200 
 11 N        1.9480    -2.0840     0.0240 N.pl3 1 <1>  -0.8380 
 12 C        5.2530    -0.8370     2.0640 C.ar  1 <1>  -0.1500 
 13 O        1.0680     4.1580     1.2930 O.3   1 <1>  -0.3620 
 14 C        2.8730     4.6630    -0.2400 C.ar  1 <1>  -0.1500 
 15 C        4.1630     2.8430    -1.1150 C.ar  1 <1>  -0.1500 
 16 C        5.2020    -1.9520     1.2470 C.ar  1 <1>   0.1600 
 17 C        1.4600    -3.4770     0.2770 C.3   1 <1>   0.2090 
 18 C        1.2240    -1.2590    -0.9760 C.3   1 <1>   0.2090 
 19 C        0.7100     5.5160     1.4290 C.3   1 <1>   0.0400 
 20 C        3.9090     4.2010    -1.0460 C.ar  1 <1>   0.0820 
 21 C       -0.0390    -3.6580    -0.0440 C.3   1 <1>   0.2000 
 22 C       -0.2780    -1.1860    -0.6530 C.3   1 <1>  -0.1600 
 23 O        4.7100     5.0070    -1.7920 O.3   1 <1>  -0.3620 
 24 O       -0.1910    -4.0210    -1.3760 O.3   1 <1>  -0.6800 
 25 C       -0.8150    -2.3530     0.2150 C.3   1 <1>  -0.0800 
 26 C        4.5460     6.4080    -1.7940 C.3   1 <1>   0.0400 
 27 C       -2.3270    -2.5610     0.0480 C.3   1 <1>   0.1200 
 28 O       -2.9940    -1.3840     0.3510 O.3   1 <1>  -0.6800 
 29 H        0.7290     1.9760     1.5650 H     1 <1>   0.3700 
 30 H        4.1100     0.7880     2.8650 H     1 <1>   0.1500 
 31 H        3.6250     0.9010    -0.4810 H     1 <1>   0.1500 
 32 H        6.1690    -0.5710     2.5590 H     1 <1>   0.1500 
 33 H        2.6700     5.7120    -0.1900 H     1 <1>   0.1500 
 34 H        4.9600     2.4920    -1.7460 H     1 <1>   0.1500 
 35 H        6.0950    -2.5420     1.1220 H     1 <1>   0.1500 
 36 H        2.0500    -4.1800    -0.2850 H     1 <1>   0.0800 
 37 H        1.6090    -3.6910     1.3220 H     1 <1>   0.0800 
 38 H        1.6390    -0.2670    -1.0210 H     1 <1>   0.0800 
 39 H        1.3640    -1.7080    -1.9430 H     1 <1>   0.0800 
 40 H       -0.1250     5.5750     2.1040 H     1 <1>   0.0800 
 41 H        0.4280     5.9030     0.4660 H     1 <1>   0.0800 
 42 H        1.5460     6.0590     1.8360 H     1 <1>   0.0800 
 43 H       -0.4370    -4.4620     0.5500 H     1 <1>   0.0800 
 44 H       -0.4790    -0.2600    -0.1450 H     1 <1>   0.0800 
 45 H       -0.8160    -1.1460    -1.5840 H     1 <1>   0.0800 
 46 H        0.2810    -3.3720    -1.9310 H     1 <1>   0.4000 
 47 H       -0.6350    -2.1040     1.2470 H     1 <1>   0.0800 
 48 H        5.2880     6.8300    -2.4480 H     1 <1>   0.0800 
 49 H        4.6890     6.7780    -0.7940 H     1 <1>   0.0800 
 50 H        3.5620     6.6450    -2.1580 H     1 <1>   0.0800 
 51 H       -2.6830    -3.3280     0.7140 H     1 <1>   0.0800 
 52 H       -2.5720    -2.8320    -0.9650 H     1 <1>   0.0800 
 53 H       -2.6820    -1.0320     1.2080 H     1 <1>   0.4000 
@<TRIPOS>BOND
  1   1   2  2   
  2   2   3  am  
  3   2   4  1   
  4   3   5  1   
  5   3  29  1   
  6   4   6  ar  
  7   4   7  ar  
  8   5   8  ar  
  9   5   9  ar  
 10   6  10  ar  
 11   6  11  1   
 12   7  12  ar  
 13   7  30  1   
 14   8  13  1   
 15   8  14  ar  
 16   9  15  ar  
 17   9  31  1   
 18  10  16  ar  
 19  11  17  1   
 20  11  18  1   
 21  12  16  ar  
 22  12  32  1   
 23  13  19  1   
 24  14  20  ar  
 25  14  33  1   
 26  15  20  ar  
 27  15  34  1   
 28  16  35  1   
 29  17  21  1   
 30  17  36  1   
 31  17  37  1   
 32  18  22  1   
 33  18  38  1   
 34  18  39  1   
 35  19  40  1   
 36  19  41  1   
 37  19  42  1   
 38  20  23  1   
 39  21  24  1   
 40  21  25  1   
 41  21  43  1   
 42  22  25  1   
 43  22  44  1   
 44  22  45  1   
 45  23  26  1   
 46  24  46  1   
 47  25  27  1   
 48  25  47  1   
 49  26  48  1   
 50  26  49  1   
 51  26  50  1   
 52  27  28  1   
 53  27  51  1   
 54  27  52  1   
 55  28  53  1   
@<TRIPOS>SUBSTRUCTURE
  1 ****   3 GROUP 4 **** **** 0

# MOE 2024.06 (io_trps.svl 2023.06)
