@<TRIPOS>MOLECULE
NONAME
47 50 1 0 0 
SMALL
USER_CHARGES


@<TRIPOS>ATOM
  1 O       -0.2470     0.2040     0.9650 O.2   1 <1>  -0.5700 
  2 C       -1.2630     0.8680     0.8940 C.2   1 <1>   0.5440 
  3 N       -2.4550     0.2240     0.6540 N.am  1 <1>  -0.6600 
  4 C       -1.1910     2.3110     1.0430 C.ar  1 <1>   0.0860 
  5 C       -3.6580     0.8680     0.0660 C.3   1 <1>   0.1400 
  6 C       -2.5410    -1.2520     0.5220 C.3   1 <1>   0.1400 
  7 C       -0.2250     3.0460     0.3620 C.ar  1 <1>  -0.1500 
  8 C       -2.0710     3.0110     1.8670 C.ar  1 <1>  -0.1500 
  9 C       -4.3650    -0.2510    -0.6950 C.3   1 <1>   0.2000 
 10 C       -3.9580    -1.5360     0.0200 C.3   1 <1>  -0.0800 
 11 C       -0.1230     4.4280     0.4630 C.ar  1 <1>   0.0540 
 12 C       -1.9940     4.3850     1.9880 C.ar  1 <1>  -0.1500 
 13 O       -5.7410    -0.0980    -0.6670 O.3   1 <1>  -0.6800 
 14 C       -4.0560    -2.7830    -0.8700 C.3   1 <1>   0.0210 
 15 C        0.8970     5.1510    -0.2660 C.2   1 <1>  -0.0540 
 16 C       -1.0280     5.0860     1.2910 C.ar  1 <1>  -0.1500 
 17 C       -3.5590    -4.0120    -0.1350 C.2   1 <1>   0.1080 
 18 C        0.8510     6.4730    -0.7210 C.2   1 <1>   0.1390 
 19 C        2.1190     4.7250    -0.6770 C.2   1 <1>  -0.3020 
 20 N       -4.1410    -4.4790     0.9260 N.2   1 <1>  -0.7070 
 21 C       -2.4420    -4.7580    -0.4930 C.2   1 <1>  -0.1500 
 22 N        1.9280     6.8360    -1.3460 N.2   1 <1>  -0.7070 
 23 N        2.7140     5.7460    -1.3160 N.pl3 1 <1>   0.3000 
 24 N       -3.4020    -5.5490     1.2750 N.pl3 1 <1>   0.3000 
 25 C       -2.3660    -5.7380     0.4310 C.2   1 <1>  -0.3320 
 26 C       -1.3510    -6.8580     0.5630 C.3   1 <1>  -0.0600 
 27 H       -4.2820     1.2390     0.8600 H     1 <1>   0.0800 
 28 H       -3.3810     1.6680    -0.5990 H     1 <1>   0.0800 
 29 H       -1.8050    -1.5850    -0.1900 H     1 <1>   0.0800 
 30 H       -2.3570    -1.7320     1.4690 H     1 <1>   0.0800 
 31 H        0.4660     2.5130    -0.2680 H     1 <1>   0.1500 
 32 H       -2.8140     2.4660     2.4230 H     1 <1>   0.1500 
 33 H       -4.0420    -0.2510    -1.7220 H     1 <1>   0.0800 
 34 H       -4.5760    -1.6770     0.8900 H     1 <1>   0.0800 
 35 H       -2.6810     4.9100     2.6300 H     1 <1>   0.1500 
 36 H       -6.0860    -0.2990     0.2250 H     1 <1>   0.4000 
 37 H       -3.4800    -2.6460    -1.7660 H     1 <1>   0.0800 
 38 H       -5.0820    -2.9430    -1.1520 H     1 <1>   0.0800 
 39 H       -0.9710     6.1540     1.3980 H     1 <1>   0.1500 
 40 H        0.0100     7.1290    -0.5770 H     1 <1>   0.1500 
 41 H        2.5830     3.7660    -0.5410 H     1 <1>   0.1500 
 42 H       -1.7940    -4.5710    -1.3310 H     1 <1>   0.1500 
 43 H        3.6500     5.7360    -1.7420 H     1 <1>   0.2700 
 44 H       -3.6310    -6.1280     2.0920 H     1 <1>   0.2700 
 45 H       -0.6250    -6.7940    -0.2280 H     1 <1>   0.0800 
 46 H       -1.8410    -7.8140     0.5020 H     1 <1>   0.0800 
 47 H       -0.8380    -6.7860     1.5060 H     1 <1>   0.0800 
@<TRIPOS>BOND
  1   1   2  2   
  2   2   3  am  
  3   2   4  1   
  4   3   5  1   
  5   3   6  1   
  6   4   7  ar  
  7   4   8  ar  
  8   5   9  1   
  9   5  27  1   
 10   5  28  1   
 11   6  10  1   
 12   6  29  1   
 13   6  30  1   
 14   7  11  ar  
 15   7  31  1   
 16   8  12  ar  
 17   8  32  1   
 18   9  10  1   
 19   9  13  1   
 20   9  33  1   
 21  10  14  1   
 22  10  34  1   
 23  11  15  1   
 24  11  16  ar  
 25  12  16  ar  
 26  12  35  1   
 27  13  36  1   
 28  14  17  1   
 29  14  37  1   
 30  14  38  1   
 31  15  18  1   
 32  15  19  2   
 33  16  39  1   
 34  17  20  2   
 35  17  21  1   
 36  18  22  2   
 37  18  40  1   
 38  19  23  1   
 39  19  41  1   
 40  20  24  1   
 41  21  25  2   
 42  21  42  1   
 43  22  23  1   
 44  23  43  1   
 45  24  25  1   
 46  24  44  1   
 47  25  26  1   
 48  26  45  1   
 49  26  46  1   
 50  26  47  1   
@<TRIPOS>SUBSTRUCTURE
  1 ****   2 GROUP 4 **** **** 0

# MOE 2024.06 (io_trps.svl 2023.06)
