@<TRIPOS>MOLECULE
NONAME
50 52 1 0 0 
SMALL
USER_CHARGES


@<TRIPOS>ATOM
  1 S        0.4030     0.1920     0.3740 S.o2  1 <1>   1.3330 
  2 O        0.2590    -1.0570     1.0890 O.2   1 <1>  -0.6500 
  3 O       -0.0800     1.4160     0.9710 O.2   1 <1>  -0.6500 
  4 N       -0.3340     0.0080    -1.1450 N.am  1 <1>  -0.8490 
  5 C        2.1300     0.4250    -0.0370 C.3   1 <1>  -0.0550 
  6 C       -0.2520    -1.3570    -1.6740 C.3   1 <1>   0.1160 
  7 C       -1.7270     0.4630    -1.1460 C.3   1 <1>   0.1160 
  8 C        3.0060     0.7120     1.1930 C.3   1 <1>  -0.0800 
  9 C        4.4560     0.9850     0.8210 C.3   1 <1>   0.2200 
 10 C        3.1150    -0.4370     2.1900 C.3   1 <1>   0.1200 
 11 N        4.6980     2.4440     0.8450 N.am  1 <1>  -0.7300 
 12 C        5.2640     0.2360     1.8830 C.3   1 <1>   0.1200 
 13 O        4.3420    -0.2410     2.8120 O.3   1 <1>  -0.5600 
 14 C        4.6070     3.2550    -0.2480 C.2   1 <1>   0.5440 
 15 O        4.4480     2.7400    -1.3370 O.2   1 <1>  -0.5700 
 16 C        4.6580     4.6900    -0.0880 C.ar  1 <1>   0.0860 
 17 C        5.5500     5.5170    -0.8200 C.ar  1 <1>   0.0000 
 18 C        3.8300     5.3190     0.8030 C.ar  1 <1>  -0.1500 
 19 C        5.5170     6.9090    -0.5710 C.ar  1 <1>   0.3100 
 20 C        6.4740     5.0340    -1.7720 C.ar  1 <1>  -0.1500 
 21 C        3.8770     6.7020     0.9760 C.ar  1 <1>   0.3930 
 22 N        4.6850     7.4870     0.3240 N.ar  1 <1>  -0.6200 
 23 C        6.3960     7.7450    -1.2800 C.ar  1 <1>  -0.1500 
 24 C        7.3190     5.8750    -2.4460 C.ar  1 <1>  -0.1500 
 25 O        3.0250     7.2170     1.8820 O.3   1 <1>  -0.3630 
 26 C        7.2810     7.2480    -2.1980 C.ar  1 <1>  -0.1500 
 27 C        2.9720     8.6090     2.1240 C.3   1 <1>   0.0400 
 28 H        2.4990    -0.4440    -0.5460 H     1 <1>   0.0800 
 29 H        2.2100     1.2560    -0.7120 H     1 <1>   0.0800 
 30 H       -0.6540    -1.3900    -2.6730 H     1 <1>   0.0800 
 31 H       -0.8080    -2.0370    -1.0490 H     1 <1>   0.0800 
 32 H        0.7730    -1.6810    -1.7110 H     1 <1>   0.0800 
 33 H       -2.1570     0.3500    -2.1260 H     1 <1>   0.0800 
 34 H       -1.7740     1.5060    -0.8780 H     1 <1>   0.0800 
 35 H       -2.3070    -0.1030    -0.4350 H     1 <1>   0.0800 
 36 H        2.5970     1.5550     1.7240 H     1 <1>   0.0800 
 37 H        4.7020     0.5870    -0.1500 H     1 <1>   0.0800 
 38 H        3.1380    -1.3960     1.6990 H     1 <1>   0.0800 
 39 H        2.3330    -0.4210     2.9300 H     1 <1>   0.0800 
 40 H        4.7790     2.8540     1.7780 H     1 <1>   0.3700 
 41 H        5.9760     0.8650     2.3870 H     1 <1>   0.0800 
 42 H        5.7610    -0.6140     1.4500 H     1 <1>   0.0800 
 43 H        3.1160     4.7670     1.3860 H     1 <1>   0.1500 
 44 H        6.5170     3.9780    -1.9790 H     1 <1>   0.1500 
 45 H        6.3510     8.7990    -1.0760 H     1 <1>   0.1500 
 46 H        8.0160     5.4910    -3.1710 H     1 <1>   0.1500 
 47 H        7.9480     7.9010    -2.7350 H     1 <1>   0.1500 
 48 H        2.2240     8.7950     2.8740 H     1 <1>   0.0800 
 49 H        2.7120     9.1110     1.2090 H     1 <1>   0.0800 
 50 H        3.9360     8.9390     2.4710 H     1 <1>   0.0800 
@<TRIPOS>BOND
  1   1   2  2   
  2   1   3  2   
  3   1   4  am  
  4   1   5  1   
  5   4   6  1   
  6   4   7  1   
  7   5   8  1   
  8   5  28  1   
  9   5  29  1   
 10   6  30  1   
 11   6  31  1   
 12   6  32  1   
 13   7  33  1   
 14   7  34  1   
 15   7  35  1   
 16   8   9  1   
 17   8  10  1   
 18   8  36  1   
 19   9  11  1   
 20   9  12  1   
 21   9  37  1   
 22  10  13  1   
 23  10  38  1   
 24  10  39  1   
 25  11  14  am  
 26  11  40  1   
 27  12  13  1   
 28  12  41  1   
 29  12  42  1   
 30  14  15  2   
 31  14  16  1   
 32  16  17  ar  
 33  16  18  ar  
 34  17  19  ar  
 35  17  20  ar  
 36  18  21  ar  
 37  18  43  1   
 38  19  22  ar  
 39  19  23  ar  
 40  20  24  ar  
 41  20  44  1   
 42  21  22  ar  
 43  21  25  1   
 44  23  26  ar  
 45  23  45  1   
 46  24  26  ar  
 47  24  46  1   
 48  25  27  1   
 49  26  47  1   
 50  27  48  1   
 51  27  49  1   
 52  27  50  1   
@<TRIPOS>SUBSTRUCTURE
  1 ****  14 GROUP 4 **** **** 0

# MOE 2024.06 (io_trps.svl 2023.06)
