@<TRIPOS>MOLECULE
NONAME
52 53 1 0 0 
SMALL
USER_CHARGES


@<TRIPOS>ATOM
  1 O        0.1720     0.1750     2.2360 O.2   1 <1>  -0.5700 
  2 C        1.0180    -0.4670     1.6590 C.2   1 <1>   0.5690 
  3 N        2.1420     0.0850     1.1090 N.am  1 <1>  -0.4940 
  4 C        0.8560    -1.9700     1.4890 C.3   1 <1>  -0.0190 
  5 C        2.5690     1.4340     1.0850 C.2   1 <1>  -0.0880 
  6 C        0.5240    -2.2720     0.0260 C.3   1 <1>   0.1400 
  7 C       -0.2040    -2.6240     2.4020 C.3   1 <1>  -0.1600 
  8 N        3.5440     1.9220     0.2680 N.pl3 1 <1>   0.3140 
  9 C        2.1420     2.4750     1.8370 C.2   1 <1>  -0.1500 
 10 N        0.5390    -3.7450    -0.1630 N.am  1 <1>  -0.6600 
 11 C       -0.3090    -4.1360     2.1220 C.3   1 <1>  -0.1600 
 12 N        3.7590     3.2430     0.5020 N.2   1 <1>  -0.7070 
 13 C        4.2630     1.1320    -0.7800 C.3   1 <1>   0.1760 
 14 C        2.9130     3.5560     1.4340 C.2   1 <1>   0.1390 
 15 C        1.5050    -4.3560    -0.9300 C.2   1 <1>   0.5690 
 16 C       -0.5070    -4.4480     0.6300 C.3   1 <1>   0.1400 
 17 C        5.3190     0.2120    -0.1210 C.3   1 <1>  -0.1600 
 18 C        4.8540     2.0460    -1.8790 C.3   1 <1>  -0.1600 
 19 O        2.4380    -3.7190    -1.3710 O.2   1 <1>  -0.5700 
 20 C        1.4890    -5.8620    -1.2180 C.3   1 <1>   0.1810 
 21 C        5.2500    -1.2330    -0.6400 C.3   1 <1>  -0.2400 
 22 C        5.4230     1.2800    -3.0830 C.3   1 <1>  -0.2400 
 23 O        0.2660    -6.3010    -1.7590 O.3   1 <1>  -0.5600 
 24 C        0.2640    -7.6390    -2.1420 C.3   1 <1>   0.0400 
 25 H        2.7640    -0.5810     0.6480 H     1 <1>   0.3700 
 26 H        1.8090    -2.4150     1.7130 H     1 <1>   0.0800 
 27 H        1.2340    -1.8010    -0.6310 H     1 <1>   0.0800 
 28 H       -0.4520    -1.8900    -0.2190 H     1 <1>   0.0800 
 29 H       -1.1610    -2.1620     2.2250 H     1 <1>   0.0800 
 30 H        0.0530    -2.4590     3.4350 H     1 <1>   0.0800 
 31 H        1.3760     2.4800     2.5900 H     1 <1>   0.1500 
 32 H       -1.1290    -4.5500     2.6820 H     1 <1>   0.0800 
 33 H        0.5900    -4.6240     2.4570 H     1 <1>   0.0800 
 34 H        3.5160     0.5170    -1.2490 H     1 <1>   0.0800 
 35 H        2.8260     4.5480     1.8440 H     1 <1>   0.1500 
 36 H       -0.4660    -5.5120     0.4770 H     1 <1>   0.0800 
 37 H       -1.4760    -4.1060     0.3080 H     1 <1>   0.0800 
 38 H        5.1760     0.1910     0.9470 H     1 <1>   0.0800 
 39 H        6.3060     0.6060    -0.2950 H     1 <1>   0.0800 
 40 H        5.6290     2.6620    -1.4540 H     1 <1>   0.0800 
 41 H        4.0750     2.6990    -2.2340 H     1 <1>   0.0800 
 42 H        1.6720    -6.3990    -0.3060 H     1 <1>   0.0800 
 43 H        2.2690    -6.0850    -1.9240 H     1 <1>   0.0800 
 44 H        4.2900    -1.6750    -0.4380 H     1 <1>   0.0800 
 45 H        6.0030    -1.8320    -0.1580 H     1 <1>   0.0800 
 46 H        5.4230    -1.2710    -1.7010 H     1 <1>   0.0800 
 47 H        6.2810     0.6990    -2.7980 H     1 <1>   0.0800 
 48 H        5.7290     1.9770    -3.8430 H     1 <1>   0.0800 
 49 H        4.6780     0.6260    -3.5020 H     1 <1>   0.0800 
 50 H       -0.7120    -7.8750    -2.5280 H     1 <1>   0.0800 
 51 H        0.4750    -8.2560    -1.2860 H     1 <1>   0.0800 
 52 H        1.0020    -7.7900    -2.9110 H     1 <1>   0.0800 
@<TRIPOS>BOND
  1   1   2  2   
  2   2   3  am  
  3   2   4  1   
  4   3   5  1   
  5   3  25  1   
  6   4   6  1   
  7   4   7  1   
  8   4  26  1   
  9   5   8  1   
 10   5   9  2   
 11   6  10  1   
 12   6  27  1   
 13   6  28  1   
 14   7  11  1   
 15   7  29  1   
 16   7  30  1   
 17   8  12  1   
 18   8  13  1   
 19   9  14  1   
 20   9  31  1   
 21  10  15  am  
 22  10  16  1   
 23  11  16  1   
 24  11  32  1   
 25  11  33  1   
 26  12  14  2   
 27  13  17  1   
 28  13  18  1   
 29  13  34  1   
 30  14  35  1   
 31  15  19  2   
 32  15  20  1   
 33  16  36  1   
 34  16  37  1   
 35  17  21  1   
 36  17  38  1   
 37  17  39  1   
 38  18  22  1   
 39  18  40  1   
 40  18  41  1   
 41  20  23  1   
 42  20  42  1   
 43  20  43  1   
 44  21  44  1   
 45  21  45  1   
 46  21  46  1   
 47  22  47  1   
 48  22  48  1   
 49  22  49  1   
 50  23  24  1   
 51  24  50  1   
 52  24  51  1   
 53  24  52  1   
@<TRIPOS>SUBSTRUCTURE
  1 ****   3 GROUP 4 **** **** 0

# MOE 2024.06 (io_trps.svl 2023.06)
