@<TRIPOS>MOLECULE
NONAME
51 54 1 0 0 
SMALL
USER_CHARGES


@<TRIPOS>ATOM
  1 O        1.1780    -0.4960    -1.0310 O.3   1 <1>  -0.5600 
  2 C        2.1190    -1.2030    -0.2560 C.3   1 <1>   0.4240 
  3 C       -0.1710    -0.6830    -0.7360 C.3   1 <1>   0.1200 
  4 C        1.6400    -2.6400     0.0450 C.ar  1 <1>  -0.1440 
  5 C        2.3660    -0.4140     1.0410 C.3   1 <1>  -0.1600 
  6 C        3.4000    -1.2310    -1.1000 C.3   1 <1>  -0.1600 
  7 C       -0.5500    -2.1240    -1.0640 C.3   1 <1>  -0.0160 
  8 C        0.3790    -3.0770    -0.3390 C.ar  1 <1>  -0.1440 
  9 C        2.4670    -3.5320     0.7170 C.ar  1 <1>  -0.1500 
 10 C        2.9100     0.9870     0.7610 C.3   1 <1>   0.2090 
 11 C        3.9320     0.1760    -1.3650 C.3   1 <1>   0.2090 
 12 C       -0.0370    -4.3700    -0.0610 C.ar  1 <1>  -0.1500 
 13 C        2.0720    -4.8290     0.9960 C.ar  1 <1>   0.0820 
 14 N        4.1430     0.8740    -0.0660 N.pl3 1 <1>  -0.8380 
 15 C        0.7930    -5.2620     0.6130 C.ar  1 <1>   0.0820 
 16 O        3.0020    -5.5860     1.6460 O.3   1 <1>  -0.3630 
 17 C        5.2950     1.5760     0.2100 C.ar  1 <1>   0.7200 
 18 O        0.3800    -6.5270     0.9200 O.3   1 <1>  -0.3630 
 19 C        3.1240    -6.9660     1.3830 C.3   1 <1>   0.0400 
 20 N        6.4110     1.1550    -0.3700 N.ar  1 <1>  -0.6200 
 21 N        5.1880     2.6180     1.0350 N.ar  1 <1>  -0.6200 
 22 C       -0.9480    -6.9550     0.7130 C.3   1 <1>   0.0400 
 23 C        7.4970     1.8320    -0.1070 C.ar  1 <1>   0.4100 
 24 C        6.2940     3.2800     1.2790 C.ar  1 <1>   0.1600 
 25 N        8.6070     1.3470    -0.7310 N.pl3 1 <1>  -0.9000 
 26 C        7.5040     2.9370     0.7330 C.ar  1 <1>   0.0730 
 27 C        8.6900     3.6710     1.0170 C.1   1 <1>   0.4840 
 28 N        9.6410     4.2520     1.2580 N.1   1 <1>  -0.5570 
 29 H       -0.7390     0.0030    -1.3390 H     1 <1>   0.0800 
 30 H       -0.3420    -0.4640     0.3030 H     1 <1>   0.0800 
 31 H        3.0880    -0.9330     1.6430 H     1 <1>   0.0800 
 32 H        1.4630    -0.3520     1.6160 H     1 <1>   0.0800 
 33 H        3.1990    -1.7270    -2.0310 H     1 <1>   0.0800 
 34 H        4.1690    -1.7840    -0.5950 H     1 <1>   0.0800 
 35 H       -0.4720    -2.2800    -2.1250 H     1 <1>   0.0800 
 36 H       -1.5680    -2.2960    -0.7690 H     1 <1>   0.0800 
 37 H        3.4470    -3.2320     1.0380 H     1 <1>   0.1500 
 38 H        3.1160     1.4750     1.6980 H     1 <1>   0.0800 
 39 H        2.1790     1.5720     0.2280 H     1 <1>   0.0800 
 40 H        3.2210     0.7330    -1.9510 H     1 <1>   0.0800 
 41 H        4.8450     0.1130    -1.9310 H     1 <1>   0.0800 
 42 H       -1.0170    -4.6650    -0.3810 H     1 <1>   0.1500 
 43 H        4.1100    -7.2760     1.6750 H     1 <1>   0.0800 
 44 H        2.9790    -7.1380     0.3310 H     1 <1>   0.0800 
 45 H        2.3900    -7.4950     1.9620 H     1 <1>   0.0800 
 46 H       -1.0400    -7.9550     1.0980 H     1 <1>   0.0800 
 47 H       -1.1570    -6.9500    -0.3420 H     1 <1>   0.0800 
 48 H       -1.6140    -6.2970     1.2440 H     1 <1>   0.0800 
 49 H        6.2280     4.1280     1.9410 H     1 <1>   0.1500 
 50 H        9.5570     1.5570    -0.4140 H     1 <1>   0.4000 
 51 H        8.4920     0.4520    -1.2120 H     1 <1>   0.4000 
@<TRIPOS>BOND
  1   1   2  1   
  2   1   3  1   
  3   2   4  1   
  4   2   5  1   
  5   2   6  1   
  6   3   7  1   
  7   3  29  1   
  8   3  30  1   
  9   4   8  ar  
 10   4   9  ar  
 11   5  10  1   
 12   5  31  1   
 13   5  32  1   
 14   6  11  1   
 15   6  33  1   
 16   6  34  1   
 17   7   8  1   
 18   7  35  1   
 19   7  36  1   
 20   8  12  ar  
 21   9  13  ar  
 22   9  37  1   
 23  10  14  1   
 24  10  38  1   
 25  10  39  1   
 26  11  14  1   
 27  11  40  1   
 28  11  41  1   
 29  12  15  ar  
 30  12  42  1   
 31  13  15  ar  
 32  13  16  1   
 33  14  17  1   
 34  15  18  1   
 35  16  19  1   
 36  17  20  ar  
 37  17  21  ar  
 38  18  22  1   
 39  19  43  1   
 40  19  44  1   
 41  19  45  1   
 42  20  23  ar  
 43  21  24  ar  
 44  22  46  1   
 45  22  47  1   
 46  22  48  1   
 47  23  25  1   
 48  23  26  ar  
 49  24  26  ar  
 50  24  49  1   
 51  25  50  1   
 52  25  51  1   
 53  26  27  1   
 54  27  28  3   
@<TRIPOS>SUBSTRUCTURE
  1 ****   6 GROUP 4 **** **** 0

# MOE 2024.06 (io_trps.svl 2023.06)
