@<TRIPOS>MOLECULE
NONAME
39 40 1 0 0 
SMALL
USER_CHARGES


@<TRIPOS>ATOM
  1 S       -0.4170    -0.1630     0.5370 S.o2  1 <1>   1.4470 
  2 O       -1.1500    -0.8580     1.5660 O.2   1 <1>  -0.6500 
  3 O       -0.4190     1.2850     0.5710 O.2   1 <1>  -0.6500 
  4 N       -1.2650    -0.4330    -0.8870 N.am  1 <1>  -0.9140 
  5 C        1.2230    -0.8710     0.2370 C.ar  1 <1>  -0.0090 
  6 C       -2.7370    -0.4790    -0.8380 C.3   1 <1>   0.2760 
  7 C        1.3720    -2.2200    -0.0580 C.ar  1 <1>  -0.1500 
  8 C        2.3690    -0.0860     0.2900 C.ar  1 <1>  -0.1500 
  9 C       -3.4550     0.4030     0.2410 C.3   1 <1>   0.4230 
 10 C       -3.1740    -1.9420    -0.6990 C.3   1 <1>  -0.1600 
 11 C        2.6200    -2.7680    -0.2980 C.ar  1 <1>  -0.1500 
 12 C        3.6200    -0.6290     0.0510 C.ar  1 <1>  -0.1500 
 13 N       -3.0760     1.8390     0.1920 N.4   1 <1>  -0.8530 
 14 C       -4.9770     0.2900     0.1050 C.3   1 <1>  -0.1600 
 15 C       -4.7030    -2.0740    -0.7970 C.3   1 <1>  -0.1600 
 16 C        3.7510    -1.9730    -0.2460 C.ar  1 <1>  -0.1430 
 17 C       -5.4210    -1.1760     0.2210 C.3   1 <1>  -0.1600 
 18 C        5.1220    -2.5720    -0.5060 C.3   1 <1>  -0.0970 
 19 H       -0.9370     0.2740    -1.5440 H     1 <1>   0.4200 
 20 H       -3.0920    -0.1570    -1.8030 H     1 <1>   0.0800 
 21 H        0.5030    -2.8550    -0.1010 H     1 <1>   0.1500 
 22 H        2.2920     0.9630     0.5210 H     1 <1>   0.1500 
 23 H       -3.1970     0.0070     1.2110 H     1 <1>   0.0800 
 24 H       -2.7230    -2.5300    -1.4810 H     1 <1>   0.0800 
 25 H       -2.8490    -2.3390     0.2470 H     1 <1>   0.0800 
 26 H        2.7070    -3.8180    -0.5230 H     1 <1>   0.1500 
 27 H        4.4930     0.0000     0.1000 H     1 <1>   0.1500 
 28 H       -3.3120     2.2780    -0.7000 H     1 <1>   0.4500 
 29 H       -2.0520     1.9240     0.3420 H     1 <1>   0.4500 
 30 H       -3.5270     2.3560     0.9520 H     1 <1>   0.4500 
 31 H       -5.4610     0.8540     0.8840 H     1 <1>   0.0800 
 32 H       -5.2970     0.6750    -0.8490 H     1 <1>   0.0800 
 33 H       -5.0240    -1.8160    -1.7930 H     1 <1>   0.0800 
 34 H       -4.9830    -3.1000    -0.6270 H     1 <1>   0.0800 
 35 H       -5.2170    -1.5390     1.2150 H     1 <1>   0.0800 
 36 H       -6.4860    -1.2460     0.0670 H     1 <1>   0.0800 
 37 H        5.0490    -3.3930    -1.1980 H     1 <1>   0.0800 
 38 H        5.5420    -2.9320     0.4150 H     1 <1>   0.0800 
 39 H        5.7830    -1.8350    -0.9250 H     1 <1>   0.0800 
@<TRIPOS>BOND
  1   1   2  2   
  2   1   3  2   
  3   1   4  am  
  4   1   5  1   
  5   4   6  1   
  6   4  19  1   
  7   5   7  ar  
  8   5   8  ar  
  9   6   9  1   
 10   6  10  1   
 11   6  20  1   
 12   7  11  ar  
 13   7  21  1   
 14   8  12  ar  
 15   8  22  1   
 16   9  13  1   
 17   9  14  1   
 18   9  23  1   
 19  10  15  1   
 20  10  24  1   
 21  10  25  1   
 22  11  16  ar  
 23  11  26  1   
 24  12  16  ar  
 25  12  27  1   
 26  13  28  1   
 27  13  29  1   
 28  13  30  1   
 29  14  17  1   
 30  14  31  1   
 31  14  32  1   
 32  15  17  1   
 33  15  33  1   
 34  15  34  1   
 35  16  18  1   
 36  17  35  1   
 37  17  36  1   
 38  18  37  1   
 39  18  38  1   
 40  18  39  1   
@<TRIPOS>SUBSTRUCTURE
  1 ****   1 GROUP 4 **** **** 0

# MOE 2024.06 (io_trps.svl 2023.06)
