@<TRIPOS>MOLECULE
NONAME
45 47 1 0 0 
SMALL
USER_CHARGES


@<TRIPOS>ATOM
  1 O        0.0690    -2.6520    -1.8000 O.3   1 <1>  -0.6800 
  2 C        0.3490    -1.5610    -0.9900 C.3   1 <1>   0.1200 
  3 C        1.2780    -1.9300     0.2040 C.3   1 <1>   0.0000 
  4 C        2.7100    -2.3850    -0.2150 C.3   1 <1>   0.4230 
  5 C        1.4580    -0.6410     1.0520 C.3   1 <1>  -0.1600 
  6 C        0.6050    -3.0060     1.1090 C.3   1 <1>  -0.1600 
  7 N        2.8250    -3.7790    -0.8180 N.4   1 <1>  -0.9590 
  8 C        3.4520    -1.2760    -0.9940 C.3   1 <1>   0.2090 
  9 C        2.2370     0.4820     0.3450 C.3   1 <1>   0.2090 
 10 C        1.3070    -4.3740     1.0670 C.3   1 <1>  -0.1600 
 11 C        1.7570    -4.7180    -0.3510 C.3   1 <1>   0.3430 
 12 C        2.8910    -3.8130    -2.3130 C.3   1 <1>   0.2630 
 13 N        3.5330    -0.0340    -0.1710 N.pl3 1 <1>  -0.8380 
 14 C        4.6420     0.1250     0.6560 C.ar  1 <1>   0.4100 
 15 N        5.0090    -0.9720     1.3140 N.ar  1 <1>  -0.6200 
 16 C        5.3130     1.3640     0.8030 C.ar  1 <1>   0.1670 
 17 C        6.0380    -0.7580     2.1180 C.ar  1 <1>   0.1600 
 18 N        6.3350     1.5590     1.6140 N.ar  1 <1>  -0.6200 
 19 C        4.8910     2.5890     0.0090 C.3   1 <1>  -0.0970 
 20 C        6.6780     0.4620     2.2670 C.ar  1 <1>   0.1600 
 21 H       -0.6810    -2.4450    -2.3990 H     1 <1>   0.4000 
 22 H        0.7790    -0.7970    -1.6130 H     1 <1>   0.0800 
 23 H       -0.5910    -1.1930    -0.6130 H     1 <1>   0.0800 
 24 H        3.2420    -2.4490     0.7190 H     1 <1>   0.0800 
 25 H        1.9960    -0.8750     1.9550 H     1 <1>   0.0800 
 26 H        0.4980    -0.2570     1.3510 H     1 <1>   0.0800 
 27 H        0.5740    -2.6870     2.1370 H     1 <1>   0.0800 
 28 H       -0.4210    -3.1380     0.8080 H     1 <1>   0.0800 
 29 H        3.7160    -4.1450    -0.4570 H     1 <1>   0.4500 
 30 H        2.9490    -1.0510    -1.9170 H     1 <1>   0.0800 
 31 H        4.4510    -1.6040    -1.2210 H     1 <1>   0.0800 
 32 H        2.4180     1.2810     1.0450 H     1 <1>   0.0800 
 33 H        1.6670     0.8910    -0.4720 H     1 <1>   0.0800 
 34 H        0.6210    -5.1290     1.4110 H     1 <1>   0.0800 
 35 H        2.1560    -4.3850     1.7280 H     1 <1>   0.0800 
 36 H        0.9030    -4.6510    -1.0050 H     1 <1>   0.0800 
 37 H        2.1220    -5.7310    -0.3840 H     1 <1>   0.0800 
 38 H        1.9990    -3.3890    -2.7400 H     1 <1>   0.0800 
 39 H        2.9840    -4.8290    -2.6580 H     1 <1>   0.0800 
 40 H        3.7420    -3.2550    -2.6670 H     1 <1>   0.0800 
 41 H        6.3960    -1.5940     2.6930 H     1 <1>   0.1500 
 42 H        4.3850     2.3140    -0.8980 H     1 <1>   0.0800 
 43 H        5.7580     3.1670    -0.2560 H     1 <1>   0.0800 
 44 H        4.2420     3.1990     0.6080 H     1 <1>   0.0800 
 45 H        7.5060     0.5380     2.9500 H     1 <1>   0.1500 
@<TRIPOS>BOND
  1   1   2  1   
  2   1  21  1   
  3   2   3  1   
  4   2  22  1   
  5   2  23  1   
  6   3   4  1   
  7   3   5  1   
  8   3   6  1   
  9   4   7  1   
 10   4   8  1   
 11   4  24  1   
 12   5   9  1   
 13   5  25  1   
 14   5  26  1   
 15   6  10  1   
 16   6  27  1   
 17   6  28  1   
 18   7  11  1   
 19   7  12  1   
 20   7  29  1   
 21   8  13  1   
 22   8  30  1   
 23   8  31  1   
 24   9  13  1   
 25   9  32  1   
 26   9  33  1   
 27  10  11  1   
 28  10  34  1   
 29  10  35  1   
 30  11  36  1   
 31  11  37  1   
 32  12  38  1   
 33  12  39  1   
 34  12  40  1   
 35  13  14  1   
 36  14  15  ar  
 37  14  16  ar  
 38  15  17  ar  
 39  16  18  ar  
 40  16  19  1   
 41  17  20  ar  
 42  17  41  1   
 43  18  20  ar  
 44  19  42  1   
 45  19  43  1   
 46  19  44  1   
 47  20  45  1   
@<TRIPOS>SUBSTRUCTURE
  1 ****   8 GROUP 4 **** **** 0

# MOE 2024.06 (io_trps.svl 2023.06)
