@<TRIPOS>MOLECULE
NONAME
44 47 1 0 0 
SMALL
USER_CHARGES


@<TRIPOS>ATOM
  1 S        0.6640     0.4130     1.6470 S.3   1 <1>  -0.0800 
  2 C       -0.7310     1.1210     0.8480 C.2   1 <1>  -0.1400 
  3 C       -0.3470    -0.8190     2.3910 C.2   1 <1>  -0.1100 
  4 C       -1.8480     0.4500     1.1630 C.2   1 <1>  -0.1810 
  5 C       -0.6300     2.3350    -0.0690 C.3   1 <1>   0.4600 
  6 C       -1.6370    -0.6620     2.0370 C.2   1 <1>  -0.1500 
  7 C       -3.1730     0.9030     0.5940 C.3   1 <1>   0.0210 
  8 O       -1.8950     2.5560    -0.6650 O.3   1 <1>  -0.5600 
  9 C        0.3490     2.0730    -1.2180 C.3   1 <1>  -0.1600 
 10 C       -0.2190     3.5940     0.7070 C.3   1 <1>  -0.1600 
 11 C       -3.0460     2.3660     0.1250 C.3   1 <1>   0.1200 
 12 C        0.4920     3.2960    -2.1240 C.3   1 <1>   0.1400 
 13 C       -0.0740     4.8040    -0.2170 C.3   1 <1>   0.1400 
 14 N        0.8900     4.4750    -1.3040 N.am  1 <1>  -0.6600 
 15 C        2.1170     5.0900    -1.4600 C.2   1 <1>   0.5440 
 16 O        2.9650     4.5540    -2.1460 O.2   1 <1>  -0.5700 
 17 C        2.4290     6.3520    -0.8170 C.ar  1 <1>   0.0860 
 18 C        3.5420     6.4680     0.0180 C.ar  1 <1>  -0.1500 
 19 C        1.6350     7.4850    -1.0180 C.ar  1 <1>  -0.1500 
 20 C        3.8580     7.6580     0.6550 C.ar  1 <1>  -0.1430 
 21 C        1.9280     8.6840    -0.3950 C.ar  1 <1>  -0.1500 
 22 C        3.0330     8.7500     0.4330 C.ar  1 <1>   0.1900 
 23 C        5.0760     7.7570     1.5620 C.3   1 <1>  -0.0970 
 24 F        3.2960     9.8860     1.0180 F     1 <1>  -0.1900 
 25 H        0.1390    -1.5410     3.0230 H     1 <1>   0.1500 
 26 H       -2.4550    -1.2850     2.3560 H     1 <1>   0.1500 
 27 H       -3.9410     0.8350     1.3440 H     1 <1>   0.0800 
 28 H       -3.4480     0.2750    -0.2340 H     1 <1>   0.0800 
 29 H        0.0090     1.2300    -1.7890 H     1 <1>   0.0800 
 30 H        1.3180     1.8300    -0.8230 H     1 <1>   0.0800 
 31 H        0.7270     3.4160     1.1860 H     1 <1>   0.0800 
 32 H       -0.9320     3.8010     1.4820 H     1 <1>   0.0800 
 33 H       -2.9900     3.0260     0.9730 H     1 <1>   0.0800 
 34 H       -3.9000     2.6400    -0.4690 H     1 <1>   0.0800 
 35 H       -0.4460     3.5060    -2.6100 H     1 <1>   0.0800 
 36 H        1.2230     3.0970    -2.8900 H     1 <1>   0.0800 
 37 H        0.2620     5.6480     0.3590 H     1 <1>   0.0800 
 38 H       -1.0270     5.0500    -0.6540 H     1 <1>   0.0800 
 39 H        4.1620     5.5990     0.1570 H     1 <1>   0.1500 
 40 H        0.7840     7.4140    -1.6730 H     1 <1>   0.1500 
 41 H        1.3180     9.5570    -0.5460 H     1 <1>   0.1500 
 42 H        5.5930     6.8170     1.6190 H     1 <1>   0.0800 
 43 H        4.7720     8.0430     2.5540 H     1 <1>   0.0800 
 44 H        5.7550     8.5000     1.1820 H     1 <1>   0.0800 
@<TRIPOS>BOND
  1   1   2  1   
  2   1   3  1   
  3   2   4  2   
  4   2   5  1   
  5   3   6  2   
  6   3  25  1   
  7   4   6  1   
  8   4   7  1   
  9   5   8  1   
 10   5   9  1   
 11   5  10  1   
 12   6  26  1   
 13   7  11  1   
 14   7  27  1   
 15   7  28  1   
 16   8  11  1   
 17   9  12  1   
 18   9  29  1   
 19   9  30  1   
 20  10  13  1   
 21  10  31  1   
 22  10  32  1   
 23  11  33  1   
 24  11  34  1   
 25  12  14  1   
 26  12  35  1   
 27  12  36  1   
 28  13  14  1   
 29  13  37  1   
 30  13  38  1   
 31  14  15  am  
 32  15  16  2   
 33  15  17  1   
 34  17  18  ar  
 35  17  19  ar  
 36  18  20  ar  
 37  18  39  1   
 38  19  21  ar  
 39  19  40  1   
 40  20  22  ar  
 41  20  23  1   
 42  21  22  ar  
 43  21  41  1   
 44  22  24  1   
 45  23  42  1   
 46  23  43  1   
 47  23  44  1   
@<TRIPOS>SUBSTRUCTURE
  1 ****  13 GROUP 4 **** **** 0

# MOE 2024.06 (io_trps.svl 2023.06)
