@<TRIPOS>MOLECULE
NONAME
52 54 1 0 0 
SMALL
USER_CHARGES


@<TRIPOS>ATOM
  1 O       -0.2520    -0.2090     0.0100 O.2   1 <1>  -0.5700 
  2 C       -1.2130     0.5130     0.1410 C.2   1 <1>   0.5690 
  3 N       -2.4700    -0.0450     0.1010 N.am  1 <1>  -0.6600 
  4 C       -0.9300     2.0410     0.3070 C.3   1 <1>   0.0610 
  5 C       -3.8070     0.6030     0.0380 C.3   1 <1>   0.1400 
  6 C       -2.6330    -1.5230    -0.0040 C.3   1 <1>   0.1400 
  7 C       -1.1220     2.7400    -1.0580 C.3   1 <1>  -0.1600 
  8 C        0.5470     2.2620     0.7450 C.3   1 <1>  -0.1600 
  9 C       -1.8370     2.6950     1.3810 C.3   1 <1>  -0.2400 
 10 C       -4.7590    -0.4940    -0.4310 C.3   1 <1>   0.2000 
 11 C       -4.1370    -1.7890     0.0710 C.3   1 <1>  -0.0800 
 12 C       -0.6470     4.1940    -1.0670 C.3   1 <1>   0.3430 
 13 C        1.0060     3.7170     0.6980 C.3   1 <1>   0.3430 
 14 O       -6.0270    -0.3250     0.0980 O.3   1 <1>  -0.6800 
 15 C       -4.5850    -3.0270    -0.7200 C.3   1 <1>   0.0210 
 16 N        0.7880     4.2570    -0.6730 N.4   1 <1>  -0.9590 
 17 C       -3.8710    -4.2700    -0.2270 C.2   1 <1>   0.1080 
 18 C        1.3220     5.6470    -0.7930 C.3   1 <1>   0.2630 
 19 N       -4.0140    -4.7300     0.9780 N.2   1 <1>  -0.7070 
 20 C       -2.9920    -5.0390    -0.9820 C.2   1 <1>  -0.1500 
 21 N       -3.2210    -5.8170     1.0220 N.pl3 1 <1>   0.3000 
 22 C       -2.5900    -6.0240    -0.1530 C.2   1 <1>  -0.3320 
 23 C       -1.6270    -7.1670    -0.4140 C.3   1 <1>  -0.0600 
 24 H       -4.0870     0.9290     1.0250 H     1 <1>   0.0800 
 25 H       -3.8160     1.4240    -0.6540 H     1 <1>   0.0800 
 26 H       -2.2300    -1.8530    -0.9460 H     1 <1>   0.0800 
 27 H       -2.1100    -2.0250     0.7940 H     1 <1>   0.0800 
 28 H       -2.1580     2.7190    -1.3380 H     1 <1>   0.0800 
 29 H       -0.5850     2.1950    -1.8160 H     1 <1>   0.0800 
 30 H        1.2140     1.7040     0.1110 H     1 <1>   0.0800 
 31 H        0.6830     1.8800     1.7430 H     1 <1>   0.0800 
 32 H       -1.5000     3.6730     1.6680 H     1 <1>   0.0800 
 33 H       -1.8530     2.0800     2.2660 H     1 <1>   0.0800 
 34 H       -2.8450     2.8090     1.0340 H     1 <1>   0.0800 
 35 H       -4.8320    -0.4790    -1.5050 H     1 <1>   0.0800 
 36 H       -4.3800    -1.9300     1.1100 H     1 <1>   0.0800 
 37 H       -1.2410     4.7740    -0.3800 H     1 <1>   0.0800 
 38 H       -0.7750     4.6050    -2.0560 H     1 <1>   0.0800 
 39 H        2.0530     3.7680     0.9520 H     1 <1>   0.0800 
 40 H        0.4570     4.3020     1.4170 H     1 <1>   0.0800 
 41 H       -6.0410    -0.5830     1.0410 H     1 <1>   0.4000 
 42 H       -4.3850    -2.8930    -1.7670 H     1 <1>   0.0800 
 43 H       -5.6440    -3.1690    -0.5960 H     1 <1>   0.0800 
 44 H        1.3100     3.6470    -1.3210 H     1 <1>   0.4500 
 45 H        0.7980     6.3100    -0.1230 H     1 <1>   0.0800 
 46 H        1.2020     6.0090    -1.8010 H     1 <1>   0.0800 
 47 H        2.3720     5.6670    -0.5460 H     1 <1>   0.0800 
 48 H       -2.7100    -4.8620    -2.0050 H     1 <1>   0.1500 
 49 H       -3.1320    -6.3940     1.8670 H     1 <1>   0.2700 
 50 H       -1.2570    -7.1150    -1.4230 H     1 <1>   0.0800 
 51 H       -2.1240    -8.1110    -0.2800 H     1 <1>   0.0800 
 52 H       -0.7910    -7.1100     0.2600 H     1 <1>   0.0800 
@<TRIPOS>BOND
  1   1   2  2   
  2   2   3  am  
  3   2   4  1   
  4   3   5  1   
  5   3   6  1   
  6   4   7  1   
  7   4   8  1   
  8   4   9  1   
  9   5  10  1   
 10   5  24  1   
 11   5  25  1   
 12   6  11  1   
 13   6  26  1   
 14   6  27  1   
 15   7  12  1   
 16   7  28  1   
 17   7  29  1   
 18   8  13  1   
 19   8  30  1   
 20   8  31  1   
 21   9  32  1   
 22   9  33  1   
 23   9  34  1   
 24  10  11  1   
 25  10  14  1   
 26  10  35  1   
 27  11  15  1   
 28  11  36  1   
 29  12  16  1   
 30  12  37  1   
 31  12  38  1   
 32  13  16  1   
 33  13  39  1   
 34  13  40  1   
 35  14  41  1   
 36  15  17  1   
 37  15  42  1   
 38  15  43  1   
 39  16  18  1   
 40  16  44  1   
 41  17  19  2   
 42  17  20  1   
 43  18  45  1   
 44  18  46  1   
 45  18  47  1   
 46  19  21  1   
 47  20  22  2   
 48  20  48  1   
 49  21  22  1   
 50  21  49  1   
 51  22  23  1   
 52  23  50  1   
 53  23  51  1   
 54  23  52  1   
@<TRIPOS>SUBSTRUCTURE
  1 ****   3 GROUP 4 **** **** 0

# MOE 2024.06 (io_trps.svl 2023.06)
