@<TRIPOS>MOLECULE
NONAME
52 54 1 0 0 
SMALL
USER_CHARGES


@<TRIPOS>ATOM
  1 O        4.1120     0.2420     1.2370 O.co2 1 <1>  -0.9000 
  2 C        3.6210     0.0940     0.1120 C.2   1 <1>   0.9060 
  3 O        3.4520    -1.0330    -0.3800 O.co2 1 <1>  -0.9000 
  4 C        3.3060     1.3090    -0.7650 C.3   1 <1>  -0.1060 
  5 C        4.3880     1.2220    -1.8710 C.3   1 <1>   0.2000 
  6 C        3.4350     2.6670    -0.0040 C.3   1 <1>  -0.1600 
  7 C        1.8600     1.1970    -1.3390 C.3   1 <1>  -0.0160 
  8 O        4.0330     0.2660    -2.8100 O.3   1 <1>  -0.6800 
  9 C        4.6820     2.5680    -2.5470 C.3   1 <1>   0.1400 
 10 C        4.8350     3.2720    -0.1060 C.3   1 <1>   0.1400 
 11 C        0.7490     1.5150    -0.3390 C.ar  1 <1>  -0.1440 
 12 N        5.1130     3.6040    -1.5430 N.am  1 <1>  -0.6600 
 13 C        0.4840     0.6530     0.7140 C.ar  1 <1>  -0.1500 
 14 C       -0.0140     2.6650    -0.4780 C.ar  1 <1>  -0.1500 
 15 C        5.7190     4.7570    -1.9760 C.2   1 <1>   0.5690 
 16 C       -0.5220     0.9390     1.6200 C.ar  1 <1>  -0.1500 
 17 C       -1.0230     2.9530     0.4260 C.ar  1 <1>  -0.1500 
 18 O        5.9270     4.9560    -3.1510 O.2   1 <1>  -0.5700 
 19 C        6.1340     5.8590    -1.0070 C.3   1 <1>   0.0440 
 20 C       -1.2770     2.0900     1.4770 C.ar  1 <1>  -0.1500 
 21 C        7.3140     5.4770    -0.1180 C.ar  1 <1>  -0.1430 
 22 C        8.4970     5.0350    -0.6880 C.ar  1 <1>  -0.1500 
 23 C        7.2250     5.5750     1.2630 C.ar  1 <1>  -0.1500 
 24 C        9.5760     4.6960     0.1090 C.ar  1 <1>  -0.1500 
 25 C        8.3030     5.2340     2.0600 C.ar  1 <1>  -0.1500 
 26 C        9.4870     4.7950     1.4890 C.ar  1 <1>  -0.1430 
 27 C       10.6740     4.4220     2.3590 C.3   1 <1>   0.2640 
 28 O       10.8280     3.0530     2.2920 O.3   1 <1>  -0.6800 
 29 H        5.3130     0.8800    -1.4340 H     1 <1>   0.0800 
 30 H        3.1730     2.5320     1.0310 H     1 <1>   0.0800 
 31 H        2.7500     3.3910    -0.4060 H     1 <1>   0.0800 
 32 H        1.7710     1.8610    -2.1790 H     1 <1>   0.0800 
 33 H        1.6880     0.2040    -1.7170 H     1 <1>   0.0800 
 34 H        3.8010    -0.5450    -2.2830 H     1 <1>   0.4000 
 35 H        3.7990     2.9180    -3.0480 H     1 <1>   0.0800 
 36 H        5.4640     2.4320    -3.2730 H     1 <1>   0.0800 
 37 H        5.5670     2.5690     0.2560 H     1 <1>   0.0800 
 38 H        4.8800     4.1480     0.5120 H     1 <1>   0.0800 
 39 H        1.0690    -0.2460     0.8340 H     1 <1>   0.1500 
 40 H        0.1770     3.3420    -1.2910 H     1 <1>   0.1500 
 41 H       -0.7090     0.2620     2.4350 H     1 <1>   0.1500 
 42 H       -1.6080     3.8470     0.3110 H     1 <1>   0.1500 
 43 H        6.4130     6.7240    -1.5810 H     1 <1>   0.0800 
 44 H        5.2830     6.1370    -0.4160 H     1 <1>   0.0800 
 45 H       -2.0590     2.3110     2.1820 H     1 <1>   0.1500 
 46 H        8.5810     4.9510    -1.7590 H     1 <1>   0.1500 
 47 H        6.3160     5.9160     1.7270 H     1 <1>   0.1500 
 48 H       10.4870     4.3500    -0.3480 H     1 <1>   0.1500 
 49 H        8.2130     5.3120     3.1300 H     1 <1>   0.1500 
 50 H       10.5070     4.6920     3.3870 H     1 <1>   0.0800 
 51 H       11.5810     4.8840     2.0080 H     1 <1>   0.0800 
 52 H        9.9500     2.6530     2.1320 H     1 <1>   0.4000 
@<TRIPOS>BOND
  1   1   2  ar  
  2   2   3  ar  
  3   2   4  1   
  4   4   5  1   
  5   4   6  1   
  6   4   7  1   
  7   5   8  1   
  8   5   9  1   
  9   5  29  1   
 10   6  10  1   
 11   6  30  1   
 12   6  31  1   
 13   7  11  1   
 14   7  32  1   
 15   7  33  1   
 16   8  34  1   
 17   9  12  1   
 18   9  35  1   
 19   9  36  1   
 20  10  12  1   
 21  10  37  1   
 22  10  38  1   
 23  11  13  ar  
 24  11  14  ar  
 25  12  15  am  
 26  13  16  ar  
 27  13  39  1   
 28  14  17  ar  
 29  14  40  1   
 30  15  18  2   
 31  15  19  1   
 32  16  20  ar  
 33  16  41  1   
 34  17  20  ar  
 35  17  42  1   
 36  19  21  1   
 37  19  43  1   
 38  19  44  1   
 39  20  45  1   
 40  21  22  ar  
 41  21  23  ar  
 42  22  24  ar  
 43  22  46  1   
 44  23  25  ar  
 45  23  47  1   
 46  24  26  ar  
 47  24  48  1   
 48  25  26  ar  
 49  25  49  1   
 50  26  27  1   
 51  27  28  1   
 52  27  50  1   
 53  27  51  1   
 54  28  52  1   
@<TRIPOS>SUBSTRUCTURE
  1 ****  10 GROUP 4 **** **** 0

# MOE 2024.06 (io_trps.svl 2023.06)
