@<TRIPOS>MOLECULE
NONAME
53 56 1 0 0 
SMALL
USER_CHARGES


@<TRIPOS>ATOM
  1 O        0.7710    -1.3260    -0.2290 O.2   1 <1>  -0.5700 
  2 C       -0.1730    -1.9530     0.1730 C.2   1 <1>   0.5690 
  3 N       -0.6090    -3.1060    -0.3450 N.am  1 <1>  -0.7300 
  4 C       -1.0590    -1.5160     1.3040 C.3   1 <1>  -0.0990 
  5 C       -1.8860    -3.5790     0.2330 C.3   1 <1>   0.2810 
  6 C       -2.3160    -2.3860     1.1140 C.3   1 <1>  -0.1600 
  7 C       -2.9520    -3.9980    -0.8060 C.2   1 <1>   0.5690 
  8 O       -2.7600    -3.7020    -1.9660 O.2   1 <1>  -0.5700 
  9 N       -4.0800    -4.6940    -0.4290 N.am  1 <1>  -0.6600 
 10 C       -4.3940    -5.1630     0.9510 C.3   1 <1>   0.1400 
 11 C       -5.1200    -5.0800    -1.4260 C.3   1 <1>   0.1400 
 12 C       -4.5070    -6.6890     0.9470 C.3   1 <1>  -0.1600 
 13 C       -5.2480    -6.6040    -1.4560 C.3   1 <1>  -0.1600 
 14 C       -5.5560    -7.1790    -0.0620 C.3   1 <1>   0.4240 
 15 O       -6.7730    -6.6270     0.3820 O.3   1 <1>  -0.5600 
 16 C       -5.6020    -8.7210    -0.0870 C.ar  1 <1>  -0.1430 
 17 C       -7.9500    -7.2370    -0.0480 C.3   1 <1>   0.1200 
 18 C       -6.7690    -9.4130     0.2070 C.ar  1 <1>  -0.1430 
 19 C       -4.4680    -9.4550    -0.4110 C.ar  1 <1>  -0.1500 
 20 C       -8.0260    -8.6380     0.5510 C.3   1 <1>  -0.0170 
 21 C       -6.7930   -10.7980     0.1830 C.ar  1 <1>  -0.1500 
 22 C       -4.4700   -10.8390    -0.4350 C.ar  1 <1>   0.0820 
 23 C       -5.6560   -11.5330    -0.1430 C.ar  1 <1>   0.0820 
 24 O       -3.2670   -11.3980    -0.7580 O.3   1 <1>  -0.3630 
 25 O       -5.6870   -12.8980    -0.1960 O.3   1 <1>  -0.3620 
 26 C       -2.9090   -12.6960    -0.3400 C.3   1 <1>   0.0400 
 27 C       -6.8820   -13.6330    -0.0450 C.3   1 <1>   0.0400 
 28 H       -0.3660    -3.3760    -1.3020 H     1 <1>   0.3700 
 29 H       -0.5680    -1.7310     2.2350 H     1 <1>   0.0800 
 30 H       -1.2790    -0.4670     1.2330 H     1 <1>   0.0800 
 31 H       -1.6580    -4.4280     0.8520 H     1 <1>   0.0800 
 32 H       -3.0640    -1.8160     0.5870 H     1 <1>   0.0800 
 33 H       -2.7290    -2.7080     2.0520 H     1 <1>   0.0800 
 34 H       -3.6400    -4.8650     1.6550 H     1 <1>   0.0800 
 35 H       -5.3290    -4.7280     1.2650 H     1 <1>   0.0800 
 36 H       -6.0600    -4.6350    -1.1450 H     1 <1>   0.0800 
 37 H       -4.8650    -4.7210    -2.4090 H     1 <1>   0.0800 
 38 H       -4.7770    -7.0390     1.9260 H     1 <1>   0.0800 
 39 H       -3.5440    -7.1000     0.7110 H     1 <1>   0.0800 
 40 H       -4.3220    -7.0100    -1.8180 H     1 <1>   0.0800 
 41 H       -6.0100    -6.8960    -2.1530 H     1 <1>   0.0800 
 42 H       -8.7760    -6.6370     0.2910 H     1 <1>   0.0800 
 43 H       -7.9600    -7.2750    -1.1230 H     1 <1>   0.0800 
 44 H       -3.5470    -8.9580    -0.6540 H     1 <1>   0.1500 
 45 H       -8.1260    -8.5660     1.6200 H     1 <1>   0.0800 
 46 H       -8.8930    -9.1420     0.1630 H     1 <1>   0.0800 
 47 H       -7.7160   -11.2890     0.4210 H     1 <1>   0.1500 
 48 H       -1.8440   -12.7980    -0.4420 H     1 <1>   0.0800 
 49 H       -3.4040   -13.4120    -0.9700 H     1 <1>   0.0800 
 50 H       -3.1960   -12.8250     0.6880 H     1 <1>   0.0800 
 51 H       -6.6520   -14.6740    -0.1840 H     1 <1>   0.0800 
 52 H       -7.5860   -13.3120    -0.7910 H     1 <1>   0.0800 
 53 H       -7.2660   -13.4740     0.9470 H     1 <1>   0.0800 
@<TRIPOS>BOND
  1   1   2  2   
  2   2   3  am  
  3   2   4  1   
  4   3   5  1   
  5   3  28  1   
  6   4   6  1   
  7   4  29  1   
  8   4  30  1   
  9   5   6  1   
 10   5   7  1   
 11   5  31  1   
 12   6  32  1   
 13   6  33  1   
 14   7   8  2   
 15   7   9  am  
 16   9  10  1   
 17   9  11  1   
 18  10  12  1   
 19  10  34  1   
 20  10  35  1   
 21  11  13  1   
 22  11  36  1   
 23  11  37  1   
 24  12  14  1   
 25  12  38  1   
 26  12  39  1   
 27  13  14  1   
 28  13  40  1   
 29  13  41  1   
 30  14  15  1   
 31  14  16  1   
 32  15  17  1   
 33  16  18  ar  
 34  16  19  ar  
 35  17  20  1   
 36  17  42  1   
 37  17  43  1   
 38  18  20  1   
 39  18  21  ar  
 40  19  22  ar  
 41  19  44  1   
 42  20  45  1   
 43  20  46  1   
 44  21  23  ar  
 45  21  47  1   
 46  22  23  ar  
 47  22  24  1   
 48  23  25  1   
 49  24  26  1   
 50  25  27  1   
 51  26  48  1   
 52  26  49  1   
 53  26  50  1   
 54  27  51  1   
 55  27  52  1   
 56  27  53  1   
@<TRIPOS>SUBSTRUCTURE
  1 ****  12 GROUP 4 **** **** 0

# MOE 2024.06 (io_trps.svl 2023.06)
