@<TRIPOS>MOLECULE
NONAME
54 58 1 0 0 
SMALL
USER_CHARGES


@<TRIPOS>ATOM
  1 O       -0.1180     0.5100    -0.2210 O.2   1 <1>  -0.5700 
  2 C       -0.7810     1.4570    -0.6040 C.2   1 <1>   0.7160 
  3 N       -2.1560     1.4000    -0.4920 N.am  1 <1>  -0.6600 
  4 C       -0.1140     2.6210    -1.1350 C.2   1 <1>  -0.0860 
  5 C       -3.0500     2.5840    -0.6890 C.3   1 <1>   0.1400 
  6 C       -2.8340     0.1920     0.0770 C.3   1 <1>   0.1400 
  7 C        0.8280     3.4470    -0.5940 C.2   1 <1>  -0.3320 
  8 C       -0.3240     3.1640    -2.4030 C.2   1 <1>   0.1390 
  9 C       -3.6400     3.0570     0.6570 C.3   1 <1>   0.1440 
 10 C       -4.1480     0.5510     0.7970 C.3   1 <1>  -0.1600 
 11 N        1.1070     4.3950    -1.5080 N.pl3 1 <1>   0.3140 
 12 C        1.4810     3.3460     0.7760 C.3   1 <1>  -0.0600 
 13 N        0.3830     4.2260    -2.6250 N.2   1 <1>  -0.7070 
 14 C       -4.8290     3.9460     0.3360 C.ar  1 <1>   0.1660 
 15 C       -4.0090     1.8660     1.5820 C.3   1 <1>  -0.1600 
 16 C       -2.6830     4.0480     1.3700 C.3   1 <1>  -0.1600 
 17 C        2.0720     5.4950    -1.3920 C.3   1 <1>   0.0160 
 18 N       -6.0070     3.5290    -0.0590 N.ar  1 <1>  -0.6200 
 19 C       -4.5230     5.2640     0.4840 C.ar  1 <1>  -0.1440 
 20 C       -3.0940     5.4620     0.9270 C.3   1 <1>  -0.0160 
 21 C       -6.9170     4.4830    -0.2970 C.ar  1 <1>   0.6200 
 22 C       -5.5060     6.1810     0.2180 C.ar  1 <1>   0.1600 
 23 N       -6.7020     5.8010    -0.1700 N.ar  1 <1>  -0.6200 
 24 C       -8.2400     4.0540    -0.7300 C.ar  1 <1>   0.0000 
 25 C       -9.3820     4.8160    -0.4640 C.ar  1 <1>  -0.1500 
 26 C       -8.4310     2.8590    -1.4310 C.ar  1 <1>  -0.1500 
 27 C      -10.6400     4.4110    -0.8730 C.ar  1 <1>  -0.1500 
 28 C       -9.6860     2.4470    -1.8430 C.ar  1 <1>  -0.1500 
 29 C      -10.7950     3.2240    -1.5640 C.ar  1 <1>  -0.1500 
 30 H       -3.8530     2.2900    -1.3450 H     1 <1>   0.0800 
 31 H       -2.5410     3.4020    -1.1620 H     1 <1>   0.0800 
 32 H       -2.1750    -0.2800     0.7870 H     1 <1>   0.0800 
 33 H       -3.0290    -0.5130    -0.7130 H     1 <1>   0.0800 
 34 H       -1.0060     2.7470    -3.1250 H     1 <1>   0.1500 
 35 H       -4.4150    -0.2490     1.4630 H     1 <1>   0.0800 
 36 H       -4.9410     0.6440     0.0750 H     1 <1>   0.0800 
 37 H        1.0950     2.4990     1.3150 H     1 <1>   0.0800 
 38 H        1.2870     4.2340     1.3510 H     1 <1>   0.0800 
 39 H        2.5440     3.2200     0.6700 H     1 <1>   0.0800 
 40 H       -4.9220     2.0780     2.1120 H     1 <1>   0.0800 
 41 H       -3.2340     1.7230     2.3150 H     1 <1>   0.0800 
 42 H       -1.6480     3.8440     1.1570 H     1 <1>   0.0800 
 43 H       -2.8290     3.9840     2.4340 H     1 <1>   0.0800 
 44 H        1.8430     6.0770    -0.5210 H     1 <1>   0.0800 
 45 H        2.0070     6.1130    -2.2680 H     1 <1>   0.0800 
 46 H        3.0620     5.0850    -1.3140 H     1 <1>   0.0800 
 47 H       -2.4970     5.7880     0.0930 H     1 <1>   0.0800 
 48 H       -3.0180     6.1690     1.7340 H     1 <1>   0.0800 
 49 H       -5.3110     7.2350     0.3210 H     1 <1>   0.1500 
 50 H       -9.2820     5.7430     0.0730 H     1 <1>   0.1500 
 51 H       -7.5800     2.2410    -1.6580 H     1 <1>   0.1500 
 52 H      -11.4990     5.0210    -0.6520 H     1 <1>   0.1500 
 53 H       -9.7990     1.5220    -2.3800 H     1 <1>   0.1500 
 54 H      -11.7730     2.9060    -1.8830 H     1 <1>   0.1500 
@<TRIPOS>BOND
  1   1   2  2   
  2   2   3  am  
  3   2   4  1   
  4   3   5  1   
  5   3   6  1   
  6   4   7  2   
  7   4   8  1   
  8   5   9  1   
  9   5  30  1   
 10   5  31  1   
 11   6  10  1   
 12   6  32  1   
 13   6  33  1   
 14   7  11  1   
 15   7  12  1   
 16   8  13  2   
 17   8  34  1   
 18   9  14  1   
 19   9  15  1   
 20   9  16  1   
 21  10  15  1   
 22  10  35  1   
 23  10  36  1   
 24  11  13  1   
 25  11  17  1   
 26  12  37  1   
 27  12  38  1   
 28  12  39  1   
 29  14  18  ar  
 30  14  19  ar  
 31  15  40  1   
 32  15  41  1   
 33  16  20  1   
 34  16  42  1   
 35  16  43  1   
 36  17  44  1   
 37  17  45  1   
 38  17  46  1   
 39  18  21  ar  
 40  19  20  1   
 41  19  22  ar  
 42  20  47  1   
 43  20  48  1   
 44  21  23  ar  
 45  21  24  1   
 46  22  23  ar  
 47  22  49  1   
 48  24  25  ar  
 49  24  26  ar  
 50  25  27  ar  
 51  25  50  1   
 52  26  28  ar  
 53  26  51  1   
 54  27  29  ar  
 55  27  52  1   
 56  28  29  ar  
 57  28  53  1   
 58  29  54  1   
@<TRIPOS>SUBSTRUCTURE
  1 ****   9 GROUP 4 **** **** 0

# MOE 2024.06 (io_trps.svl 2023.06)
