@<TRIPOS>MOLECULE
NONAME
44 46 1 0 0 
SMALL
USER_CHARGES


@<TRIPOS>ATOM
  1 O       -0.7130     1.1090     2.1450 O.3   1 <1>  -0.5600 
  2 C        0.1760     0.9940     1.0830 C.3   1 <1>   0.1200 
  3 C       -2.0060     1.3240     1.6560 C.3   1 <1>   0.1200 
  4 C       -0.3530     1.9830     0.0520 C.3   1 <1>   0.2890 
  5 C       -1.8560     1.7780     0.1930 C.3   1 <1>  -0.0800 
  6 N       -0.0130     3.3570     0.5130 N.pl3 1 <1>  -0.8690 
  7 C       -2.3830     0.7210    -0.7980 C.3   1 <1>  -0.0170 
  8 C        0.2530     4.4560    -0.2510 C.ar  1 <1>   0.4610 
  9 C       -3.8850     0.5300    -0.6590 C.ar  1 <1>  -0.1440 
 10 N        0.6600     5.5750     0.3800 N.ar  1 <1>  -0.1790 
 11 C        0.1390     4.5240    -1.6450 C.ar  1 <1>   0.1600 
 12 C       -4.7860     1.4540    -1.1500 C.ar  1 <1>  -0.1500 
 13 C       -4.4280    -0.5780    -0.0390 C.ar  1 <1>  -0.1500 
 14 C        0.9420     6.7040    -0.2970 C.ar  1 <1>   0.4610 
 15 N        0.3990     5.5940    -2.3820 N.ar  1 <1>  -0.6200 
 16 C       -6.1450     1.2350    -0.9970 C.ar  1 <1>   0.1600 
 17 C       -5.8040    -0.7010     0.0640 C.ar  1 <1>   0.1600 
 18 N        1.3660     7.7960     0.4190 N.pl3 1 <1>  -0.8380 
 19 C        0.7930     6.6550    -1.6900 C.ar  1 <1>   0.1600 
 20 N       -6.6750     0.1810    -0.3990 N.ar  1 <1>  -0.6200 
 21 C        2.2480     8.8450    -0.1840 C.3   1 <1>   0.1290 
 22 C        0.8960     8.1530     1.7960 C.3   1 <1>   0.1290 
 23 H        1.1740     1.2210     1.4150 H     1 <1>   0.0800 
 24 H        0.1330    -0.0180     0.7170 H     1 <1>   0.0800 
 25 H       -2.5590     0.4060     1.7530 H     1 <1>   0.0800 
 26 H       -2.4700     2.0840     2.2620 H     1 <1>   0.0800 
 27 H        0.0280     1.7860    -0.9360 H     1 <1>   0.0800 
 28 H       -2.3920     2.6960     0.0280 H     1 <1>   0.0800 
 29 H       -0.0450     3.3750     1.5430 H     1 <1>   0.4000 
 30 H       -1.8860    -0.2210    -0.6420 H     1 <1>   0.0800 
 31 H       -2.1730     1.0340    -1.8070 H     1 <1>   0.0800 
 32 H        0.8140     5.5760     1.3790 H     1 <1>   0.4570 
 33 H       -0.1870     3.6480    -2.1750 H     1 <1>   0.1500 
 34 H       -4.4490     2.3410    -1.6540 H     1 <1>   0.1500 
 35 H       -3.8000    -1.3500     0.3670 H     1 <1>   0.1500 
 36 H       -6.8330     1.9660    -1.3860 H     1 <1>   0.1500 
 37 H       -6.2100    -1.5710     0.5520 H     1 <1>   0.1500 
 38 H        1.0040     7.5470    -2.2530 H     1 <1>   0.1500 
 39 H        3.0010     9.1460     0.5250 H     1 <1>   0.0800 
 40 H        1.6630     9.7080    -0.4540 H     1 <1>   0.0800 
 41 H        2.7480     8.4720    -1.0620 H     1 <1>   0.0800 
 42 H        0.5840     9.1850     1.8190 H     1 <1>   0.0800 
 43 H        1.6970     8.0240     2.5050 H     1 <1>   0.0800 
 44 H        0.0560     7.5500     2.0940 H     1 <1>   0.0800 
@<TRIPOS>BOND
  1   1   2  1   
  2   1   3  1   
  3   2   4  1   
  4   2  23  1   
  5   2  24  1   
  6   3   5  1   
  7   3  25  1   
  8   3  26  1   
  9   4   5  1   
 10   4   6  1   
 11   4  27  1   
 12   5   7  1   
 13   5  28  1   
 14   6   8  1   
 15   6  29  1   
 16   7   9  1   
 17   7  30  1   
 18   7  31  1   
 19   8  10  ar  
 20   8  11  ar  
 21   9  12  ar  
 22   9  13  ar  
 23  10  14  ar  
 24  10  32  1   
 25  11  15  ar  
 26  11  33  1   
 27  12  16  ar  
 28  12  34  1   
 29  13  17  ar  
 30  13  35  1   
 31  14  18  1   
 32  14  19  ar  
 33  15  19  ar  
 34  16  20  ar  
 35  16  36  1   
 36  17  20  ar  
 37  17  37  1   
 38  18  21  1   
 39  18  22  1   
 40  19  38  1   
 41  21  39  1   
 42  21  40  1   
 43  21  41  1   
 44  22  42  1   
 45  22  43  1   
 46  22  44  1   
@<TRIPOS>SUBSTRUCTURE
  1 ****   6 GROUP 4 **** **** 0

# MOE 2024.06 (io_trps.svl 2023.06)
