@<TRIPOS>MOLECULE
NONAME
41 42 1 0 0 
SMALL
USER_CHARGES


@<TRIPOS>ATOM
  1 CL       0.0150     2.9310    -2.4900 Cl    1 <1>  -0.1770 
  2 C        1.6010     2.7380    -1.7820 C.ar  1 <1>   0.1770 
  3 C        2.4020     3.8480    -1.5670 C.ar  1 <1>   0.1600 
  4 C        2.0420     1.4800    -1.4380 C.ar  1 <1>  -0.1500 
  5 N        3.6230     3.8120    -1.0350 N.ar  1 <1>  -0.6200 
  6 C        3.3010     1.4380    -0.8920 C.ar  1 <1>   0.1900 
  7 C        4.0780     2.6010    -0.7090 C.ar  1 <1>   0.4100 
  8 F        3.7580     0.2640    -0.5250 F     1 <1>  -0.1900 
  9 N        5.3700     2.6190    -0.1860 N.pl3 1 <1>  -0.8380 
 10 C        5.5670     3.1900     1.1880 C.3   1 <1>   0.2090 
 11 C        6.3380     1.5520    -0.5800 C.3   1 <1>   0.1290 
 12 C        6.3920     4.4890     1.1160 C.3   1 <1>   0.3430 
 13 N        5.9160     5.3160    -0.0300 N.4   1 <1>  -0.9590 
 14 C        7.0060     5.6480    -0.9870 C.3   1 <1>   0.4230 
 15 C        5.0150     6.4270     0.3940 C.3   1 <1>   0.2630 
 16 C        7.9110     6.7730    -0.4800 C.3   1 <1>  -0.1600 
 17 C        6.4380     6.1790    -2.3010 C.3   1 <1>  -0.1600 
 18 C        7.3570     8.0870    -1.0440 C.3   1 <1>  -0.1600 
 19 C        6.4550     7.7110    -2.2250 C.3   1 <1>  -0.1600 
 20 H        2.0110     4.8090    -1.8520 H     1 <1>   0.1500 
 21 H        1.4420     0.6000    -1.5840 H     1 <1>   0.1500 
 22 H        6.0600     2.4750     1.8240 H     1 <1>   0.0800 
 23 H        4.6080     3.4080     1.6270 H     1 <1>   0.0800 
 24 H        6.1020     1.1810    -1.5640 H     1 <1>   0.0800 
 25 H        6.2940     0.7310     0.1170 H     1 <1>   0.0800 
 26 H        7.3390     1.9460    -0.5970 H     1 <1>   0.0800 
 27 H        7.4260     4.2250     0.9690 H     1 <1>   0.0800 
 28 H        6.3140     5.0350     2.0410 H     1 <1>   0.0800 
 29 H        5.3120     4.6280    -0.5470 H     1 <1>   0.4500 
 30 H        7.5840     4.7580    -1.1780 H     1 <1>   0.0800 
 31 H        5.5650     7.1610     0.9590 H     1 <1>   0.0800 
 32 H        4.2130     6.0410     1.0010 H     1 <1>   0.0800 
 33 H        4.5850     6.9030    -0.4710 H     1 <1>   0.0800 
 34 H        8.8900     6.6180    -0.9000 H     1 <1>   0.0800 
 35 H        8.0050     6.7930     0.5900 H     1 <1>   0.0800 
 36 H        5.4610     5.7850    -2.5200 H     1 <1>   0.0800 
 37 H        7.1030     5.8760    -3.0910 H     1 <1>   0.0800 
 38 H        8.1590     8.7340    -1.3610 H     1 <1>   0.0800 
 39 H        6.7840     8.6060    -0.2960 H     1 <1>   0.0800 
 40 H        5.4610     8.0950    -2.0690 H     1 <1>   0.0800 
 41 H        6.8340     8.1280    -3.1440 H     1 <1>   0.0800 
@<TRIPOS>BOND
  1   1   2  1   
  2   2   3  ar  
  3   2   4  ar  
  4   3   5  ar  
  5   3  20  1   
  6   4   6  ar  
  7   4  21  1   
  8   5   7  ar  
  9   6   7  ar  
 10   6   8  1   
 11   7   9  1   
 12   9  10  1   
 13   9  11  1   
 14  10  12  1   
 15  10  22  1   
 16  10  23  1   
 17  11  24  1   
 18  11  25  1   
 19  11  26  1   
 20  12  13  1   
 21  12  27  1   
 22  12  28  1   
 23  13  14  1   
 24  13  15  1   
 25  13  29  1   
 26  14  16  1   
 27  14  17  1   
 28  14  30  1   
 29  15  31  1   
 30  15  32  1   
 31  15  33  1   
 32  16  18  1   
 33  16  34  1   
 34  16  35  1   
 35  17  19  1   
 36  17  36  1   
 37  17  37  1   
 38  18  19  1   
 39  18  38  1   
 40  18  39  1   
 41  19  40  1   
 42  19  41  1   
@<TRIPOS>SUBSTRUCTURE
  1 ****   5 GROUP 4 **** **** 0

# MOE 2024.06 (io_trps.svl 2023.06)
