@<TRIPOS>MOLECULE
NONAME
48 49 1 0 0 
SMALL
USER_CHARGES


@<TRIPOS>ATOM
  1 S       -0.8620    -0.6700    -0.6860 S.o2  1 <1>   1.0900 
  2 O        0.2910     0.1790    -0.8890 O.2   1 <1>  -0.6500 
  3 O       -2.1710    -0.3310    -1.1890 O.2   1 <1>  -0.6500 
  4 C       -0.9370    -1.0920     1.0250 C.3   1 <1>  -0.0550 
  5 C       -0.4240    -2.3190    -1.1520 C.3   1 <1>  -0.0550 
  6 C        0.2430    -2.0300     1.2350 C.3   1 <1>   0.2000 
  7 C        0.5450    -2.8260    -0.0760 C.3   1 <1>   0.1900 
  8 O        1.3480    -1.2540     1.5600 O.3   1 <1>  -0.6800 
  9 N        0.4350    -4.2990     0.1030 N.3   1 <1>  -0.8100 
 10 C        0.6680    -5.0610    -1.1770 C.3   1 <1>   0.1710 
 11 C        1.4240    -4.7770     1.0990 C.3   1 <1>   0.0300 
 12 C        0.2500    -6.5360    -1.1410 C.2   1 <1>   0.5690 
 13 O        0.7420    -7.3060    -1.9300 O.2   1 <1>  -0.5700 
 14 N       -0.6790    -6.9220    -0.2300 N.am  1 <1>  -0.7300 
 15 C       -1.2040    -8.2930    -0.0370 C.3   1 <1>   0.1400 
 16 C       -2.6390    -8.3770    -0.5550 C.3   1 <1>  -0.0170 
 17 C       -3.2160    -9.7630    -0.2940 C.ar  1 <1>  -0.1430 
 18 C       -3.7040   -10.1140     0.9640 C.ar  1 <1>   0.0830 
 19 C       -3.2490   -10.6900    -1.3250 C.ar  1 <1>  -0.1500 
 20 O       -3.6420    -9.1800     1.9510 O.3   1 <1>  -0.3620 
 21 C       -4.2250   -11.3910     1.1670 C.ar  1 <1>  -0.1500 
 22 C       -3.7680   -11.9550    -1.1160 C.ar  1 <1>  -0.1500 
 23 C       -4.1460    -9.4330     3.2430 C.3   1 <1>   0.0400 
 24 C       -4.2570   -12.3050     0.1290 C.ar  1 <1>  -0.1500 
 25 H       -0.8920    -0.2340     1.6680 H     1 <1>   0.0800 
 26 H       -1.8450    -1.6300     1.2180 H     1 <1>   0.0800 
 27 H       -1.3080    -2.9290    -1.1510 H     1 <1>   0.0800 
 28 H        0.0270    -2.3340    -2.1240 H     1 <1>   0.0800 
 29 H        0.0450    -2.6760     2.0710 H     1 <1>   0.0800 
 30 H        1.5490    -2.5910    -0.3930 H     1 <1>   0.0800 
 31 H        1.5040    -0.5550     0.8840 H     1 <1>   0.4000 
 32 H        0.1070    -4.6270    -1.9820 H     1 <1>   0.0800 
 33 H        1.7090    -5.0110    -1.4470 H     1 <1>   0.0800 
 34 H        1.3880    -5.8490     1.1870 H     1 <1>   0.0800 
 35 H        1.2250    -4.3710     2.0740 H     1 <1>   0.0800 
 36 H        2.4210    -4.4920     0.8070 H     1 <1>   0.0800 
 37 H       -1.0020    -6.2030     0.4260 H     1 <1>   0.3700 
 38 H       -0.5880    -9.0000    -0.5690 H     1 <1>   0.0800 
 39 H       -1.1760    -8.5420     1.0100 H     1 <1>   0.0800 
 40 H       -3.2470    -7.6380    -0.0650 H     1 <1>   0.0800 
 41 H       -2.6450    -8.1700    -1.6100 H     1 <1>   0.0800 
 42 H       -2.8700   -10.4300    -2.2980 H     1 <1>   0.1500 
 43 H       -4.6100   -11.6920     2.1210 H     1 <1>   0.1500 
 44 H       -3.7900   -12.6670    -1.9230 H     1 <1>   0.1500 
 45 H       -4.0010    -8.5490     3.8380 H     1 <1>   0.0800 
 46 H       -3.6050   -10.2560     3.6740 H     1 <1>   0.0800 
 47 H       -5.1960    -9.6560     3.1700 H     1 <1>   0.0800 
 48 H       -4.6600   -13.2900     0.2900 H     1 <1>   0.1500 
@<TRIPOS>BOND
  1   1   2  2   
  2   1   3  2   
  3   1   4  1   
  4   1   5  1   
  5   4   6  1   
  6   4  25  1   
  7   4  26  1   
  8   5   7  1   
  9   5  27  1   
 10   5  28  1   
 11   6   7  1   
 12   6   8  1   
 13   6  29  1   
 14   7   9  1   
 15   7  30  1   
 16   8  31  1   
 17   9  10  1   
 18   9  11  1   
 19  10  12  1   
 20  10  32  1   
 21  10  33  1   
 22  11  34  1   
 23  11  35  1   
 24  11  36  1   
 25  12  13  2   
 26  12  14  am  
 27  14  15  1   
 28  14  37  1   
 29  15  16  1   
 30  15  38  1   
 31  15  39  1   
 32  16  17  1   
 33  16  40  1   
 34  16  41  1   
 35  17  18  ar  
 36  17  19  ar  
 37  18  20  1   
 38  18  21  ar  
 39  19  22  ar  
 40  19  42  1   
 41  20  23  1   
 42  21  24  ar  
 43  21  43  1   
 44  22  24  ar  
 45  22  44  1   
 46  23  45  1   
 47  23  46  1   
 48  23  47  1   
 49  24  48  1   
@<TRIPOS>SUBSTRUCTURE
  1 ****  14 GROUP 4 **** **** 0

# MOE 2024.06 (io_trps.svl 2023.06)
