@<TRIPOS>MOLECULE
NONAME
56 58 1 0 0 
SMALL
USER_CHARGES


@<TRIPOS>ATOM
  1 CL      -0.2880     0.3180    -0.2340 Cl    1 <1>  -0.1770 
  2 C       -1.9940     0.6560    -0.1250 C.ar  1 <1>   0.1770 
  3 C       -2.8990    -0.3870    -0.1500 C.ar  1 <1>  -0.1500 
  4 C       -2.4250     1.9640    -0.0150 C.ar  1 <1>  -0.1500 
  5 C       -4.2520    -0.1140    -0.0650 C.ar  1 <1>  -0.1500 
  6 C       -3.7810     2.2250     0.0710 C.ar  1 <1>  -0.1500 
  7 C       -4.7280     1.1960     0.0490 C.ar  1 <1>   0.0530 
  8 C       -6.1390     1.4970     0.1360 C.2   1 <1>   0.0870 
  9 O       -6.5740     2.6940    -0.1680 O.3   1 <1>  -0.0190 
 10 C       -7.2310     0.7650     0.4840 C.2   1 <1>  -0.0860 
 11 N       -7.8690     2.8180    -0.0450 N.2   1 <1>  -0.4100 
 12 C       -8.2870     1.6710     0.3550 C.2   1 <1>   0.3720 
 13 C       -7.3520    -0.5880     0.9240 C.2   1 <1>   0.7160 
 14 N       -9.6220     1.3730     0.6210 N.pl3 1 <1>  -0.8520 
 15 O       -6.7320    -0.9420     1.9090 O.2   1 <1>  -0.5700 
 16 N       -8.1360    -1.5120     0.2610 N.am  1 <1>  -0.6600 
 17 C      -10.5090     2.4830     1.0660 C.3   1 <1>   0.2090 
 18 C       -8.3890    -2.8740     0.8170 C.3   1 <1>   0.1400 
 19 C       -8.6620    -1.3120    -1.1200 C.3   1 <1>   0.1400 
 20 C      -11.9720     2.0750     0.8970 C.3   1 <1>   0.1200 
 21 C       -9.8990    -3.1730     0.8240 C.3   1 <1>  -0.0800 
 22 C      -10.1630    -1.6150    -1.1580 C.3   1 <1>  -0.1600 
 23 O      -12.7820     3.0700     1.4390 O.3   1 <1>  -0.5600 
 24 C      -10.2010    -4.5460     1.4790 C.3   1 <1>  -0.0800 
 25 C      -10.4810    -3.0080    -0.5970 C.3   1 <1>  -0.1600 
 26 C      -14.1450     2.8260     1.3010 C.3   1 <1>   0.0400 
 27 C       -9.6690    -5.7520     0.6880 C.3   1 <1>  -0.2400 
 28 C      -11.7030    -4.7340     1.7370 C.3   1 <1>  -0.2400 
 29 H       -2.5430    -1.3980    -0.2340 H     1 <1>   0.1500 
 30 H       -1.7050     2.7630     0.0030 H     1 <1>   0.1500 
 31 H       -4.9420    -0.9370    -0.0880 H     1 <1>   0.1500 
 32 H       -4.1110     3.2450     0.1590 H     1 <1>   0.1500 
 33 H       -9.7150     0.5480     1.2220 H     1 <1>   0.4000 
 34 H      -10.3230     3.3650     0.4760 H     1 <1>   0.0800 
 35 H      -10.3100     2.7050     2.1000 H     1 <1>   0.0800 
 36 H       -8.0080    -2.9500     1.8220 H     1 <1>   0.0800 
 37 H       -7.8690    -3.5930     0.2100 H     1 <1>   0.0800 
 38 H       -8.1450    -1.9810    -1.7860 H     1 <1>   0.0800 
 39 H       -8.4900    -0.3070    -1.4640 H     1 <1>   0.0800 
 40 H      -12.1670     1.1560     1.4210 H     1 <1>   0.0800 
 41 H      -12.2040     1.9690    -0.1490 H     1 <1>   0.0800 
 42 H      -10.3520    -2.4250     1.4520 H     1 <1>   0.0800 
 43 H      -10.5090    -1.5490    -2.1750 H     1 <1>   0.0800 
 44 H      -10.6870    -0.8660    -0.5920 H     1 <1>   0.0800 
 45 H       -9.7170    -4.5530     2.4420 H     1 <1>   0.0800 
 46 H      -11.5480    -3.1400    -0.5830 H     1 <1>   0.0800 
 47 H      -10.0620    -3.7490    -1.2540 H     1 <1>   0.0800 
 48 H      -14.6780     3.6450     1.7510 H     1 <1>   0.0800 
 49 H      -14.3950     1.9090     1.8060 H     1 <1>   0.0800 
 50 H      -14.3910     2.7650     0.2550 H     1 <1>   0.0800 
 51 H      -10.1540    -5.8360    -0.2670 H     1 <1>   0.0800 
 52 H       -9.8570    -6.6590     1.2360 H     1 <1>   0.0800 
 53 H       -8.6080    -5.6790     0.5340 H     1 <1>   0.0800 
 54 H      -12.2480    -4.8300     0.8150 H     1 <1>   0.0800 
 55 H      -12.0990    -3.8990     2.2880 H     1 <1>   0.0800 
 56 H      -11.8690    -5.6250     2.3170 H     1 <1>   0.0800 
@<TRIPOS>BOND
  1   1   2  1   
  2   2   3  ar  
  3   2   4  ar  
  4   3   5  ar  
  5   3  29  1   
  6   4   6  ar  
  7   4  30  1   
  8   5   7  ar  
  9   5  31  1   
 10   6   7  ar  
 11   6  32  1   
 12   7   8  1   
 13   8   9  1   
 14   8  10  2   
 15   9  11  1   
 16  10  12  1   
 17  10  13  1   
 18  11  12  2   
 19  12  14  1   
 20  13  15  2   
 21  13  16  am  
 22  14  17  1   
 23  14  33  1   
 24  16  18  1   
 25  16  19  1   
 26  17  20  1   
 27  17  34  1   
 28  17  35  1   
 29  18  21  1   
 30  18  36  1   
 31  18  37  1   
 32  19  22  1   
 33  19  38  1   
 34  19  39  1   
 35  20  23  1   
 36  20  40  1   
 37  20  41  1   
 38  21  24  1   
 39  21  25  1   
 40  21  42  1   
 41  22  25  1   
 42  22  43  1   
 43  22  44  1   
 44  23  26  1   
 45  24  27  1   
 46  24  28  1   
 47  24  45  1   
 48  25  46  1   
 49  25  47  1   
 50  26  48  1   
 51  26  49  1   
 52  26  50  1   
 53  27  51  1   
 54  27  52  1   
 55  27  53  1   
 56  28  54  1   
 57  28  55  1   
 58  28  56  1   
@<TRIPOS>SUBSTRUCTURE
  1 ****  13 GROUP 4 **** **** 0

# MOE 2024.06 (io_trps.svl 2023.06)
