@<TRIPOS>MOLECULE
NONAME
51 53 1 0 0 
SMALL
USER_CHARGES


@<TRIPOS>ATOM
  1 O       -0.2570    -0.2580    -0.1170 O.2   1 <1>  -0.5700 
  2 C       -1.1870     0.3660     0.3570 C.2   1 <1>   0.7160 
  3 N       -2.1580    -0.3190     1.0210 N.am  1 <1>  -0.7300 
  4 C       -1.2870     1.7890     0.2210 C.2   1 <1>  -0.0860 
  5 C       -2.2860    -1.7820     1.1580 C.3   1 <1>   0.1400 
  6 C       -2.4640     2.5420     0.3420 C.2   1 <1>   0.3720 
  7 C       -0.3420     2.7310    -0.0520 C.2   1 <1>   0.0870 
  8 C       -3.6260    -2.2120     0.5600 C.3   1 <1>  -0.1600 
  9 N       -2.2360     3.7950     0.1600 N.2   1 <1>  -0.4100 
 10 N       -3.7440     2.0240     0.6000 N.pl3 1 <1>  -0.8210 
 11 O       -0.9570     3.8870    -0.0790 O.3   1 <1>  -0.0190 
 12 C        1.0810     2.6880    -0.2800 C.ar  1 <1>   0.0530 
 13 C       -3.8280    -3.7290     0.6770 C.3   1 <1>  -0.1600 
 14 C       -4.4220     1.4550    -0.6110 C.3   1 <1>   0.2090 
 15 C       -4.6690     2.9100     1.3850 C.3   1 <1>   0.2090 
 16 C        1.6780     3.5490    -1.2020 C.ar  1 <1>  -0.1500 
 17 C        1.9170     1.8110     0.4110 C.ar  1 <1>  -0.1500 
 18 C       -5.1750    -4.1530     0.0740 C.3   1 <1>  -0.1600 
 19 C       -5.2070     2.5250    -1.3920 C.3   1 <1>   0.1200 
 20 C       -5.4720     3.8750     0.4900 C.3   1 <1>   0.1200 
 21 C        3.0410     3.5330    -1.4290 C.ar  1 <1>  -0.1500 
 22 C        3.2820     1.7890     0.1880 C.ar  1 <1>  -0.1500 
 23 C       -5.3750    -5.6640     0.1810 C.3   1 <1>   0.1200 
 24 O       -6.1060     3.1840    -0.5490 O.3   1 <1>  -0.5600 
 25 C        3.8480     2.6510    -0.7340 C.ar  1 <1>  -0.1500 
 26 O       -6.5900    -5.9830    -0.3920 O.3   1 <1>  -0.6800 
 27 H       -2.9710     0.2490     1.2970 H     1 <1>   0.3700 
 28 H       -2.2400    -2.0440     2.2010 H     1 <1>   0.0800 
 29 H       -1.4760    -2.2740     0.6450 H     1 <1>   0.0800 
 30 H       -3.6500    -1.9310    -0.4780 H     1 <1>   0.0800 
 31 H       -4.4230    -1.7060     1.0760 H     1 <1>   0.0800 
 32 H       -3.7930    -4.0180     1.7140 H     1 <1>   0.0800 
 33 H       -3.0310    -4.2360     0.1600 H     1 <1>   0.0800 
 34 H       -5.1020     0.6800    -0.3040 H     1 <1>   0.0800 
 35 H       -3.6910     1.0090    -1.2640 H     1 <1>   0.0800 
 36 H       -4.1020     3.4820     2.1000 H     1 <1>   0.0800 
 37 H       -5.3580     2.2950     1.9360 H     1 <1>   0.0800 
 38 H        1.0610     4.2400    -1.7500 H     1 <1>   0.1500 
 39 H        1.4960     1.1360     1.1340 H     1 <1>   0.1500 
 40 H       -5.2030    -3.8710    -0.9650 H     1 <1>   0.0800 
 41 H       -5.9710    -3.6480     0.5940 H     1 <1>   0.0800 
 42 H       -5.7730     2.0670    -2.1830 H     1 <1>   0.0800 
 43 H       -4.5350     3.2500    -1.8200 H     1 <1>   0.0800 
 44 H       -4.8250     4.6230     0.0630 H     1 <1>   0.0800 
 45 H       -6.2320     4.3700     1.0670 H     1 <1>   0.0800 
 46 H        3.4770     4.2070    -2.1470 H     1 <1>   0.1500 
 47 H        3.9030     1.0980     0.7310 H     1 <1>   0.1500 
 48 H       -5.3880    -5.9880     1.2080 H     1 <1>   0.0800 
 49 H       -4.6070    -6.1960    -0.3540 H     1 <1>   0.0800 
 50 H        4.9100     2.6340    -0.9090 H     1 <1>   0.1500 
 51 H       -7.3170    -5.5110     0.0590 H     1 <1>   0.4000 
@<TRIPOS>BOND
  1   1   2  2   
  2   2   3  am  
  3   2   4  1   
  4   3   5  1   
  5   3  27  1   
  6   4   6  1   
  7   4   7  2   
  8   5   8  1   
  9   5  28  1   
 10   5  29  1   
 11   6   9  2   
 12   6  10  1   
 13   7  11  1   
 14   7  12  1   
 15   8  13  1   
 16   8  30  1   
 17   8  31  1   
 18   9  11  1   
 19  10  14  1   
 20  10  15  1   
 21  12  16  ar  
 22  12  17  ar  
 23  13  18  1   
 24  13  32  1   
 25  13  33  1   
 26  14  19  1   
 27  14  34  1   
 28  14  35  1   
 29  15  20  1   
 30  15  36  1   
 31  15  37  1   
 32  16  21  ar  
 33  16  38  1   
 34  17  22  ar  
 35  17  39  1   
 36  18  23  1   
 37  18  40  1   
 38  18  41  1   
 39  19  24  1   
 40  19  42  1   
 41  19  43  1   
 42  20  24  1   
 43  20  44  1   
 44  20  45  1   
 45  21  25  ar  
 46  21  46  1   
 47  22  25  ar  
 48  22  47  1   
 49  23  26  1   
 50  23  48  1   
 51  23  49  1   
 52  25  50  1   
 53  26  51  1   
@<TRIPOS>SUBSTRUCTURE
  1 ****   2 GROUP 4 **** **** 0

# MOE 2024.06 (io_trps.svl 2023.06)
