@<TRIPOS>MOLECULE
NONAME
40 42 1 0 0 
SMALL
USER_CHARGES


@<TRIPOS>ATOM
  1 CL      -1.2450     0.0440    -2.2200 Cl    1 <1>  -0.1770 
  2 C       -2.1050    -0.8270    -0.9770 C.ar  1 <1>   0.1770 
  3 C       -2.7570    -0.1190     0.0120 C.ar  1 <1>  -0.1500 
  4 C       -2.1190    -2.2100    -1.0050 C.ar  1 <1>  -0.1500 
  5 C       -3.4210    -0.8480     0.9770 C.ar  1 <1>   0.1900 
  6 C       -2.8010    -2.9430    -0.0310 C.ar  1 <1>   0.0860 
  7 F       -4.0450    -0.2070     1.9270 F     1 <1>  -0.1900 
  8 C       -3.4510    -2.2290     0.9770 C.ar  1 <1>  -0.1500 
  9 C       -2.8150    -4.3930    -0.0710 C.2   1 <1>   0.5440 
 10 O       -1.7810    -4.9940    -0.2860 O.2   1 <1>  -0.5700 
 11 N       -3.9730    -5.1140     0.1130 N.am  1 <1>  -0.6600 
 12 C       -5.3460    -4.5900    -0.1030 C.3   1 <1>   0.1400 
 13 C       -3.9810    -6.5990     0.1160 C.3   1 <1>   0.1400 
 14 C       -6.1650    -5.8090    -0.5240 C.3   1 <1>   0.2000 
 15 C       -5.4570    -7.0000     0.1150 C.3   1 <1>  -0.0800 
 16 O       -7.4730    -5.7250    -0.0760 O.3   1 <1>  -0.6800 
 17 C       -5.7330    -8.3290    -0.6040 C.3   1 <1>   0.0210 
 18 C       -4.9330    -9.4550     0.0200 C.2   1 <1>   0.1080 
 19 N       -5.0860    -9.8260     1.2530 N.2   1 <1>  -0.7070 
 20 C       -3.9560   -10.1970    -0.6350 C.2   1 <1>  -0.1500 
 21 N       -4.2020   -10.8280     1.4190 N.pl3 1 <1>   0.3000 
 22 C       -3.5040   -11.0700     0.2890 C.2   1 <1>  -0.3320 
 23 C       -2.4310   -12.1350     0.1610 C.3   1 <1>  -0.0600 
 24 H       -2.7460     0.9560     0.0310 H     1 <1>   0.1500 
 25 H       -1.5930    -2.7320    -1.7860 H     1 <1>   0.1500 
 26 H       -3.9710    -2.7500     1.7610 H     1 <1>   0.1500 
 27 H       -5.7200    -4.1870     0.8220 H     1 <1>   0.0800 
 28 H       -5.3560    -3.8380    -0.8730 H     1 <1>   0.0800 
 29 H       -3.4830    -6.9560    -0.7700 H     1 <1>   0.0800 
 30 H       -3.4720    -6.9830     0.9850 H     1 <1>   0.0800 
 31 H       -6.1760    -5.8840    -1.5980 H     1 <1>   0.0800 
 32 H       -5.7580    -7.0890     1.1440 H     1 <1>   0.0800 
 33 H       -7.5120    -5.8770     0.8890 H     1 <1>   0.4000 
 34 H       -5.4810    -8.2470    -1.6460 H     1 <1>   0.0800 
 35 H       -6.7790    -8.5680    -0.5290 H     1 <1>   0.0800 
 36 H       -3.6460   -10.0780    -1.6580 H     1 <1>   0.1500 
 37 H       -4.0990   -11.3240     2.3120 H     1 <1>   0.2700 
 38 H       -2.0240   -12.1310    -0.8340 H     1 <1>   0.0800 
 39 H       -2.8470   -13.1080     0.3570 H     1 <1>   0.0800 
 40 H       -1.6340   -11.9460     0.8580 H     1 <1>   0.0800 
@<TRIPOS>BOND
  1   1   2  1   
  2   2   3  ar  
  3   2   4  ar  
  4   3   5  ar  
  5   3  24  1   
  6   4   6  ar  
  7   4  25  1   
  8   5   7  1   
  9   5   8  ar  
 10   6   8  ar  
 11   6   9  1   
 12   8  26  1   
 13   9  10  2   
 14   9  11  am  
 15  11  12  1   
 16  11  13  1   
 17  12  14  1   
 18  12  27  1   
 19  12  28  1   
 20  13  15  1   
 21  13  29  1   
 22  13  30  1   
 23  14  15  1   
 24  14  16  1   
 25  14  31  1   
 26  15  17  1   
 27  15  32  1   
 28  16  33  1   
 29  17  18  1   
 30  17  34  1   
 31  17  35  1   
 32  18  19  2   
 33  18  20  1   
 34  19  21  1   
 35  20  22  2   
 36  20  36  1   
 37  21  22  1   
 38  21  37  1   
 39  22  23  1   
 40  23  38  1   
 41  23  39  1   
 42  23  40  1   
@<TRIPOS>SUBSTRUCTURE
  1 ****  11 GROUP 4 **** **** 0

# MOE 2024.06 (io_trps.svl 2023.06)
