@<TRIPOS>MOLECULE
NONAME
48 50 1 0 0 
SMALL
USER_CHARGES


@<TRIPOS>ATOM
  1 O        1.0410    -0.4970     1.8090 O.3   1 <1>  -0.5600 
  2 C        1.3450     0.2960     0.7080 C.3   1 <1>   0.2000 
  3 C        0.5940    -1.8120     1.5620 C.3   1 <1>   0.2640 
  4 C        2.5990    -0.2270     0.0000 C.3   1 <1>  -0.1600 
  5 C        1.5730     1.7070     1.2400 C.3   1 <1>  -0.1600 
  6 C       -0.5910    -1.8610     0.5980 C.ar  1 <1>   0.1660 
  7 C        3.0270     0.7350    -1.1020 C.3   1 <1>   0.3430 
  8 C        2.0200     2.6410     0.1220 C.3   1 <1>   0.3430 
  9 N       -0.3190    -2.0900    -0.6840 N.ar  1 <1>  -0.6200 
 10 C       -1.8710    -1.6650     1.0950 C.ar  1 <1>  -0.1500 
 11 N        3.2490     2.0960    -0.5320 N.4   1 <1>  -0.9590 
 12 C       -1.3690    -2.1440    -1.4890 C.ar  1 <1>   0.1600 
 13 C       -2.9510    -1.7130     0.2400 C.ar  1 <1>  -0.1500 
 14 C        3.8060     3.0260    -1.5600 C.3   1 <1>   0.4810 
 15 C       -2.6810    -1.9630    -1.0870 C.ar  1 <1>  -0.1500 
 16 C        4.1890     4.3510    -0.9060 C.2   1 <1>  -0.0380 
 17 N        3.2850     5.3930    -0.9110 N.pl3 1 <1>  -0.6000 
 18 C        5.3990     4.5230    -0.3070 C.2   1 <1>  -0.1360 
 19 C        3.5920     6.5920    -0.2960 C.2   1 <1>  -0.0500 
 20 C        5.7640     5.7350     0.3360 C.2   1 <1>   0.5410 
 21 C        4.7890     6.7940     0.3200 C.2   1 <1>   0.0910 
 22 O        6.8690     5.7970     0.8730 O.2   1 <1>  -0.5700 
 23 O        4.9800     8.0190     0.9090 O.3   1 <1>  -0.3570 
 24 C        6.2720     8.5940     0.9260 C.3   1 <1>   0.0400 
 25 H        0.5030     0.3110     0.0350 H     1 <1>   0.0800 
 26 H        0.3060    -2.2310     2.5090 H     1 <1>   0.0800 
 27 H        1.4120    -2.3940     1.1800 H     1 <1>   0.0800 
 28 H        2.3910    -1.1780    -0.4570 H     1 <1>   0.0800 
 29 H        3.4000    -0.3540     0.7060 H     1 <1>   0.0800 
 30 H        2.3150     1.6950     2.0190 H     1 <1>   0.0800 
 31 H        0.6550     2.0770     1.6590 H     1 <1>   0.0800 
 32 H        2.2580     0.7740    -1.8580 H     1 <1>   0.0800 
 33 H        3.9330     0.3700    -1.5590 H     1 <1>   0.0800 
 34 H        2.2210     3.6160     0.5390 H     1 <1>   0.0800 
 35 H        1.2290     2.7370    -0.6040 H     1 <1>   0.0800 
 36 H       -2.0220    -1.4750     2.1420 H     1 <1>   0.1500 
 37 H        3.9560     2.0140     0.2110 H     1 <1>   0.4500 
 38 H       -1.1760    -2.3450    -2.5300 H     1 <1>   0.1500 
 39 H       -3.9570    -1.5650     0.5930 H     1 <1>   0.1500 
 40 H        3.0880     3.1980    -2.3450 H     1 <1>   0.0800 
 41 H        4.6880     2.5890    -2.0000 H     1 <1>   0.0800 
 42 H       -3.4790    -2.0210    -1.8050 H     1 <1>   0.1500 
 43 H        2.3870     5.3440    -1.4160 H     1 <1>   0.4000 
 44 H        6.1470     3.7520    -0.2800 H     1 <1>   0.1500 
 45 H        2.8530     7.3770    -0.3190 H     1 <1>   0.1500 
 46 H        6.1690     9.6420     1.1420 H     1 <1>   0.0800 
 47 H        6.7350     8.4610    -0.0360 H     1 <1>   0.0800 
 48 H        6.8560     8.1230     1.6970 H     1 <1>   0.0800 
@<TRIPOS>BOND
  1   1   2  1   
  2   1   3  1   
  3   2   4  1   
  4   2   5  1   
  5   2  25  1   
  6   3   6  1   
  7   3  26  1   
  8   3  27  1   
  9   4   7  1   
 10   4  28  1   
 11   4  29  1   
 12   5   8  1   
 13   5  30  1   
 14   5  31  1   
 15   6   9  ar  
 16   6  10  ar  
 17   7  11  1   
 18   7  32  1   
 19   7  33  1   
 20   8  11  1   
 21   8  34  1   
 22   8  35  1   
 23   9  12  ar  
 24  10  13  ar  
 25  10  36  1   
 26  11  14  1   
 27  11  37  1   
 28  12  15  ar  
 29  12  38  1   
 30  13  15  ar  
 31  13  39  1   
 32  14  16  1   
 33  14  40  1   
 34  14  41  1   
 35  15  42  1   
 36  16  17  1   
 37  16  18  2   
 38  17  19  1   
 39  17  43  1   
 40  18  20  1   
 41  18  44  1   
 42  19  21  2   
 43  19  45  1   
 44  20  21  1   
 45  20  22  2   
 46  21  23  1   
 47  23  24  1   
 48  24  46  1   
 49  24  47  1   
 50  24  48  1   
@<TRIPOS>SUBSTRUCTURE
  1 ****   8 GROUP 4 **** **** 0

# MOE 2024.06 (io_trps.svl 2023.06)
