@<TRIPOS>MOLECULE
NONAME
48 50 1 0 0 
SMALL
USER_CHARGES


@<TRIPOS>ATOM
  1 O       -0.1130     0.7200    -0.0420 O.2   1 <1>  -0.5700 
  2 C       -0.0750     1.8730    -0.4030 C.2   1 <1>   0.5690 
  3 N       -0.3170     2.9170     0.4510 N.am  1 <1>  -0.6600 
  4 C        0.2390     2.1570    -1.8750 C.3   1 <1>   0.1810 
  5 C       -0.2840     4.3360    -0.0330 C.3   1 <1>   0.3640 
  6 C       -0.5180     2.7230     1.9170 C.3   1 <1>   0.0600 
  7 O        0.7410     3.4550    -2.0850 O.3   1 <1>  -0.5600 
  8 C       -1.5050     5.1340     0.4470 C.ar  1 <1>  -0.1430 
  9 C       -0.0930     4.4740    -1.5640 C.3   1 <1>   0.2610 
 10 C       -2.8370     4.7330     0.2900 C.ar  1 <1>  -0.1430 
 11 C       -1.2410     6.3470     1.0730 C.ar  1 <1>  -0.1500 
 12 C        0.4250     5.8780    -1.9100 C.2   1 <1>   0.5690 
 13 C       -3.8530     5.5530     0.7600 C.ar  1 <1>  -0.1500 
 14 C       -3.2540     3.4220    -0.3680 C.3   1 <1>  -0.0960 
 15 C       -2.2610     7.1560     1.5320 C.ar  1 <1>  -0.1500 
 16 O       -0.3420     6.6080    -2.4960 O.2   1 <1>  -0.5700 
 17 N        1.6830     6.3280    -1.5670 N.am  1 <1>  -0.6600 
 18 C       -3.5730     6.7580     1.3760 C.ar  1 <1>  -0.1500 
 19 C        2.0430     7.7670    -1.7840 C.3   1 <1>   0.3200 
 20 C        2.7880     5.5090    -0.9840 C.3   1 <1>   0.0600 
 21 C        2.0270     8.5410    -0.4740 C.2   1 <1>   0.2980 
 22 O        0.8710     8.8150     0.0770 O.3   1 <1>  -0.0190 
 23 N        3.0500     8.9530     0.1670 N.2   1 <1>  -0.5650 
 24 N        1.1840     9.4480     1.1660 N.2   1 <1>  -0.4100 
 25 C        2.4530     9.5250     1.2000 C.2   1 <1>   0.3350 
 26 C        3.2550    10.1900     2.2930 C.3   1 <1>  -0.0590 
 27 H       -0.6510     2.0340    -2.4640 H     1 <1>   0.0800 
 28 H        0.9810     1.4610    -2.2190 H     1 <1>   0.0800 
 29 H        0.5800     4.7770     0.4280 H     1 <1>   0.0800 
 30 H        0.2120     3.2930     2.4640 H     1 <1>   0.0800 
 31 H       -0.4130     1.6850     2.1820 H     1 <1>   0.0800 
 32 H       -1.5030     3.0510     2.2010 H     1 <1>   0.0800 
 33 H       -1.0460     4.3750    -2.0470 H     1 <1>   0.0800 
 34 H       -0.2290     6.6860     1.2110 H     1 <1>   0.1500 
 35 H       -4.8820     5.2590     0.6490 H     1 <1>   0.1500 
 36 H       -4.3070     3.4210    -0.5860 H     1 <1>   0.0800 
 37 H       -3.0530     2.5980     0.2920 H     1 <1>   0.0800 
 38 H       -2.7350     3.2630    -1.2920 H     1 <1>   0.0800 
 39 H       -2.0310     8.0950     2.0060 H     1 <1>   0.1500 
 40 H       -4.3730     7.3840     1.7300 H     1 <1>   0.1500 
 41 H        3.0270     7.8240    -2.2130 H     1 <1>   0.0800 
 42 H        1.3630     8.2380    -2.4720 H     1 <1>   0.0800 
 43 H        3.6210     5.4920    -1.6670 H     1 <1>   0.0800 
 44 H        2.4870     4.4960    -0.8000 H     1 <1>   0.0800 
 45 H        3.1120     5.9420    -0.0530 H     1 <1>   0.0800 
 46 H        3.9160     9.4730     2.7410 H     1 <1>   0.0800 
 47 H        2.5970    10.5830     3.0450 H     1 <1>   0.0800 
 48 H        3.8340    10.9930     1.8760 H     1 <1>   0.0800 
@<TRIPOS>BOND
  1   1   2  2   
  2   2   3  am  
  3   2   4  1   
  4   3   5  1   
  5   3   6  1   
  6   4   7  1   
  7   4  27  1   
  8   4  28  1   
  9   5   8  1   
 10   5   9  1   
 11   5  29  1   
 12   6  30  1   
 13   6  31  1   
 14   6  32  1   
 15   7   9  1   
 16   8  10  ar  
 17   8  11  ar  
 18   9  12  1   
 19   9  33  1   
 20  10  13  ar  
 21  10  14  1   
 22  11  15  ar  
 23  11  34  1   
 24  12  16  2   
 25  12  17  am  
 26  13  18  ar  
 27  13  35  1   
 28  14  36  1   
 29  14  37  1   
 30  14  38  1   
 31  15  18  ar  
 32  15  39  1   
 33  17  19  1   
 34  17  20  1   
 35  18  40  1   
 36  19  21  1   
 37  19  41  1   
 38  19  42  1   
 39  20  43  1   
 40  20  44  1   
 41  20  45  1   
 42  21  22  1   
 43  21  23  2   
 44  22  24  1   
 45  23  25  1   
 46  24  25  2   
 47  25  26  1   
 48  26  46  1   
 49  26  47  1   
 50  26  48  1   
@<TRIPOS>SUBSTRUCTURE
  1 ****   5 GROUP 4 **** **** 0

# MOE 2024.06 (io_trps.svl 2023.06)
