@<TRIPOS>MOLECULE
NONAME
48 50 1 0 0 
SMALL
USER_CHARGES


@<TRIPOS>ATOM
  1 O       -1.3440     1.1610    -1.5250 O.co2 1 <1>  -0.9000 
  2 C       -0.7040     1.1690    -0.4720 C.2   1 <1>   0.9060 
  3 O       -0.3500     0.1580     0.1330 O.co2 1 <1>  -0.9000 
  4 C       -0.3410     2.4910     0.1240 C.3   1 <1>  -0.1860 
  5 C       -0.8850     2.5710     1.5510 C.3   1 <1>   0.2000 
  6 C       -0.9250     3.5980    -0.7300 C.3   1 <1>   0.3430 
  7 O        0.0840     2.0320     2.3620 O.3   1 <1>  -0.6800 
  8 C       -1.1640     4.0050     2.0110 C.3   1 <1>  -0.1600 
  9 N       -0.5110     4.9420    -0.2000 N.4   1 <1>  -0.9590 
 10 C       -0.2420     4.9730     1.2800 C.3   1 <1>   0.3430 
 11 C        0.6840     5.4320    -0.9330 C.3   1 <1>   0.4860 
 12 C        0.8260     6.9200    -0.6890 C.ar  1 <1>  -0.1430 
 13 C        1.7180     7.3780     0.2800 C.ar  1 <1>   0.0830 
 14 C        0.0720     7.8210    -1.4280 C.ar  1 <1>  -0.1500 
 15 O        2.4160     6.4380     0.9670 O.3   1 <1>  -0.3620 
 16 C        1.8520     8.7460     0.5100 C.ar  1 <1>  -0.1500 
 17 C        0.2140     9.1730    -1.1850 C.ar  1 <1>  -0.1430 
 18 C        3.3640     6.7880     1.9490 C.3   1 <1>   0.1200 
 19 C        1.0900     9.6270    -0.2310 C.ar  1 <1>  -0.1430 
 20 C       -0.4970    10.3180    -1.8640 C.3   1 <1>  -0.0170 
 21 C        3.9340     5.4970     2.5270 C.3   1 <1>  -0.2400 
 22 C        1.0770    11.1340    -0.1470 C.3   1 <1>  -0.0170 
 23 C       -0.1590    11.5270    -0.9750 C.3   1 <1>  -0.1600 
 24 H        0.7300     2.5650     0.1060 H     1 <1>   0.0800 
 25 H       -1.7740     1.9690     1.6640 H     1 <1>   0.0800 
 26 H       -1.9990     3.5050    -0.7090 H     1 <1>   0.0800 
 27 H       -0.6100     3.4690    -1.7530 H     1 <1>   0.0800 
 28 H        0.2440     1.1110     2.0320 H     1 <1>   0.4000 
 29 H       -2.1850     4.2640     1.7960 H     1 <1>   0.0800 
 30 H       -1.0240     4.0850     3.0740 H     1 <1>   0.0800 
 31 H       -1.2630     5.6100    -0.3980 H     1 <1>   0.4500 
 32 H        0.7760     4.6710     1.4690 H     1 <1>   0.0800 
 33 H       -0.3680     5.9750     1.6570 H     1 <1>   0.0800 
 34 H        1.5660     4.9090    -0.5990 H     1 <1>   0.0800 
 35 H        0.5670     5.2570    -1.9900 H     1 <1>   0.0800 
 36 H       -0.6150     7.4900    -2.1880 H     1 <1>   0.1500 
 37 H        2.5300     9.1390     1.2450 H     1 <1>   0.1500 
 38 H        4.1390     7.3740     1.4840 H     1 <1>   0.0800 
 39 H        2.8710     7.3610     2.7150 H     1 <1>   0.0800 
 40 H       -0.0950    10.4540    -2.8540 H     1 <1>   0.0800 
 41 H       -1.5580    10.1550    -1.9190 H     1 <1>   0.0800 
 42 H        4.4160     4.9240     1.7550 H     1 <1>   0.0800 
 43 H        3.1520     4.9100     2.9760 H     1 <1>   0.0800 
 44 H        4.6630     5.7290     3.2830 H     1 <1>   0.0800 
 45 H        0.9960    11.4760     0.8700 H     1 <1>   0.0800 
 46 H        1.9730    11.5260    -0.5950 H     1 <1>   0.0800 
 47 H       -0.9810    11.7050    -0.3040 H     1 <1>   0.0800 
 48 H        0.0160    12.4150    -1.5560 H     1 <1>   0.0800 
@<TRIPOS>BOND
  1   1   2  ar  
  2   2   3  ar  
  3   2   4  1   
  4   4   5  1   
  5   4   6  1   
  6   4  24  1   
  7   5   7  1   
  8   5   8  1   
  9   5  25  1   
 10   6   9  1   
 11   6  26  1   
 12   6  27  1   
 13   7  28  1   
 14   8  10  1   
 15   8  29  1   
 16   8  30  1   
 17   9  10  1   
 18   9  11  1   
 19   9  31  1   
 20  10  32  1   
 21  10  33  1   
 22  11  12  1   
 23  11  34  1   
 24  11  35  1   
 25  12  13  ar  
 26  12  14  ar  
 27  13  15  1   
 28  13  16  ar  
 29  14  17  ar  
 30  14  36  1   
 31  15  18  1   
 32  16  19  ar  
 33  16  37  1   
 34  17  19  ar  
 35  17  20  1   
 36  18  21  1   
 37  18  38  1   
 38  18  39  1   
 39  19  22  1   
 40  20  23  1   
 41  20  40  1   
 42  20  41  1   
 43  21  42  1   
 44  21  43  1   
 45  21  44  1   
 46  22  23  1   
 47  22  45  1   
 48  22  46  1   
 49  23  47  1   
 50  23  48  1   
@<TRIPOS>SUBSTRUCTURE
  1 ****  11 GROUP 4 **** **** 0

# MOE 2024.06 (io_trps.svl 2023.06)
