@<TRIPOS>MOLECULE
NONAME
51 53 1 0 0 
SMALL
USER_CHARGES


@<TRIPOS>ATOM
  1 F       -0.2100     1.3140    -0.3870 F     1 <1>  -0.1900 
  2 C       -1.5040     1.3270    -0.1890 C.ar  1 <1>   0.1900 
  3 C       -2.3180     2.3580    -0.6720 C.ar  1 <1>   0.0830 
  4 C       -2.0260     0.2680     0.5270 C.ar  1 <1>  -0.1500 
  5 O       -1.9240     3.4500    -1.3880 O.3   1 <1>  -0.3630 
  6 C       -3.6750     2.2820    -0.4070 C.ar  1 <1>  -0.1500 
  7 C       -3.3860     0.2230     0.7740 C.ar  1 <1>  -0.1500 
  8 C       -0.5890     3.6660    -1.7890 C.3   1 <1>   0.0400 
  9 C       -4.2400     1.2250     0.3100 C.ar  1 <1>   0.0530 
 10 C       -5.6580     1.1930     0.5670 C.2   1 <1>   0.0870 
 11 O       -6.2790     2.3030     0.8780 O.3   1 <1>  -0.0190 
 12 C       -6.5920     0.2020     0.5720 C.2   1 <1>  -0.0860 
 13 N       -7.5540     2.1330     1.0990 N.2   1 <1>  -0.4100 
 14 C       -7.7700     0.8780     0.9210 C.2   1 <1>   0.3720 
 15 C       -6.4830    -1.1950     0.2790 C.2   1 <1>   0.7160 
 16 N       -9.0440     0.3020     1.0480 N.pl3 1 <1>  -0.8210 
 17 O       -5.5100    -1.6590    -0.2850 O.2   1 <1>  -0.5700 
 18 N       -7.4950    -2.0360     0.6110 N.am  1 <1>  -0.7300 
 19 C       -9.6960     0.5930     2.3550 C.3   1 <1>   0.1290 
 20 C       -9.9410     0.6460    -0.0890 C.3   1 <1>   0.1290 
 21 C       -7.6500    -3.4450     0.2110 C.3   1 <1>   0.2200 
 22 C       -8.7150    -3.5790    -0.8820 C.3   1 <1>  -0.0800 
 23 C       -8.2640    -4.2030     1.3830 C.3   1 <1>  -0.1600 
 24 C      -10.0530    -3.4770    -0.1330 C.3   1 <1>  -0.1600 
 25 C       -8.5550    -2.5840    -2.0430 C.3   1 <1>   0.1200 
 26 C       -9.7750    -3.9470     1.3010 C.3   1 <1>  -0.1600 
 27 O       -9.5880    -2.7600    -2.9510 O.3   1 <1>  -0.6800 
 28 H       -1.3770    -0.5110     0.8850 H     1 <1>   0.1500 
 29 H       -4.3120     3.0670    -0.7710 H     1 <1>   0.1500 
 30 H       -3.7920    -0.6020     1.3330 H     1 <1>   0.1500 
 31 H       -0.5540     4.5770    -2.3580 H     1 <1>   0.0800 
 32 H       -0.2690     2.8410    -2.4020 H     1 <1>   0.0800 
 33 H        0.0290     3.7600    -0.9140 H     1 <1>   0.0800 
 34 H       -8.3540    -1.5690     0.9360 H     1 <1>   0.3700 
 35 H      -10.5650    -0.0290     2.4800 H     1 <1>   0.0800 
 36 H       -9.9900     1.6280     2.4030 H     1 <1>   0.0800 
 37 H       -9.0080     0.3930     3.1590 H     1 <1>   0.0800 
 38 H      -10.8220     0.0280    -0.0660 H     1 <1>   0.0800 
 39 H       -9.4320     0.4840    -1.0240 H     1 <1>   0.0800 
 40 H      -10.2320     1.6820    -0.0330 H     1 <1>   0.0800 
 41 H       -6.7020    -3.8610    -0.0880 H     1 <1>   0.0800 
 42 H       -8.6260    -4.5760    -1.2770 H     1 <1>   0.0800 
 43 H       -8.0800    -5.2540     1.2440 H     1 <1>   0.0800 
 44 H       -7.8430    -3.9040     2.3270 H     1 <1>   0.0800 
 45 H      -10.3860    -2.4530    -0.1150 H     1 <1>   0.0800 
 46 H      -10.8100    -4.0750    -0.6100 H     1 <1>   0.0800 
 47 H       -7.6180    -2.7330    -2.5530 H     1 <1>   0.0800 
 48 H       -8.6030    -1.5680    -1.6940 H     1 <1>   0.0800 
 49 H      -10.3260    -4.8420     1.5340 H     1 <1>   0.0800 
 50 H      -10.0570    -3.1740     1.9960 H     1 <1>   0.0800 
 51 H       -9.5670    -3.6630    -3.3200 H     1 <1>   0.4000 
@<TRIPOS>BOND
  1   1   2  1   
  2   2   3  ar  
  3   2   4  ar  
  4   3   5  1   
  5   3   6  ar  
  6   4   7  ar  
  7   4  28  1   
  8   5   8  1   
  9   6   9  ar  
 10   6  29  1   
 11   7   9  ar  
 12   7  30  1   
 13   8  31  1   
 14   8  32  1   
 15   8  33  1   
 16   9  10  1   
 17  10  11  1   
 18  10  12  2   
 19  11  13  1   
 20  12  14  1   
 21  12  15  1   
 22  13  14  2   
 23  14  16  1   
 24  15  17  2   
 25  15  18  am  
 26  16  19  1   
 27  16  20  1   
 28  18  21  1   
 29  18  34  1   
 30  19  35  1   
 31  19  36  1   
 32  19  37  1   
 33  20  38  1   
 34  20  39  1   
 35  20  40  1   
 36  21  22  1   
 37  21  23  1   
 38  21  41  1   
 39  22  24  1   
 40  22  25  1   
 41  22  42  1   
 42  23  26  1   
 43  23  43  1   
 44  23  44  1   
 45  24  26  1   
 46  24  45  1   
 47  24  46  1   
 48  25  27  1   
 49  25  47  1   
 50  25  48  1   
 51  26  49  1   
 52  26  50  1   
 53  27  51  1   
@<TRIPOS>SUBSTRUCTURE
  1 ****  12 GROUP 4 **** **** 0

# MOE 2024.06 (io_trps.svl 2023.06)
