@<TRIPOS>MOLECULE
NONAME
50 52 1 0 0 
SMALL
USER_CHARGES


@<TRIPOS>ATOM
  1 F       -1.3310    -0.6490    -1.6060 F     1 <1>  -0.1900 
  2 C       -1.8660     0.2100    -0.7720 C.ar  1 <1>   0.1900 
  3 C       -1.6890     1.5660    -0.9900 C.ar  1 <1>   0.1900 
  4 C       -2.5910    -0.2480     0.3190 C.ar  1 <1>  -0.1440 
  5 F       -1.0060     1.9880    -2.0240 F     1 <1>  -0.1900 
  6 C       -2.2250     2.5020    -0.1260 C.ar  1 <1>  -0.1500 
  7 C       -3.1260     0.6960     1.1910 C.ar  1 <1>  -0.1500 
  8 C       -2.7960    -1.7360     0.5610 C.3   1 <1>   0.2540 
  9 C       -2.9460     2.0560     0.9710 C.ar  1 <1>  -0.1500 
 10 N       -3.8390    -2.2780    -0.3330 N.3   1 <1>  -0.8100 
 11 C       -3.9300    -3.7590    -0.2550 C.3   1 <1>   0.3330 
 12 C       -5.1610    -1.6700    -0.0750 C.3   1 <1>   0.1100 
 13 C       -2.5940    -4.4000    -0.6360 C.ar  1 <1>  -0.1430 
 14 C       -5.0770    -4.2980    -1.1560 C.3   1 <1>   0.2000 
 15 C       -6.2490    -2.2830    -0.9730 C.3   1 <1>   0.1200 
 16 C       -2.0240    -5.3610     0.1870 C.ar  1 <1>  -0.1500 
 17 C       -1.9430    -4.0420    -1.8090 C.ar  1 <1>  -0.1500 
 18 O       -6.2850    -3.6710    -0.8100 O.3   1 <1>  -0.5600 
 19 C       -5.3000    -5.8150    -1.0300 C.3   1 <1>   0.1200 
 20 C       -0.8280    -5.9670    -0.1560 C.ar  1 <1>   0.0830 
 21 C       -0.7370    -4.6290    -2.1520 C.ar  1 <1>  -0.1500 
 22 O       -4.3080    -6.5300    -1.6960 O.3   1 <1>  -0.6800 
 23 O       -0.3580    -6.9280     0.6750 O.3   1 <1>  -0.3630 
 24 C       -0.1650    -5.5800    -1.3260 C.ar  1 <1>   0.0830 
 25 C       -0.3080    -8.2370     0.1490 C.3   1 <1>   0.0400 
 26 O        1.0330    -6.0950    -1.6970 O.3   1 <1>  -0.3630 
 27 C        2.1310    -5.7650    -0.8750 C.3   1 <1>   0.0400 
 28 H       -2.0790     3.5520    -0.3090 H     1 <1>   0.1500 
 29 H       -3.6900     0.3730     2.0490 H     1 <1>   0.1500 
 30 H       -3.0680    -1.9130     1.5870 H     1 <1>   0.0800 
 31 H       -1.8570    -2.2320     0.3820 H     1 <1>   0.0800 
 32 H       -3.3700     2.7700     1.6580 H     1 <1>   0.1500 
 33 H       -4.1620    -4.0330     0.7600 H     1 <1>   0.0800 
 34 H       -5.4390    -1.8090     0.9560 H     1 <1>   0.0800 
 35 H       -5.1190    -0.6130    -0.2730 H     1 <1>   0.0800 
 36 H       -4.8740    -4.0660    -2.1870 H     1 <1>   0.0800 
 37 H       -6.0570    -2.0580    -2.0080 H     1 <1>   0.0800 
 38 H       -7.2160    -1.8950    -0.7060 H     1 <1>   0.0800 
 39 H       -2.5040    -5.6600     1.1020 H     1 <1>   0.1500 
 40 H       -2.3720    -3.2910    -2.4530 H     1 <1>   0.1500 
 41 H       -6.2400    -6.0840    -1.4780 H     1 <1>   0.0800 
 42 H       -5.2980    -6.1150     0.0030 H     1 <1>   0.0800 
 43 H       -0.2330    -4.3430    -3.0570 H     1 <1>   0.1500 
 44 H       -3.4150    -6.1950    -1.4580 H     1 <1>   0.4000 
 45 H       -0.0350    -8.9080     0.9430 H     1 <1>   0.0800 
 46 H        0.4270    -8.2790    -0.6340 H     1 <1>   0.0800 
 47 H       -1.2790    -8.4950    -0.2360 H     1 <1>   0.0800 
 48 H        3.0220    -6.1560    -1.3320 H     1 <1>   0.0800 
 49 H        1.9940    -6.2030     0.0960 H     1 <1>   0.0800 
 50 H        2.1950    -4.6940    -0.7970 H     1 <1>   0.0800 
@<TRIPOS>BOND
  1   1   2  1   
  2   2   3  ar  
  3   2   4  ar  
  4   3   5  1   
  5   3   6  ar  
  6   4   7  ar  
  7   4   8  1   
  8   6   9  ar  
  9   6  28  1   
 10   7   9  ar  
 11   7  29  1   
 12   8  10  1   
 13   8  30  1   
 14   8  31  1   
 15   9  32  1   
 16  10  11  1   
 17  10  12  1   
 18  11  13  1   
 19  11  14  1   
 20  11  33  1   
 21  12  15  1   
 22  12  34  1   
 23  12  35  1   
 24  13  16  ar  
 25  13  17  ar  
 26  14  18  1   
 27  14  19  1   
 28  14  36  1   
 29  15  18  1   
 30  15  37  1   
 31  15  38  1   
 32  16  20  ar  
 33  16  39  1   
 34  17  21  ar  
 35  17  40  1   
 36  19  22  1   
 37  19  41  1   
 38  19  42  1   
 39  20  23  1   
 40  20  24  ar  
 41  21  24  ar  
 42  21  43  1   
 43  22  44  1   
 44  23  25  1   
 45  24  26  1   
 46  25  45  1   
 47  25  46  1   
 48  25  47  1   
 49  26  27  1   
 50  27  48  1   
 51  27  49  1   
 52  27  50  1   
@<TRIPOS>SUBSTRUCTURE
  1 ****  13 GROUP 4 **** **** 0

# MOE 2024.06 (io_trps.svl 2023.06)
