@<TRIPOS>MOLECULE
NONAME
46 49 1 0 0 
SMALL
USER_CHARGES


@<TRIPOS>ATOM
  1 O       -0.3610     1.1370    -2.9590 O.2   1 <1>  -0.5700 
  2 C       -0.1860     1.6460    -1.8630 C.2   1 <1>   0.5440 
  3 N       -1.2380     1.6270    -0.9570 N.am  1 <1>  -0.6600 
  4 C        1.1160     2.2670    -1.5880 C.ar  1 <1>   0.3960 
  5 C       -1.1510     2.2910     0.3800 C.3   1 <1>   0.1400 
  6 C       -2.5730     1.0710    -1.3240 C.3   1 <1>   0.1400 
  7 N        1.7340     2.0830    -0.4070 N.ar  1 <1>  -0.6200 
  8 C        1.7010     3.0410    -2.5890 C.ar  1 <1>  -0.1500 
  9 C       -2.5260     2.4770     1.0310 C.3   1 <1>  -0.1600 
 10 C       -3.6600     2.1490    -1.2130 C.3   1 <1>  -0.1600 
 11 C        2.9150     2.6630    -0.2170 C.ar  1 <1>   0.2870 
 12 C        2.9250     3.6420    -2.4030 C.ar  1 <1>  -0.1500 
 13 C       -3.5340     3.0540     0.0290 C.3   1 <1>   0.4180 
 14 N        3.5440     2.4610     1.0400 N.pl3 1 <1>   0.3260 
 15 C        3.5370     3.4420    -1.1890 C.ar  1 <1>  -0.1500 
 16 O       -3.0510     4.2940    -0.4320 O.3   1 <1>  -0.5600 
 17 C       -4.9020     3.2330     0.6890 C.2   1 <1>  -0.2880 
 18 C        4.4220     3.2290     1.7030 C.2   1 <1>   0.0360 
 19 C        3.3950     1.4390     1.8960 C.2   1 <1>   0.0370 
 20 C       -3.2500     5.4170     0.3790 C.3   1 <1>   0.1200 
 21 C       -5.4750     4.4160     0.9240 C.2   1 <1>  -0.2760 
 22 N        4.7730     2.7220     2.8320 N.2   1 <1>  -0.3380 
 23 N        4.1120     1.5700     2.9560 N.2   1 <1>  -0.3380 
 24 C       -4.7480     5.6960     0.5560 C.3   1 <1>  -0.0220 
 25 C       -6.8500     4.6000     1.5410 C.3   1 <1>  -0.1020 
 26 H       -0.6970     3.2590     0.2550 H     1 <1>   0.0800 
 27 H       -0.5240     1.7040     1.0280 H     1 <1>   0.0800 
 28 H       -2.7970     0.2580    -0.6550 H     1 <1>   0.0800 
 29 H       -2.5700     0.6720    -2.3240 H     1 <1>   0.0800 
 30 H        1.1800     3.1600    -3.5230 H     1 <1>   0.1500 
 31 H       -2.4430     3.1160     1.8890 H     1 <1>   0.0800 
 32 H       -2.8800     1.5270     1.3870 H     1 <1>   0.0800 
 33 H       -4.6080     1.6450    -1.2030 H     1 <1>   0.0800 
 34 H       -3.6440     2.7550    -2.1010 H     1 <1>   0.0800 
 35 H        3.3800     4.2380    -3.1780 H     1 <1>   0.1500 
 36 H        4.4990     3.8870    -1.0050 H     1 <1>   0.1500 
 37 H       -5.3670     2.2990     0.9450 H     1 <1>   0.1500 
 38 H        4.7800     4.1670     1.3210 H     1 <1>   0.1500 
 39 H        2.7380     0.6140     1.6880 H     1 <1>   0.1500 
 40 H       -2.7680     6.2530    -0.0940 H     1 <1>   0.0800 
 41 H       -2.7840     5.2420     1.3320 H     1 <1>   0.0800 
 42 H       -5.1530     6.0970    -0.3550 H     1 <1>   0.0800 
 43 H       -4.8690     6.4310     1.3320 H     1 <1>   0.0800 
 44 H       -7.4910     5.1340     0.8620 H     1 <1>   0.0800 
 45 H       -6.7750     5.1550     2.4590 H     1 <1>   0.0800 
 46 H       -7.2980     3.6460     1.7540 H     1 <1>   0.0800 
@<TRIPOS>BOND
  1   1   2  2   
  2   2   3  am  
  3   2   4  1   
  4   3   5  1   
  5   3   6  1   
  6   4   7  ar  
  7   4   8  ar  
  8   5   9  1   
  9   5  26  1   
 10   5  27  1   
 11   6  10  1   
 12   6  28  1   
 13   6  29  1   
 14   7  11  ar  
 15   8  12  ar  
 16   8  30  1   
 17   9  13  1   
 18   9  31  1   
 19   9  32  1   
 20  10  13  1   
 21  10  33  1   
 22  10  34  1   
 23  11  14  1   
 24  11  15  ar  
 25  12  15  ar  
 26  12  35  1   
 27  13  16  1   
 28  13  17  1   
 29  14  18  1   
 30  14  19  1   
 31  15  36  1   
 32  16  20  1   
 33  17  21  2   
 34  17  37  1   
 35  18  22  2   
 36  18  38  1   
 37  19  23  2   
 38  19  39  1   
 39  20  24  1   
 40  20  40  1   
 41  20  41  1   
 42  21  24  1   
 43  21  25  1   
 44  22  23  1   
 45  24  42  1   
 46  24  43  1   
 47  25  44  1   
 48  25  45  1   
 49  25  46  1   
@<TRIPOS>SUBSTRUCTURE
  1 ****   5 GROUP 4 **** **** 0

# MOE 2024.06 (io_trps.svl 2023.06)
