@<TRIPOS>MOLECULE
NONAME
52 54 1 0 0 
SMALL
USER_CHARGES


@<TRIPOS>ATOM
  1 O       -1.2280     1.5150     1.3040 O.2   1 <1>  -0.5700 
  2 C       -1.4380     1.3590     0.1230 C.2   1 <1>   0.5690 
  3 N       -1.9020     0.1800    -0.3800 N.am  1 <1>  -0.7300 
  4 C       -1.1310     2.5570    -0.8150 C.3   1 <1>   0.4840 
  5 C       -2.2250    -1.0070     0.4340 C.3   1 <1>   0.2200 
  6 N        0.0200     3.4000    -0.3070 N.4   1 <1>  -0.9590 
  7 C       -2.3900     3.4190    -0.9680 C.3   1 <1>  -0.2400 
  8 C       -1.3580    -2.1800    -0.0350 C.3   1 <1>  -0.1600 
  9 C       -3.7170    -1.3210     0.2780 C.3   1 <1>  -0.1600 
 10 C        0.2520     4.6830    -1.0380 C.3   1 <1>   0.4860 
 11 C        1.2770     2.5870    -0.1920 C.3   1 <1>   0.2630 
 12 C       -1.7270    -3.4730     0.7070 C.3   1 <1>  -0.1600 
 13 C       -4.0910    -2.6120     1.0210 C.3   1 <1>  -0.1600 
 14 C        1.3470     5.4780    -0.3530 C.ar  1 <1>  -0.1440 
 15 C       -3.2220    -3.7900     0.5600 C.3   1 <1>  -0.1600 
 16 C        1.0910     6.1560     0.8640 C.ar  1 <1>   0.0000 
 17 C        2.5930     5.5310    -0.9270 C.ar  1 <1>  -0.1500 
 18 C        2.1420     6.8520     1.4890 C.ar  1 <1>   0.0000 
 19 C       -0.1510     6.2160     1.5340 C.ar  1 <1>  -0.1500 
 20 C        3.6300     6.2330    -0.3100 C.ar  1 <1>  -0.1500 
 21 C        1.8790     7.5080     2.7130 C.ar  1 <1>   0.1600 
 22 C        3.4080     6.8760     0.8750 C.ar  1 <1>  -0.1500 
 23 C       -0.2770     6.8900     2.7150 C.ar  1 <1>   0.1600 
 24 N        0.7320     7.5370     3.3200 N.ar  1 <1>  -0.6200 
 25 H       -2.1080     0.0500    -1.3720 H     1 <1>   0.3700 
 26 H       -0.8710     2.1550    -1.7790 H     1 <1>   0.0800 
 27 H       -2.0160    -0.8120     1.4750 H     1 <1>   0.0800 
 28 H       -0.2320     3.6340     0.6680 H     1 <1>   0.4500 
 29 H       -2.6320     3.9100    -0.0420 H     1 <1>   0.0800 
 30 H       -3.2220     2.7890    -1.2280 H     1 <1>   0.0800 
 31 H       -2.2860     4.1430    -1.7560 H     1 <1>   0.0800 
 32 H       -0.3220    -1.9550     0.1470 H     1 <1>   0.0800 
 33 H       -1.4960    -2.3370    -1.0900 H     1 <1>   0.0800 
 34 H       -3.9580    -1.4400    -0.7630 H     1 <1>   0.0800 
 35 H       -4.2980    -0.5070     0.6760 H     1 <1>   0.0800 
 36 H       -0.6460     5.2770    -1.0550 H     1 <1>   0.0800 
 37 H        0.5400     4.4780    -2.0560 H     1 <1>   0.0800 
 38 H        1.6180     2.2740    -1.1650 H     1 <1>   0.0800 
 39 H        1.1040     1.7110     0.4150 H     1 <1>   0.0800 
 40 H        2.0570     3.1650     0.2780 H     1 <1>   0.0800 
 41 H       -1.4890    -3.3660     1.7520 H     1 <1>   0.0800 
 42 H       -1.1450    -4.2920     0.3200 H     1 <1>   0.0800 
 43 H       -5.1290    -2.8410     0.8490 H     1 <1>   0.0800 
 44 H       -3.9580    -2.4660     2.0800 H     1 <1>   0.0800 
 45 H       -3.4630    -4.6640     1.1400 H     1 <1>   0.0800 
 46 H       -3.4390    -4.0120    -0.4710 H     1 <1>   0.0800 
 47 H        2.8110     5.0380    -1.8610 H     1 <1>   0.1500 
 48 H       -1.0170     5.7390     1.1210 H     1 <1>   0.1500 
 49 H        4.6010     6.2620    -0.7770 H     1 <1>   0.1500 
 50 H        2.7000     8.0260     3.1780 H     1 <1>   0.1500 
 51 H        4.2060     7.4170     1.3550 H     1 <1>   0.1500 
 52 H       -1.2270     6.9320     3.2210 H     1 <1>   0.1500 
@<TRIPOS>BOND
  1   1   2  2   
  2   2   3  am  
  3   2   4  1   
  4   3   5  1   
  5   3  25  1   
  6   4   6  1   
  7   4   7  1   
  8   4  26  1   
  9   5   8  1   
 10   5   9  1   
 11   5  27  1   
 12   6  10  1   
 13   6  11  1   
 14   6  28  1   
 15   7  29  1   
 16   7  30  1   
 17   7  31  1   
 18   8  12  1   
 19   8  32  1   
 20   8  33  1   
 21   9  13  1   
 22   9  34  1   
 23   9  35  1   
 24  10  14  1   
 25  10  36  1   
 26  10  37  1   
 27  11  38  1   
 28  11  39  1   
 29  11  40  1   
 30  12  15  1   
 31  12  41  1   
 32  12  42  1   
 33  13  15  1   
 34  13  43  1   
 35  13  44  1   
 36  14  16  ar  
 37  14  17  ar  
 38  15  45  1   
 39  15  46  1   
 40  16  18  ar  
 41  16  19  ar  
 42  17  20  ar  
 43  17  47  1   
 44  18  21  ar  
 45  18  22  ar  
 46  19  23  ar  
 47  19  48  1   
 48  20  22  ar  
 49  20  49  1   
 50  21  24  ar  
 51  21  50  1   
 52  22  51  1   
 53  23  24  ar  
 54  23  52  1   
@<TRIPOS>SUBSTRUCTURE
  1 ****   6 GROUP 4 **** **** 0

# MOE 2024.06 (io_trps.svl 2023.06)
