@<TRIPOS>MOLECULE
NONAME
42 43 1 0 0 
SMALL
USER_CHARGES


@<TRIPOS>ATOM
  1 O       -1.2460    -3.0070     1.5970 O.3   1 <1>  -0.3630 
  2 C       -1.9470    -2.5360     0.5380 C.ar  1 <1>   0.0830 
  3 C       -0.4800    -2.1460     2.4110 C.3   1 <1>   0.0400 
  4 C       -2.6350    -3.4740    -0.2120 C.ar  1 <1>  -0.1500 
  5 C       -2.0100    -1.1930     0.1810 C.ar  1 <1>  -0.1500 
  6 C       -3.3910    -3.0890    -1.3090 C.ar  1 <1>  -0.1430 
  7 C       -2.7570    -0.8050    -0.9170 C.ar  1 <1>  -0.1500 
  8 C       -3.4460    -1.7470    -1.6610 C.ar  1 <1>  -0.1500 
  9 C       -4.1580    -4.1280    -2.1000 C.3   1 <1>   0.4860 
 10 N       -5.2210    -4.6730    -1.2270 N.4   1 <1>  -0.9590 
 11 C       -5.7650    -5.9670    -1.7110 C.3   1 <1>   0.5240 
 12 C       -6.2550    -3.6630    -0.8370 C.3   1 <1>   0.3430 
 13 C       -5.7580    -6.9120    -0.5160 C.2   1 <1>   0.0460 
 14 C       -7.0200    -4.0580     0.4340 C.3   1 <1>   0.1200 
 15 N       -4.8170    -6.7700     0.4450 N.2   1 <1>  -0.5650 
 16 C       -6.5980    -7.9260    -0.2160 C.2   1 <1>  -0.3020 
 17 O       -8.0040    -3.1080     0.6470 O.3   1 <1>  -0.6800 
 18 C       -5.0960    -7.7010     1.2960 C.2   1 <1>   0.0060 
 19 N       -6.1710    -8.4430     0.9520 N.pl3 1 <1>   0.0330 
 20 C       -4.3020    -7.9520     2.5610 C.3   1 <1>  -0.0600 
 21 H       -0.0040    -2.7400     3.1710 H     1 <1>   0.0800 
 22 H       -1.1330    -1.4230     2.8680 H     1 <1>   0.0800 
 23 H        0.2670    -1.6630     1.8050 H     1 <1>   0.0800 
 24 H       -2.5620    -4.5070     0.0850 H     1 <1>   0.1500 
 25 H       -1.4860    -0.4410     0.7420 H     1 <1>   0.1500 
 26 H       -2.8000     0.2360    -1.1930 H     1 <1>   0.1500 
 27 H       -4.0190    -1.4190    -2.5120 H     1 <1>   0.1500 
 28 H       -3.4790    -4.9130    -2.3940 H     1 <1>   0.0800 
 29 H       -4.5850    -3.6860    -2.9850 H     1 <1>   0.0800 
 30 H       -4.7390    -4.9660    -0.3530 H     1 <1>   0.4500 
 31 H       -5.1250    -6.3790    -2.4730 H     1 <1>   0.0800 
 32 H       -6.7610    -5.8540    -2.1050 H     1 <1>   0.0800 
 33 H       -6.9560    -3.5300    -1.6440 H     1 <1>   0.0800 
 34 H       -5.7760    -2.7170    -0.6450 H     1 <1>   0.0800 
 35 H       -6.3640    -4.0650     1.2880 H     1 <1>   0.0800 
 36 H       -7.5050    -5.0120     0.3280 H     1 <1>   0.0800 
 37 H       -7.4530    -8.3110    -0.7460 H     1 <1>   0.1500 
 38 H       -8.4760    -3.2650     1.4930 H     1 <1>   0.4000 
 39 H       -6.5650    -9.2340     1.4740 H     1 <1>   0.2700 
 40 H       -3.4960    -7.2430     2.6360 H     1 <1>   0.0800 
 41 H       -3.8850    -8.9420     2.5470 H     1 <1>   0.0800 
 42 H       -4.9330    -7.8450     3.4250 H     1 <1>   0.0800 
@<TRIPOS>BOND
  1   1   2  1   
  2   1   3  1   
  3   2   4  ar  
  4   2   5  ar  
  5   3  21  1   
  6   3  22  1   
  7   3  23  1   
  8   4   6  ar  
  9   4  24  1   
 10   5   7  ar  
 11   5  25  1   
 12   6   8  ar  
 13   6   9  1   
 14   7   8  ar  
 15   7  26  1   
 16   8  27  1   
 17   9  10  1   
 18   9  28  1   
 19   9  29  1   
 20  10  11  1   
 21  10  12  1   
 22  10  30  1   
 23  11  13  1   
 24  11  31  1   
 25  11  32  1   
 26  12  14  1   
 27  12  33  1   
 28  12  34  1   
 29  13  15  1   
 30  13  16  2   
 31  14  17  1   
 32  14  35  1   
 33  14  36  1   
 34  15  18  2   
 35  16  19  1   
 36  16  37  1   
 37  17  38  1   
 38  18  19  1   
 39  18  20  1   
 40  19  39  1   
 41  20  40  1   
 42  20  41  1   
 43  20  42  1   
@<TRIPOS>SUBSTRUCTURE
  1 ****  10 GROUP 4 **** **** 0

# MOE 2024.06 (io_trps.svl 2023.06)
