@<TRIPOS>MOLECULE
NONAME
51 54 1 0 0 
SMALL
USER_CHARGES


@<TRIPOS>ATOM
  1 O        0.3650    -0.1160     1.2260 O.2   1 <1>  -0.5700 
  2 C       -0.4040     0.7990     1.4140 C.2   1 <1>   0.5690 
  3 N       -1.6720     0.7850     0.8880 N.am  1 <1>  -0.6600 
  4 C        0.1050     1.9670     2.2490 C.3   1 <1>   0.0440 
  5 C       -2.6220     1.9500     0.9420 C.3   1 <1>   0.1400 
  6 C       -2.1110    -0.3870     0.0690 C.3   1 <1>   0.1400 
  7 C        0.4310     3.2040     1.4150 C.ar  1 <1>  -0.1440 
  8 C       -3.3430     2.1530    -0.4020 C.3   1 <1>   0.1440 
  9 C       -3.6320    -0.4040    -0.1230 C.3   1 <1>  -0.1600 
 10 C        1.0860     3.0920     0.1950 C.ar  1 <1>   0.1600 
 11 C        0.0750     4.4620     1.8630 C.ar  1 <1>  -0.1500 
 12 C       -4.1810     3.4150    -0.2870 C.ar  1 <1>   0.1660 
 13 C       -4.1840     0.8940    -0.7490 C.3   1 <1>  -0.1600 
 14 C       -2.3400     2.5280    -1.5330 C.3   1 <1>  -0.1600 
 15 N        1.3940     4.1090    -0.5960 N.ar  1 <1>  -0.6200 
 16 C        0.3990     5.5310     1.0560 C.ar  1 <1>  -0.1500 
 17 N       -5.2870     3.5310     0.4070 N.ar  1 <1>  -0.6200 
 18 C       -3.6260     4.4530    -0.9710 C.ar  1 <1>  -0.1430 
 19 C       -2.3390     4.0610    -1.6500 C.3   1 <1>  -0.0170 
 20 C        1.0500     5.3030    -0.1440 C.ar  1 <1>   0.1600 
 21 C       -5.8530     4.7410     0.3830 C.ar  1 <1>   0.7200 
 22 C       -4.2750     5.6610    -0.9380 C.ar  1 <1>   0.1600 
 23 N       -5.3900     5.8160    -0.2630 N.ar  1 <1>  -0.6200 
 24 N       -7.0240     4.8950     1.0990 N.pl3 1 <1>  -0.8380 
 25 C       -7.8270     3.7300     1.5650 C.3   1 <1>   0.1290 
 26 C       -7.6030     6.2360     1.3880 C.3   1 <1>   0.1290 
 27 H        0.9970     1.6560     2.7630 H     1 <1>   0.0800 
 28 H       -0.6300     2.1980     2.9960 H     1 <1>   0.0800 
 29 H       -2.1090     2.8580     1.1940 H     1 <1>   0.0800 
 30 H       -3.3550     1.7660     1.7080 H     1 <1>   0.0800 
 31 H       -1.8000    -1.2970     0.5560 H     1 <1>   0.0800 
 32 H       -1.6240    -0.3420    -0.8900 H     1 <1>   0.0800 
 33 H       -4.0860    -0.5530     0.8420 H     1 <1>   0.0800 
 34 H       -3.9080    -1.2440    -0.7350 H     1 <1>   0.0800 
 35 H        1.3730     2.1120    -0.1530 H     1 <1>   0.1500 
 36 H       -0.4310     4.6120     2.8010 H     1 <1>   0.1500 
 37 H       -4.2590     0.7790    -1.8150 H     1 <1>   0.0800 
 38 H       -5.1890     1.0230    -0.3880 H     1 <1>   0.0800 
 39 H       -2.6750     2.1310    -2.4730 H     1 <1>   0.0800 
 40 H       -1.3460     2.1580    -1.3540 H     1 <1>   0.0800 
 41 H        0.1510     6.5340     1.3530 H     1 <1>   0.1500 
 42 H       -2.3130     4.3800    -2.6770 H     1 <1>   0.0800 
 43 H       -1.5060     4.4800    -1.1150 H     1 <1>   0.0800 
 44 H        1.3000     6.1470    -0.7640 H     1 <1>   0.1500 
 45 H       -3.8750     6.5080    -1.4660 H     1 <1>   0.1500 
 46 H       -7.6590     2.8760     0.9320 H     1 <1>   0.0800 
 47 H       -8.8760     3.9690     1.5360 H     1 <1>   0.0800 
 48 H       -7.5460     3.4800     2.5720 H     1 <1>   0.0800 
 49 H       -6.8240     6.9750     1.4620 H     1 <1>   0.0800 
 50 H       -8.1380     6.2140     2.3210 H     1 <1>   0.0800 
 51 H       -8.2750     6.5150     0.5960 H     1 <1>   0.0800 
@<TRIPOS>BOND
  1   1   2  2   
  2   2   3  am  
  3   2   4  1   
  4   3   5  1   
  5   3   6  1   
  6   4   7  1   
  7   4  27  1   
  8   4  28  1   
  9   5   8  1   
 10   5  29  1   
 11   5  30  1   
 12   6   9  1   
 13   6  31  1   
 14   6  32  1   
 15   7  10  ar  
 16   7  11  ar  
 17   8  12  1   
 18   8  13  1   
 19   8  14  1   
 20   9  13  1   
 21   9  33  1   
 22   9  34  1   
 23  10  15  ar  
 24  10  35  1   
 25  11  16  ar  
 26  11  36  1   
 27  12  17  ar  
 28  12  18  ar  
 29  13  37  1   
 30  13  38  1   
 31  14  19  1   
 32  14  39  1   
 33  14  40  1   
 34  15  20  ar  
 35  16  20  ar  
 36  16  41  1   
 37  17  21  ar  
 38  18  19  1   
 39  18  22  ar  
 40  19  42  1   
 41  19  43  1   
 42  20  44  1   
 43  21  23  ar  
 44  21  24  1   
 45  22  23  ar  
 46  22  45  1   
 47  24  25  1   
 48  24  26  1   
 49  25  46  1   
 50  25  47  1   
 51  25  48  1   
 52  26  49  1   
 53  26  50  1   
 54  26  51  1   
@<TRIPOS>SUBSTRUCTURE
  1 ****   5 GROUP 4 **** **** 0

# MOE 2024.06 (io_trps.svl 2023.06)
