@<TRIPOS>MOLECULE
NONAME
56 58 1 0 0 
SMALL
USER_CHARGES


@<TRIPOS>ATOM
  1 O        0.2580     0.6200     0.3810 O.2   1 <1>  -0.5700 
  2 C        0.4020     1.8110     0.5360 C.2   1 <1>   0.5690 
  3 N       -0.6130     2.6030     1.0090 N.am  1 <1>  -0.6600 
  4 C        1.7480     2.4300     0.1850 C.3   1 <1>  -0.0990 
  5 C       -1.9700     2.0410     1.2820 C.3   1 <1>   0.1400 
  6 C       -0.5540     4.0780     1.1980 C.3   1 <1>   0.1400 
  7 C        2.7660     1.4330    -0.3890 C.3   1 <1>  -0.0160 
  8 C       -2.9990     2.6300     0.2990 C.3   1 <1>   0.0000 
  9 C       -1.5390     4.7540     0.2380 C.3   1 <1>  -0.1600 
 10 C        4.0730     2.1420    -0.7070 C.ar  1 <1>  -0.1440 
 11 C       -4.3960     2.0480     0.5780 C.3   1 <1>   0.2000 
 12 C       -2.9630     4.1830     0.3830 C.3   1 <1>  -0.1600 
 13 C       -2.7600     2.1540    -1.1450 C.3   1 <1>  -0.1600 
 14 C        5.0740     2.2280     0.2470 C.ar  1 <1>  -0.1500 
 15 C        4.2710     2.7140    -1.9530 C.ar  1 <1>  -0.1500 
 16 O       -5.0270     2.6940     1.6440 O.3   1 <1>  -0.5600 
 17 C       -5.1770     2.2150    -0.7270 C.3   1 <1>  -0.1600 
 18 C       -4.1230     2.2330    -1.8430 C.3   1 <1>  -0.1600 
 19 C        6.2710     2.8830    -0.0360 C.ar  1 <1>   0.0820 
 20 C        5.4570     3.3660    -2.2410 C.ar  1 <1>  -0.1500 
 21 C       -6.1520     2.0450     2.1430 C.3   1 <1>   0.0400 
 22 O        7.2830     2.9920     0.8670 O.3   1 <1>  -0.3630 
 23 C        6.4600     3.4560    -1.2910 C.ar  1 <1>  -0.1440 
 24 C        7.2060     2.3950     2.1410 C.3   1 <1>   0.0400 
 25 C        7.7580     4.1770    -1.6250 C.3   1 <1>  -0.0970 
 26 H        1.5870     3.2070    -0.5390 H     1 <1>   0.0800 
 27 H        2.1600     2.8710     1.0730 H     1 <1>   0.0800 
 28 H       -1.9590     0.9680     1.2030 H     1 <1>   0.0800 
 29 H       -2.2560     2.2900     2.2890 H     1 <1>   0.0800 
 30 H       -0.8270     4.3070     2.2140 H     1 <1>   0.0800 
 31 H        0.4360     4.4600     1.0310 H     1 <1>   0.0800 
 32 H        2.3680     0.9830    -1.2830 H     1 <1>   0.0800 
 33 H        2.9410     0.6430     0.3200 H     1 <1>   0.0800 
 34 H       -1.5590     5.8100     0.4420 H     1 <1>   0.0800 
 35 H       -1.1870     4.6300    -0.7690 H     1 <1>   0.0800 
 36 H       -4.3010     1.0000     0.8120 H     1 <1>   0.0800 
 37 H       -3.6040     4.6170    -0.3630 H     1 <1>   0.0800 
 38 H       -3.3400     4.4900     1.3430 H     1 <1>   0.0800 
 39 H       -2.0110     2.7240    -1.6630 H     1 <1>   0.0800 
 40 H       -2.4390     1.1260    -1.1310 H     1 <1>   0.0800 
 41 H        4.9050     1.7800     1.2060 H     1 <1>   0.1500 
 42 H        3.5040     2.6540    -2.7040 H     1 <1>   0.1500 
 43 H       -5.8700     1.4040    -0.8650 H     1 <1>   0.0800 
 44 H       -5.7080     3.1510    -0.7200 H     1 <1>   0.0800 
 45 H       -4.2520     1.4070    -2.5210 H     1 <1>   0.0800 
 46 H       -4.2000     3.1530    -2.3980 H     1 <1>   0.0800 
 47 H        5.5930     3.8040    -3.2140 H     1 <1>   0.1500 
 48 H       -6.5290     2.6210     2.9700 H     1 <1>   0.0800 
 49 H       -5.8750     1.0620     2.4840 H     1 <1>   0.0800 
 50 H       -6.9030     1.9840     1.3750 H     1 <1>   0.0800 
 51 H        8.1260     2.5960     2.6590 H     1 <1>   0.0800 
 52 H        7.0780     1.3340     2.0210 H     1 <1>   0.0800 
 53 H        6.3820     2.8270     2.6800 H     1 <1>   0.0800 
 54 H        7.7440     4.5610    -2.6290 H     1 <1>   0.0800 
 55 H        8.5860     3.4970    -1.5280 H     1 <1>   0.0800 
 56 H        7.9040     4.9960    -0.9440 H     1 <1>   0.0800 
@<TRIPOS>BOND
  1   1   2  2   
  2   2   3  am  
  3   2   4  1   
  4   3   5  1   
  5   3   6  1   
  6   4   7  1   
  7   4  26  1   
  8   4  27  1   
  9   5   8  1   
 10   5  28  1   
 11   5  29  1   
 12   6   9  1   
 13   6  30  1   
 14   6  31  1   
 15   7  10  1   
 16   7  32  1   
 17   7  33  1   
 18   8  11  1   
 19   8  12  1   
 20   8  13  1   
 21   9  12  1   
 22   9  34  1   
 23   9  35  1   
 24  10  14  ar  
 25  10  15  ar  
 26  11  16  1   
 27  11  17  1   
 28  11  36  1   
 29  12  37  1   
 30  12  38  1   
 31  13  18  1   
 32  13  39  1   
 33  13  40  1   
 34  14  19  ar  
 35  14  41  1   
 36  15  20  ar  
 37  15  42  1   
 38  16  21  1   
 39  17  18  1   
 40  17  43  1   
 41  17  44  1   
 42  18  45  1   
 43  18  46  1   
 44  19  22  1   
 45  19  23  ar  
 46  20  23  ar  
 47  20  47  1   
 48  21  48  1   
 49  21  49  1   
 50  21  50  1   
 51  22  24  1   
 52  23  25  1   
 53  24  51  1   
 54  24  52  1   
 55  24  53  1   
 56  25  54  1   
 57  25  55  1   
 58  25  56  1   
@<TRIPOS>SUBSTRUCTURE
  1 ****   4 GROUP 4 **** **** 0

# MOE 2024.06 (io_trps.svl 2023.06)
