@<TRIPOS>MOLECULE
NONAME
49 51 1 0 0 
SMALL
USER_CHARGES


@<TRIPOS>ATOM
  1 CL       1.7440     0.6870     2.6920 Cl    1 <1>  -0.1770 
  2 C        2.2860     1.1770     1.0970 C.ar  1 <1>   0.1770 
  3 C        2.7040     0.2220     0.1600 C.ar  1 <1>   0.1000 
  4 C        2.2920     2.5280     0.8220 C.ar  1 <1>  -0.1500 
  5 N        2.7050    -1.1470     0.4400 N.pl3 1 <1>  -0.8380 
  6 C        3.1140     0.7040    -1.0810 C.ar  1 <1>  -0.1500 
  7 C        2.7270     3.0040    -0.4130 C.ar  1 <1>   0.0860 
  8 C        1.4210    -1.8450     0.6840 C.3   1 <1>   0.2090 
  9 C        3.7250    -2.0980    -0.0690 C.3   1 <1>   0.2090 
 10 C        3.1240     2.0580    -1.3590 C.ar  1 <1>  -0.1500 
 11 C        2.7600     4.4230    -0.6930 C.2   1 <1>   0.5440 
 12 C        1.5960    -3.2200     0.0550 C.3   1 <1>  -0.1600 
 13 C        3.0990    -3.4750     0.1140 C.3   1 <1>  -0.1600 
 14 O        1.7390     5.0730    -0.5660 O.2   1 <1>  -0.5700 
 15 N        3.9210     5.0640    -1.0850 N.am  1 <1>  -0.6600 
 16 C        3.9120     6.4850    -1.5350 C.3   1 <1>   0.1400 
 17 C        5.2800     4.4820    -0.9100 C.3   1 <1>   0.1400 
 18 C        4.6990     7.3400    -0.5420 C.3   1 <1>  -0.1600 
 19 C        6.0720     5.3320     0.0860 C.3   1 <1>  -0.1600 
 20 C        6.1170     6.7930    -0.3610 C.3   1 <1>   0.2760 
 21 N        6.8020     7.5570     0.6600 N.am  1 <1>  -0.9140 
 22 S        7.7290     8.8130     0.0600 S.o2  1 <1>   1.3330 
 23 O        7.1090     9.3320    -1.1350 O.2   1 <1>  -0.6500 
 24 O        9.0600     8.2610     0.0240 O.2   1 <1>  -0.6500 
 25 C        7.6170    10.0280     1.3540 C.3   1 <1>  -0.1350 
 26 H        1.9590     3.2260     1.5680 H     1 <1>   0.1500 
 27 H        3.4180     0.0130    -1.8430 H     1 <1>   0.1500 
 28 H        0.5950    -1.3080     0.2490 H     1 <1>   0.0800 
 29 H        1.2720    -1.9380     1.7470 H     1 <1>   0.0800 
 30 H        4.6410    -2.0050     0.4900 H     1 <1>   0.0800 
 31 H        3.9170    -1.9230    -1.1110 H     1 <1>   0.0800 
 32 H        3.4410     2.4010    -2.3290 H     1 <1>   0.1500 
 33 H        1.2710    -3.1770    -0.9700 H     1 <1>   0.0800 
 34 H        1.0290    -3.9720     0.5740 H     1 <1>   0.0800 
 35 H        3.3670    -3.8510     1.0860 H     1 <1>   0.0800 
 36 H        3.4300    -4.1700    -0.6360 H     1 <1>   0.0800 
 37 H        2.9040     6.8570    -1.6140 H     1 <1>   0.0800 
 38 H        4.3610     6.5480    -2.5120 H     1 <1>   0.0800 
 39 H        5.7810     4.4660    -1.8640 H     1 <1>   0.0800 
 40 H        5.2280     3.4720    -0.5430 H     1 <1>   0.0800 
 41 H        4.1790     7.3400     0.4000 H     1 <1>   0.0800 
 42 H        4.7330     8.3490    -0.9100 H     1 <1>   0.0800 
 43 H        7.0710     4.9410     0.1550 H     1 <1>   0.0800 
 44 H        5.6040     5.2560     1.0510 H     1 <1>   0.0800 
 45 H        6.6530     6.8470    -1.2970 H     1 <1>   0.0800 
 46 H        7.5090     6.9390     1.0530 H     1 <1>   0.4200 
 47 H        6.5970    10.3370     1.4800 H     1 <1>   0.0800 
 48 H        8.2080    10.8870     1.1040 H     1 <1>   0.0800 
 49 H        7.9730     9.6210     2.2790 H     1 <1>   0.0800 
@<TRIPOS>BOND
  1   1   2  1   
  2   2   3  ar  
  3   2   4  ar  
  4   3   5  1   
  5   3   6  ar  
  6   4   7  ar  
  7   4  26  1   
  8   5   8  1   
  9   5   9  1   
 10   6  10  ar  
 11   6  27  1   
 12   7  10  ar  
 13   7  11  1   
 14   8  12  1   
 15   8  28  1   
 16   8  29  1   
 17   9  13  1   
 18   9  30  1   
 19   9  31  1   
 20  10  32  1   
 21  11  14  2   
 22  11  15  am  
 23  12  13  1   
 24  12  33  1   
 25  12  34  1   
 26  13  35  1   
 27  13  36  1   
 28  15  16  1   
 29  15  17  1   
 30  16  18  1   
 31  16  37  1   
 32  16  38  1   
 33  17  19  1   
 34  17  39  1   
 35  17  40  1   
 36  18  20  1   
 37  18  41  1   
 38  18  42  1   
 39  19  20  1   
 40  19  43  1   
 41  19  44  1   
 42  20  21  1   
 43  20  45  1   
 44  21  22  am  
 45  21  46  1   
 46  22  23  2   
 47  22  24  2   
 48  22  25  1   
 49  25  47  1   
 50  25  48  1   
 51  25  49  1   
@<TRIPOS>SUBSTRUCTURE
  1 ****   7 GROUP 4 **** **** 0

# MOE 2024.06 (io_trps.svl 2023.06)
