@<TRIPOS>MOLECULE
NONAME
47 49 1 0 0 
SMALL
USER_CHARGES


@<TRIPOS>ATOM
  1 S       -0.1770    -0.1450     0.1490 S.o2  1 <1>   1.3330 
  2 O       -0.1030    -0.7240     1.4710 O.2   1 <1>  -0.6500 
  3 O       -0.9490     1.0580    -0.0600 O.2   1 <1>  -0.6500 
  4 N       -0.7560    -1.3420    -0.9080 N.am  1 <1>  -0.8490 
  5 C        1.4790     0.1520    -0.4730 C.3   1 <1>  -0.0550 
  6 C       -0.3800    -2.7030    -0.5110 C.3   1 <1>   0.1160 
  7 C       -2.2080    -1.2610    -1.0990 C.3   1 <1>   0.1160 
  8 C        2.2150     1.2940     0.2550 C.3   1 <1>  -0.0800 
  9 C        3.5240     1.6300    -0.4410 C.3   1 <1>   0.2200 
 10 C        2.6750     0.8860     1.6640 C.3   1 <1>   0.1200 
 11 N        3.8700     3.0410    -0.1590 N.am  1 <1>  -0.7300 
 12 C        4.5030     0.7190     0.2830 C.3   1 <1>   0.1200 
 13 O        4.0550     0.6730     1.6020 O.3   1 <1>  -0.5600 
 14 C        4.0370     4.0200    -1.0960 C.2   1 <1>   0.5440 
 15 O        3.9000     3.7230    -2.2660 O.2   1 <1>  -0.5700 
 16 C        4.3840     5.3750    -0.7060 C.ar  1 <1>   0.0860 
 17 C        4.0650     5.8930     0.5520 C.ar  1 <1>  -0.1500 
 18 C        5.0550     6.2250    -1.5870 C.ar  1 <1>  -0.1500 
 19 C        4.4090     7.1830     0.9130 C.ar  1 <1>  -0.1500 
 20 C        5.4010     7.5150    -1.2330 C.ar  1 <1>  -0.1500 
 21 C        5.0840     8.0130     0.0250 C.ar  1 <1>  -0.0230 
 22 N        5.4360     9.3370     0.3910 N.pl3 1 <1>   0.3260 
 23 C        6.0230     9.7810     1.5120 C.2   1 <1>   0.0360 
 24 C        5.2700    10.4780    -0.2900 C.2   1 <1>   0.0360 
 25 N        6.1930    11.0570     1.5090 N.2   1 <1>  -0.3380 
 26 N        5.7090    11.5060     0.3490 N.2   1 <1>  -0.3380 
 27 H        2.0540    -0.7500    -0.4060 H     1 <1>   0.0800 
 28 H        1.3960     0.4110    -1.5110 H     1 <1>   0.0800 
 29 H       -0.6910    -3.4070    -1.2640 H     1 <1>   0.0800 
 30 H       -0.8440    -2.9640     0.4260 H     1 <1>   0.0800 
 31 H        0.6880    -2.7760    -0.3990 H     1 <1>   0.0800 
 32 H       -2.5370    -2.0230    -1.7850 H     1 <1>   0.0800 
 33 H       -2.4730    -0.3020    -1.5110 H     1 <1>   0.0800 
 34 H       -2.7170    -1.3860    -0.1580 H     1 <1>   0.0800 
 35 H        1.5660     2.1530     0.2910 H     1 <1>   0.0800 
 36 H        3.5050     1.4460    -1.5030 H     1 <1>   0.0800 
 37 H        2.2110    -0.0170     2.0190 H     1 <1>   0.0800 
 38 H        2.4980     1.6770     2.3730 H     1 <1>   0.0800 
 39 H        4.1220     3.2120     0.8160 H     1 <1>   0.3700 
 40 H        5.5140     1.0860     0.2530 H     1 <1>   0.0800 
 41 H        4.4640    -0.2800    -0.1140 H     1 <1>   0.0800 
 42 H        3.5310     5.2800     1.2560 H     1 <1>   0.1500 
 43 H        5.3080     5.8570    -2.5680 H     1 <1>   0.1500 
 44 H        4.1400     7.5460     1.8920 H     1 <1>   0.1500 
 45 H        5.9250     8.1320    -1.9440 H     1 <1>   0.1500 
 46 H        6.3130     9.1230     2.3090 H     1 <1>   0.1500 
 47 H        4.8130    10.5070    -1.2620 H     1 <1>   0.1500 
@<TRIPOS>BOND
  1   1   2  2   
  2   1   3  2   
  3   1   4  am  
  4   1   5  1   
  5   4   6  1   
  6   4   7  1   
  7   5   8  1   
  8   5  27  1   
  9   5  28  1   
 10   6  29  1   
 11   6  30  1   
 12   6  31  1   
 13   7  32  1   
 14   7  33  1   
 15   7  34  1   
 16   8   9  1   
 17   8  10  1   
 18   8  35  1   
 19   9  11  1   
 20   9  12  1   
 21   9  36  1   
 22  10  13  1   
 23  10  37  1   
 24  10  38  1   
 25  11  14  am  
 26  11  39  1   
 27  12  13  1   
 28  12  40  1   
 29  12  41  1   
 30  14  15  2   
 31  14  16  1   
 32  16  17  ar  
 33  16  18  ar  
 34  17  19  ar  
 35  17  42  1   
 36  18  20  ar  
 37  18  43  1   
 38  19  21  ar  
 39  19  44  1   
 40  20  21  ar  
 41  20  45  1   
 42  21  22  1   
 43  22  23  1   
 44  22  24  1   
 45  23  25  2   
 46  23  46  1   
 47  24  26  2   
 48  24  47  1   
 49  25  26  1   
@<TRIPOS>SUBSTRUCTURE
  1 ****  11 GROUP 4 **** **** 0

# MOE 2024.06 (io_trps.svl 2023.06)
