@<TRIPOS>MOLECULE
NONAME
49 51 1 0 0 
SMALL
USER_CHARGES


@<TRIPOS>ATOM
  1 S       -0.4110    -0.9950    -1.5660 S.3   1 <1>  -0.0800 
  2 C       -1.6700    -1.4000    -0.4450 C.2   1 <1>   0.4420 
  3 C       -1.0900     0.5930    -1.6360 C.2   1 <1>   0.2280 
  4 N       -2.4550    -0.4100    -0.2180 N.2   1 <1>  -0.3380 
  5 N       -1.6850    -2.6960     0.0280 N.am  1 <1>  -0.4940 
  6 N       -2.1180     0.7260    -0.9010 N.2   1 <1>  -0.3380 
  7 C       -2.4600    -3.2380     1.0190 C.2   1 <1>   0.5690 
  8 O       -3.1500    -2.5640     1.7440 O.2   1 <1>  -0.5700 
  9 C       -2.4290    -4.7790     1.1970 C.3   1 <1>   0.2510 
 10 N       -3.7210    -5.4910     0.9370 N.3   1 <1>  -0.8100 
 11 C       -1.8640    -5.1930     2.5620 C.3   1 <1>  -0.2400 
 12 C       -4.1310    -5.3440    -0.4600 C.3   1 <1>   0.1100 
 13 C       -4.8040    -5.0800     1.8420 C.3   1 <1>   0.1100 
 14 C       -5.2920    -6.2960    -0.7420 C.3   1 <1>  -0.1600 
 15 C       -5.9850    -6.0290     1.6660 C.3   1 <1>  -0.1600 
 16 C       -6.4730    -6.0460     0.2100 C.3   1 <1>   0.4230 
 17 N       -7.5270    -7.1050     0.0290 N.4   1 <1>  -0.9590 
 18 C       -7.9980    -7.2170    -1.3920 C.3   1 <1>   0.3430 
 19 C       -8.6890    -6.9210     0.9610 C.3   1 <1>   0.3430 
 20 C       -8.9580    -8.3930    -1.5490 C.3   1 <1>  -0.1600 
 21 C       -9.6620    -8.0910     0.8450 C.3   1 <1>  -0.1600 
 22 C      -10.1350    -8.2390    -0.5950 C.3   1 <1>   0.2000 
 23 O      -10.9270    -9.3570    -0.6870 O.3   1 <1>  -0.6800 
 24 H       -0.6160     1.3220    -2.2680 H     1 <1>   0.1500 
 25 H       -1.0190    -3.3170    -0.4210 H     1 <1>   0.3700 
 26 H       -1.7280    -5.1590     0.4750 H     1 <1>   0.0800 
 27 H       -2.4060    -4.7260     3.3640 H     1 <1>   0.0800 
 28 H       -0.8390    -4.8780     2.6400 H     1 <1>   0.0800 
 29 H       -1.9020    -6.2610     2.6730 H     1 <1>   0.0800 
 30 H       -3.3080    -5.5960    -1.1100 H     1 <1>   0.0800 
 31 H       -4.4220    -4.3240    -0.6570 H     1 <1>   0.0800 
 32 H       -5.1070    -4.0670     1.6340 H     1 <1>   0.0800 
 33 H       -4.4790    -5.1270     2.8670 H     1 <1>   0.0800 
 34 H       -4.9310    -7.3030    -0.6330 H     1 <1>   0.0800 
 35 H       -5.5840    -6.1370    -1.7630 H     1 <1>   0.0800 
 36 H       -6.7580    -5.6860     2.3270 H     1 <1>   0.0800 
 37 H       -5.6720    -7.0120     1.9720 H     1 <1>   0.0800 
 38 H       -6.8920    -5.0780    -0.0170 H     1 <1>   0.0800 
 39 H       -7.0730    -7.9950     0.2750 H     1 <1>   0.4500 
 40 H       -7.1620    -7.3720    -2.0540 H     1 <1>   0.0800 
 41 H       -8.4940    -6.3050    -1.6830 H     1 <1>   0.0800 
 42 H       -9.2020    -6.0020     0.7260 H     1 <1>   0.0800 
 43 H       -8.3480    -6.8650     1.9810 H     1 <1>   0.0800 
 44 H       -8.4310    -9.3120    -1.3610 H     1 <1>   0.0800 
 45 H       -9.3230    -8.4120    -2.5610 H     1 <1>   0.0800 
 46 H      -10.5110    -7.9030     1.4790 H     1 <1>   0.0800 
 47 H       -9.1790    -8.9910     1.1830 H     1 <1>   0.0800 
 48 H      -10.7410    -7.3930    -0.8800 H     1 <1>   0.0800 
 49 H      -10.4450   -10.1700    -0.4440 H     1 <1>   0.4000 
@<TRIPOS>BOND
  1   1   2  1   
  2   1   3  1   
  3   2   4  2   
  4   2   5  1   
  5   3   6  2   
  6   3  24  1   
  7   4   6  1   
  8   5   7  am  
  9   5  25  1   
 10   7   8  2   
 11   7   9  1   
 12   9  10  1   
 13   9  11  1   
 14   9  26  1   
 15  10  12  1   
 16  10  13  1   
 17  11  27  1   
 18  11  28  1   
 19  11  29  1   
 20  12  14  1   
 21  12  30  1   
 22  12  31  1   
 23  13  15  1   
 24  13  32  1   
 25  13  33  1   
 26  14  16  1   
 27  14  34  1   
 28  14  35  1   
 29  15  16  1   
 30  15  36  1   
 31  15  37  1   
 32  16  17  1   
 33  16  38  1   
 34  17  18  1   
 35  17  19  1   
 36  17  39  1   
 37  18  20  1   
 38  18  40  1   
 39  18  41  1   
 40  19  21  1   
 41  19  42  1   
 42  19  43  1   
 43  20  22  1   
 44  20  44  1   
 45  20  45  1   
 46  21  22  1   
 47  21  46  1   
 48  21  47  1   
 49  22  23  1   
 50  22  48  1   
 51  23  49  1   
@<TRIPOS>SUBSTRUCTURE
  1 ****  12 GROUP 4 **** **** 0

# MOE 2024.06 (io_trps.svl 2023.06)
