@<TRIPOS>MOLECULE
NONAME
51 54 1 0 0 
SMALL
USER_CHARGES


@<TRIPOS>ATOM
  1 O        2.1650    -0.5430     2.3400 O.2   1 <1>  -0.5700 
  2 C        2.3040    -0.9340     1.1960 C.2   1 <1>   0.5440 
  3 N        2.7200    -0.0260     0.2340 N.am  1 <1>  -0.6600 
  4 C        2.0530    -2.3280     0.8890 C.ar  1 <1>   0.0860 
  5 C        2.8510     1.4180     0.6170 C.3   1 <1>   0.1400 
  6 C        3.3620    -0.4820    -1.0400 C.3   1 <1>   0.1400 
  7 C        2.7510    -3.3430     1.5400 C.ar  1 <1>  -0.1500 
  8 C        1.1140    -2.7100    -0.0680 C.ar  1 <1>  -0.1500 
  9 C        4.3020     1.8530     0.9540 C.3   1 <1>   0.4230 
 10 C        4.7980     0.0420    -1.2710 C.3   1 <1>  -0.0800 
 11 C        2.5300    -4.6740     1.2430 C.ar  1 <1>  -0.1500 
 12 C        0.8940    -4.0420    -0.3670 C.ar  1 <1>  -0.1500 
 13 N        5.0680     2.3430    -0.2510 N.4   1 <1>  -0.9590 
 14 C        5.1410     0.7960     1.7250 C.3   1 <1>   0.1200 
 15 C        5.8530    -0.4440    -0.2540 C.3   1 <1>   0.1200 
 16 C        4.8210     1.5560    -1.4950 C.3   1 <1>   0.3430 
 17 C        1.5980    -5.0520     0.2810 C.ar  1 <1>   0.0000 
 18 C        4.8350     3.8000    -0.4940 C.3   1 <1>   0.2630 
 19 O        5.3850    -0.4170     1.0560 O.3   1 <1>  -0.5600 
 20 C        1.3640    -6.4430    -0.0290 C.ar  1 <1>   0.0000 
 21 C        0.0860    -6.9920     0.0700 C.ar  1 <1>  -0.1500 
 22 C        2.4050    -7.2750    -0.4380 C.ar  1 <1>  -0.1500 
 23 C       -0.1450    -8.3220    -0.2300 C.ar  1 <1>  -0.1500 
 24 C        2.1830    -8.6070    -0.7390 C.ar  1 <1>  -0.1500 
 25 C        0.9040    -9.1270    -0.6340 C.ar  1 <1>   0.0820 
 26 O        0.6700   -10.4140    -0.9230 O.3   1 <1>  -0.5330 
 27 H        2.4450     2.0340    -0.1650 H     1 <1>   0.0800 
 28 H        2.2450     1.6090     1.4850 H     1 <1>   0.0800 
 29 H        3.4070    -1.5580    -1.0610 H     1 <1>   0.0800 
 30 H        2.7330    -0.1810    -1.8600 H     1 <1>   0.0800 
 31 H        3.4740    -3.0710     2.2910 H     1 <1>   0.1500 
 32 H        0.5480    -1.9500    -0.5770 H     1 <1>   0.1500 
 33 H        4.2070     2.6900     1.6250 H     1 <1>   0.0800 
 34 H        5.0950    -0.3760    -2.2160 H     1 <1>   0.0800 
 35 H        3.0810    -5.4360     1.7670 H     1 <1>   0.1500 
 36 H        0.1650    -4.3100    -1.1120 H     1 <1>   0.1500 
 37 H        6.0600     2.2110    -0.0090 H     1 <1>   0.4500 
 38 H        4.6180     0.5390     2.6300 H     1 <1>   0.0800 
 39 H        6.0900     1.2120     2.0090 H     1 <1>   0.0800 
 40 H        6.7700     0.1170    -0.3120 H     1 <1>   0.0800 
 41 H        6.0860    -1.4760    -0.4620 H     1 <1>   0.0800 
 42 H        3.8830     1.8530    -1.9350 H     1 <1>   0.0800 
 43 H        5.5980     1.7860    -2.2070 H     1 <1>   0.0800 
 44 H        3.8010     3.9800    -0.7420 H     1 <1>   0.0800 
 45 H        5.4500     4.1470    -1.3100 H     1 <1>   0.0800 
 46 H        5.0830     4.3730     0.3850 H     1 <1>   0.0800 
 47 H       -0.7300    -6.3690     0.3900 H     1 <1>   0.1500 
 48 H        3.3970    -6.8680    -0.5220 H     1 <1>   0.1500 
 49 H       -1.1320    -8.7420    -0.1510 H     1 <1>   0.1500 
 50 H        3.0010    -9.2300    -1.0520 H     1 <1>   0.1500 
 51 H        1.4660   -10.8990    -1.1990 H     1 <1>   0.4500 
@<TRIPOS>BOND
  1   1   2  2   
  2   2   3  am  
  3   2   4  1   
  4   3   5  1   
  5   3   6  1   
  6   4   7  ar  
  7   4   8  ar  
  8   5   9  1   
  9   5  27  1   
 10   5  28  1   
 11   6  10  1   
 12   6  29  1   
 13   6  30  1   
 14   7  11  ar  
 15   7  31  1   
 16   8  12  ar  
 17   8  32  1   
 18   9  13  1   
 19   9  14  1   
 20   9  33  1   
 21  10  15  1   
 22  10  16  1   
 23  10  34  1   
 24  11  17  ar  
 25  11  35  1   
 26  12  17  ar  
 27  12  36  1   
 28  13  16  1   
 29  13  18  1   
 30  13  37  1   
 31  14  19  1   
 32  14  38  1   
 33  14  39  1   
 34  15  19  1   
 35  15  40  1   
 36  15  41  1   
 37  16  42  1   
 38  16  43  1   
 39  17  20  1   
 40  18  44  1   
 41  18  45  1   
 42  18  46  1   
 43  20  21  ar  
 44  20  22  ar  
 45  21  23  ar  
 46  21  47  1   
 47  22  24  ar  
 48  22  48  1   
 49  23  25  ar  
 50  23  49  1   
 51  24  25  ar  
 52  24  50  1   
 53  25  26  1   
 54  26  51  1   
@<TRIPOS>SUBSTRUCTURE
  1 ****   4 GROUP 4 **** **** 0

# MOE 2024.06 (io_trps.svl 2023.06)
