@<TRIPOS>MOLECULE
NONAME
56 58 1 0 0 
SMALL
USER_CHARGES


@<TRIPOS>ATOM
  1 O       -1.8140     0.6580     2.8470 O.2   1 <1>  -0.5700 
  2 C       -1.9350     1.2310     1.7900 C.2   1 <1>   0.5690 
  3 N       -2.2260     0.5140     0.6550 N.am  1 <1>  -0.6600 
  4 C       -1.7570     2.7540     1.8150 C.3   1 <1>  -0.0190 
  5 C       -2.4320     0.9880    -0.7390 C.3   1 <1>   0.1400 
  6 C       -2.4350    -0.9570     0.7140 C.3   1 <1>   0.1400 
  7 C       -3.0860     3.5160     1.6460 C.3   1 <1>  -0.1600 
  8 C       -0.6730     3.2870     0.8560 C.3   1 <1>  -0.1600 
  9 C       -3.2590    -0.1150    -1.3960 C.3   1 <1>   0.2000 
 10 C       -2.7450    -1.3920    -0.7240 C.3   1 <1>  -0.0800 
 11 C       -2.8790     5.0290     1.7480 C.3   1 <1>   0.1400 
 12 C       -0.5110     4.8030     0.9870 C.3   1 <1>   0.1400 
 13 O       -4.5880     0.0870    -1.0580 O.3   1 <1>  -0.6800 
 14 C       -3.6950    -2.6010    -0.8210 C.3   1 <1>   0.0200 
 15 N       -1.8320     5.4580     0.7790 N.am  1 <1>  -0.6600 
 16 C       -3.0900    -3.8830    -0.2720 C.2   1 <1>  -0.0400 
 17 C       -2.0780     6.4540    -0.1420 C.2   1 <1>   0.5690 
 18 O       -3.8440    -4.9470    -0.1960 O.3   1 <1>  -0.0190 
 19 C       -1.8720    -4.2140     0.1870 C.2   1 <1>  -0.1500 
 20 O       -3.1820     6.9340    -0.2670 O.2   1 <1>  -0.5700 
 21 C       -0.9930     6.9790    -1.0900 C.3   1 <1>   0.1810 
 22 N       -3.2000    -5.9680     0.2910 N.2   1 <1>  -0.4100 
 23 C       -2.0080    -5.5550     0.5320 C.2   1 <1>   0.1080 
 24 O        0.1420     7.4610    -0.4120 O.3   1 <1>  -0.5600 
 25 C       -0.9110    -6.4190     1.1120 C.3   1 <1>  -0.0590 
 26 C        1.0910     8.0420    -1.2380 C.3   1 <1>   0.1200 
 27 C        2.2760     8.4340    -0.3640 C.3   1 <1>  -0.2400 
 28 H       -1.4080     2.9840     2.8070 H     1 <1>   0.0800 
 29 H       -2.9340     1.9360    -0.7940 H     1 <1>   0.0800 
 30 H       -1.4770     1.0570    -1.2280 H     1 <1>   0.0800 
 31 H       -1.5560    -1.4450     1.0980 H     1 <1>   0.0800 
 32 H       -3.2650    -1.1660     1.3690 H     1 <1>   0.0800 
 33 H       -3.7740     3.2060     2.4130 H     1 <1>   0.0800 
 34 H       -3.5420     3.3020     0.6990 H     1 <1>   0.0800 
 35 H       -0.9180     3.0710    -0.1650 H     1 <1>   0.0800 
 36 H        0.2660     2.8110     1.0780 H     1 <1>   0.0800 
 37 H       -3.1750    -0.1280    -2.4690 H     1 <1>   0.0800 
 38 H       -1.8140    -1.6520    -1.1960 H     1 <1>   0.0800 
 39 H       -2.5610     5.2920     2.7420 H     1 <1>   0.0800 
 40 H       -3.8110     5.5340     1.5550 H     1 <1>   0.0800 
 41 H        0.2140     5.1410     0.2700 H     1 <1>   0.0800 
 42 H       -0.1470     5.0550     1.9690 H     1 <1>   0.0800 
 43 H       -4.6460     0.2530    -0.0950 H     1 <1>   0.4000 
 44 H       -3.9580    -2.7650    -1.8510 H     1 <1>   0.0800 
 45 H       -4.6050    -2.4000    -0.2830 H     1 <1>   0.0800 
 46 H       -0.9770    -3.6290     0.2850 H     1 <1>   0.1500 
 47 H       -1.4060     7.7850    -1.6700 H     1 <1>   0.0800 
 48 H       -0.6880     6.1880    -1.7490 H     1 <1>   0.0800 
 49 H       -0.5770    -6.0050     2.0460 H     1 <1>   0.0800 
 50 H       -0.0840    -6.4670     0.4280 H     1 <1>   0.0800 
 51 H       -1.2790    -7.4140     1.2840 H     1 <1>   0.0800 
 52 H        1.3920     7.3280    -1.9860 H     1 <1>   0.0800 
 53 H        0.6600     8.9110    -1.7070 H     1 <1>   0.0800 
 54 H        2.6870     7.5630     0.1130 H     1 <1>   0.0800 
 55 H        1.9620     9.1390     0.3850 H     1 <1>   0.0800 
 56 H        3.0390     8.8900    -0.9670 H     1 <1>   0.0800 
@<TRIPOS>BOND
  1   1   2  2   
  2   2   3  am  
  3   2   4  1   
  4   3   5  1   
  5   3   6  1   
  6   4   7  1   
  7   4   8  1   
  8   4  28  1   
  9   5   9  1   
 10   5  29  1   
 11   5  30  1   
 12   6  10  1   
 13   6  31  1   
 14   6  32  1   
 15   7  11  1   
 16   7  33  1   
 17   7  34  1   
 18   8  12  1   
 19   8  35  1   
 20   8  36  1   
 21   9  10  1   
 22   9  13  1   
 23   9  37  1   
 24  10  14  1   
 25  10  38  1   
 26  11  15  1   
 27  11  39  1   
 28  11  40  1   
 29  12  15  1   
 30  12  41  1   
 31  12  42  1   
 32  13  43  1   
 33  14  16  1   
 34  14  44  1   
 35  14  45  1   
 36  15  17  am  
 37  16  18  1   
 38  16  19  2   
 39  17  20  2   
 40  17  21  1   
 41  18  22  1   
 42  19  23  1   
 43  19  46  1   
 44  21  24  1   
 45  21  47  1   
 46  21  48  1   
 47  22  23  2   
 48  23  25  1   
 49  24  26  1   
 50  25  49  1   
 51  25  50  1   
 52  25  51  1   
 53  26  27  1   
 54  26  52  1   
 55  26  53  1   
 56  27  54  1   
 57  27  55  1   
 58  27  56  1   
@<TRIPOS>SUBSTRUCTURE
  1 ****   3 GROUP 4 **** **** 0

# MOE 2024.06 (io_trps.svl 2023.06)
