@<TRIPOS>MOLECULE
NONAME
53 56 1 0 0 
SMALL
USER_CHARGES


@<TRIPOS>ATOM
  1 O        0.3130    -0.3900    -1.4150 O.2   1 <1>  -0.5700 
  2 C       -0.2920     0.6490    -1.5490 C.2   1 <1>   0.5690 
  3 N       -1.5570     0.8150    -1.0340 N.am  1 <1>  -0.6600 
  4 C        0.4040     1.7500    -2.3410 C.3   1 <1>   0.0440 
  5 C       -2.3410     2.0940    -1.0710 C.3   1 <1>   0.1400 
  6 C       -2.2900    -0.3260    -0.4130 C.3   1 <1>   0.1400 
  7 C        1.0100     2.8410    -1.4630 C.ar  1 <1>  -0.1440 
  8 C       -2.8330     2.5020     0.3320 C.3   1 <1>   0.1440 
  9 C       -2.7670     0.0470     0.9940 C.3   1 <1>  -0.1600 
 10 C        0.7340     4.1780    -1.7050 C.ar  1 <1>  -0.1500 
 11 C        1.8600     2.5040    -0.4190 C.ar  1 <1>  -0.1500 
 12 C       -3.6940     3.7430     0.1920 C.ar  1 <1>   0.1660 
 13 C       -3.6070     1.3340     0.9810 C.3   1 <1>  -0.1600 
 14 C       -1.6680     2.9930     1.2350 C.3   1 <1>  -0.1600 
 15 C        1.3000     5.1590    -0.9100 C.ar  1 <1>   0.0820 
 16 C        2.4250     3.4880     0.3760 C.ar  1 <1>  -0.1500 
 17 N       -4.8840     3.7790    -0.3550 N.ar  1 <1>  -0.6200 
 18 C       -3.0730     4.8470     0.6880 C.ar  1 <1>  -0.1430 
 19 C       -1.7050     4.5310     1.2360 C.3   1 <1>  -0.0170 
 20 O        1.0130     6.4450    -1.1580 O.3   1 <1>  -0.5330 
 21 C        2.1480     4.8210     0.1320 C.ar  1 <1>  -0.1500 
 22 C       -5.4610     4.9830    -0.3850 C.ar  1 <1>   0.7200 
 23 C       -3.7400     6.0430     0.6120 C.ar  1 <1>   0.1600 
 24 N       -4.9360     6.1220     0.0780 N.ar  1 <1>  -0.6200 
 25 N       -6.7180     5.0580    -0.9540 N.pl3 1 <1>  -0.8380 
 26 C       -7.5510     3.8490    -1.1950 C.3   1 <1>   0.1290 
 27 C       -7.3410     6.3590    -1.3210 C.3   1 <1>   0.1290 
 28 H       -0.2900     2.1670    -3.0440 H     1 <1>   0.0800 
 29 H        1.1960     1.3020    -2.9130 H     1 <1>   0.0800 
 30 H       -3.1950     1.9530    -1.7110 H     1 <1>   0.0800 
 31 H       -1.7590     2.8990    -1.4780 H     1 <1>   0.0800 
 32 H       -1.6620    -1.1990    -0.3570 H     1 <1>   0.0800 
 33 H       -3.1370    -0.5700    -1.0310 H     1 <1>   0.0800 
 34 H       -1.9080     0.1660     1.6320 H     1 <1>   0.0800 
 35 H       -3.3560    -0.7610     1.3910 H     1 <1>   0.0800 
 36 H        0.0840     4.4760    -2.5090 H     1 <1>   0.1500 
 37 H        2.0880     1.4680    -0.2230 H     1 <1>   0.1500 
 38 H       -4.5060     1.1560     0.4160 H     1 <1>   0.0800 
 39 H       -3.9040     1.5970     1.9810 H     1 <1>   0.0800 
 40 H       -0.7130     2.6240     0.9060 H     1 <1>   0.0800 
 41 H       -1.8230     2.6560     2.2450 H     1 <1>   0.0800 
 42 H        3.0830     3.2110     1.1810 H     1 <1>   0.1500 
 43 H       -0.9550     4.9320     0.5810 H     1 <1>   0.0800 
 44 H       -1.5730     4.9290     2.2270 H     1 <1>   0.0800 
 45 H        1.5010     7.0640    -0.5890 H     1 <1>   0.4500 
 46 H        2.5910     5.5810     0.7480 H     1 <1>   0.1500 
 47 H       -3.2880     6.9430     0.9890 H     1 <1>   0.1500 
 48 H       -7.2980     3.0690    -0.4980 H     1 <1>   0.0800 
 49 H       -7.3830     3.4910    -2.1960 H     1 <1>   0.0800 
 50 H       -8.5930     4.0860    -1.0720 H     1 <1>   0.0800 
 51 H       -6.5840     7.0790    -1.5820 H     1 <1>   0.0800 
 52 H       -7.9070     6.7350    -0.4870 H     1 <1>   0.0800 
 53 H       -7.9920     6.2320    -2.1680 H     1 <1>   0.0800 
@<TRIPOS>BOND
  1   1   2  2   
  2   2   3  am  
  3   2   4  1   
  4   3   5  1   
  5   3   6  1   
  6   4   7  1   
  7   4  28  1   
  8   4  29  1   
  9   5   8  1   
 10   5  30  1   
 11   5  31  1   
 12   6   9  1   
 13   6  32  1   
 14   6  33  1   
 15   7  10  ar  
 16   7  11  ar  
 17   8  12  1   
 18   8  13  1   
 19   8  14  1   
 20   9  13  1   
 21   9  34  1   
 22   9  35  1   
 23  10  15  ar  
 24  10  36  1   
 25  11  16  ar  
 26  11  37  1   
 27  12  17  ar  
 28  12  18  ar  
 29  13  38  1   
 30  13  39  1   
 31  14  19  1   
 32  14  40  1   
 33  14  41  1   
 34  15  20  1   
 35  15  21  ar  
 36  16  21  ar  
 37  16  42  1   
 38  17  22  ar  
 39  18  19  1   
 40  18  23  ar  
 41  19  43  1   
 42  19  44  1   
 43  20  45  1   
 44  21  46  1   
 45  22  24  ar  
 46  22  25  1   
 47  23  24  ar  
 48  23  47  1   
 49  25  26  1   
 50  25  27  1   
 51  26  48  1   
 52  26  49  1   
 53  26  50  1   
 54  27  51  1   
 55  27  52  1   
 56  27  53  1   
@<TRIPOS>SUBSTRUCTURE
  1 ****   8 GROUP 4 **** **** 0

# MOE 2024.06 (io_trps.svl 2023.06)
