@<TRIPOS>MOLECULE
NONAME
36 38 1 0 0 
SMALL
USER_CHARGES


@<TRIPOS>ATOM
  1 F       -0.7630    -1.2920    -0.7170 F     1 <1>  -0.1900 
  2 C       -1.9160    -1.7020    -0.2290 C.ar  1 <1>   0.1900 
  3 C       -2.9870    -0.8290    -0.0320 C.ar  1 <1>   0.4100 
  4 C       -2.0580    -3.0200     0.1040 C.ar  1 <1>   0.1600 
  5 N       -4.1110    -1.2930     0.4850 N.ar  1 <1>  -0.6200 
  6 N       -2.9560     0.5300    -0.3450 N.pl3 1 <1>  -0.8380 
  7 N       -3.1830    -3.4880     0.6100 N.ar  1 <1>  -0.6200 
  8 C       -4.1400    -2.5810     0.7730 C.ar  1 <1>   0.7200 
  9 C       -3.8680     1.4930     0.3340 C.3   1 <1>   0.1290 
 10 C       -2.3560     1.0190    -1.6170 C.3   1 <1>   0.1290 
 11 N       -5.3150    -2.9980     1.2870 N.pl3 1 <1>  -0.8690 
 12 C       -5.4060    -4.0320     2.3470 C.3   1 <1>   0.3890 
 13 C       -6.3040    -5.1720     1.9080 C.2   1 <1>   0.0070 
 14 N       -7.2300    -5.7230     2.6260 N.2   1 <1>  -0.3380 
 15 N       -6.2290    -5.7490     0.7110 N.pl3 1 <1>   0.0480 
 16 N       -7.7830    -6.6910     1.8810 N.2   1 <1>  -0.3380 
 17 C       -7.1610    -6.6700     0.7550 C.2   1 <1>   0.0060 
 18 C       -5.5030    -5.6920    -0.5560 C.3   1 <1>   0.0960 
 19 C       -7.2570    -7.4540    -0.5240 C.3   1 <1>   0.0200 
 20 C       -6.0870    -6.8780    -1.3560 C.3   1 <1>  -0.1600 
 21 H       -1.2380    -3.7000    -0.0440 H     1 <1>   0.1500 
 22 H       -4.0710     1.1660     1.3400 H     1 <1>   0.0800 
 23 H       -4.7960     1.5560    -0.2060 H     1 <1>   0.0800 
 24 H       -3.4100     2.4660     0.3760 H     1 <1>   0.0800 
 25 H       -2.1440     0.1950    -2.2770 H     1 <1>   0.0800 
 26 H       -1.4410     1.5440    -1.4050 H     1 <1>   0.0800 
 27 H       -3.0390     1.6840    -2.1160 H     1 <1>   0.0800 
 28 H       -5.9740    -2.2280     1.3970 H     1 <1>   0.4000 
 29 H       -5.8110    -3.5900     3.2410 H     1 <1>   0.0800 
 30 H       -4.4330    -4.4260     2.5840 H     1 <1>   0.0800 
 31 H       -4.4480    -5.8030    -0.3770 H     1 <1>   0.0800 
 32 H       -5.7030    -4.7490    -1.0330 H     1 <1>   0.0800 
 33 H       -8.2060    -7.2670    -0.9950 H     1 <1>   0.0800 
 34 H       -7.1370    -8.5060    -0.3340 H     1 <1>   0.0800 
 35 H       -5.3270    -7.6280    -1.4900 H     1 <1>   0.0800 
 36 H       -6.4220    -6.5530    -2.3250 H     1 <1>   0.0800 
@<TRIPOS>BOND
  1   1   2  1   
  2   2   3  ar  
  3   2   4  ar  
  4   3   5  ar  
  5   3   6  1   
  6   4   7  ar  
  7   4  21  1   
  8   5   8  ar  
  9   6   9  1   
 10   6  10  1   
 11   7   8  ar  
 12   8  11  1   
 13   9  22  1   
 14   9  23  1   
 15   9  24  1   
 16  10  25  1   
 17  10  26  1   
 18  10  27  1   
 19  11  12  1   
 20  11  28  1   
 21  12  13  1   
 22  12  29  1   
 23  12  30  1   
 24  13  14  2   
 25  13  15  1   
 26  14  16  1   
 27  15  17  1   
 28  15  18  1   
 29  16  17  2   
 30  17  19  1   
 31  18  20  1   
 32  18  31  1   
 33  18  32  1   
 34  19  20  1   
 35  19  33  1   
 36  19  34  1   
 37  20  35  1   
 38  20  36  1   
@<TRIPOS>SUBSTRUCTURE
  1 ****   8 GROUP 4 **** **** 0

# MOE 2024.06 (io_trps.svl 2023.06)
