@<TRIPOS>MOLECULE
NONAME
57 58 1 0 0 
SMALL
USER_CHARGES


@<TRIPOS>ATOM
  1 O       -1.6750     0.1440    -2.0410 O.2   1 <1>  -0.5700 
  2 C       -1.6320     0.5110    -0.8890 C.2   1 <1>   0.5690 
  3 N       -2.1880    -0.2770     0.0970 N.am  1 <1>  -0.6600 
  4 C       -0.9570     1.8710    -0.5770 C.3   1 <1>   0.2610 
  5 C       -2.4890    -1.7200    -0.1990 C.3   1 <1>   0.3210 
  6 C       -2.4250     0.1380     1.5190 C.3   1 <1>   0.1400 
  7 O       -1.9180     2.7350     0.0260 O.3   1 <1>  -0.3630 
  8 C       -0.3420     2.5570    -1.8140 C.3   1 <1>  -0.2400 
  9 C       -3.9800    -1.9900    -0.3920 C.2   1 <1>   0.0460 
 10 C       -3.8570     0.6470     1.8250 C.3   1 <1>   0.3430 
 11 C       -1.6510     4.0390     0.2630 C.ar  1 <1>   0.0820 
 12 N       -4.8200    -2.0890     0.6620 N.2   1 <1>  -0.5650 
 13 C       -4.6460    -2.1990    -1.5530 C.2   1 <1>  -0.3320 
 14 N       -4.3690     1.6840     0.8670 N.4   1 <1>  -0.9590 
 15 C       -0.7490     4.4630     1.2390 C.ar  1 <1>  -0.1430 
 16 C       -2.3470     4.9640    -0.5000 C.ar  1 <1>  -0.1500 
 17 C       -5.9590    -2.3880     0.1270 C.2   1 <1>   0.0360 
 18 N       -5.9220    -2.4670    -1.2190 N.pl3 1 <1>   0.0330 
 19 C       -4.1640    -2.1900    -2.9960 C.3   1 <1>  -0.0600 
 20 C       -5.3180     2.6230     1.5270 C.3   1 <1>   0.2630 
 21 C       -4.9910     1.0480    -0.3340 C.3   1 <1>   0.2630 
 22 C       -0.5560     5.8240     1.4140 C.ar  1 <1>  -0.1500 
 23 C        0.0310     3.5070     2.1290 C.3   1 <1>  -0.0970 
 24 C       -2.1490     6.3210    -0.3150 C.ar  1 <1>  -0.1430 
 25 C       -1.2480     6.7440     0.6460 C.ar  1 <1>  -0.1500 
 26 C       -2.8980     7.3420    -1.1520 C.3   1 <1>  -0.0970 
 27 H       -0.1790     1.6910     0.1390 H     1 <1>   0.0800 
 28 H       -2.1300    -2.3360     0.6050 H     1 <1>   0.0800 
 29 H       -1.9620    -2.0320    -1.0830 H     1 <1>   0.0800 
 30 H       -1.7250     0.9020     1.7940 H     1 <1>   0.0800 
 31 H       -2.2260    -0.7000     2.1650 H     1 <1>   0.0800 
 32 H       -1.1100     2.8100    -2.5230 H     1 <1>   0.0800 
 33 H        0.3480     1.8850    -2.2940 H     1 <1>   0.0800 
 34 H        0.2020     3.4420    -1.5380 H     1 <1>   0.0800 
 35 H       -3.8400     1.0660     2.8170 H     1 <1>   0.0800 
 36 H       -4.5380    -0.1840     1.8550 H     1 <1>   0.0800 
 37 H       -3.5480     2.2290     0.5390 H     1 <1>   0.4500 
 38 H       -3.0370     4.6170    -1.2470 H     1 <1>   0.1500 
 39 H       -6.8640    -2.5700     0.6820 H     1 <1>   0.1500 
 40 H       -6.6940    -2.7110    -1.8470 H     1 <1>   0.2700 
 41 H       -3.1240    -1.9240    -3.0530 H     1 <1>   0.0800 
 42 H       -4.7220    -1.4740    -3.5720 H     1 <1>   0.0800 
 43 H       -4.2880    -3.1640    -3.4360 H     1 <1>   0.0800 
 44 H       -6.1820     2.0890     1.8880 H     1 <1>   0.0800 
 45 H       -5.6420     3.3770     0.8280 H     1 <1>   0.0800 
 46 H       -4.8390     3.1140     2.3590 H     1 <1>   0.0800 
 47 H       -5.7840     0.3820    -0.0350 H     1 <1>   0.0800 
 48 H       -4.2600     0.4760    -0.8800 H     1 <1>   0.0800 
 49 H       -5.3920     1.8000    -0.9930 H     1 <1>   0.0800 
 50 H        0.1390     6.1850     2.1530 H     1 <1>   0.1500 
 51 H       -0.5930     2.6980     2.4530 H     1 <1>   0.0800 
 52 H        0.3910     4.0150     3.0060 H     1 <1>   0.0800 
 53 H        0.8800     3.1170     1.5960 H     1 <1>   0.0800 
 54 H       -1.0810     7.7960     0.8010 H     1 <1>   0.1500 
 55 H       -3.4000     6.8710    -1.9780 H     1 <1>   0.0800 
 56 H       -2.2100     8.0700    -1.5450 H     1 <1>   0.0800 
 57 H       -3.6270     7.8480    -0.5460 H     1 <1>   0.0800 
@<TRIPOS>BOND
  1   1   2  2   
  2   2   3  am  
  3   2   4  1   
  4   3   5  1   
  5   3   6  1   
  6   4   7  1   
  7   4   8  1   
  8   4  27  1   
  9   5   9  1   
 10   5  28  1   
 11   5  29  1   
 12   6  10  1   
 13   6  30  1   
 14   6  31  1   
 15   7  11  1   
 16   8  32  1   
 17   8  33  1   
 18   8  34  1   
 19   9  12  1   
 20   9  13  2   
 21  10  14  1   
 22  10  35  1   
 23  10  36  1   
 24  11  15  ar  
 25  11  16  ar  
 26  12  17  2   
 27  13  18  1   
 28  13  19  1   
 29  14  20  1   
 30  14  21  1   
 31  14  37  1   
 32  15  22  ar  
 33  15  23  1   
 34  16  24  ar  
 35  16  38  1   
 36  17  18  1   
 37  17  39  1   
 38  18  40  1   
 39  19  41  1   
 40  19  42  1   
 41  19  43  1   
 42  20  44  1   
 43  20  45  1   
 44  20  46  1   
 45  21  47  1   
 46  21  48  1   
 47  21  49  1   
 48  22  25  ar  
 49  22  50  1   
 50  23  51  1   
 51  23  52  1   
 52  23  53  1   
 53  24  25  ar  
 54  24  26  1   
 55  25  54  1   
 56  26  55  1   
 57  26  56  1   
 58  26  57  1   
@<TRIPOS>SUBSTRUCTURE
  1 ****   7 GROUP 4 **** **** 0

# MOE 2024.06 (io_trps.svl 2023.06)
