@<TRIPOS>MOLECULE
NONAME
46 48 1 0 0 
SMALL
USER_CHARGES


@<TRIPOS>ATOM
  1 O       -0.1840     0.2880    -0.3010 O.2   1 <1>  -0.5700 
  2 C       -1.2360     0.8770    -0.2110 C.2   1 <1>   0.5690 
  3 N       -2.4230     0.2030    -0.1640 N.am  1 <1>  -0.6600 
  4 C       -1.2360     2.3930    -0.1560 C.3   1 <1>  -0.0990 
  5 C       -3.7800     0.8020    -0.1220 C.3   1 <1>   0.1400 
  6 C       -2.4980    -1.2770    -0.1890 C.3   1 <1>   0.1400 
  7 C        0.1750     2.9720    -0.0690 C.3   1 <1>   0.1200 
  8 C       -4.7320    -0.3780    -0.3210 C.3   1 <1>   0.2000 
  9 C       -3.9550    -1.6100     0.1390 C.3   1 <1>  -0.0800 
 10 O        0.0720     4.3770     0.0020 O.3   1 <1>  -0.3630 
 11 O       -5.8890    -0.2340     0.4260 O.3   1 <1>  -0.6800 
 12 C       -4.4500    -2.9110    -0.5100 C.3   1 <1>   0.0200 
 13 C        1.1790     5.1570     0.0860 C.ar  1 <1>   0.0820 
 14 C       -3.5980    -4.0890    -0.0800 C.2   1 <1>  -0.0400 
 15 C        2.4790     4.6580     0.1080 C.ar  1 <1>  -0.1500 
 16 C        0.9750     6.5260     0.1550 C.ar  1 <1>  -0.1500 
 17 O       -3.5480    -4.4340     1.1790 O.3   1 <1>  -0.0190 
 18 C       -2.8070    -4.9250    -0.7690 C.2   1 <1>  -0.1500 
 19 C        3.5530     5.5270     0.1960 C.ar  1 <1>  -0.1500 
 20 C        2.0490     7.3930     0.2430 C.ar  1 <1>  -0.1500 
 21 N       -2.7630    -5.4540     1.3700 N.2   1 <1>  -0.4100 
 22 C       -2.3020    -5.7720     0.2140 C.2   1 <1>   0.1080 
 23 C        3.3400     6.8930     0.2640 C.ar  1 <1>  -0.1500 
 24 C       -1.3410    -6.9130    -0.0340 C.3   1 <1>  -0.0590 
 25 H       -1.7130     2.7680    -1.0410 H     1 <1>   0.0800 
 26 H       -1.7910     2.7060     0.7090 H     1 <1>   0.0800 
 27 H       -3.9350     1.2610     0.8390 H     1 <1>   0.0800 
 28 H       -3.9020     1.5260    -0.9090 H     1 <1>   0.0800 
 29 H       -2.2320    -1.6210    -1.1740 H     1 <1>   0.0800 
 30 H       -1.8220    -1.7080     0.5310 H     1 <1>   0.0800 
 31 H        0.7460     2.7130    -0.9450 H     1 <1>   0.0800 
 32 H        0.6750     2.6200     0.8170 H     1 <1>   0.0800 
 33 H       -5.0050    -0.4500    -1.3600 H     1 <1>   0.0800 
 34 H       -4.0240    -1.6980     1.2100 H     1 <1>   0.0800 
 35 H       -5.6880    -0.2690     1.3820 H     1 <1>   0.4000 
 36 H       -4.4170    -2.8240    -1.5810 H     1 <1>   0.0800 
 37 H       -5.4700    -3.0930    -0.2210 H     1 <1>   0.0800 
 38 H        2.6750     3.6040     0.0560 H     1 <1>   0.1500 
 39 H       -0.0300     6.9060     0.1380 H     1 <1>   0.1500 
 40 H       -2.5880    -4.9640    -1.8200 H     1 <1>   0.1500 
 41 H        4.5570     5.1390     0.2120 H     1 <1>   0.1500 
 42 H        1.8810     8.4550     0.2960 H     1 <1>   0.1500 
 43 H        4.1770     7.5660     0.3330 H     1 <1>   0.1500 
 44 H       -1.7730    -7.6110    -0.7270 H     1 <1>   0.0800 
 45 H       -1.1310    -7.4230     0.8890 H     1 <1>   0.0800 
 46 H       -0.4210    -6.5320    -0.4380 H     1 <1>   0.0800 
@<TRIPOS>BOND
  1   1   2  2   
  2   2   3  am  
  3   2   4  1   
  4   3   5  1   
  5   3   6  1   
  6   4   7  1   
  7   4  25  1   
  8   4  26  1   
  9   5   8  1   
 10   5  27  1   
 11   5  28  1   
 12   6   9  1   
 13   6  29  1   
 14   6  30  1   
 15   7  10  1   
 16   7  31  1   
 17   7  32  1   
 18   8   9  1   
 19   8  11  1   
 20   8  33  1   
 21   9  12  1   
 22   9  34  1   
 23  10  13  1   
 24  11  35  1   
 25  12  14  1   
 26  12  36  1   
 27  12  37  1   
 28  13  15  ar  
 29  13  16  ar  
 30  14  17  1   
 31  14  18  2   
 32  15  19  ar  
 33  15  38  1   
 34  16  20  ar  
 35  16  39  1   
 36  17  21  1   
 37  18  22  1   
 38  18  40  1   
 39  19  23  ar  
 40  19  41  1   
 41  20  23  ar  
 42  20  42  1   
 43  21  22  2   
 44  22  24  1   
 45  23  43  1   
 46  24  44  1   
 47  24  45  1   
 48  24  46  1   
@<TRIPOS>SUBSTRUCTURE
  1 ****   2 GROUP 4 **** **** 0

# MOE 2024.06 (io_trps.svl 2023.06)
