@<TRIPOS>MOLECULE
NONAME
40 42 1 0 0 
SMALL
USER_CHARGES


@<TRIPOS>ATOM
  1 O       -1.2110     0.2710     1.9750 O.2   1 <1>  -0.5700 
  2 C       -1.8010     0.7340     1.0150 C.2   1 <1>   0.6160 
  3 N       -2.9180     0.0700     0.5630 N.am  1 <1>  -0.6600 
  4 C       -1.3540     1.9770     0.4560 C.2   1 <1>   0.0290 
  5 C       -3.8610     0.5380    -0.4870 C.3   1 <1>   0.1400 
  6 C       -3.3020    -1.2830     1.0370 C.3   1 <1>   0.1400 
  7 C       -0.9670     2.0270    -0.9210 C.2   1 <1>   0.6160 
  8 C       -1.2610     3.1240     1.2080 C.2   1 <1>  -0.1500 
  9 C       -5.0380    -0.4350    -0.4070 C.3   1 <1>   0.2000 
 10 C       -4.4130    -1.7430     0.0830 C.3   1 <1>  -0.0800 
 11 O       -0.9910     1.0760    -1.6890 O.2   1 <1>  -0.5700 
 12 N       -0.5430     3.2230    -1.4380 N.am  1 <1>  -0.5390 
 13 C       -0.8150     4.3320     0.6300 C.2   1 <1>  -0.1500 
 14 O       -5.9140     0.0210     0.5650 O.3   1 <1>  -0.6800 
 15 C       -3.8390    -2.5540    -1.0950 C.3   1 <1>   0.0210 
 16 C       -0.4630     4.3660    -0.6840 C.2   1 <1>  -0.0410 
 17 C       -3.2190    -3.8540    -0.6240 C.2   1 <1>   0.1080 
 18 N       -3.9180    -4.8370    -0.1470 N.2   1 <1>  -0.7070 
 19 C       -1.8570    -4.1360    -0.6420 C.2   1 <1>  -0.1500 
 20 N       -3.0100    -5.7840     0.1550 N.pl3 1 <1>   0.3000 
 21 C       -1.7540    -5.3830    -0.1350 C.2   1 <1>  -0.3320 
 22 C       -0.5130    -6.2240     0.0960 C.3   1 <1>  -0.0600 
 23 H       -4.1710     1.5560    -0.3270 H     1 <1>   0.0800 
 24 H       -3.3920     0.4490    -1.4510 H     1 <1>   0.0800 
 25 H       -2.4510    -1.9440     1.0380 H     1 <1>   0.0800 
 26 H       -3.6800    -1.2080     2.0420 H     1 <1>   0.0800 
 27 H       -1.5240     3.1140     2.2520 H     1 <1>   0.1500 
 28 H       -5.5780    -0.5280    -1.3340 H     1 <1>   0.0800 
 29 H       -5.1350    -2.3560     0.5950 H     1 <1>   0.0800 
 30 H       -0.2710     3.1900    -2.4220 H     1 <1>   0.3700 
 31 H       -0.7580     5.2130     1.2470 H     1 <1>   0.1500 
 32 H       -5.4190     0.1580     1.3970 H     1 <1>   0.4000 
 33 H       -3.0960    -1.9820    -1.6220 H     1 <1>   0.0800 
 34 H       -4.6280    -2.7930    -1.7850 H     1 <1>   0.0800 
 35 H       -0.1140     5.2680    -1.1630 H     1 <1>   0.1500 
 36 H       -1.0780    -3.4800    -0.9880 H     1 <1>   0.1500 
 37 H       -3.2790    -6.6890     0.5570 H     1 <1>   0.2700 
 38 H        0.3640    -5.6800    -0.2080 H     1 <1>   0.0800 
 39 H       -0.5670    -7.1330    -0.4770 H     1 <1>   0.0800 
 40 H       -0.4180    -6.4700     1.1390 H     1 <1>   0.0800 
@<TRIPOS>BOND
  1   1   2  2   
  2   2   3  am  
  3   2   4  1   
  4   3   5  1   
  5   3   6  1   
  6   4   7  1   
  7   4   8  2   
  8   5   9  1   
  9   5  23  1   
 10   5  24  1   
 11   6  10  1   
 12   6  25  1   
 13   6  26  1   
 14   7  11  2   
 15   7  12  am  
 16   8  13  1   
 17   8  27  1   
 18   9  10  1   
 19   9  14  1   
 20   9  28  1   
 21  10  15  1   
 22  10  29  1   
 23  12  16  1   
 24  12  30  1   
 25  13  16  2   
 26  13  31  1   
 27  14  32  1   
 28  15  17  1   
 29  15  33  1   
 30  15  34  1   
 31  16  35  1   
 32  17  18  2   
 33  17  19  1   
 34  18  20  1   
 35  19  21  2   
 36  19  36  1   
 37  20  21  1   
 38  20  37  1   
 39  21  22  1   
 40  22  38  1   
 41  22  39  1   
 42  22  40  1   
@<TRIPOS>SUBSTRUCTURE
  1 ****   3 GROUP 4 **** **** 0

# MOE 2024.06 (io_trps.svl 2023.06)
