@<TRIPOS>MOLECULE
NONAME
62 65 1 0 0 
SMALL
USER_CHARGES


@<TRIPOS>ATOM
  1 O       -1.4380    -1.3270    -0.2630 O.2   1 <1>  -0.5700 
  2 C       -2.0850    -0.3470     0.0590 C.2   1 <1>   0.5440 
  3 N       -1.4210     0.8380     0.2960 N.am  1 <1>  -0.6600 
  4 C       -3.5170    -0.4740     0.1650 C.ar  1 <1>   0.0860 
  5 C       -2.0480     2.1930     0.2530 C.3   1 <1>   0.1400 
  6 C        0.0680     0.8930     0.4040 C.3   1 <1>   0.1400 
  7 C       -4.2350    -1.0790    -0.8610 C.ar  1 <1>   0.1600 
  8 C       -4.2440    -0.0480     1.2720 C.ar  1 <1>  -0.1500 
  9 C       -1.5080     3.0730     1.3930 C.3   1 <1>   0.1200 
 10 C        0.4960     1.8540     1.5250 C.3   1 <1>   0.1200 
 11 N       -5.5390    -1.3030    -0.8770 N.ar  1 <1>  -0.6200 
 12 C       -5.6000    -0.2660     1.2740 C.ar  1 <1>  -0.1500 
 13 O       -0.1090     3.1080     1.3680 O.3   1 <1>  -0.5600 
 14 C       -6.2050    -0.9080     0.1970 C.ar  1 <1>   0.4100 
 15 N       -7.5430    -1.1990     0.2420 N.pl3 1 <1>  -0.8690 
 16 C       -8.2980    -1.9670    -0.8090 C.3   1 <1>   0.2090 
 17 C       -8.4270    -3.4720    -0.4310 C.3   1 <1>   0.5030 
 18 N       -7.0560    -4.0090    -0.1110 N.4   1 <1>  -0.9590 
 19 C       -9.1370    -4.3060    -1.5080 C.3   1 <1>  -0.1600 
 20 C       -9.3880    -3.6350     0.7620 C.3   1 <1>  -0.1600 
 21 C       -6.1570    -4.2680    -1.2870 C.3   1 <1>   0.3430 
 22 C       -6.8820    -5.0810     0.9270 C.3   1 <1>   0.3430 
 23 C       -9.7410    -5.5100    -0.7810 C.3   1 <1>  -0.1600 
 24 C      -10.0310    -5.0270     0.6440 C.3   1 <1>  -0.1600 
 25 C       -4.6930    -4.5210    -0.8510 C.3   1 <1>   0.1100 
 26 C       -5.4010    -5.2320     1.3570 C.3   1 <1>   0.1100 
 27 N       -4.5040    -4.3330     0.6030 N.3   1 <1>  -0.8100 
 28 C       -3.0970    -4.4880     0.9920 C.3   1 <1>   0.0300 
 29 H       -3.1180     2.1310     0.3230 H     1 <1>   0.0800 
 30 H       -1.8080     2.6590    -0.6860 H     1 <1>   0.0800 
 31 H        0.4790     1.2290    -0.5320 H     1 <1>   0.0800 
 32 H        0.4650    -0.0860     0.6090 H     1 <1>   0.0800 
 33 H       -3.6730    -1.4010    -1.7220 H     1 <1>   0.1500 
 34 H       -3.7450     0.4240     2.1020 H     1 <1>   0.1500 
 35 H       -1.8260     2.6960     2.3500 H     1 <1>   0.0800 
 36 H       -1.8620     4.0830     1.2830 H     1 <1>   0.0800 
 37 H        1.5610     1.9980     1.5020 H     1 <1>   0.0800 
 38 H        0.2220     1.4570     2.4870 H     1 <1>   0.0800 
 39 H       -6.2000     0.0390     2.1110 H     1 <1>   0.1500 
 40 H       -8.1180    -0.6020     0.8460 H     1 <1>   0.4000 
 41 H       -7.8050    -1.8770    -1.7620 H     1 <1>   0.0800 
 42 H       -9.2760    -1.5340    -0.9250 H     1 <1>   0.0800 
 43 H       -6.5830    -3.1830     0.3090 H     1 <1>   0.4500 
 44 H       -8.5160    -4.5920    -2.3360 H     1 <1>   0.0800 
 45 H       -9.9520    -3.7250    -1.9050 H     1 <1>   0.0800 
 46 H      -10.1820    -2.9150     0.6660 H     1 <1>   0.0800 
 47 H       -8.9190    -3.4560     1.7130 H     1 <1>   0.0800 
 48 H       -6.1720    -3.4180    -1.9480 H     1 <1>   0.0800 
 49 H       -6.5080    -5.1220    -1.8410 H     1 <1>   0.0800 
 50 H       -7.2370    -6.0210     0.5410 H     1 <1>   0.0800 
 51 H       -7.4590    -4.8500     1.8040 H     1 <1>   0.0800 
 52 H       -9.0320    -6.3200    -0.7570 H     1 <1>   0.0800 
 53 H      -10.6360    -5.8560    -1.2710 H     1 <1>   0.0800 
 54 H      -11.0940    -4.9600     0.8130 H     1 <1>   0.0800 
 55 H       -9.6210    -5.7140     1.3650 H     1 <1>   0.0800 
 56 H       -4.0500    -3.8430    -1.3860 H     1 <1>   0.0800 
 57 H       -4.4070    -5.5210    -1.1290 H     1 <1>   0.0800 
 58 H       -5.0960    -6.2550     1.2190 H     1 <1>   0.0800 
 59 H       -5.3210    -5.0090     2.4070 H     1 <1>   0.0800 
 60 H       -2.4880    -3.7760     0.4600 H     1 <1>   0.0800 
 61 H       -2.7470    -5.4820     0.7710 H     1 <1>   0.0800 
 62 H       -2.9840    -4.3020     2.0460 H     1 <1>   0.0800 
@<TRIPOS>BOND
  1   1   2  2   
  2   2   3  am  
  3   2   4  1   
  4   3   5  1   
  5   3   6  1   
  6   4   7  ar  
  7   4   8  ar  
  8   5   9  1   
  9   5  29  1   
 10   5  30  1   
 11   6  10  1   
 12   6  31  1   
 13   6  32  1   
 14   7  11  ar  
 15   7  33  1   
 16   8  12  ar  
 17   8  34  1   
 18   9  13  1   
 19   9  35  1   
 20   9  36  1   
 21  10  13  1   
 22  10  37  1   
 23  10  38  1   
 24  11  14  ar  
 25  12  14  ar  
 26  12  39  1   
 27  14  15  1   
 28  15  16  1   
 29  15  40  1   
 30  16  17  1   
 31  16  41  1   
 32  16  42  1   
 33  17  18  1   
 34  17  19  1   
 35  17  20  1   
 36  18  21  1   
 37  18  22  1   
 38  18  43  1   
 39  19  23  1   
 40  19  44  1   
 41  19  45  1   
 42  20  24  1   
 43  20  46  1   
 44  20  47  1   
 45  21  25  1   
 46  21  48  1   
 47  21  49  1   
 48  22  26  1   
 49  22  50  1   
 50  22  51  1   
 51  23  24  1   
 52  23  52  1   
 53  23  53  1   
 54  24  54  1   
 55  24  55  1   
 56  25  27  1   
 57  25  56  1   
 58  25  57  1   
 59  26  27  1   
 60  26  58  1   
 61  26  59  1   
 62  27  28  1   
 63  28  60  1   
 64  28  61  1   
 65  28  62  1   
@<TRIPOS>SUBSTRUCTURE
  1 ****  11 GROUP 4 **** **** 0

# MOE 2024.06 (io_trps.svl 2023.06)
