@<TRIPOS>MOLECULE
NONAME
40 41 1 0 0 
SMALL
USER_CHARGES


@<TRIPOS>ATOM
  1 O       -0.3970    -0.0110     0.3210 O.2   1 <1>  -0.5700 
  2 C       -0.1060     1.1320     0.0470 C.2   1 <1>   0.5690 
  3 N       -0.9570     2.1750     0.3340 N.am  1 <1>  -0.6600 
  4 C        1.2280     1.3460    -0.6790 C.3   1 <1>   0.1810 
  5 C       -2.2430     1.9550     1.0590 C.3   1 <1>   0.1400 
  6 C       -0.7110     3.6010    -0.0120 C.3   1 <1>   0.1400 
  7 O        2.0830     2.2380    -0.0060 O.3   1 <1>  -0.5600 
  8 C       -3.4340     2.3930     0.1850 C.3   1 <1>   0.0000 
  9 C       -1.8560     4.1240    -0.8880 C.3   1 <1>  -0.1600 
 10 C        3.3390     2.3600    -0.5810 C.3   1 <1>   0.1200 
 11 C       -4.7630     2.1460     0.9250 C.3   1 <1>   0.2000 
 12 C       -3.2350     3.8750    -0.2490 C.3   1 <1>  -0.1600 
 13 C       -3.6080     1.4790    -1.0420 C.3   1 <1>  -0.1600 
 14 C        4.1150     3.3880     0.2310 C.3   1 <1>  -0.2400 
 15 O       -5.1030     3.1710     1.7890 O.3   1 <1>  -0.6800 
 16 C       -5.8350     1.9870    -0.1530 C.3   1 <1>  -0.1600 
 17 C       -5.0870     1.5750    -1.4280 C.3   1 <1>  -0.1600 
 18 H        1.0350     1.7320    -1.6620 H     1 <1>   0.0800 
 19 H        1.7280     0.3970    -0.7620 H     1 <1>   0.0800 
 20 H       -2.3510     0.9200     1.3330 H     1 <1>   0.0800 
 21 H       -2.2340     2.5310     1.9680 H     1 <1>   0.0800 
 22 H       -0.6570     4.1730     0.8990 H     1 <1>   0.0800 
 23 H        0.2200     3.7260    -0.5340 H     1 <1>   0.0800 
 24 H       -1.7220     5.1800    -1.0440 H     1 <1>   0.0800 
 25 H       -1.7990     3.6520    -1.8520 H     1 <1>   0.0800 
 26 H        3.8300     1.4010    -0.5500 H     1 <1>   0.0800 
 27 H        3.2270     2.6870    -1.6020 H     1 <1>   0.0800 
 28 H       -4.7000     1.2360     1.5000 H     1 <1>   0.0800 
 29 H       -4.0080     4.1770    -0.9330 H     1 <1>   0.0800 
 30 H       -3.2990     4.5090     0.6180 H     1 <1>   0.0800 
 31 H       -2.9610     1.7330    -1.8610 H     1 <1>   0.0800 
 32 H       -3.3920     0.4620    -0.7580 H     1 <1>   0.0800 
 33 H        4.2070     3.0570     1.2500 H     1 <1>   0.0800 
 34 H        3.6100     4.3370     0.2060 H     1 <1>   0.0800 
 35 H        5.1000     3.5110    -0.1810 H     1 <1>   0.0800 
 36 H       -5.2060     3.9980     1.2840 H     1 <1>   0.4000 
 37 H       -6.5400     1.2280     0.1380 H     1 <1>   0.0800 
 38 H       -6.3560     2.9120    -0.3240 H     1 <1>   0.0800 
 39 H       -5.4460     0.6340    -1.8110 H     1 <1>   0.0800 
 40 H       -5.2190     2.3290    -2.1850 H     1 <1>   0.0800 
@<TRIPOS>BOND
  1   1   2  2   
  2   2   3  am  
  3   2   4  1   
  4   3   5  1   
  5   3   6  1   
  6   4   7  1   
  7   4  18  1   
  8   4  19  1   
  9   5   8  1   
 10   5  20  1   
 11   5  21  1   
 12   6   9  1   
 13   6  22  1   
 14   6  23  1   
 15   7  10  1   
 16   8  11  1   
 17   8  12  1   
 18   8  13  1   
 19   9  12  1   
 20   9  24  1   
 21   9  25  1   
 22  10  14  1   
 23  10  26  1   
 24  10  27  1   
 25  11  15  1   
 26  11  16  1   
 27  11  28  1   
 28  12  29  1   
 29  12  30  1   
 30  13  17  1   
 31  13  31  1   
 32  13  32  1   
 33  14  33  1   
 34  14  34  1   
 35  14  35  1   
 36  15  36  1   
 37  16  17  1   
 38  16  37  1   
 39  16  38  1   
 40  17  39  1   
 41  17  40  1   
@<TRIPOS>SUBSTRUCTURE
  1 ****   3 GROUP 4 **** **** 0

# MOE 2024.06 (io_trps.svl 2023.06)
