@<TRIPOS>MOLECULE
NONAME
43 46 1 0 0 
SMALL
USER_CHARGES


@<TRIPOS>ATOM
  1 CL       1.6250     4.1430     2.5000 Cl    1 <1>  -0.1770 
  2 C        0.7980     3.2690     1.2300 C.ar  1 <1>   0.1770 
  3 C        1.4960     2.4280     0.3710 C.ar  1 <1>  -0.1440 
  4 C       -0.5680     3.4490     1.1160 C.ar  1 <1>  -0.1500 
  5 C        0.7800     1.7630    -0.6190 C.ar  1 <1>  -0.1500 
  6 C        3.0060     2.2460     0.4960 C.3   1 <1>   0.3640 
  7 C       -1.2650     2.7800     0.1270 C.ar  1 <1>  -0.1500 
  8 C       -0.5890     1.9380    -0.7390 C.ar  1 <1>  -0.1500 
  9 N        3.3230     0.7980     0.4210 N.am  1 <1>  -0.7300 
 10 C        3.7760     3.0440    -0.5850 C.3   1 <1>   0.2610 
 11 C        4.3730     0.2990    -0.2690 C.2   1 <1>   0.5690 
 12 O        5.1250     2.6040    -0.6580 O.3   1 <1>  -0.5600 
 13 C        3.7080     4.5390    -0.2740 C.2   1 <1>   0.5690 
 14 O        4.5910    -0.8850    -0.2830 O.2   1 <1>  -0.5700 
 15 C        5.2720     1.2570    -1.0590 C.3   1 <1>   0.1810 
 16 O        2.7550     5.1790    -0.6470 O.2   1 <1>  -0.5700 
 17 N        4.7180     5.1210     0.4210 N.am  1 <1>  -0.7300 
 18 C        4.7880     6.5640     0.7710 C.3   1 <1>   0.3200 
 19 C        6.1130     7.1770     0.3450 C.2   1 <1>   0.2980 
 20 O        6.3530     7.3250    -0.9340 O.3   1 <1>  -0.0190 
 21 N        7.0390     7.5710     1.1270 N.2   1 <1>  -0.5650 
 22 N        7.5340     7.8610    -0.9700 N.2   1 <1>  -0.4100 
 23 C        7.9210     8.0010     0.2350 C.2   1 <1>   0.4300 
 24 C        9.2510     8.5940     0.6750 C.3   1 <1>  -0.0140 
 25 C        9.3250    10.0090     1.1650 C.3   1 <1>  -0.2000 
 26 C        9.9600     9.6350    -0.1400 C.3   1 <1>  -0.2000 
 27 H       -1.0770     4.1090     1.7950 H     1 <1>   0.1500 
 28 H        1.2810     1.1030    -1.3070 H     1 <1>   0.1500 
 29 H        3.3380     2.5900     1.4590 H     1 <1>   0.0800 
 30 H       -2.3290     2.9150     0.0290 H     1 <1>   0.1500 
 31 H       -1.1310     1.4170    -1.5100 H     1 <1>   0.1500 
 32 H        2.7340     0.1570     0.9550 H     1 <1>   0.3700 
 33 H        3.3220     2.8850    -1.5470 H     1 <1>   0.0800 
 34 H        5.0390     1.1870    -2.1050 H     1 <1>   0.0800 
 35 H        6.3010     0.9810    -0.9140 H     1 <1>   0.0800 
 36 H        5.5660     4.5720     0.5970 H     1 <1>   0.3700 
 37 H        3.9840     7.1020     0.2990 H     1 <1>   0.0800 
 38 H        4.6800     6.6690     1.8360 H     1 <1>   0.0800 
 39 H        9.8580     7.8660     1.1820 H     1 <1>   0.1000 
 40 H        8.4250    10.6010     1.1530 H     1 <1>   0.1000 
 41 H        9.9530    10.2270     2.0100 H     1 <1>   0.1000 
 42 H       11.0320     9.5930    -0.2070 H     1 <1>   0.1000 
 43 H        9.5020     9.9690    -1.0560 H     1 <1>   0.1000 
@<TRIPOS>BOND
  1   1   2  1   
  2   2   3  ar  
  3   2   4  ar  
  4   3   5  ar  
  5   3   6  1   
  6   4   7  ar  
  7   4  27  1   
  8   5   8  ar  
  9   5  28  1   
 10   6   9  1   
 11   6  10  1   
 12   6  29  1   
 13   7   8  ar  
 14   7  30  1   
 15   8  31  1   
 16   9  11  am  
 17   9  32  1   
 18  10  12  1   
 19  10  13  1   
 20  10  33  1   
 21  11  14  2   
 22  11  15  1   
 23  12  15  1   
 24  13  16  2   
 25  13  17  am  
 26  15  34  1   
 27  15  35  1   
 28  17  18  1   
 29  17  36  1   
 30  18  19  1   
 31  18  37  1   
 32  18  38  1   
 33  19  20  1   
 34  19  21  2   
 35  20  22  1   
 36  21  23  1   
 37  22  23  2   
 38  23  24  1   
 39  24  25  1   
 40  24  26  1   
 41  24  39  1   
 42  25  26  1   
 43  25  40  1   
 44  25  41  1   
 45  26  42  1   
 46  26  43  1   
@<TRIPOS>SUBSTRUCTURE
  1 ****  13 GROUP 4 **** **** 0

# MOE 2024.06 (io_trps.svl 2023.06)
