@<TRIPOS>MOLECULE
NONAME
58 62 1 0 0 
SMALL
USER_CHARGES


@<TRIPOS>ATOM
  1 CL      -2.4280     0.9650    -0.0930 Cl    1 <1>  -0.1770 
  2 C       -3.6810    -0.0270     0.6130 C.ar  1 <1>   0.1770 
  3 C       -3.9240    -1.2780     0.1020 C.ar  1 <1>  -0.1500 
  4 C       -4.4090     0.4880     1.6900 C.ar  1 <1>  -0.1500 
  5 C       -4.9330    -2.0540     0.6810 C.ar  1 <1>   0.0000 
  6 C       -5.4030    -0.2680     2.2670 C.ar  1 <1>  -0.1500 
  7 C       -5.6600    -1.5440     1.7530 C.ar  1 <1>  -0.1520 
  8 C       -5.4480    -3.3440     0.4240 C.2   1 <1>  -0.1810 
  9 N       -6.5770    -2.4840     2.1390 N.pl3 1 <1>   0.0330 
 10 C       -6.4500    -3.5710     1.3100 C.2   1 <1>  -0.3320 
 11 C       -4.8950    -4.2380    -0.6730 C.3   1 <1>  -0.0590 
 12 C       -7.3410    -4.7820     1.4270 C.3   1 <1>   0.5230 
 13 N       -8.2520    -4.6820     0.2730 N.4   1 <1>  -0.9590 
 14 C       -9.2570    -3.5830     0.4590 C.3   1 <1>   0.3430 
 15 C       -8.9060    -5.9760    -0.0630 C.3   1 <1>   0.3430 
 16 C      -10.0930    -3.3530    -0.8090 C.3   1 <1>   0.1440 
 17 C       -9.7130    -5.8210    -1.3570 C.3   1 <1>  -0.1600 
 18 C      -11.1520    -2.3310    -0.4800 C.ar  1 <1>   0.1670 
 19 C      -10.7390    -4.6760    -1.2720 C.3   1 <1>  -0.1600 
 20 C       -9.2910    -2.6570    -1.9430 C.3   1 <1>  -0.1600 
 21 N      -11.9110    -2.3760     0.5830 N.ar  1 <1>  -0.6200 
 22 C      -11.2070    -1.3380    -1.4080 C.ar  1 <1>  -0.1430 
 23 C      -10.2000    -1.5480    -2.5110 C.3   1 <1>  -0.0170 
 24 C      -12.7760    -1.3630     0.6960 C.ar  1 <1>   0.7200 
 25 C      -12.1240    -0.3370    -1.2070 C.ar  1 <1>   0.1600 
 26 N      -12.9090    -0.3410    -0.1560 N.ar  1 <1>  -0.6200 
 27 N      -13.6000    -1.3710     1.8020 N.pl3 1 <1>  -0.8380 
 28 C      -14.0150    -2.6330     2.4740 C.3   1 <1>   0.1290 
 29 C      -14.3530    -0.1550     2.2190 C.3   1 <1>   0.1290 
 30 H       -3.3510    -1.6560    -0.7230 H     1 <1>   0.1500 
 31 H       -4.1750     1.4740     2.0500 H     1 <1>   0.1500 
 32 H       -5.9730     0.1100     3.0980 H     1 <1>   0.1500 
 33 H       -7.2100    -2.3590     2.9380 H     1 <1>   0.2700 
 34 H       -3.8410    -4.3880    -0.5150 H     1 <1>   0.0800 
 35 H       -5.0300    -3.7700    -1.6320 H     1 <1>   0.0800 
 36 H       -5.3740    -5.1980    -0.6780 H     1 <1>   0.0800 
 37 H       -7.8840    -4.7910     2.3580 H     1 <1>   0.0800 
 38 H       -6.7410    -5.6750     1.3550 H     1 <1>   0.0800 
 39 H       -7.6430    -4.3960    -0.5030 H     1 <1>   0.4500 
 40 H       -8.7620    -2.6610     0.7140 H     1 <1>   0.0800 
 41 H       -9.9260    -3.8340     1.2670 H     1 <1>   0.0800 
 42 H       -9.5670    -6.2700     0.7370 H     1 <1>   0.0800 
 43 H       -8.1630    -6.7470    -0.1920 H     1 <1>   0.0800 
 44 H      -10.2330    -6.7430    -1.5540 H     1 <1>   0.0800 
 45 H       -9.0390    -5.6590    -2.1800 H     1 <1>   0.0800 
 46 H      -11.2230    -4.5370    -2.2240 H     1 <1>   0.0800 
 47 H      -11.5050    -4.9510    -0.5660 H     1 <1>   0.0800 
 48 H       -8.9830    -3.3360    -2.7190 H     1 <1>   0.0800 
 49 H       -8.4130    -2.1880    -1.5330 H     1 <1>   0.0800 
 50 H      -10.7040    -1.8820    -3.4010 H     1 <1>   0.0800 
 51 H       -9.6470    -0.6480    -2.7210 H     1 <1>   0.0800 
 52 H      -12.2130     0.4740    -1.9090 H     1 <1>   0.1500 
 53 H      -13.7660    -3.4890     1.8710 H     1 <1>   0.0800 
 54 H      -15.0790    -2.6310     2.6320 H     1 <1>   0.0800 
 55 H      -13.5160    -2.7160     3.4230 H     1 <1>   0.0800 
 56 H      -13.7850     0.7320     1.9960 H     1 <1>   0.0800 
 57 H      -14.5410    -0.1810     3.2780 H     1 <1>   0.0800 
 58 H      -15.2890    -0.1120     1.6910 H     1 <1>   0.0800 
@<TRIPOS>BOND
  1   1   2  1   
  2   2   3  ar  
  3   2   4  ar  
  4   3   5  ar  
  5   3  30  1   
  6   4   6  ar  
  7   4  31  1   
  8   5   7  ar  
  9   5   8  1   
 10   6   7  ar  
 11   6  32  1   
 12   7   9  1   
 13   8  10  2   
 14   8  11  1   
 15   9  10  1   
 16   9  33  1   
 17  10  12  1   
 18  11  34  1   
 19  11  35  1   
 20  11  36  1   
 21  12  13  1   
 22  12  37  1   
 23  12  38  1   
 24  13  14  1   
 25  13  15  1   
 26  13  39  1   
 27  14  16  1   
 28  14  40  1   
 29  14  41  1   
 30  15  17  1   
 31  15  42  1   
 32  15  43  1   
 33  16  18  1   
 34  16  19  1   
 35  16  20  1   
 36  17  19  1   
 37  17  44  1   
 38  17  45  1   
 39  18  21  ar  
 40  18  22  ar  
 41  19  46  1   
 42  19  47  1   
 43  20  23  1   
 44  20  48  1   
 45  20  49  1   
 46  21  24  ar  
 47  22  23  1   
 48  22  25  ar  
 49  23  50  1   
 50  23  51  1   
 51  24  26  ar  
 52  24  27  1   
 53  25  26  ar  
 54  25  52  1   
 55  27  28  1   
 56  27  29  1   
 57  28  53  1   
 58  28  54  1   
 59  28  55  1   
 60  29  56  1   
 61  29  57  1   
 62  29  58  1   
@<TRIPOS>SUBSTRUCTURE
  1 ****  14 GROUP 4 **** **** 0

# MOE 2024.06 (io_trps.svl 2023.06)
