@<TRIPOS>MOLECULE
NONAME
38 40 1 0 0 
SMALL
USER_CHARGES


@<TRIPOS>ATOM
  1 S       -0.1770    -0.0210     0.3430 S.3   1 <1>  -0.0800 
  2 C       -1.4970    -0.8020    -0.4620 C.2   1 <1>   0.4420 
  3 C       -0.4430     1.3460    -0.6890 C.2   1 <1>   0.1980 
  4 N       -2.0070    -0.0660    -1.3820 N.2   1 <1>  -0.3380 
  5 N       -1.8150    -2.0670    -0.0240 N.am  1 <1>  -0.4940 
  6 N       -1.4020     1.1540    -1.5060 N.2   1 <1>  -0.3380 
  7 C        0.4770     2.5580    -0.5240 C.3   1 <1>   0.3800 
  8 C       -2.7640    -2.9500    -0.4660 C.2   1 <1>   0.7150 
  9 O        0.6040     2.8580     0.8380 O.3   1 <1>  -0.5600 
 10 C       -0.0610     3.8020    -1.2400 C.3   1 <1>  -0.2400 
 11 O       -3.4640    -2.6650    -1.4170 O.2   1 <1>  -0.5700 
 12 C       -2.9090    -4.2160     0.2130 C.2   1 <1>  -0.0450 
 13 C        1.7920     3.4810     1.2160 C.3   1 <1>   0.0400 
 14 S       -1.9010    -4.5200     1.6370 S.3   1 <1>  -0.0800 
 15 C       -3.7080    -5.3010     0.0100 C.2   1 <1>  -0.1810 
 16 C       -2.6020    -6.0980     1.8930 C.2   1 <1>  -0.1100 
 17 C       -3.5270    -6.3620     0.9540 C.2   1 <1>  -0.1810 
 18 C       -4.7560    -5.4030    -1.0950 C.3   1 <1>   0.0210 
 19 C       -4.3070    -7.6650     0.8640 C.3   1 <1>   0.0210 
 20 C       -5.2660    -6.8340    -1.3080 C.3   1 <1>  -0.1600 
 21 C       -5.5840    -7.5090     0.0320 C.3   1 <1>  -0.1600 
 22 H       -1.2740    -2.4060     0.7640 H     1 <1>   0.3700 
 23 H        1.4460     2.2950    -0.9120 H     1 <1>   0.0800 
 24 H       -1.0140     4.0780    -0.8240 H     1 <1>   0.0800 
 25 H       -0.1980     3.5880    -2.2840 H     1 <1>   0.0800 
 26 H        0.6220     4.6250    -1.1530 H     1 <1>   0.0800 
 27 H        1.7630     3.6350     2.2810 H     1 <1>   0.0800 
 28 H        1.8790     4.4320     0.7210 H     1 <1>   0.0800 
 29 H        2.6240     2.8450     0.9680 H     1 <1>   0.0800 
 30 H       -2.2410    -6.6760     2.7250 H     1 <1>   0.1500 
 31 H       -4.3530    -5.0300    -2.0210 H     1 <1>   0.0800 
 32 H       -5.5860    -4.7730    -0.8260 H     1 <1>   0.0800 
 33 H       -4.5530    -8.0140     1.8510 H     1 <1>   0.0800 
 34 H       -3.6760    -8.4030     0.3990 H     1 <1>   0.0800 
 35 H       -4.5130    -7.4040    -1.8260 H     1 <1>   0.0800 
 36 H       -6.1460    -6.8090    -1.9260 H     1 <1>   0.0800 
 37 H       -6.2960    -6.9120     0.5760 H     1 <1>   0.0800 
 38 H       -6.0200    -8.4780    -0.1400 H     1 <1>   0.0800 
@<TRIPOS>BOND
  1   1   2  1   
  2   1   3  1   
  3   2   4  2   
  4   2   5  1   
  5   3   6  2   
  6   3   7  1   
  7   4   6  1   
  8   5   8  am  
  9   5  22  1   
 10   7   9  1   
 11   7  10  1   
 12   7  23  1   
 13   8  11  2   
 14   8  12  1   
 15   9  13  1   
 16  10  24  1   
 17  10  25  1   
 18  10  26  1   
 19  12  14  1   
 20  12  15  2   
 21  13  27  1   
 22  13  28  1   
 23  13  29  1   
 24  14  16  1   
 25  15  17  1   
 26  15  18  1   
 27  16  17  2   
 28  16  30  1   
 29  17  19  1   
 30  18  20  1   
 31  18  31  1   
 32  18  32  1   
 33  19  21  1   
 34  19  33  1   
 35  19  34  1   
 36  20  21  1   
 37  20  35  1   
 38  20  36  1   
 39  21  37  1   
 40  21  38  1   
@<TRIPOS>SUBSTRUCTURE
  1 ****   5 GROUP 4 **** **** 0

# MOE 2024.06 (io_trps.svl 2023.06)
