@<TRIPOS>MOLECULE
NONAME
51 54 1 0 0 
SMALL
USER_CHARGES


@<TRIPOS>ATOM
  1 O       -0.9950     0.9900     1.9630 O.2   1 <1>  -0.5700 
  2 C       -1.9050     1.3700     1.2510 C.2   1 <1>   0.5440 
  3 N       -3.1480     0.7830     1.3680 N.am  1 <1>  -0.6600 
  4 C       -1.6540     2.4110     0.2930 C.ar  1 <1>   0.0860 
  5 C       -4.2640     0.9830     0.4020 C.3   1 <1>   0.1400 
  6 C       -3.4330    -0.2690     2.3840 C.3   1 <1>   0.1400 
  7 C       -0.8880     2.2340    -0.8510 C.ar  1 <1>   0.1660 
  8 C       -2.1860     3.6760     0.4640 C.ar  1 <1>   0.1600 
  9 C       -4.5100    -0.3290    -0.3450 C.3   1 <1>  -0.1600 
 10 C       -3.6740    -1.6000     1.6680 C.3   1 <1>  -0.1600 
 11 N       -0.6980     3.1940    -1.7240 N.ar  1 <1>  -0.6200 
 12 C       -0.2260     0.9000    -1.1530 C.3   1 <1>  -0.0970 
 13 N       -2.0160     4.6530    -0.3930 N.ar  1 <1>  -0.6200 
 14 C       -4.7930    -1.4950     0.6200 C.3   1 <1>   0.4240 
 15 C       -1.2780     4.3500    -1.4480 C.ar  1 <1>   0.7200 
 16 O       -5.9550    -1.1800     1.3520 O.3   1 <1>  -0.5600 
 17 C       -4.9380    -2.8280    -0.1460 C.ar  1 <1>  -0.1430 
 18 N       -1.0860     5.3270    -2.3290 N.pl3 1 <1>  -0.9000 
 19 C       -7.1860    -1.4730     0.7670 C.3   1 <1>   0.1200 
 20 C       -6.1350    -3.5360    -0.1400 C.ar  1 <1>  -0.1440 
 21 C       -3.8660    -3.3450    -0.8670 C.ar  1 <1>  -0.1500 
 22 C       -7.3200    -2.9860     0.6290 C.3   1 <1>  -0.0170 
 23 C       -6.2540    -4.7330    -0.8290 C.ar  1 <1>  -0.1500 
 24 C       -3.9840    -4.5370    -1.5570 C.ar  1 <1>  -0.1500 
 25 C       -5.1750    -5.2410    -1.5430 C.ar  1 <1>   0.0830 
 26 O       -5.2070    -6.4020    -2.2440 O.3   1 <1>  -0.3630 
 27 C       -6.3650    -7.2060    -2.2770 C.3   1 <1>   0.0400 
 28 H       -4.0390     1.7620    -0.3050 H     1 <1>   0.0800 
 29 H       -5.1510     1.2700     0.9430 H     1 <1>   0.0800 
 30 H       -4.3070     0.0100     2.9480 H     1 <1>   0.0800 
 31 H       -2.6130    -0.3710     3.0750 H     1 <1>   0.0800 
 32 H       -2.7750     3.8730     1.3440 H     1 <1>   0.1500 
 33 H       -3.6360    -0.5500    -0.9290 H     1 <1>   0.0800 
 34 H       -5.3250    -0.2140    -1.0330 H     1 <1>   0.0800 
 35 H       -3.9330    -2.3580     2.3840 H     1 <1>   0.0800 
 36 H       -2.7530    -1.8970     1.2040 H     1 <1>   0.0800 
 37 H       -0.9140     0.0910    -0.9920 H     1 <1>   0.0800 
 38 H        0.6250     0.7690    -0.5100 H     1 <1>   0.0800 
 39 H        0.1060     0.8680    -2.1750 H     1 <1>   0.0800 
 40 H       -1.3270     6.2740    -2.0520 H     1 <1>   0.4000 
 41 H       -0.3590     5.2030    -3.0270 H     1 <1>   0.4000 
 42 H       -7.2490    -0.9890    -0.1920 H     1 <1>   0.0800 
 43 H       -7.9570    -1.0840     1.4090 H     1 <1>   0.0800 
 44 H       -2.9260    -2.8240    -0.9000 H     1 <1>   0.1500 
 45 H       -8.2360    -3.2150     0.1160 H     1 <1>   0.0800 
 46 H       -7.3570    -3.4330     1.6060 H     1 <1>   0.0800 
 47 H       -7.1890    -5.2580    -0.8010 H     1 <1>   0.1500 
 48 H       -3.1520    -4.9310    -2.1110 H     1 <1>   0.1500 
 49 H       -6.1530    -8.0710    -2.8800 H     1 <1>   0.0800 
 50 H       -7.1690    -6.6420    -2.7160 H     1 <1>   0.0800 
 51 H       -6.6070    -7.5100    -1.2740 H     1 <1>   0.0800 
@<TRIPOS>BOND
  1   1   2  2   
  2   2   3  am  
  3   2   4  1   
  4   3   5  1   
  5   3   6  1   
  6   4   7  ar  
  7   4   8  ar  
  8   5   9  1   
  9   5  28  1   
 10   5  29  1   
 11   6  10  1   
 12   6  30  1   
 13   6  31  1   
 14   7  11  ar  
 15   7  12  1   
 16   8  13  ar  
 17   8  32  1   
 18   9  14  1   
 19   9  33  1   
 20   9  34  1   
 21  10  14  1   
 22  10  35  1   
 23  10  36  1   
 24  11  15  ar  
 25  12  37  1   
 26  12  38  1   
 27  12  39  1   
 28  13  15  ar  
 29  14  16  1   
 30  14  17  1   
 31  15  18  1   
 32  16  19  1   
 33  17  20  ar  
 34  17  21  ar  
 35  18  40  1   
 36  18  41  1   
 37  19  22  1   
 38  19  42  1   
 39  19  43  1   
 40  20  22  1   
 41  20  23  ar  
 42  21  24  ar  
 43  21  44  1   
 44  22  45  1   
 45  22  46  1   
 46  23  25  ar  
 47  23  47  1   
 48  24  25  ar  
 49  24  48  1   
 50  25  26  1   
 51  26  27  1   
 52  27  49  1   
 53  27  50  1   
 54  27  51  1   
@<TRIPOS>SUBSTRUCTURE
  1 ****   9 GROUP 4 **** **** 0

# MOE 2024.06 (io_trps.svl 2023.06)
