@<TRIPOS>MOLECULE
NONAME
58 60 1 0 0 
SMALL
USER_CHARGES


@<TRIPOS>ATOM
  1 O       -1.2750    -4.2240     2.4790 O.2   1 <1>  -0.5700 
  2 C       -0.1460    -4.3160     2.0760 C.2   1 <1>   0.5690 
  3 N        0.5850    -5.4340     2.2620 N.am  1 <1>  -0.7300 
  4 C        0.5120    -3.1670     1.3450 C.3   1 <1>  -0.0990 
  5 C        1.9810    -5.5810     1.8100 C.3   1 <1>   0.1400 
  6 C        1.3020    -3.6870     0.1260 C.3   1 <1>  -0.0800 
  7 C        2.1430    -4.9580     0.4060 C.3   1 <1>  -0.0800 
  8 C        2.2630    -2.6420    -0.4610 C.3   1 <1>  -0.1600 
  9 C        3.5930    -4.5820     0.0720 C.3   1 <1>  -0.1600 
 10 C        3.4570    -3.4550    -0.9500 C.3   1 <1>   0.4230 
 11 N        4.6860    -2.6310    -1.1340 N.4   1 <1>  -0.9590 
 12 C        5.2650    -2.0380     0.1090 C.3   1 <1>   0.4860 
 13 C        5.7290    -3.3850    -1.9000 C.3   1 <1>   0.2630 
 14 C        6.2290    -0.9430    -0.2970 C.ar  1 <1>  -0.1440 
 15 C        7.5950    -1.1820    -0.2910 C.ar  1 <1>  -0.1500 
 16 C        5.7590     0.3040    -0.6840 C.ar  1 <1>  -0.1500 
 17 C        8.4890    -0.2000    -0.6810 C.ar  1 <1>   0.0820 
 18 C        6.6470     1.2920    -1.0710 C.ar  1 <1>  -0.1500 
 19 O        9.8020    -0.5410    -0.6510 O.3   1 <1>  -0.3620 
 20 C        8.0080     1.0450    -1.0740 C.ar  1 <1>  -0.1500 
 21 C       10.8420     0.3890    -0.8830 C.3   1 <1>   0.1200 
 22 C       11.0500     1.2510     0.3700 C.3   1 <1>  -0.1600 
 23 C       12.2330     2.2250     0.2350 C.3   1 <1>  -0.0800 
 24 C       12.4720     2.9370     1.5710 C.3   1 <1>  -0.2400 
 25 C       11.9950     3.2700    -0.8640 C.3   1 <1>  -0.2400 
 26 H        0.1500    -6.1950     2.7910 H     1 <1>   0.3700 
 27 H       -0.2420    -2.4680     1.0310 H     1 <1>   0.0800 
 28 H        1.1620    -2.6730     2.0430 H     1 <1>   0.0800 
 29 H        2.6180    -5.0850     2.5230 H     1 <1>   0.0800 
 30 H        2.2470    -6.6250     1.7860 H     1 <1>   0.0800 
 31 H        0.5780    -3.9480    -0.6300 H     1 <1>   0.0800 
 32 H        1.8270    -5.7070    -0.3030 H     1 <1>   0.0800 
 33 H        2.5500    -1.9510     0.3090 H     1 <1>   0.0800 
 34 H        1.7960    -2.1040    -1.2680 H     1 <1>   0.0800 
 35 H        4.1260    -5.4260    -0.3310 H     1 <1>   0.0800 
 36 H        4.0800    -4.2370     0.9650 H     1 <1>   0.0800 
 37 H        3.1820    -3.8960    -1.8950 H     1 <1>   0.0800 
 38 H        4.4250    -1.8230    -1.7150 H     1 <1>   0.4500 
 39 H        4.4930    -1.6100     0.7250 H     1 <1>   0.0800 
 40 H        5.7810    -2.7910     0.6810 H     1 <1>   0.0800 
 41 H        6.0910    -4.2200    -1.3220 H     1 <1>   0.0800 
 42 H        6.5630    -2.7410    -2.1320 H     1 <1>   0.0800 
 43 H        5.3210    -3.7570    -2.8250 H     1 <1>   0.0800 
 44 H        7.9980    -2.1320     0.0170 H     1 <1>   0.1500 
 45 H        4.7050     0.5260    -0.6860 H     1 <1>   0.1500 
 46 H        6.2820     2.2600    -1.3700 H     1 <1>   0.1500 
 47 H        8.6730     1.8300    -1.3800 H     1 <1>   0.1500 
 48 H       11.7320    -0.1800    -1.0840 H     1 <1>   0.0800 
 49 H       10.6060     0.9690    -1.7560 H     1 <1>   0.0800 
 50 H       10.1560     1.8080     0.5850 H     1 <1>   0.0800 
 51 H       11.2390     0.5900     1.1990 H     1 <1>   0.0800 
 52 H       13.1220     1.6650    -0.0080 H     1 <1>   0.0800 
 53 H       11.6090     3.5150     1.8540 H     1 <1>   0.0800 
 54 H       13.3170     3.5990     1.4980 H     1 <1>   0.0800 
 55 H       12.6740     2.2210     2.3470 H     1 <1>   0.0800 
 56 H       11.0860     3.8160    -0.6780 H     1 <1>   0.0800 
 57 H       11.9300     2.8070    -1.8310 H     1 <1>   0.0800 
 58 H       12.8110     3.9700    -0.8920 H     1 <1>   0.0800 
@<TRIPOS>BOND
  1   1   2  2   
  2   2   3  am  
  3   2   4  1   
  4   3   5  1   
  5   3  26  1   
  6   4   6  1   
  7   4  27  1   
  8   4  28  1   
  9   5   7  1   
 10   5  29  1   
 11   5  30  1   
 12   6   7  1   
 13   6   8  1   
 14   6  31  1   
 15   7   9  1   
 16   7  32  1   
 17   8  10  1   
 18   8  33  1   
 19   8  34  1   
 20   9  10  1   
 21   9  35  1   
 22   9  36  1   
 23  10  11  1   
 24  10  37  1   
 25  11  12  1   
 26  11  13  1   
 27  11  38  1   
 28  12  14  1   
 29  12  39  1   
 30  12  40  1   
 31  13  41  1   
 32  13  42  1   
 33  13  43  1   
 34  14  15  ar  
 35  14  16  ar  
 36  15  17  ar  
 37  15  44  1   
 38  16  18  ar  
 39  16  45  1   
 40  17  19  1   
 41  17  20  ar  
 42  18  20  ar  
 43  18  46  1   
 44  19  21  1   
 45  20  47  1   
 46  21  22  1   
 47  21  48  1   
 48  21  49  1   
 49  22  23  1   
 50  22  50  1   
 51  22  51  1   
 52  23  24  1   
 53  23  25  1   
 54  23  52  1   
 55  24  53  1   
 56  24  54  1   
 57  24  55  1   
 58  25  56  1   
 59  25  57  1   
 60  25  58  1   
@<TRIPOS>SUBSTRUCTURE
  1 ****  12 GROUP 4 **** **** 0

# MOE 2024.06 (io_trps.svl 2023.06)
