@<TRIPOS>MOLECULE
NONAME
41 42 1 0 0 
SMALL
USER_CHARGES


@<TRIPOS>ATOM
  1 S        0.3690     0.0430    -0.9470 S.o2  1 <1>   1.3330 
  2 O       -0.5440     0.2120    -2.0550 O.2   1 <1>  -0.6500 
  3 O        1.6390    -0.6130    -1.1650 O.2   1 <1>  -0.6500 
  4 N       -0.4700    -0.8310     0.2470 N.am  1 <1>  -0.8490 
  5 C        0.6500     1.6430    -0.1700 C.3   1 <1>  -0.0550 
  6 C       -0.2440    -2.2760     0.1380 C.3   1 <1>   0.1160 
  7 C       -1.9110    -0.5570     0.2670 C.3   1 <1>   0.1160 
  8 C        1.8250     1.7610     0.8270 C.3   1 <1>  -0.0800 
  9 C        3.1990     1.6240     0.1650 C.3   1 <1>   0.2200 
 10 C        1.8700     0.7500     1.9800 C.3   1 <1>   0.1200 
 11 N        3.9520     2.8860     0.3460 N.am  1 <1>  -0.7300 
 12 C        3.8530     0.4920     0.9540 C.3   1 <1>   0.1200 
 13 O        3.2220     0.5080     2.1930 O.3   1 <1>  -0.5600 
 14 C        3.8240     3.9840    -0.4550 C.2   1 <1>   0.5440 
 15 O        3.0420     3.9230    -1.3840 O.2   1 <1>  -0.5700 
 16 C        4.5900     5.1930    -0.2040 C.ar  1 <1>   0.0860 
 17 C        5.0860     5.5070     1.0690 C.ar  1 <1>  -0.1500 
 18 C        4.8540     6.0930    -1.2430 C.ar  1 <1>  -0.1500 
 19 C        5.8210     6.6590     1.2940 C.ar  1 <1>  -0.1500 
 20 C        5.5860     7.2490    -1.0350 C.ar  1 <1>  -0.1500 
 21 C        6.0600     7.5110     0.2350 C.ar  1 <1>   0.1900 
 22 F        6.7520     8.5960     0.4410 F     1 <1>  -0.1900 
 23 H        0.8270     2.3610    -0.9490 H     1 <1>   0.0800 
 24 H       -0.2500     1.9460     0.3260 H     1 <1>   0.0800 
 25 H       -0.7820    -2.7980     0.9100 H     1 <1>   0.0800 
 26 H        0.8040    -2.4960     0.2520 H     1 <1>   0.0800 
 27 H       -0.5690    -2.6330    -0.8260 H     1 <1>   0.0800 
 28 H       -2.3720    -1.0600     1.1000 H     1 <1>   0.0800 
 29 H       -2.3730    -0.8970    -0.6460 H     1 <1>   0.0800 
 30 H       -2.0890     0.5000     0.3690 H     1 <1>   0.0800 
 31 H        1.7480     2.7360     1.2750 H     1 <1>   0.0800 
 32 H        3.1490     1.3810    -0.8840 H     1 <1>   0.0800 
 33 H        1.4160    -0.1910     1.7330 H     1 <1>   0.0800 
 34 H        1.4350     1.1380     2.8850 H     1 <1>   0.0800 
 35 H        4.5430     2.9100     1.1780 H     1 <1>   0.3700 
 36 H        4.9120     0.6200     1.0800 H     1 <1>   0.0800 
 37 H        3.6500    -0.4600     0.4920 H     1 <1>   0.0800 
 38 H        4.8900     4.8490     1.8960 H     1 <1>   0.1500 
 39 H        4.4750     5.8740    -2.2270 H     1 <1>   0.1500 
 40 H        6.2020     6.8980     2.2710 H     1 <1>   0.1500 
 41 H        5.7870     7.9350    -1.8380 H     1 <1>   0.1500 
@<TRIPOS>BOND
  1   1   2  2   
  2   1   3  2   
  3   1   4  am  
  4   1   5  1   
  5   4   6  1   
  6   4   7  1   
  7   5   8  1   
  8   5  23  1   
  9   5  24  1   
 10   6  25  1   
 11   6  26  1   
 12   6  27  1   
 13   7  28  1   
 14   7  29  1   
 15   7  30  1   
 16   8   9  1   
 17   8  10  1   
 18   8  31  1   
 19   9  11  1   
 20   9  12  1   
 21   9  32  1   
 22  10  13  1   
 23  10  33  1   
 24  10  34  1   
 25  11  14  am  
 26  11  35  1   
 27  12  13  1   
 28  12  36  1   
 29  12  37  1   
 30  14  15  2   
 31  14  16  1   
 32  16  17  ar  
 33  16  18  ar  
 34  17  19  ar  
 35  17  38  1   
 36  18  20  ar  
 37  18  39  1   
 38  19  21  ar  
 39  19  40  1   
 40  20  21  ar  
 41  20  41  1   
 42  21  22  1   
@<TRIPOS>SUBSTRUCTURE
  1 ****  11 GROUP 4 **** **** 0

# MOE 2024.06 (io_trps.svl 2023.06)
