@<TRIPOS>MOLECULE
NONAME
42 44 1 0 0 
SMALL
USER_CHARGES


@<TRIPOS>ATOM
  1 O        0.5080    -0.0070     0.3040 O.3   1 <1>  -0.6800 
  2 C        1.6500    -0.2250    -0.4570 C.3   1 <1>   0.2000 
  3 C        2.4270    -1.4260     0.0730 C.3   1 <1>  -0.0800 
  4 C        2.6370     0.9330    -0.3490 C.3   1 <1>   0.2090 
  5 C        3.8690    -1.1590    -0.3680 C.3   1 <1>   0.2090 
  6 C        1.8780    -2.7770    -0.4130 C.3   1 <1>  -0.0170 
  7 N        3.9760     0.3090    -0.5640 N.pl3 1 <1>  -0.8380 
  8 C        2.7720    -3.9260     0.0270 C.ar  1 <1>  -0.1440 
  9 C        5.1360     0.9820    -0.2020 C.ar  1 <1>   0.4100 
 10 C        3.5410    -4.6410    -0.8700 C.ar  1 <1>  -0.1500 
 11 C        2.8630    -4.3100     1.3490 C.ar  1 <1>  -0.1500 
 12 N        4.9960     2.1560     0.4040 N.ar  1 <1>  -0.6200 
 13 C        6.3840     0.4270    -0.4850 C.ar  1 <1>  -0.1500 
 14 C        4.3430    -5.6730    -0.4130 C.ar  1 <1>   0.1600 
 15 C        3.6980    -5.3580     1.7020 C.ar  1 <1>   0.1600 
 16 C        6.1070     2.7800     0.7480 C.ar  1 <1>   0.1670 
 17 C        7.5400     1.0780    -0.1240 C.ar  1 <1>  -0.1440 
 18 N        4.4410    -6.0480     0.8520 N.ar  1 <1>  -0.6200 
 19 C        7.3810     2.2920     0.5140 C.ar  1 <1>  -0.1500 
 20 C        5.9190     4.1120     1.4410 C.3   1 <1>  -0.0970 
 21 C        8.9180     0.5100    -0.4070 C.3   1 <1>  -0.0970 
 22 H       -0.1190    -0.7470     0.2060 H     1 <1>   0.4000 
 23 H        1.3650    -0.3560    -1.4870 H     1 <1>   0.0800 
 24 H        2.4190    -1.3950     1.1480 H     1 <1>   0.0800 
 25 H        2.5900     1.3650     0.6360 H     1 <1>   0.0800 
 26 H        2.4510     1.6850    -1.0950 H     1 <1>   0.0800 
 27 H        4.0790    -1.6460    -1.3050 H     1 <1>   0.0800 
 28 H        4.5650    -1.5040     0.3780 H     1 <1>   0.0800 
 29 H        1.7990    -2.7710    -1.4870 H     1 <1>   0.0800 
 30 H        0.8900    -2.9290    -0.0140 H     1 <1>   0.0800 
 31 H        3.5270    -4.4080    -1.9190 H     1 <1>   0.1500 
 32 H        2.2950    -3.8060     2.1090 H     1 <1>   0.1500 
 33 H        6.4280    -0.5130    -0.9960 H     1 <1>   0.1500 
 34 H        4.9360    -6.2210    -1.1260 H     1 <1>   0.1500 
 35 H        3.7580    -5.6420     2.7390 H     1 <1>   0.1500 
 36 H        8.2430     2.8530     0.8230 H     1 <1>   0.1500 
 37 H        6.8630     4.5580     1.6910 H     1 <1>   0.0800 
 38 H        5.3500     3.9680     2.3410 H     1 <1>   0.0800 
 39 H        5.3780     4.7770     0.7930 H     1 <1>   0.0800 
 40 H        9.4650     1.1800    -1.0460 H     1 <1>   0.0800 
 41 H        8.8440    -0.4460    -0.8930 H     1 <1>   0.0800 
 42 H        9.4590     0.3860     0.5140 H     1 <1>   0.0800 
@<TRIPOS>BOND
  1   1   2  1   
  2   1  22  1   
  3   2   3  1   
  4   2   4  1   
  5   2  23  1   
  6   3   5  1   
  7   3   6  1   
  8   3  24  1   
  9   4   7  1   
 10   4  25  1   
 11   4  26  1   
 12   5   7  1   
 13   5  27  1   
 14   5  28  1   
 15   6   8  1   
 16   6  29  1   
 17   6  30  1   
 18   7   9  1   
 19   8  10  ar  
 20   8  11  ar  
 21   9  12  ar  
 22   9  13  ar  
 23  10  14  ar  
 24  10  31  1   
 25  11  15  ar  
 26  11  32  1   
 27  12  16  ar  
 28  13  17  ar  
 29  13  33  1   
 30  14  18  ar  
 31  14  34  1   
 32  15  18  ar  
 33  15  35  1   
 34  16  19  ar  
 35  16  20  1   
 36  17  19  ar  
 37  17  21  1   
 38  19  36  1   
 39  20  37  1   
 40  20  38  1   
 41  20  39  1   
 42  21  40  1   
 43  21  41  1   
 44  21  42  1   
@<TRIPOS>SUBSTRUCTURE
  1 ****   5 GROUP 4 **** **** 0

# MOE 2024.06 (io_trps.svl 2023.06)
