@<TRIPOS>MOLECULE
NONAME
36 37 1 0 0 
SMALL
USER_CHARGES


@<TRIPOS>ATOM
  1 CL      -0.3070    -0.1700     1.5400 Cl    1 <1>  -0.1770 
  2 C       -0.2750    -1.8130     0.9600 C.ar  1 <1>   0.1770 
  3 C       -0.0460    -2.8410     1.8530 C.ar  1 <1>  -0.1500 
  4 C       -0.4800    -2.0600    -0.3880 C.ar  1 <1>  -0.1500 
  5 C       -0.0320    -4.1280     1.3550 C.ar  1 <1>   0.1900 
  6 C       -0.4600    -3.3640    -0.8630 C.ar  1 <1>  -0.1500 
  7 F        0.1710    -5.1140     2.1890 F     1 <1>  -0.1900 
  8 C       -0.2360    -4.4190     0.0130 C.ar  1 <1>  -0.1440 
  9 C       -0.2100    -5.8560    -0.4740 C.3   1 <1>   0.4870 
 10 N       -1.3460    -6.6010     0.1280 N.4   1 <1>  -0.9590 
 11 C       -1.2200    -8.0880    -0.1160 C.3   1 <1>   0.3430 
 12 C       -2.6670    -6.0640    -0.3100 C.3   1 <1>   0.3430 
 13 C       -2.5710    -8.8460    -0.1210 C.3   1 <1>   0.2000 
 14 C       -3.7870    -6.7010     0.5220 C.3   1 <1>  -0.1600 
 15 O       -3.1010    -8.7770    -1.4060 O.3   1 <1>  -0.6800 
 16 C       -3.5480    -8.1930     0.8730 C.3   1 <1>  -0.0800 
 17 C       -4.8640    -8.9740     1.0110 C.3   1 <1>   0.1200 
 18 O       -5.6160    -8.3710     2.0030 O.3   1 <1>  -0.6800 
 19 H        0.1130    -2.6400     2.8970 H     1 <1>   0.1500 
 20 H       -0.6520    -1.2320    -1.0550 H     1 <1>   0.1500 
 21 H       -0.6180    -3.5380    -1.9160 H     1 <1>   0.1500 
 22 H        0.7230    -6.3090    -0.1780 H     1 <1>   0.0800 
 23 H       -0.2770    -5.8850    -1.5490 H     1 <1>   0.0800 
 24 H       -1.2920    -6.4360     1.1440 H     1 <1>   0.4500 
 25 H       -0.7390    -8.2710    -1.0630 H     1 <1>   0.0800 
 26 H       -0.5950    -8.5090     0.6550 H     1 <1>   0.0800 
 27 H       -2.7030    -4.9910    -0.2000 H     1 <1>   0.0800 
 28 H       -2.8200    -6.3040    -1.3510 H     1 <1>   0.0800 
 29 H       -2.4060    -9.8860     0.1100 H     1 <1>   0.0800 
 30 H       -3.9270    -6.1420     1.4310 H     1 <1>   0.0800 
 31 H       -4.6980    -6.6020    -0.0420 H     1 <1>   0.0800 
 32 H       -3.8740    -9.3700    -1.5060 H     1 <1>   0.4000 
 33 H       -3.0700    -8.2330     1.8370 H     1 <1>   0.0800 
 34 H       -4.6820    -9.9950     1.3030 H     1 <1>   0.0800 
 35 H       -5.4340    -8.9520     0.0980 H     1 <1>   0.0800 
 36 H       -6.4650    -8.8390     2.1410 H     1 <1>   0.4000 
@<TRIPOS>BOND
  1   1   2  1   
  2   2   3  ar  
  3   2   4  ar  
  4   3   5  ar  
  5   3  19  1   
  6   4   6  ar  
  7   4  20  1   
  8   5   7  1   
  9   5   8  ar  
 10   6   8  ar  
 11   6  21  1   
 12   8   9  1   
 13   9  10  1   
 14   9  22  1   
 15   9  23  1   
 16  10  11  1   
 17  10  12  1   
 18  10  24  1   
 19  11  13  1   
 20  11  25  1   
 21  11  26  1   
 22  12  14  1   
 23  12  27  1   
 24  12  28  1   
 25  13  15  1   
 26  13  16  1   
 27  13  29  1   
 28  14  16  1   
 29  14  30  1   
 30  14  31  1   
 31  15  32  1   
 32  16  17  1   
 33  16  33  1   
 34  17  18  1   
 35  17  34  1   
 36  17  35  1   
 37  18  36  1   
@<TRIPOS>SUBSTRUCTURE
  1 ****  10 GROUP 4 **** **** 0

# MOE 2024.06 (io_trps.svl 2023.06)
