@<TRIPOS>MOLECULE
NONAME
41 43 1 0 0 
SMALL
USER_CHARGES


@<TRIPOS>ATOM
  1 S       -2.4180    -3.9650     3.3150 S.3   1 <1>  -0.4600 
  2 C       -2.1080    -2.3670     2.4930 C.3   1 <1>   0.2510 
  3 C       -3.5070    -4.7160     2.0650 C.3   1 <1>   0.2510 
  4 C       -2.9000    -2.4760     1.2120 C.2   1 <1>   0.1080 
  5 C       -3.5970    -3.6460     1.0040 C.2   1 <1>  -0.1810 
  6 N       -3.0370    -1.6270     0.2440 N.2   1 <1>  -0.7070 
  7 C       -4.2180    -3.4980    -0.1870 C.2   1 <1>  -0.0880 
  8 N       -3.8590    -2.2560    -0.6370 N.pl3 1 <1>   0.3140 
  9 N       -5.0410    -4.4770    -0.7920 N.am  1 <1>  -0.4940 
 10 C       -4.1750    -1.6110    -1.9170 C.3   1 <1>   0.0160 
 11 C       -6.0590    -4.4040    -1.6980 C.2   1 <1>   0.5690 
 12 O       -6.4460    -3.3780    -2.2010 O.2   1 <1>  -0.5700 
 13 C       -6.7550    -5.6920    -2.0780 C.3   1 <1>  -0.0990 
 14 C       -7.4920    -6.3060    -0.8820 C.3   1 <1>   0.1400 
 15 N       -6.9400    -7.6470    -0.5600 N.am  1 <1>  -0.7300 
 16 C       -5.8350    -7.8920     0.2080 C.2   1 <1>   0.5440 
 17 O       -5.1740    -6.9420     0.5790 O.2   1 <1>  -0.5700 
 18 C       -5.4590    -9.2470     0.5730 C.ar  1 <1>   0.0860 
 19 C       -4.7780    -9.4960     1.7700 C.ar  1 <1>  -0.1500 
 20 C       -5.7560   -10.3430    -0.2470 C.ar  1 <1>  -0.1500 
 21 C       -4.4150   -10.7780     2.1460 C.ar  1 <1>  -0.1500 
 22 C       -5.4010   -11.6320     0.1130 C.ar  1 <1>  -0.1500 
 23 C       -4.7360   -11.8270     1.3080 C.ar  1 <1>   0.1900 
 24 F       -4.4000   -13.0380     1.6530 F     1 <1>  -0.1900 
 25 H       -1.0540    -2.2760     2.3080 H     1 <1>   0.0800 
 26 H       -2.4730    -1.5800     3.1260 H     1 <1>   0.0800 
 27 H       -4.4590    -4.9220     2.5210 H     1 <1>   0.0800 
 28 H       -3.0400    -5.6140     1.7030 H     1 <1>   0.0800 
 29 H       -4.9470    -5.4090    -0.3600 H     1 <1>   0.3700 
 30 H       -3.4640    -0.8290    -2.1040 H     1 <1>   0.0800 
 31 H       -5.1630    -1.1940    -1.8630 H     1 <1>   0.0800 
 32 H       -4.1270    -2.3390    -2.7030 H     1 <1>   0.0800 
 33 H       -6.0300    -6.3740    -2.4820 H     1 <1>   0.0800 
 34 H       -7.4680    -5.4720    -2.8520 H     1 <1>   0.0800 
 35 H       -8.5400    -6.4040    -1.1140 H     1 <1>   0.0800 
 36 H       -7.4100    -5.6690    -0.0160 H     1 <1>   0.0800 
 37 H       -7.5450    -8.4330    -0.8070 H     1 <1>   0.3700 
 38 H       -4.5320    -8.6680     2.4130 H     1 <1>   0.1500 
 39 H       -6.2620   -10.1880    -1.1830 H     1 <1>   0.1500 
 40 H       -3.8930   -10.9660     3.0670 H     1 <1>   0.1500 
 41 H       -5.6290   -12.4750    -0.5150 H     1 <1>   0.1500 
@<TRIPOS>BOND
  1   1   2  1   
  2   1   3  1   
  3   2   4  1   
  4   2  25  1   
  5   2  26  1   
  6   3   5  1   
  7   3  27  1   
  8   3  28  1   
  9   4   5  1   
 10   4   6  2   
 11   5   7  2   
 12   6   8  1   
 13   7   8  1   
 14   7   9  1   
 15   8  10  1   
 16   9  11  am  
 17   9  29  1   
 18  10  30  1   
 19  10  31  1   
 20  10  32  1   
 21  11  12  2   
 22  11  13  1   
 23  13  14  1   
 24  13  33  1   
 25  13  34  1   
 26  14  15  1   
 27  14  35  1   
 28  14  36  1   
 29  15  16  am  
 30  15  37  1   
 31  16  17  2   
 32  16  18  1   
 33  18  19  ar  
 34  18  20  ar  
 35  19  21  ar  
 36  19  38  1   
 37  20  22  ar  
 38  20  39  1   
 39  21  23  ar  
 40  21  40  1   
 41  22  23  ar  
 42  22  41  1   
 43  23  24  1   
@<TRIPOS>SUBSTRUCTURE
  1 ****  17 GROUP 4 **** **** 0

# MOE 2024.06 (io_trps.svl 2023.06)
