@<TRIPOS>MOLECULE
NONAME
48 51 1 0 0 
SMALL
USER_CHARGES


@<TRIPOS>ATOM
  1 O        1.9570     1.6930     0.9480 O.3   1 <1>  -0.0190 
  2 N        2.7130     0.6520     0.7690 N.2   1 <1>  -0.4100 
  3 C        0.8500     1.6220     0.2560 C.2   1 <1>  -0.0400 
  4 C        2.0700    -0.1180    -0.0350 C.2   1 <1>   0.1080 
  5 C        0.8550     0.4540    -0.4040 C.2   1 <1>  -0.1500 
  6 C       -0.1500     2.7640     0.3070 C.3   1 <1>   0.0200 
  7 C        2.5730    -1.4630    -0.5110 C.3   1 <1>  -0.0590 
  8 C        0.4090     4.0170    -0.3990 C.3   1 <1>  -0.0800 
  9 C       -0.4860     5.2530    -0.3510 C.3   1 <1>   0.2000 
 10 C        1.7270     4.5090     0.1950 C.3   1 <1>   0.2090 
 11 O       -0.9760     5.3890     0.9530 O.3   1 <1>  -0.5600 
 12 C        0.4890     6.4010    -0.6530 C.3   1 <1>   0.2090 
 13 N        1.8290     5.9570    -0.1500 N.pl3 1 <1>  -0.8380 
 14 C       -2.1450     6.1390     1.0750 C.3   1 <1>   0.0400 
 15 C        2.8960     6.7570     0.0640 C.ar  1 <1>   0.4610 
 16 N        3.9680     6.2520     0.6920 N.ar  1 <1>  -0.1790 
 17 C        3.0080     8.1150    -0.3080 C.ar  1 <1>   0.0000 
 18 C        5.0900     6.9880     0.9790 C.ar  1 <1>   0.5280 
 19 C        4.1570     8.7960     0.0090 C.ar  1 <1>   0.1050 
 20 C        2.2370     9.0770    -0.9790 C.2   1 <1>   0.1390 
 21 N        5.2170     8.2300     0.6640 N.ar  1 <1>  -0.5670 
 22 C        6.2180     6.2840     1.7050 C.3   1 <1>  -0.0970 
 23 N        4.0150    10.0600    -0.4500 N.pl3 1 <1>   0.3140 
 24 N        2.8230    10.2240    -1.0630 N.2   1 <1>  -0.7070 
 25 C        4.9770    11.1670    -0.3510 C.3   1 <1>   0.0160 
 26 H        0.1240     0.0300    -1.0680 H     1 <1>   0.1500 
 27 H       -1.0620     2.4600    -0.1750 H     1 <1>   0.0800 
 28 H       -0.3760     2.9740     1.3380 H     1 <1>   0.0800 
 29 H        1.8650    -2.2290    -0.2550 H     1 <1>   0.0800 
 30 H        3.5140    -1.6910    -0.0440 H     1 <1>   0.0800 
 31 H        2.7090    -1.4460    -1.5770 H     1 <1>   0.0800 
 32 H        0.5890     3.7710    -1.4310 H     1 <1>   0.0800 
 33 H       -1.3070     5.1950    -1.0460 H     1 <1>   0.0800 
 34 H        2.5540     3.9490    -0.2110 H     1 <1>   0.0800 
 35 H        1.6970     4.4020     1.2680 H     1 <1>   0.0800 
 36 H        0.1670     7.3090    -0.1740 H     1 <1>   0.0800 
 37 H        0.5450     6.5500    -1.7180 H     1 <1>   0.0800 
 38 H       -2.4060     6.1820     2.1190 H     1 <1>   0.0800 
 39 H       -2.9370     5.6590     0.5270 H     1 <1>   0.0800 
 40 H       -1.9780     7.1360     0.7060 H     1 <1>   0.0800 
 41 H        3.9190     5.2820     0.9790 H     1 <1>   0.4570 
 42 H        1.2600     8.8990    -1.3920 H     1 <1>   0.1500 
 43 H        7.0330     6.9670     1.8700 H     1 <1>   0.0800 
 44 H        6.5840     5.4600     1.1200 H     1 <1>   0.0800 
 45 H        5.8820     5.9240     2.6600 H     1 <1>   0.0800 
 46 H        5.8450    10.8500     0.1950 H     1 <1>   0.0800 
 47 H        4.5100    11.9910     0.1570 H     1 <1>   0.0800 
 48 H        5.2610    11.4730    -1.3400 H     1 <1>   0.0800 
@<TRIPOS>BOND
  1   1   2  1   
  2   1   3  1   
  3   2   4  2   
  4   3   5  2   
  5   3   6  1   
  6   4   5  1   
  7   4   7  1   
  8   5  26  1   
  9   6   8  1   
 10   6  27  1   
 11   6  28  1   
 12   7  29  1   
 13   7  30  1   
 14   7  31  1   
 15   8   9  1   
 16   8  10  1   
 17   8  32  1   
 18   9  11  1   
 19   9  12  1   
 20   9  33  1   
 21  10  13  1   
 22  10  34  1   
 23  10  35  1   
 24  11  14  1   
 25  12  13  1   
 26  12  36  1   
 27  12  37  1   
 28  13  15  1   
 29  14  38  1   
 30  14  39  1   
 31  14  40  1   
 32  15  16  ar  
 33  15  17  ar  
 34  16  18  ar  
 35  16  41  1   
 36  17  19  ar  
 37  17  20  1   
 38  18  21  ar  
 39  18  22  1   
 40  19  21  ar  
 41  19  23  1   
 42  20  24  2   
 43  20  42  1   
 44  22  43  1   
 45  22  44  1   
 46  22  45  1   
 47  23  24  1   
 48  23  25  1   
 49  25  46  1   
 50  25  47  1   
 51  25  48  1   
@<TRIPOS>SUBSTRUCTURE
  1 ****  13 GROUP 4 **** **** 0

# MOE 2024.06 (io_trps.svl 2023.06)
