@<TRIPOS>MOLECULE
NONAME
40 41 1 0 0 
SMALL
USER_CHARGES


@<TRIPOS>ATOM
  1 O        0.1820    -0.2060     0.6900 O.2   1 <1>  -0.5700 
  2 C        1.2640    -0.5340     0.2370 C.2   1 <1>   0.7150 
  3 N        2.2280     0.4120    -0.0090 N.am  1 <1>  -0.4940 
  4 C        1.5840    -1.9150    -0.0370 C.2   1 <1>   0.0550 
  5 C        2.2060     1.8210     0.1370 C.2   1 <1>  -0.0880 
  6 O        2.7920    -2.2260    -0.4970 O.3   1 <1>  -0.2800 
  7 C        0.8650    -3.0530     0.0830 C.2   1 <1>   0.0460 
  8 N        3.2430     2.5510     0.6310 N.pl3 1 <1>   0.3140 
  9 C        1.2320     2.7120    -0.1680 C.2   1 <1>  -0.1810 
 10 C        2.7100    -3.5340    -0.6230 C.2   1 <1>   0.2980 
 11 N        1.6040    -4.0880    -0.2980 N.2   1 <1>  -0.5650 
 12 C       -0.5560    -3.2960     0.5550 C.3   1 <1>  -0.0590 
 13 N        2.9620     3.8710     0.6500 N.2   1 <1>  -0.7070 
 14 C        4.5240     2.0350     1.1550 C.3   1 <1>   0.0960 
 15 C        1.7580     3.9530     0.1750 C.2   1 <1>   0.1390 
 16 C       -0.1440     2.4780    -0.7620 C.3   1 <1>  -0.0590 
 17 C        3.9210    -4.2730    -1.1380 C.3   1 <1>  -0.0600 
 18 C        5.5080     1.7370     0.0140 C.3   1 <1>  -0.1600 
 19 C        6.8160     1.1440     0.5520 C.3   1 <1>  -0.1600 
 20 C        7.7890     0.8380    -0.5900 C.3   1 <1>  -0.2400 
 21 H        3.1060     0.0000    -0.3240 H     1 <1>   0.3700 
 22 H       -1.0440    -2.3800     0.8280 H     1 <1>   0.0800 
 23 H       -0.5430    -3.9470     1.4100 H     1 <1>   0.0800 
 24 H       -1.1190    -3.7660    -0.2290 H     1 <1>   0.0800 
 25 H        4.3240     1.1480     1.7260 H     1 <1>   0.0800 
 26 H        4.9380     2.7780     1.8130 H     1 <1>   0.0800 
 27 H        1.2340     4.8870     0.0610 H     1 <1>   0.1500 
 28 H       -0.1490     1.5780    -1.3480 H     1 <1>   0.0800 
 29 H       -0.4240     3.3010    -1.3930 H     1 <1>   0.0800 
 30 H       -0.8670     2.3780     0.0290 H     1 <1>   0.0800 
 31 H        4.1730    -3.9160    -2.1190 H     1 <1>   0.0800 
 32 H        3.7110    -5.3260    -1.1910 H     1 <1>   0.0800 
 33 H        4.7510    -4.1140    -0.4760 H     1 <1>   0.0800 
 34 H        5.7190     2.6540    -0.5110 H     1 <1>   0.0800 
 35 H        5.0620     1.0440    -0.6780 H     1 <1>   0.0800 
 36 H        6.6120     0.2360     1.0940 H     1 <1>   0.0800 
 37 H        7.2780     1.8420     1.2300 H     1 <1>   0.0800 
 38 H        7.3600     0.1250    -1.2730 H     1 <1>   0.0800 
 39 H        8.7020     0.4270    -0.1960 H     1 <1>   0.0800 
 40 H        8.0260     1.7360    -1.1330 H     1 <1>   0.0800 
@<TRIPOS>BOND
  1   1   2  2   
  2   2   3  am  
  3   2   4  1   
  4   3   5  1   
  5   3  21  1   
  6   4   6  1   
  7   4   7  2   
  8   5   8  1   
  9   5   9  2   
 10   6  10  1   
 11   7  11  1   
 12   7  12  1   
 13   8  13  1   
 14   8  14  1   
 15   9  15  1   
 16   9  16  1   
 17  10  11  2   
 18  10  17  1   
 19  12  22  1   
 20  12  23  1   
 21  12  24  1   
 22  13  15  2   
 23  14  18  1   
 24  14  25  1   
 25  14  26  1   
 26  15  27  1   
 27  16  28  1   
 28  16  29  1   
 29  16  30  1   
 30  17  31  1   
 31  17  32  1   
 32  17  33  1   
 33  18  19  1   
 34  18  34  1   
 35  18  35  1   
 36  19  20  1   
 37  19  36  1   
 38  19  37  1   
 39  20  38  1   
 40  20  39  1   
 41  20  40  1   
@<TRIPOS>SUBSTRUCTURE
  1 ****   3 GROUP 4 **** **** 0

# MOE 2024.06 (io_trps.svl 2023.06)
