@<TRIPOS>MOLECULE
NONAME
50 51 1 0 0 
SMALL
USER_CHARGES


@<TRIPOS>ATOM
  1 O       -0.2680    -0.6910    -1.0920 O.2   1 <1>  -0.5700 
  2 C        0.1370    -1.4690    -0.2480 C.2   1 <1>   0.6900 
  3 N        1.4200    -1.4010     0.2340 N.am  1 <1>  -0.6600 
  4 N       -0.7010    -2.4200     0.2190 N.am  1 <1>  -0.7300 
  5 C        2.3310    -0.2840    -0.1410 C.3   1 <1>   0.0600 
  6 C        2.0070    -2.4050     1.1630 C.3   1 <1>   0.0600 
  7 C       -2.0260    -2.7420    -0.3760 C.3   1 <1>   0.2010 
  8 C       -2.5170    -4.1540    -0.0260 C.2   1 <1>   0.5690 
  9 O       -1.8500    -4.8240     0.7350 O.2   1 <1>  -0.5700 
 10 N       -3.6910    -4.6310    -0.5550 N.am  1 <1>  -0.6600 
 11 C       -4.1780    -6.0160    -0.2530 C.3   1 <1>   0.1400 
 12 C       -4.6120    -3.8490    -1.4290 C.3   1 <1>   0.1400 
 13 C       -5.3080    -6.0250     0.7900 C.3   1 <1>   0.1400 
 14 C       -5.5830    -2.9930    -0.6040 C.3   1 <1>  -0.1600 
 15 N       -6.4290    -5.1000     0.4270 N.am  1 <1>  -0.6600 
 16 C       -6.1320    -3.6620     0.6650 C.3   1 <1>   0.1400 
 17 C       -7.5990    -5.5070    -0.1940 C.2   1 <1>   0.5440 
 18 O       -8.4310    -4.6500    -0.4500 O.2   1 <1>  -0.5700 
 19 C       -7.8690    -6.9080    -0.5370 C.ar  1 <1>   0.3960 
 20 N       -7.0230    -7.5340    -1.3790 N.ar  1 <1>  -0.6200 
 21 C       -8.9800    -7.5700     0.0120 C.ar  1 <1>  -0.1430 
 22 C       -7.2920    -8.7880    -1.6850 C.ar  1 <1>   0.1600 
 23 C       -9.2350    -8.8850    -0.3210 C.ar  1 <1>  -0.1500 
 24 C       -9.9320    -6.8730     0.9800 C.3   1 <1>  -0.0970 
 25 C       -8.3670    -9.5010    -1.1920 C.ar  1 <1>  -0.1500 
 26 H       -0.3370    -3.1500     0.8320 H     1 <1>   0.3700 
 27 H        1.8050     0.4690    -0.7010 H     1 <1>   0.0800 
 28 H        3.1360    -0.6630    -0.7460 H     1 <1>   0.0800 
 29 H        2.7340     0.1700     0.7460 H     1 <1>   0.0800 
 30 H        1.6050    -3.3830     0.9650 H     1 <1>   0.0800 
 31 H        1.7850    -2.1270     2.1790 H     1 <1>   0.0800 
 32 H        3.0740    -2.4480     1.0340 H     1 <1>   0.0800 
 33 H       -1.9550    -2.6520    -1.4440 H     1 <1>   0.0800 
 34 H       -2.7410    -2.0250    -0.0200 H     1 <1>   0.0800 
 35 H       -3.3650    -6.6190     0.1130 H     1 <1>   0.0800 
 36 H       -4.5280    -6.4770    -1.1590 H     1 <1>   0.0800 
 37 H       -5.1850    -4.5340    -2.0320 H     1 <1>   0.0800 
 38 H       -4.0540    -3.2260    -2.1050 H     1 <1>   0.0800 
 39 H       -4.9020    -5.7370     1.7440 H     1 <1>   0.0800 
 40 H       -5.6770    -7.0300     0.8960 H     1 <1>   0.0800 
 41 H       -6.4150    -2.7310    -1.2330 H     1 <1>   0.0800 
 42 H       -5.1060    -2.0710    -0.3260 H     1 <1>   0.0800 
 43 H       -7.0260    -3.1540     0.9850 H     1 <1>   0.0800 
 44 H       -5.4070    -3.5750     1.4560 H     1 <1>   0.0800 
 45 H       -6.6190    -9.2800    -2.3670 H     1 <1>   0.1500 
 46 H      -10.0810    -9.4180     0.0780 H     1 <1>   0.1500 
 47 H       -9.3810    -6.3940     1.7700 H     1 <1>   0.0800 
 48 H      -10.6180    -7.5710     1.4250 H     1 <1>   0.0800 
 49 H      -10.5020    -6.1240     0.4570 H     1 <1>   0.0800 
 50 H       -8.5210   -10.5230    -1.4880 H     1 <1>   0.1500 
@<TRIPOS>BOND
  1   1   2  2   
  2   2   3  am  
  3   2   4  am  
  4   3   5  1   
  5   3   6  1   
  6   4   7  1   
  7   4  26  1   
  8   5  27  1   
  9   5  28  1   
 10   5  29  1   
 11   6  30  1   
 12   6  31  1   
 13   6  32  1   
 14   7   8  1   
 15   7  33  1   
 16   7  34  1   
 17   8   9  2   
 18   8  10  am  
 19  10  11  1   
 20  10  12  1   
 21  11  13  1   
 22  11  35  1   
 23  11  36  1   
 24  12  14  1   
 25  12  37  1   
 26  12  38  1   
 27  13  15  1   
 28  13  39  1   
 29  13  40  1   
 30  14  16  1   
 31  14  41  1   
 32  14  42  1   
 33  15  16  1   
 34  15  17  am  
 35  16  43  1   
 36  16  44  1   
 37  17  18  2   
 38  17  19  1   
 39  19  20  ar  
 40  19  21  ar  
 41  20  22  ar  
 42  21  23  ar  
 43  21  24  1   
 44  22  25  ar  
 45  22  45  1   
 46  23  25  ar  
 47  23  46  1   
 48  24  47  1   
 49  24  48  1   
 50  24  49  1   
 51  25  50  1   
@<TRIPOS>SUBSTRUCTURE
  1 ****  10 GROUP 4 **** **** 0

# MOE 2024.06 (io_trps.svl 2023.06)
