@<TRIPOS>MOLECULE
NONAME
50 54 1 0 0 
SMALL
USER_CHARGES


@<TRIPOS>ATOM
  1 O        2.4130    -1.1600    -2.2210 O.2   1 <1>  -0.5700 
  2 C        1.6130    -1.6030    -1.4120 C.2   1 <1>   0.5440 
  3 N        0.8700    -0.6720    -0.7040 N.am  1 <1>  -0.6600 
  4 C        1.5190    -3.0580    -1.2390 C.ar  1 <1>   0.3960 
  5 C       -0.1210    -0.9570     0.3600 C.3   1 <1>   0.1400 
  6 C        1.0810     0.7870    -0.8420 C.3   1 <1>   0.1400 
  7 N        0.4080    -3.6400    -0.7540 N.ar  1 <1>  -0.6200 
  8 C        2.6310    -3.8260    -1.6060 C.ar  1 <1>   0.1600 
  9 C       -0.6220     0.4090     0.8210 C.3   1 <1>  -0.1600 
 10 C        0.4780     1.3870     0.4210 C.3   1 <1>  -0.1600 
 11 C        0.4790    -4.9580    -0.6670 C.ar  1 <1>   0.4100 
 12 N        2.7300    -5.1460    -1.5180 N.ar  1 <1>  -0.6200 
 13 N       -0.6460    -5.6150    -0.1960 N.pl3 1 <1>  -0.8380 
 14 C        1.6250    -5.6760    -1.0370 C.ar  1 <1>   0.1600 
 15 C       -1.5450    -4.9180     0.7840 C.3   1 <1>   0.2090 
 16 C       -1.4260    -6.4390    -1.1750 C.3   1 <1>   0.2090 
 17 C       -2.4720    -5.9070     1.5170 C.3   1 <1>   0.2090 
 18 C       -2.3540    -7.4480    -0.4690 C.3   1 <1>   0.2090 
 19 N       -3.2160    -6.7790     0.5540 N.pl3 1 <1>  -0.8220 
 20 C       -4.5890    -6.8630     0.5610 C.2   1 <1>   0.5620 
 21 O       -5.1960    -7.6280    -0.3410 O.3   1 <1>  -0.2800 
 22 N       -5.3800    -6.2560     1.3800 N.2   1 <1>  -0.5650 
 23 C       -6.4840    -7.5120    -0.0840 C.ar  1 <1>   0.1400 
 24 C       -6.6110    -6.6610     0.9840 C.ar  1 <1>   0.2270 
 25 C       -7.5770    -8.0930    -0.7090 C.ar  1 <1>  -0.1500 
 26 C       -7.8760    -6.3560     1.4750 C.ar  1 <1>  -0.1500 
 27 C       -8.8360    -7.7890    -0.2200 C.ar  1 <1>  -0.1500 
 28 C       -8.9830    -6.9230     0.8680 C.ar  1 <1>  -0.1500 
 29 H        0.3650    -1.4770     1.1680 H     1 <1>   0.0800 
 30 H       -0.9330    -1.5520    -0.0220 H     1 <1>   0.0800 
 31 H        0.5560     1.1330    -1.7160 H     1 <1>   0.0800 
 32 H        2.1280     1.0230    -0.9330 H     1 <1>   0.0800 
 33 H        3.4930    -3.3120    -1.9950 H     1 <1>   0.1500 
 34 H       -0.8220     0.4260     1.8770 H     1 <1>   0.0800 
 35 H       -1.5280     0.6430     0.2900 H     1 <1>   0.0800 
 36 H        0.1040     2.3820     0.2510 H     1 <1>   0.0800 
 37 H        1.2350     1.4220     1.1850 H     1 <1>   0.0800 
 38 H        1.5960    -6.7430    -0.9150 H     1 <1>   0.1500 
 39 H       -2.1480    -4.1960     0.2610 H     1 <1>   0.0800 
 40 H       -0.9470    -4.3910     1.5070 H     1 <1>   0.0800 
 41 H       -0.7530    -6.9710    -1.8240 H     1 <1>   0.0800 
 42 H       -2.0250    -5.7840    -1.7850 H     1 <1>   0.0800 
 43 H       -3.1580    -5.3530     2.1330 H     1 <1>   0.0800 
 44 H       -1.8790    -6.5280     2.1640 H     1 <1>   0.0800 
 45 H       -1.7520    -8.1940     0.0190 H     1 <1>   0.0800 
 46 H       -2.9580    -7.9440    -1.2080 H     1 <1>   0.0800 
 47 H       -7.4340    -8.7550    -1.5430 H     1 <1>   0.1500 
 48 H       -7.9660    -5.6890     2.3120 H     1 <1>   0.1500 
 49 H       -9.7100    -8.2190    -0.6780 H     1 <1>   0.1500 
 50 H       -9.9710    -6.6990     1.2340 H     1 <1>   0.1500 
@<TRIPOS>BOND
  1   1   2  2   
  2   2   3  am  
  3   2   4  1   
  4   3   5  1   
  5   3   6  1   
  6   4   7  ar  
  7   4   8  ar  
  8   5   9  1   
  9   5  29  1   
 10   5  30  1   
 11   6  10  1   
 12   6  31  1   
 13   6  32  1   
 14   7  11  ar  
 15   8  12  ar  
 16   8  33  1   
 17   9  10  1   
 18   9  34  1   
 19   9  35  1   
 20  10  36  1   
 21  10  37  1   
 22  11  13  1   
 23  11  14  ar  
 24  12  14  ar  
 25  13  15  1   
 26  13  16  1   
 27  14  38  1   
 28  15  17  1   
 29  15  39  1   
 30  15  40  1   
 31  16  18  1   
 32  16  41  1   
 33  16  42  1   
 34  17  19  1   
 35  17  43  1   
 36  17  44  1   
 37  18  19  1   
 38  18  45  1   
 39  18  46  1   
 40  19  20  1   
 41  20  21  1   
 42  20  22  2   
 43  21  23  1   
 44  22  24  1   
 45  23  24  ar  
 46  23  25  ar  
 47  24  26  ar  
 48  25  27  ar  
 49  25  47  1   
 50  26  28  ar  
 51  26  48  1   
 52  27  28  ar  
 53  27  49  1   
 54  28  50  1   
@<TRIPOS>SUBSTRUCTURE
  1 ****  15 GROUP 4 **** **** 0

# MOE 2024.06 (io_trps.svl 2023.06)
