@<TRIPOS>MOLECULE
NONAME
37 38 1 0 0 
SMALL
USER_CHARGES


@<TRIPOS>ATOM
  1 F        0.6920    -0.2230     1.5560 F     1 <1>  -0.1900 
  2 C        1.5460    -1.0750     1.0590 C.ar  1 <1>   0.1900 
  3 C        2.6750    -0.5920     0.4270 C.ar  1 <1>  -0.1500 
  4 C        1.2850    -2.4240     1.1840 C.ar  1 <1>  -0.1500 
  5 C        3.5910    -1.4930    -0.1090 C.ar  1 <1>  -0.1440 
  6 C        2.1870    -3.3300     0.6480 C.ar  1 <1>  -0.1440 
  7 C        3.3320    -2.8590     0.0140 C.ar  1 <1>  -0.1500 
  8 C        4.8680    -1.0050    -0.8150 C.3   1 <1>   1.1640 
  9 C        1.9190    -4.8210     0.7650 C.3   1 <1>   0.4870 
 10 F        4.8120     0.2680    -1.1820 F     1 <1>  -0.3400 
 11 F        5.1180    -1.7020    -1.9170 F     1 <1>  -0.3400 
 12 F        5.9380    -1.1310    -0.0430 F     1 <1>  -0.3400 
 13 N        1.3680    -5.3110    -0.5390 N.4   1 <1>  -0.9590 
 14 C        1.5190    -6.8110    -0.6130 C.3   1 <1>   0.3430 
 15 C       -0.0520    -4.8330    -0.6730 C.3   1 <1>   0.3430 
 16 C        0.2910    -7.5410    -0.0820 C.3   1 <1>  -0.1860 
 17 C       -0.8520    -5.7730    -1.5670 C.3   1 <1>  -0.1600 
 18 C        0.2700    -7.2020     1.3850 C.2   1 <1>   0.9060 
 19 C       -0.9430    -7.1690    -0.9340 C.3   1 <1>   0.2000 
 20 O        1.2970    -7.4380     2.0210 O.co2 1 <1>  -0.9000 
 21 O       -0.6280    -6.4860     1.8400 O.co2 1 <1>  -0.9000 
 22 O       -2.0750    -7.2100    -0.1580 O.3   1 <1>  -0.6800 
 23 H        2.8220     0.4730     0.3660 H     1 <1>   0.1500 
 24 H        0.3940    -2.7490     1.6970 H     1 <1>   0.1500 
 25 H        4.0420    -3.5650    -0.3880 H     1 <1>   0.1500 
 26 H        1.2210    -5.0070     1.5670 H     1 <1>   0.0800 
 27 H        2.8330    -5.3400     1.0040 H     1 <1>   0.0800 
 28 H        1.9330    -4.8820    -1.2760 H     1 <1>   0.4500 
 29 H        1.6680    -7.1040    -1.6390 H     1 <1>   0.0800 
 30 H        2.3860    -7.1240    -0.0500 H     1 <1>   0.0800 
 31 H       -0.5220    -4.8130     0.2990 H     1 <1>   0.0800 
 32 H       -0.0680    -3.8310    -1.0700 H     1 <1>   0.0800 
 33 H        0.4550    -8.5990    -0.1560 H     1 <1>   0.0800 
 34 H       -0.3720    -5.8370    -2.5260 H     1 <1>   0.0800 
 35 H       -1.8410    -5.3790    -1.7270 H     1 <1>   0.0800 
 36 H       -1.0840    -7.8950    -1.7180 H     1 <1>   0.0800 
 37 H       -1.8210    -6.8950     0.7620 H     1 <1>   0.4000 
@<TRIPOS>BOND
  1   1   2  1   
  2   2   3  ar  
  3   2   4  ar  
  4   3   5  ar  
  5   3  23  1   
  6   4   6  ar  
  7   4  24  1   
  8   5   7  ar  
  9   5   8  1   
 10   6   7  ar  
 11   6   9  1   
 12   7  25  1   
 13   8  10  1   
 14   8  11  1   
 15   8  12  1   
 16   9  13  1   
 17   9  26  1   
 18   9  27  1   
 19  13  14  1   
 20  13  15  1   
 21  13  28  1   
 22  14  16  1   
 23  14  29  1   
 24  14  30  1   
 25  15  17  1   
 26  15  31  1   
 27  15  32  1   
 28  16  18  1   
 29  16  19  1   
 30  16  33  1   
 31  17  19  1   
 32  17  34  1   
 33  17  35  1   
 34  18  20  ar  
 35  18  21  ar  
 36  19  22  1   
 37  19  36  1   
 38  22  37  1   
@<TRIPOS>SUBSTRUCTURE
  1 ****   6 GROUP 4 **** **** 0

# MOE 2024.06 (io_trps.svl 2023.06)
