@<TRIPOS>MOLECULE
NONAME
47 48 1 0 0 
SMALL
USER_CHARGES


@<TRIPOS>ATOM
  1 S        0.8890     1.7050    -0.2930 S.o2  1 <1>   1.3330 
  2 O        0.1400     2.4150    -1.3020 O.2   1 <1>  -0.6500 
  3 O        2.0420     2.3640     0.2850 O.2   1 <1>  -0.6500 
  4 N        1.3350     0.1800    -0.8720 N.am  1 <1>  -0.8490 
  5 C       -0.2270     1.3520     1.0710 C.3   1 <1>  -0.0550 
  6 C        0.3670    -0.3930    -1.8170 C.3   1 <1>   0.1160 
  7 C        2.6730     0.1750    -1.4760 C.3   1 <1>   0.1160 
  8 C       -0.7550     2.5770     1.8680 C.3   1 <1>  -0.0800 
  9 C       -1.5010     3.5990     0.9990 C.3   1 <1>   0.2000 
 10 C        0.3540     3.4090     2.5220 C.3   1 <1>   0.3430 
 11 O       -2.5170     4.1580     1.7650 O.3   1 <1>  -0.6800 
 12 C       -0.4740     4.6860     0.6400 C.3   1 <1>   0.3430 
 13 N        0.7180     4.4370     1.5170 N.4   1 <1>  -0.9590 
 14 C        1.3650     5.6640     2.0420 C.3   1 <1>   0.4860 
 15 C        1.8070     6.5010     0.8590 C.ar  1 <1>  -0.1440 
 16 C        2.7940     6.0290     0.0050 C.ar  1 <1>  -0.1500 
 17 C        1.2220     7.7340     0.6080 C.ar  1 <1>  -0.1500 
 18 C        3.1910     6.7700    -1.0950 C.ar  1 <1>   0.0820 
 19 C        1.6180     8.4810    -0.4880 C.ar  1 <1>  -0.1500 
 20 O        4.1540     6.2230    -1.8750 O.3   1 <1>  -0.3630 
 21 C        2.5970     8.0040    -1.3410 C.ar  1 <1>  -0.1500 
 22 C        4.6370     6.8900    -3.0210 C.3   1 <1>   0.0400 
 23 H       -1.0730     0.8140     0.6870 H     1 <1>   0.0800 
 24 H        0.2740     0.6930     1.7540 H     1 <1>   0.0800 
 25 H        0.6610    -1.3940    -2.0870 H     1 <1>   0.0800 
 26 H        0.3110     0.2070    -2.7110 H     1 <1>   0.0800 
 27 H       -0.6110    -0.4390    -1.3700 H     1 <1>   0.0800 
 28 H        2.9300    -0.8180    -1.8050 H     1 <1>   0.0800 
 29 H        3.4080     0.4870    -0.7530 H     1 <1>   0.0800 
 30 H        2.7090     0.8460    -2.3180 H     1 <1>   0.0800 
 31 H       -1.4080     2.1900     2.6320 H     1 <1>   0.0800 
 32 H       -1.9580     3.1680     0.1230 H     1 <1>   0.0800 
 33 H        1.2050     2.8030     2.7910 H     1 <1>   0.0800 
 34 H       -0.0350     3.8890     3.4060 H     1 <1>   0.0800 
 35 H       -2.2010     4.5760     2.5890 H     1 <1>   0.4000 
 36 H       -0.8940     5.6640     0.8040 H     1 <1>   0.0800 
 37 H       -0.1860     4.5980    -0.3960 H     1 <1>   0.0800 
 38 H        1.4370     3.9990     0.9020 H     1 <1>   0.4500 
 39 H        0.6750     6.2220     2.6530 H     1 <1>   0.0800 
 40 H        2.2260     5.4060     2.6370 H     1 <1>   0.0800 
 41 H        3.2760     5.0810     0.1700 H     1 <1>   0.1500 
 42 H        0.4590     8.1290     1.2560 H     1 <1>   0.1500 
 43 H        1.1640     9.4390    -0.6810 H     1 <1>   0.1500 
 44 H        2.8840     8.6020    -2.1850 H     1 <1>   0.1500 
 45 H        5.3900     6.2710    -3.4740 H     1 <1>   0.0800 
 46 H        5.0680     7.8290    -2.7230 H     1 <1>   0.0800 
 47 H        3.8240     7.0380    -3.7080 H     1 <1>   0.0800 
@<TRIPOS>BOND
  1   1   2  2   
  2   1   3  2   
  3   1   4  am  
  4   1   5  1   
  5   4   6  1   
  6   4   7  1   
  7   5   8  1   
  8   5  23  1   
  9   5  24  1   
 10   6  25  1   
 11   6  26  1   
 12   6  27  1   
 13   7  28  1   
 14   7  29  1   
 15   7  30  1   
 16   8   9  1   
 17   8  10  1   
 18   8  31  1   
 19   9  11  1   
 20   9  12  1   
 21   9  32  1   
 22  10  13  1   
 23  10  33  1   
 24  10  34  1   
 25  11  35  1   
 26  12  13  1   
 27  12  36  1   
 28  12  37  1   
 29  13  14  1   
 30  13  38  1   
 31  14  15  1   
 32  14  39  1   
 33  14  40  1   
 34  15  16  ar  
 35  15  17  ar  
 36  16  18  ar  
 37  16  41  1   
 38  17  19  ar  
 39  17  42  1   
 40  18  20  1   
 41  18  21  ar  
 42  19  21  ar  
 43  19  43  1   
 44  20  22  1   
 45  21  44  1   
 46  22  45  1   
 47  22  46  1   
 48  22  47  1   
@<TRIPOS>SUBSTRUCTURE
  1 ****  13 GROUP 4 **** **** 0

# MOE 2024.06 (io_trps.svl 2023.06)
