@<TRIPOS>MOLECULE
NONAME
48 50 1 0 0 
SMALL
USER_CHARGES


@<TRIPOS>ATOM
  1 O        1.6030     0.5570     0.0120 O.3   1 <1>  -0.6800 
  2 C        2.5000    -0.0660    -0.8510 C.3   1 <1>   0.2000 
  3 C        3.0130    -1.3390    -0.1760 C.3   1 <1>  -0.0800 
  4 C        3.7520     0.8070    -0.9740 C.3   1 <1>   0.3430 
  5 C        4.2990    -0.9210     0.5630 C.3   1 <1>   0.3430 
  6 C        3.2960    -2.4520    -1.2020 C.3   1 <1>   0.0210 
  7 N        4.5590     0.5190     0.2540 N.4   1 <1>  -0.9590 
  8 C        3.7580    -3.7270    -0.5220 C.2   1 <1>   0.1080 
  9 C        4.1570     1.3780     1.4120 C.3   1 <1>   0.4860 
 10 N        4.8540    -3.8030     0.1680 N.2   1 <1>  -0.7070 
 11 C        3.0760    -4.9370    -0.5620 C.2   1 <1>  -0.1500 
 12 C        4.3180     2.8360     1.0560 C.ar  1 <1>  -0.1440 
 13 N        4.9060    -5.0880     0.5810 N.pl3 1 <1>   0.3000 
 14 C        3.8360    -5.7890     0.1550 C.2   1 <1>  -0.3320 
 15 C        3.2270     3.6080     0.7300 C.ar  1 <1>   0.1600 
 16 C        5.5450     3.4550     1.0340 C.ar  1 <1>   0.1600 
 17 C        3.6050    -7.2590     0.4600 C.3   1 <1>  -0.0600 
 18 N        3.3420     4.8630     0.3850 N.ar  1 <1>  -0.6200 
 19 N        5.6860     4.7080     0.6930 N.ar  1 <1>  -0.6200 
 20 C        4.5740     5.3730     0.3780 C.ar  1 <1>   0.7200 
 21 N        4.7090     6.6940     0.0090 N.pl3 1 <1>  -0.8380 
 22 C        6.0350     7.3140    -0.2690 C.3   1 <1>   0.1290 
 23 C        3.5420     7.6190    -0.0730 C.3   1 <1>   0.1290 
 24 H        0.7250     0.1190    -0.0170 H     1 <1>   0.4000 
 25 H        2.0130    -0.2250    -1.7990 H     1 <1>   0.0800 
 26 H        2.2950    -1.7180     0.5300 H     1 <1>   0.0800 
 27 H        3.4990     1.8490    -1.0770 H     1 <1>   0.0800 
 28 H        4.3070     0.4970    -1.8440 H     1 <1>   0.0800 
 29 H        5.1280    -1.5160     0.2140 H     1 <1>   0.0800 
 30 H        4.1940    -1.0830     1.6230 H     1 <1>   0.0800 
 31 H        4.0550    -2.1460    -1.9010 H     1 <1>   0.0800 
 32 H        2.4010    -2.6690    -1.7600 H     1 <1>   0.0800 
 33 H        5.5570     0.6700     0.0580 H     1 <1>   0.4500 
 34 H        3.1290     1.1850     1.6740 H     1 <1>   0.0800 
 35 H        4.7680     1.1480     2.2700 H     1 <1>   0.0800 
 36 H        2.1450    -5.1350    -1.0650 H     1 <1>   0.1500 
 37 H        5.6810    -5.4600     1.1460 H     1 <1>   0.2700 
 38 H        2.2330     3.1890     0.7420 H     1 <1>   0.1500 
 39 H        6.4400     2.9170     1.2980 H     1 <1>   0.1500 
 40 H        2.6870    -7.5900     0.0090 H     1 <1>   0.0800 
 41 H        3.5400    -7.4150     1.5220 H     1 <1>   0.0800 
 42 H        4.4120    -7.8520     0.0670 H     1 <1>   0.0800 
 43 H        5.9350     8.0830    -1.0150 H     1 <1>   0.0800 
 44 H        6.7300     6.5790    -0.6350 H     1 <1>   0.0800 
 45 H        6.4260     7.7450     0.6360 H     1 <1>   0.0800 
 46 H        3.8370     8.6130     0.2140 H     1 <1>   0.0800 
 47 H        2.7540     7.2990     0.5860 H     1 <1>   0.0800 
 48 H        3.1680     7.6370    -1.0820 H     1 <1>   0.0800 
@<TRIPOS>BOND
  1   1   2  1   
  2   1  24  1   
  3   2   3  1   
  4   2   4  1   
  5   2  25  1   
  6   3   5  1   
  7   3   6  1   
  8   3  26  1   
  9   4   7  1   
 10   4  27  1   
 11   4  28  1   
 12   5   7  1   
 13   5  29  1   
 14   5  30  1   
 15   6   8  1   
 16   6  31  1   
 17   6  32  1   
 18   7   9  1   
 19   7  33  1   
 20   8  10  2   
 21   8  11  1   
 22   9  12  1   
 23   9  34  1   
 24   9  35  1   
 25  10  13  1   
 26  11  14  2   
 27  11  36  1   
 28  12  15  ar  
 29  12  16  ar  
 30  13  14  1   
 31  13  37  1   
 32  14  17  1   
 33  15  18  ar  
 34  15  38  1   
 35  16  19  ar  
 36  16  39  1   
 37  17  40  1   
 38  17  41  1   
 39  17  42  1   
 40  18  20  ar  
 41  19  20  ar  
 42  20  21  1   
 43  21  22  1   
 44  21  23  1   
 45  22  43  1   
 46  22  44  1   
 47  22  45  1   
 48  23  46  1   
 49  23  47  1   
 50  23  48  1   
@<TRIPOS>SUBSTRUCTURE
  1 ****   7 GROUP 4 **** **** 0

# MOE 2024.06 (io_trps.svl 2023.06)
