@<TRIPOS>MOLECULE
NONAME
50 54 1 0 0 
SMALL
USER_CHARGES


@<TRIPOS>ATOM
  1 S        0.8750    -0.5570     2.3460 S.3   1 <1>  -0.0800 
  2 C        1.6010    -0.1370     0.7880 C.2   1 <1>  -0.0450 
  3 C        0.3410    -2.1270     1.7360 C.ar  1 <1>   0.0400 
  4 C        2.2650     1.1060     0.5240 C.2   1 <1>   0.7150 
  5 C        1.4300    -1.1460    -0.0920 C.2   1 <1>  -0.1810 
  6 C        0.7190    -2.2860     0.4100 C.ar  1 <1>   0.0000 
  7 C       -0.3580    -3.0890     2.4380 C.ar  1 <1>  -0.1500 
  8 O        2.3510     2.0270     1.3090 O.2   1 <1>  -0.5700 
  9 N        2.8460     1.2370    -0.6990 N.am  1 <1>  -0.7300 
 10 C        1.9550    -1.0000    -1.5160 C.3   1 <1>   0.0210 
 11 C        0.3710    -3.4730    -0.2240 C.ar  1 <1>  -0.1500 
 12 C       -0.6900    -4.2590     1.7810 C.ar  1 <1>  -0.1500 
 13 C        3.0530     0.0890    -1.6350 C.3   1 <1>   0.1400 
 14 C       -0.3290    -4.4810     0.4410 C.ar  1 <1>   0.0860 
 15 C       -0.6670    -5.7150    -0.2500 C.2   1 <1>   0.5440 
 16 O       -0.7040    -5.7600    -1.4640 O.2   1 <1>  -0.5700 
 17 N       -0.9460    -6.8590     0.4410 N.am  1 <1>  -0.7300 
 18 C       -1.3040    -8.1580    -0.1710 C.3   1 <1>   0.2200 
 19 C       -2.8080    -8.3500    -0.0800 C.3   1 <1>  -0.0800 
 20 C       -0.7950    -9.2920     0.7110 C.3   1 <1>   0.1200 
 21 C       -2.9820    -8.9260     1.3310 C.3   1 <1>   0.1200 
 22 C       -3.3220    -9.3070    -1.1720 C.3   1 <1>  -0.0170 
 23 O       -1.7390    -9.4340     1.7290 O.3   1 <1>  -0.5600 
 24 C       -4.8320    -9.4710    -1.1010 C.ar  1 <1>  -0.1430 
 25 C       -5.4270   -10.6150    -0.6070 C.ar  1 <1>  -0.1500 
 26 C       -5.6880    -8.4770    -1.5290 C.ar  1 <1>  -0.1500 
 27 C       -6.8080   -10.7040    -0.5620 C.ar  1 <1>   0.1600 
 28 C       -7.0570    -8.6660    -1.4410 C.ar  1 <1>   0.1600 
 29 N       -7.6380    -9.7550    -0.9660 N.ar  1 <1>  -0.6200 
 30 H       -0.6320    -2.9170     3.4640 H     1 <1>   0.1500 
 31 H        3.3790     2.0950    -0.8480 H     1 <1>   0.3700 
 32 H        1.1320    -0.7430    -2.1600 H     1 <1>   0.0800 
 33 H        2.3580    -1.9350    -1.8590 H     1 <1>   0.0800 
 34 H        0.6470    -3.6200    -1.2530 H     1 <1>   0.1500 
 35 H       -1.2440    -5.0100     2.3150 H     1 <1>   0.1500 
 36 H        3.0880     0.4540    -2.6470 H     1 <1>   0.0800 
 37 H        4.0070    -0.3550    -1.4070 H     1 <1>   0.0800 
 38 H       -0.9060    -6.8790     1.4610 H     1 <1>   0.3700 
 39 H       -0.9240    -8.2200    -1.1770 H     1 <1>   0.0800 
 40 H       -3.3230    -7.4100    -0.1780 H     1 <1>   0.0800 
 41 H        0.1710    -9.0860     1.1370 H     1 <1>   0.0800 
 42 H       -0.7620   -10.2160     0.1630 H     1 <1>   0.0800 
 43 H       -3.7110    -9.7160     1.3780 H     1 <1>   0.0800 
 44 H       -3.2530    -8.1510     2.0270 H     1 <1>   0.0800 
 45 H       -2.8490   -10.2700    -1.0790 H     1 <1>   0.0800 
 46 H       -3.0660    -8.9120    -2.1400 H     1 <1>   0.0800 
 47 H       -4.8310   -11.4380    -0.2560 H     1 <1>   0.1500 
 48 H       -5.3030    -7.5570    -1.9310 H     1 <1>   0.1500 
 49 H       -7.2540   -11.6030    -0.1740 H     1 <1>   0.1500 
 50 H       -7.7090    -7.8790    -1.7800 H     1 <1>   0.1500 
@<TRIPOS>BOND
  1   1   2  1   
  2   1   3  1   
  3   2   4  1   
  4   2   5  2   
  5   3   6  ar  
  6   3   7  ar  
  7   4   8  2   
  8   4   9  am  
  9   5   6  1   
 10   5  10  1   
 11   6  11  ar  
 12   7  12  ar  
 13   7  30  1   
 14   9  13  1   
 15   9  31  1   
 16  10  13  1   
 17  10  32  1   
 18  10  33  1   
 19  11  14  ar  
 20  11  34  1   
 21  12  14  ar  
 22  12  35  1   
 23  13  36  1   
 24  13  37  1   
 25  14  15  1   
 26  15  16  2   
 27  15  17  am  
 28  17  18  1   
 29  17  38  1   
 30  18  19  1   
 31  18  20  1   
 32  18  39  1   
 33  19  21  1   
 34  19  22  1   
 35  19  40  1   
 36  20  23  1   
 37  20  41  1   
 38  20  42  1   
 39  21  23  1   
 40  21  43  1   
 41  21  44  1   
 42  22  24  1   
 43  22  45  1   
 44  22  46  1   
 45  24  25  ar  
 46  24  26  ar  
 47  25  27  ar  
 48  25  47  1   
 49  26  28  ar  
 50  26  48  1   
 51  27  29  ar  
 52  27  49  1   
 53  28  29  ar  
 54  28  50  1   
@<TRIPOS>SUBSTRUCTURE
  1 ****  15 GROUP 4 **** **** 0

# MOE 2024.06 (io_trps.svl 2023.06)
