@<TRIPOS>MOLECULE
NONAME
42 44 1 0 0 
SMALL
USER_CHARGES


@<TRIPOS>ATOM
  1 CL       2.8610    -4.1410    -1.7300 Cl    1 <1>  -0.1770 
  2 C        1.5970    -4.7740    -0.7110 C.ar  1 <1>   0.1770 
  3 C        1.8340    -5.9160     0.0300 C.ar  1 <1>  -0.1500 
  4 C        0.3770    -4.1280    -0.6600 C.ar  1 <1>  -0.1500 
  5 C        0.8250    -6.4260     0.8300 C.ar  1 <1>  -0.1500 
  6 C       -0.6290    -4.6380     0.1440 C.ar  1 <1>  -0.1500 
  7 C       -0.4100    -5.7910     0.8880 C.ar  1 <1>  -0.1430 
  8 C       -1.5100    -6.3750     1.7530 C.3   1 <1>   0.4870 
  9 N       -2.1670    -7.4280     0.9550 N.4   1 <1>  -0.9590 
 10 C       -3.1690    -6.9650    -0.0470 C.3   1 <1>   0.3430 
 11 C       -2.7650    -8.5720     1.6740 C.3   1 <1>   0.3430 
 12 C       -4.0870    -8.1700    -0.2990 C.3   1 <1>   0.2000 
 13 C       -3.5730    -9.3030     0.6010 C.3   1 <1>  -0.0800 
 14 O       -5.3850    -7.8460     0.0790 O.3   1 <1>  -0.6800 
 15 C       -2.7200   -10.3410    -0.1720 C.3   1 <1>   0.0210 
 16 C       -1.3300    -9.8720    -0.5850 C.2   1 <1>   0.1080 
 17 N       -1.1100    -8.8170    -1.3100 N.2   1 <1>  -0.7070 
 18 C       -0.1480   -10.5140    -0.2340 C.2   1 <1>  -0.1500 
 19 N        0.2300    -8.7830    -1.4810 N.pl3 1 <1>   0.3000 
 20 C        0.8320    -9.7900    -0.8160 C.2   1 <1>  -0.3320 
 21 C        2.3330   -10.0170    -0.7990 C.3   1 <1>  -0.0600 
 22 H        2.7980    -6.3910    -0.0220 H     1 <1>   0.1500 
 23 H        0.2230    -3.2360    -1.2430 H     1 <1>   0.1500 
 24 H        1.0160    -7.3190     1.4030 H     1 <1>   0.1500 
 25 H       -1.5760    -4.1250     0.1800 H     1 <1>   0.1500 
 26 H       -2.2170    -5.6150     2.0420 H     1 <1>   0.0800 
 27 H       -1.0710    -6.8000     2.6410 H     1 <1>   0.0800 
 28 H       -1.4280    -7.8450     0.3460 H     1 <1>   0.4500 
 29 H       -3.7450    -6.1360     0.3300 H     1 <1>   0.0800 
 30 H       -2.6700    -6.6790    -0.9590 H     1 <1>   0.0800 
 31 H       -2.0080    -9.2090     2.1050 H     1 <1>   0.0800 
 32 H       -3.4230    -8.2140     2.4490 H     1 <1>   0.0800 
 33 H       -4.1050    -8.4360    -1.3430 H     1 <1>   0.0800 
 34 H       -4.3950    -9.8340     1.0490 H     1 <1>   0.0800 
 35 H       -5.5030    -7.7790     1.0460 H     1 <1>   0.4000 
 36 H       -3.2500   -10.6520    -1.0560 H     1 <1>   0.0800 
 37 H       -2.6060   -11.2160     0.4430 H     1 <1>   0.0800 
 38 H       -0.0530   -11.4050     0.3630 H     1 <1>   0.1500 
 39 H        0.7030    -8.0730    -2.0570 H     1 <1>   0.2700 
 40 H        2.5710   -10.8870    -0.2120 H     1 <1>   0.0800 
 41 H        2.8390    -9.1690    -0.3740 H     1 <1>   0.0800 
 42 H        2.6960   -10.1750    -1.8000 H     1 <1>   0.0800 
@<TRIPOS>BOND
  1   1   2  1   
  2   2   3  ar  
  3   2   4  ar  
  4   3   5  ar  
  5   3  22  1   
  6   4   6  ar  
  7   4  23  1   
  8   5   7  ar  
  9   5  24  1   
 10   6   7  ar  
 11   6  25  1   
 12   7   8  1   
 13   8   9  1   
 14   8  26  1   
 15   8  27  1   
 16   9  10  1   
 17   9  11  1   
 18   9  28  1   
 19  10  12  1   
 20  10  29  1   
 21  10  30  1   
 22  11  13  1   
 23  11  31  1   
 24  11  32  1   
 25  12  13  1   
 26  12  14  1   
 27  12  33  1   
 28  13  15  1   
 29  13  34  1   
 30  14  35  1   
 31  15  16  1   
 32  15  36  1   
 33  15  37  1   
 34  16  17  2   
 35  16  18  1   
 36  17  19  1   
 37  18  20  2   
 38  18  38  1   
 39  19  20  1   
 40  19  39  1   
 41  20  21  1   
 42  21  40  1   
 43  21  41  1   
 44  21  42  1   
@<TRIPOS>SUBSTRUCTURE
  1 ****   9 GROUP 4 **** **** 0

# MOE 2024.06 (io_trps.svl 2023.06)
