@<TRIPOS>MOLECULE
NONAME
21 22 1 0 0 
SMALL
USER_CHARGES


@<TRIPOS>ATOM
  1 N        0.2360    -0.0160    -0.6000 N.ar  1 <1>  -0.6200 
  2 C        1.3070     0.6440    -0.1950 C.ar  1 <1>   0.1600 
  3 C        0.3820    -1.3270    -0.6980 C.ar  1 <1>   0.1600 
  4 C        2.5340     0.0690     0.1080 C.ar  1 <1>  -0.0320 
  5 C        1.5530    -2.0080    -0.4110 C.ar  1 <1>  -0.1500 
  6 C        2.6620    -1.3020     0.0050 C.ar  1 <1>  -0.1500 
  7 C        3.7090     0.9250     0.5480 C.3   1 <1>  -0.0680 
  8 C        4.2470     1.9550    -0.3930 C.3   1 <1>   0.2960 
  9 C        5.0570     0.7430    -0.0940 C.3   1 <1>  -0.2000 
 10 N        4.7120     3.2470     0.1380 N.4   1 <1>  -0.7460 
 11 H        1.1910     1.7080    -0.1000 H     1 <1>   0.1500 
 12 H       -0.4780    -1.8900    -1.0240 H     1 <1>   0.1500 
 13 H        1.5900    -3.0790    -0.5110 H     1 <1>   0.1500 
 14 H        3.5830    -1.8100     0.2370 H     1 <1>   0.1500 
 15 H        3.6940     1.1290     1.6050 H     1 <1>   0.1000 
 16 H        3.7920     2.0270    -1.3710 H     1 <1>   0.1000 
 17 H        5.1570    -0.0110    -0.8560 H     1 <1>   0.1000 
 18 H        5.9270     0.8010     0.5370 H     1 <1>   0.1000 
 19 H        5.1450     3.1240     1.0580 H     1 <1>   0.4500 
 20 H        3.9320     3.9070     0.2330 H     1 <1>   0.4500 
 21 H        5.4100     3.6620    -0.4900 H     1 <1>   0.4500 
@<TRIPOS>BOND
  1   1   2  ar  
  2   1   3  ar  
  3   2   4  ar  
  4   2  11  1   
  5   3   5  ar  
  6   3  12  1   
  7   4   6  ar  
  8   4   7  1   
  9   5   6  ar  
 10   5  13  1   
 11   6  14  1   
 12   7   8  1   
 13   7   9  1   
 14   7  15  1   
 15   8   9  1   
 16   8  10  1   
 17   8  16  1   
 18   9  17  1   
 19   9  18  1   
 20  10  19  1   
 21  10  20  1   
 22  10  21  1   
@<TRIPOS>SUBSTRUCTURE
  1 ****   4 GROUP 4 **** **** 0

# MOE 2024.06 (io_trps.svl 2023.06)
