@<TRIPOS>MOLECULE
NONAME
42 44 1 0 0 
SMALL
USER_CHARGES


@<TRIPOS>ATOM
  1 CL      -1.1520    -1.4100    -3.8890 Cl    1 <1>  -0.1770 
  2 C       -1.7300    -2.5920    -2.7430 C.ar  1 <1>   0.1770 
  3 C       -0.8310    -3.2230    -1.9060 C.ar  1 <1>  -0.1500 
  4 C       -3.0790    -2.8810    -2.6840 C.ar  1 <1>  -0.1500 
  5 C       -1.2950    -4.1600    -1.0000 C.ar  1 <1>  -0.1500 
  6 C       -3.5320    -3.8180    -1.7730 C.ar  1 <1>  -0.1500 
  7 C       -2.6520    -4.4820    -0.9130 C.ar  1 <1>   0.0530 
  8 C       -3.1170    -5.4630     0.0360 C.2   1 <1>   0.0870 
  9 O       -2.4380    -5.7120     1.1320 O.3   1 <1>  -0.0190 
 10 C       -4.2040    -6.2720     0.0660 C.2   1 <1>  -0.2330 
 11 N       -3.0070    -6.6170     1.8890 N.2   1 <1>  -0.4100 
 12 C       -4.0760    -6.9640     1.2690 C.2   1 <1>   0.3720 
 13 C       -5.2760    -6.4610    -0.8420 C.2   1 <1>   1.0330 
 14 N       -4.9740    -7.9060     1.7880 N.pl3 1 <1>  -0.8210 
 15 O       -6.2860    -5.7440    -0.8000 O.co2 1 <1>  -0.9000 
 16 O       -5.3580    -7.4870    -1.5410 O.co2 1 <1>  -0.9000 
 17 C       -4.9910    -9.2300     1.0740 C.3   1 <1>   0.2090 
 18 C       -6.3000    -7.3430     2.2150 C.3   1 <1>   0.2090 
 19 C       -6.3950    -9.7060     0.6370 C.3   1 <1>   0.3430 
 20 C       -7.4720    -7.5380     1.2150 C.3   1 <1>   0.3430 
 21 N       -7.2180    -8.5600     0.1500 N.4   1 <1>  -0.9590 
 22 C       -8.4110    -8.8680    -0.6830 C.3   1 <1>   0.3430 
 23 C       -8.0460    -9.5380    -2.0210 C.3   1 <1>   0.1200 
 24 O       -7.6690   -10.8660    -1.8260 O.3   1 <1>  -0.6800 
 25 H        0.2150    -2.9830    -1.9670 H     1 <1>   0.1500 
 26 H       -3.7650    -2.3790    -3.3420 H     1 <1>   0.1500 
 27 H       -0.5960    -4.6560    -0.3490 H     1 <1>   0.1500 
 28 H       -4.5860    -4.0310    -1.7260 H     1 <1>   0.1500 
 29 H       -4.5500    -9.9730     1.7140 H     1 <1>   0.0800 
 30 H       -4.3700    -9.1660     0.1960 H     1 <1>   0.0800 
 31 H       -6.1930    -6.2900     2.4110 H     1 <1>   0.0800 
 32 H       -6.5690    -7.8040     3.1480 H     1 <1>   0.0800 
 33 H       -6.8880   -10.1810     1.4670 H     1 <1>   0.0800 
 34 H       -6.2710   -10.4380    -0.1400 H     1 <1>   0.0800 
 35 H       -7.6720    -6.5890     0.7440 H     1 <1>   0.0800 
 36 H       -8.3510    -7.8060     1.7740 H     1 <1>   0.0800 
 37 H       -6.5720    -8.0720    -0.5230 H     1 <1>   0.4500 
 38 H       -8.9070    -7.9390    -0.9110 H     1 <1>   0.0800 
 39 H       -9.1000    -9.4940    -0.1420 H     1 <1>   0.0800 
 40 H       -7.2360    -9.0080    -2.4960 H     1 <1>   0.0800 
 41 H       -8.8990    -9.5320    -2.6760 H     1 <1>   0.0800 
 42 H       -7.3500   -11.2520    -2.6690 H     1 <1>   0.4000 
@<TRIPOS>BOND
  1   1   2  1   
  2   2   3  ar  
  3   2   4  ar  
  4   3   5  ar  
  5   3  25  1   
  6   4   6  ar  
  7   4  26  1   
  8   5   7  ar  
  9   5  27  1   
 10   6   7  ar  
 11   6  28  1   
 12   7   8  1   
 13   8   9  1   
 14   8  10  2   
 15   9  11  1   
 16  10  12  1   
 17  10  13  1   
 18  11  12  2   
 19  12  14  1   
 20  13  15  ar  
 21  13  16  ar  
 22  14  17  1   
 23  14  18  1   
 24  17  19  1   
 25  17  29  1   
 26  17  30  1   
 27  18  20  1   
 28  18  31  1   
 29  18  32  1   
 30  19  21  1   
 31  19  33  1   
 32  19  34  1   
 33  20  21  1   
 34  20  35  1   
 35  20  36  1   
 36  21  22  1   
 37  21  37  1   
 38  22  23  1   
 39  22  38  1   
 40  22  39  1   
 41  23  24  1   
 42  23  40  1   
 43  23  41  1   
 44  24  42  1   
@<TRIPOS>SUBSTRUCTURE
  1 ****  10 GROUP 4 **** **** 0

# MOE 2024.06 (io_trps.svl 2023.06)
