@<TRIPOS>MOLECULE
NONAME
20 20 1 0 0 
SMALL
USER_CHARGES


@<TRIPOS>ATOM
  1 F       -1.0370     0.0080     0.0620 F     1 <1>  -0.3400 
  2 C       -1.0210    -1.2910     0.3210 C.3   1 <1>   0.6800 
  3 F       -1.2830    -1.3700     1.6170 F     1 <1>  -0.3400 
  4 C       -2.1540    -1.9530    -0.4780 C.3   1 <1>  -0.1600 
  5 C        0.4000    -1.8090     0.0530 C.3   1 <1>  -0.1600 
  6 C       -2.6720    -3.2930     0.0870 C.3   1 <1>  -0.0990 
  7 C        0.6760    -3.2680     0.4610 C.3   1 <1>  -0.1600 
  8 C       -1.6270    -4.3440     0.4320 C.2   1 <1>   0.4480 
  9 C       -0.2530    -4.2900    -0.2150 C.3   1 <1>  -0.0990 
 10 O       -1.8940    -5.2200     1.1960 O.2   1 <1>  -0.5700 
 11 H       -1.8150    -2.1020    -1.4870 H     1 <1>   0.0800 
 12 H       -2.9820    -1.2680    -0.5200 H     1 <1>   0.0800 
 13 H        1.0900    -1.1710     0.5780 H     1 <1>   0.0800 
 14 H        0.6010    -1.7040    -0.9980 H     1 <1>   0.0800 
 15 H       -3.3570    -3.7280    -0.6170 H     1 <1>   0.0800 
 16 H       -3.2320    -3.0960     0.9850 H     1 <1>   0.0800 
 17 H        0.5960    -3.3700     1.5320 H     1 <1>   0.0800 
 18 H        1.6930    -3.5030     0.1960 H     1 <1>   0.0800 
 19 H        0.1880    -5.2650    -0.1060 H     1 <1>   0.0800 
 20 H       -0.3410    -4.0980    -1.2690 H     1 <1>   0.0800 
@<TRIPOS>BOND
  1   1   2  1   
  2   2   3  1   
  3   2   4  1   
  4   2   5  1   
  5   4   6  1   
  6   4  11  1   
  7   4  12  1   
  8   5   7  1   
  9   5  13  1   
 10   5  14  1   
 11   6   8  1   
 12   6  15  1   
 13   6  16  1   
 14   7   9  1   
 15   7  17  1   
 16   7  18  1   
 17   8   9  1   
 18   8  10  2   
 19   9  19  1   
 20   9  20  1   
@<TRIPOS>SUBSTRUCTURE
  1 ****   2 GROUP 4 **** **** 0

# MOE 2024.06 (io_trps.svl 2023.06)
