@<TRIPOS>MOLECULE
NONAME
50 52 1 0 0 
SMALL
USER_CHARGES


@<TRIPOS>ATOM
  1 O        1.1840     0.5420    -0.4360 O.2   1 <1>  -0.5700 
  2 C        1.7990    -0.4010     0.0260 C.2   1 <1>   0.5440 
  3 N        2.8500    -0.1520     0.8860 N.am  1 <1>  -0.6600 
  4 C        1.4170    -1.7480    -0.3570 C.ar  1 <1>   0.0860 
  5 C        3.9490    -1.1310     1.1520 C.3   1 <1>   0.1400 
  6 C        3.0980     1.2060     1.4420 C.3   1 <1>   0.1400 
  7 C        1.1670    -2.7380     0.5950 C.ar  1 <1>  -0.1500 
  8 C        1.2820    -2.0970    -1.7000 C.ar  1 <1>  -0.1500 
  9 C        5.2850    -0.6010     0.6160 C.3   1 <1>   0.2000 
 10 C        4.3810     1.7710     0.8300 C.3   1 <1>  -0.1600 
 11 C        0.8160    -4.0230     0.2230 C.ar  1 <1>  -0.1500 
 12 C        0.9310    -3.3800    -2.0800 C.ar  1 <1>  -0.1500 
 13 O        6.2890    -1.4530     1.0600 O.3   1 <1>  -0.6800 
 14 C        5.5720     0.8430     1.0880 C.3   1 <1>   0.2200 
 15 C        0.6990    -4.3460    -1.1170 C.ar  1 <1>  -0.1500 
 16 N        6.7510     1.4180     0.3980 N.am  1 <1>  -0.7300 
 17 C        8.0710     1.1810     0.6480 C.2   1 <1>   0.7160 
 18 O        8.3430     0.3010     1.4490 O.2   1 <1>  -0.5700 
 19 C        9.0710     1.9700    -0.0630 C.2   1 <1>   0.2030 
 20 N        8.7610     2.9020    -0.9510 N.2   1 <1>  -0.7070 
 21 C       10.4700     1.8780     0.0680 C.2   1 <1>  -0.1810 
 22 N        9.9330     3.3900    -1.3760 N.pl3 1 <1>   0.3000 
 23 C       10.9830     2.7920    -0.7820 C.2   1 <1>  -0.3320 
 24 C       11.2200     0.9320     0.9930 C.3   1 <1>  -0.0590 
 25 C       12.4210     3.1670    -1.1000 C.3   1 <1>   0.0200 
 26 C       12.7540     4.5410    -0.5170 C.3   1 <1>  -0.2400 
 27 H        4.0250    -1.2860     2.2140 H     1 <1>   0.0800 
 28 H        3.7470    -2.0760     0.6810 H     1 <1>   0.0800 
 29 H        2.2720     1.8630     1.2270 H     1 <1>   0.0800 
 30 H        3.1950     1.1370     2.5120 H     1 <1>   0.0800 
 31 H        1.2490    -2.4890     1.6380 H     1 <1>   0.1500 
 32 H        1.4550    -1.3440    -2.4490 H     1 <1>   0.1500 
 33 H        5.2740    -0.6360    -0.4600 H     1 <1>   0.0800 
 34 H        4.5760     2.7360     1.2610 H     1 <1>   0.0800 
 35 H        4.2250     1.8930    -0.2280 H     1 <1>   0.0800 
 36 H        0.6310    -4.7710     0.9740 H     1 <1>   0.1500 
 37 H        0.8350    -3.6260    -3.1230 H     1 <1>   0.1500 
 38 H        7.1340    -0.9410     1.1530 H     1 <1>   0.4000 
 39 H        5.7620     0.8200     2.1480 H     1 <1>   0.0800 
 40 H        0.4250    -5.3460    -1.4100 H     1 <1>   0.1500 
 41 H        6.5770     2.1390    -0.3090 H     1 <1>   0.3700 
 42 H        9.9960     4.1390    -2.0760 H     1 <1>   0.2700 
 43 H       11.0140    -0.0870     0.7190 H     1 <1>   0.0800 
 44 H       10.9020     1.0860     2.0090 H     1 <1>   0.0800 
 45 H       12.2800     1.0930     0.9430 H     1 <1>   0.0800 
 46 H       13.0940     2.4370    -0.6880 H     1 <1>   0.0800 
 47 H       12.5670     3.1750    -2.1660 H     1 <1>   0.0800 
 48 H       12.6010     4.5340     0.5480 H     1 <1>   0.0800 
 49 H       12.1280     5.3000    -0.9500 H     1 <1>   0.0800 
 50 H       13.7820     4.7870    -0.7160 H     1 <1>   0.0800 
@<TRIPOS>BOND
  1   1   2  2   
  2   2   3  am  
  3   2   4  1   
  4   3   5  1   
  5   3   6  1   
  6   4   7  ar  
  7   4   8  ar  
  8   5   9  1   
  9   5  27  1   
 10   5  28  1   
 11   6  10  1   
 12   6  29  1   
 13   6  30  1   
 14   7  11  ar  
 15   7  31  1   
 16   8  12  ar  
 17   8  32  1   
 18   9  13  1   
 19   9  14  1   
 20   9  33  1   
 21  10  14  1   
 22  10  34  1   
 23  10  35  1   
 24  11  15  ar  
 25  11  36  1   
 26  12  15  ar  
 27  12  37  1   
 28  13  38  1   
 29  14  16  1   
 30  14  39  1   
 31  15  40  1   
 32  16  17  am  
 33  16  41  1   
 34  17  18  2   
 35  17  19  1   
 36  19  20  2   
 37  19  21  1   
 38  20  22  1   
 39  21  23  2   
 40  21  24  1   
 41  22  23  1   
 42  22  42  1   
 43  23  25  1   
 44  24  43  1   
 45  24  44  1   
 46  24  45  1   
 47  25  26  1   
 48  25  46  1   
 49  25  47  1   
 50  26  48  1   
 51  26  49  1   
 52  26  50  1   
@<TRIPOS>SUBSTRUCTURE
  1 ****   9 GROUP 4 **** **** 0

# MOE 2024.06 (io_trps.svl 2023.06)
