@<TRIPOS>MOLECULE
NONAME
48 50 1 0 0 
SMALL
USER_CHARGES


@<TRIPOS>ATOM
  1 S        0.1230     0.4250     1.8360 S.o2  1 <1>   1.4470 
  2 O       -0.3100     1.6890     2.3920 O.2   1 <1>  -0.6500 
  3 O        0.5980    -0.6230     2.7090 O.2   1 <1>  -0.6500 
  4 N        1.4350     0.8120     0.8250 N.am  1 <1>  -0.8490 
  5 C       -1.1540    -0.1930     0.7000 C.ar  1 <1>  -0.0090 
  6 C        2.4470     1.5800     1.5940 C.3   1 <1>   0.1960 
  7 C        2.0510    -0.3850     0.2220 C.3   1 <1>   0.1960 
  8 C       -1.1960    -1.5300     0.3280 C.ar  1 <1>  -0.1500 
  9 C       -2.0980     0.6620     0.1440 C.ar  1 <1>  -0.1500 
 10 C        3.5740     2.2550     0.7580 C.3   1 <1>   0.4230 
 11 C        3.0190    -0.0330    -0.9270 C.3   1 <1>  -0.0800 
 12 C       -2.1140    -2.0300    -0.5930 C.ar  1 <1>   0.0860 
 13 C       -3.0380     0.1960    -0.7570 C.ar  1 <1>  -0.1500 
 14 N        3.2200     2.5370    -0.6930 N.4   1 <1>  -0.9590 
 15 C        4.9190     1.5080     0.8870 C.3   1 <1>   0.1200 
 16 C        4.4940    -0.2980    -0.5930 C.3   1 <1>   0.1200 
 17 C        2.7570     1.3610    -1.5140 C.3   1 <1>   0.3430 
 18 C       -2.0650    -3.4250    -0.9870 C.2   1 <1>   0.5440 
 19 C       -3.0410    -1.1360    -1.1250 C.ar  1 <1>  -0.1500 
 20 C        2.1680     3.5990    -0.7520 C.3   1 <1>   0.2630 
 21 O        4.7980     0.1360     0.6900 O.3   1 <1>  -0.5600 
 22 O       -0.9920    -3.9840    -1.0920 O.2   1 <1>  -0.5700 
 23 N       -3.2130    -4.1230    -1.2420 N.am  1 <1>  -0.7300 
 24 C       -3.2790    -5.5480    -1.6610 C.3   1 <1>   0.0600 
 25 H        1.9540     2.3780     2.1200 H     1 <1>   0.0800 
 26 H        2.8830     0.9480     2.3520 H     1 <1>   0.0800 
 27 H        2.5440    -0.9790     0.9770 H     1 <1>   0.0800 
 28 H        1.2770    -1.0010    -0.2010 H     1 <1>   0.0800 
 29 H       -0.4890    -2.2190     0.7610 H     1 <1>   0.1500 
 30 H       -2.1020     1.7030     0.4220 H     1 <1>   0.1500 
 31 H        3.7520     3.2090     1.2250 H     1 <1>   0.0800 
 32 H        2.7890    -0.7220    -1.7210 H     1 <1>   0.0800 
 33 H       -3.7660     0.8730    -1.1750 H     1 <1>   0.1500 
 34 H        4.0690     2.9030    -1.1410 H     1 <1>   0.4500 
 35 H        5.2890     1.6340     1.8900 H     1 <1>   0.0800 
 36 H        5.6590     1.8990     0.2110 H     1 <1>   0.0800 
 37 H        5.1660     0.1620    -1.2990 H     1 <1>   0.0800 
 38 H        4.6760    -1.3610    -0.6030 H     1 <1>   0.0800 
 39 H        1.6920     1.4410    -1.6650 H     1 <1>   0.0800 
 40 H        3.2170     1.4160    -2.4870 H     1 <1>   0.0800 
 41 H       -3.7640    -1.4850    -1.8420 H     1 <1>   0.1500 
 42 H        1.2580     3.2440    -0.2930 H     1 <1>   0.0800 
 43 H        1.9560     3.8630    -1.7760 H     1 <1>   0.0800 
 44 H        2.4940     4.4850    -0.2310 H     1 <1>   0.0800 
 45 H       -4.1130    -3.6780    -1.0520 H     1 <1>   0.3700 
 46 H       -2.2910    -5.9320    -1.8510 H     1 <1>   0.0800 
 47 H       -3.8620    -5.6360    -2.5610 H     1 <1>   0.0800 
 48 H       -3.7340    -6.1350    -0.8830 H     1 <1>   0.0800 
@<TRIPOS>BOND
  1   1   2  2   
  2   1   3  2   
  3   1   4  am  
  4   1   5  1   
  5   4   6  1   
  6   4   7  1   
  7   5   8  ar  
  8   5   9  ar  
  9   6  10  1   
 10   6  25  1   
 11   6  26  1   
 12   7  11  1   
 13   7  27  1   
 14   7  28  1   
 15   8  12  ar  
 16   8  29  1   
 17   9  13  ar  
 18   9  30  1   
 19  10  14  1   
 20  10  15  1   
 21  10  31  1   
 22  11  16  1   
 23  11  17  1   
 24  11  32  1   
 25  12  18  1   
 26  12  19  ar  
 27  13  19  ar  
 28  13  33  1   
 29  14  17  1   
 30  14  20  1   
 31  14  34  1   
 32  15  21  1   
 33  15  35  1   
 34  15  36  1   
 35  16  21  1   
 36  16  37  1   
 37  16  38  1   
 38  17  39  1   
 39  17  40  1   
 40  18  22  2   
 41  18  23  am  
 42  19  41  1   
 43  20  42  1   
 44  20  43  1   
 45  20  44  1   
 46  23  24  1   
 47  23  45  1   
 48  24  46  1   
 49  24  47  1   
 50  24  48  1   
@<TRIPOS>SUBSTRUCTURE
  1 ****   7 GROUP 4 **** **** 0

# MOE 2024.06 (io_trps.svl 2023.06)
