@<TRIPOS>MOLECULE
NONAME
29 29 1 0 0 
SMALL
USER_CHARGES


@<TRIPOS>ATOM
  1 CL       0.0160     0.0450     0.9290 Cl    1 <1>  -0.1770 
  2 C       -0.0230     1.7800     0.7660 C.ar  1 <1>   0.1770 
  3 C       -1.1340     2.3870     0.2140 C.ar  1 <1>  -0.1500 
  4 C        1.0580     2.5280     1.1910 C.ar  1 <1>  -0.1500 
  5 C       -1.1590     3.7650     0.0870 C.ar  1 <1>  -0.1500 
  6 C        1.0230     3.9050     1.0600 C.ar  1 <1>  -0.1500 
  7 C       -0.0830     4.5540     0.5050 C.ar  1 <1>   0.0860 
  8 C       -0.0990     5.9940     0.3760 C.2   1 <1>   0.3040 
  9 N       -1.0500     6.6890    -0.0890 N.2   1 <1>  -0.5650 
 10 S       -0.7560     8.4430    -0.0940 S.o   1 <1>   0.4220 
 11 O        0.0310     8.7040     1.2590 O.2   1 <1>  -0.5000 
 12 C       -2.5340     9.1060     0.0410 C.3   1 <1>   0.1940 
 13 C       -3.2480     8.5350     1.2760 C.3   1 <1>  -0.2400 
 14 C       -3.3500     8.7390    -1.2080 C.3   1 <1>  -0.2400 
 15 C       -2.5120    10.6360     0.1690 C.3   1 <1>  -0.2400 
 16 H       -1.9660     1.7870    -0.1100 H     1 <1>   0.1500 
 17 H        1.9120     2.0330     1.6190 H     1 <1>   0.1500 
 18 H       -2.0230     4.2430    -0.3420 H     1 <1>   0.1500 
 19 H        1.8650     4.4870     1.3940 H     1 <1>   0.1500 
 20 H        0.8030     6.4710     0.7160 H     1 <1>   0.0600 
 21 H       -3.3240     7.4650     1.2040 H     1 <1>   0.0800 
 22 H       -4.2370     8.9430     1.3750 H     1 <1>   0.0800 
 23 H       -2.6860     8.7690     2.1630 H     1 <1>   0.0800 
 24 H       -3.4050     7.6700    -1.3120 H     1 <1>   0.0800 
 25 H       -2.8820     9.1400    -2.0890 H     1 <1>   0.0800 
 26 H       -4.3500     9.1270    -1.1400 H     1 <1>   0.0800 
 27 H       -1.9550    10.9210     1.0440 H     1 <1>   0.0800 
 28 H       -3.5090    11.0310     0.2520 H     1 <1>   0.0800 
 29 H       -2.0370    11.0750    -0.6900 H     1 <1>   0.0800 
@<TRIPOS>BOND
  1   1   2  1   
  2   2   3  ar  
  3   2   4  ar  
  4   3   5  ar  
  5   3  16  1   
  6   4   6  ar  
  7   4  17  1   
  8   5   7  ar  
  9   5  18  1   
 10   6   7  ar  
 11   6  19  1   
 12   7   8  1   
 13   8   9  2   
 14   8  20  1   
 15   9  10  1   
 16  10  11  2   
 17  10  12  1   
 18  12  13  1   
 19  12  14  1   
 20  12  15  1   
 21  13  21  1   
 22  13  22  1   
 23  13  23  1   
 24  14  24  1   
 25  14  25  1   
 26  14  26  1   
 27  15  27  1   
 28  15  28  1   
 29  15  29  1   
@<TRIPOS>SUBSTRUCTURE
  1 ****   8 GROUP 4 **** **** 0

# MOE 2024.06 (io_trps.svl 2023.06)
