@<TRIPOS>MOLECULE
NONAME
58 61 1 0 0 
SMALL
USER_CHARGES


@<TRIPOS>ATOM
  1 O        1.3050    -1.1580    -2.0260 O.2   1 <1>  -0.5700 
  2 C        1.3040    -1.6160    -0.8950 C.2   1 <1>   0.5440 
  3 N        0.6480    -0.8920     0.0840 N.am  1 <1>  -0.6600 
  4 C        2.0160    -2.8710    -0.6460 C.ar  1 <1>   0.3960 
  5 C        0.0190     0.4220    -0.1790 C.3   1 <1>   0.1400 
  6 C        0.6550    -1.1900     1.5350 C.3   1 <1>   0.1400 
  7 N        1.5530    -3.7780     0.2350 N.ar  1 <1>  -0.6200 
  8 C        3.1920    -3.0970    -1.3700 C.ar  1 <1>   0.1600 
  9 C       -0.0360     1.1030     1.1830 C.3   1 <1>  -0.1600 
 10 C       -0.1220    -0.0470     2.1820 C.3   1 <1>  -0.1600 
 11 C        2.3110    -4.8460     0.3350 C.ar  1 <1>   0.4100 
 12 N        3.9710    -4.1670    -1.2690 N.ar  1 <1>  -0.6200 
 13 N        1.8160    -5.7760     1.2100 N.pl3 1 <1>  -0.8690 
 14 C        3.4990    -5.0240    -0.3890 C.ar  1 <1>   0.1600 
 15 C        1.3840    -7.0790     0.6990 C.3   1 <1>   0.2890 
 16 C       -0.0950    -6.9980     0.3270 C.3   1 <1>  -0.1600 
 17 C        1.6150    -8.1240     1.7850 C.3   1 <1>  -0.1600 
 18 C       -0.6240    -8.3690    -0.0820 C.3   1 <1>   0.3430 
 19 C        1.0600    -9.4800     1.3570 C.3   1 <1>   0.3430 
 20 N       -0.3900    -9.3540     1.0200 N.4   1 <1>  -0.9590 
 21 C       -0.9540   -10.7040     0.6990 C.3   1 <1>   0.3430 
 22 C       -2.4840   -10.7070     0.6780 C.3   1 <1>  -0.0170 
 23 C       -2.9530   -12.1310     0.4570 C.ar  1 <1>  -0.1440 
 24 C       -3.1830   -12.9660     1.5400 C.ar  1 <1>  -0.1500 
 25 C       -3.1440   -12.6140    -0.8290 C.ar  1 <1>  -0.1500 
 26 C       -3.5920   -14.2720     1.3390 C.ar  1 <1>  -0.1500 
 27 C       -3.5530   -13.9200    -1.0290 C.ar  1 <1>  -0.1500 
 28 C       -3.7760   -14.7510     0.0540 C.ar  1 <1>  -0.1500 
 29 H       -0.9730     0.2620    -0.5650 H     1 <1>   0.0800 
 30 H        0.5930     0.9970    -0.8870 H     1 <1>   0.0800 
 31 H        1.6710    -1.2070     1.8900 H     1 <1>   0.0800 
 32 H        0.1810    -2.1350     1.7350 H     1 <1>   0.0800 
 33 H        3.5020    -2.3420    -2.0730 H     1 <1>   0.1500 
 34 H       -0.8700     1.7770     1.2580 H     1 <1>   0.0800 
 35 H        0.8760     1.6530     1.3340 H     1 <1>   0.0800 
 36 H        0.2800     0.2140     3.1440 H     1 <1>   0.0800 
 37 H       -1.1480    -0.3490     2.3020 H     1 <1>   0.0800 
 38 H        1.1050    -5.3330     1.7980 H     1 <1>   0.4000 
 39 H        4.0640    -5.9200    -0.2140 H     1 <1>   0.1500 
 40 H        1.9610    -7.3360    -0.1750 H     1 <1>   0.0800 
 41 H       -0.2150    -6.3170    -0.4980 H     1 <1>   0.0800 
 42 H       -0.6720    -6.6240     1.1540 H     1 <1>   0.0800 
 43 H        1.1490    -7.8190     2.7050 H     1 <1>   0.0800 
 44 H        2.6720    -8.2190     1.9630 H     1 <1>   0.0800 
 45 H       -0.1210    -8.6970    -0.9780 H     1 <1>   0.0800 
 46 H       -1.6770    -8.2900    -0.2970 H     1 <1>   0.0800 
 47 H        1.1930   -10.1890     2.1590 H     1 <1>   0.0800 
 48 H        1.6050    -9.8380     0.4980 H     1 <1>   0.0800 
 49 H       -0.8700    -9.0050     1.8630 H     1 <1>   0.4500 
 50 H       -0.6320   -11.4140     1.4440 H     1 <1>   0.0800 
 51 H       -0.5840   -11.0440    -0.2550 H     1 <1>   0.0800 
 52 H       -2.8610   -10.0870    -0.1160 H     1 <1>   0.0800 
 53 H       -2.8730   -10.3460     1.6140 H     1 <1>   0.0800 
 54 H       -3.0520   -12.6140     2.5490 H     1 <1>   0.1500 
 55 H       -2.9810   -11.9850    -1.6870 H     1 <1>   0.1500 
 56 H       -3.7710   -14.9190     2.1810 H     1 <1>   0.1500 
 57 H       -3.7010   -14.2930    -2.0280 H     1 <1>   0.1500 
 58 H       -4.0960   -15.7670    -0.1030 H     1 <1>   0.1500 
@<TRIPOS>BOND
  1   1   2  2   
  2   2   3  am  
  3   2   4  1   
  4   3   5  1   
  5   3   6  1   
  6   4   7  ar  
  7   4   8  ar  
  8   5   9  1   
  9   5  29  1   
 10   5  30  1   
 11   6  10  1   
 12   6  31  1   
 13   6  32  1   
 14   7  11  ar  
 15   8  12  ar  
 16   8  33  1   
 17   9  10  1   
 18   9  34  1   
 19   9  35  1   
 20  10  36  1   
 21  10  37  1   
 22  11  13  1   
 23  11  14  ar  
 24  12  14  ar  
 25  13  15  1   
 26  13  38  1   
 27  14  39  1   
 28  15  16  1   
 29  15  17  1   
 30  15  40  1   
 31  16  18  1   
 32  16  41  1   
 33  16  42  1   
 34  17  19  1   
 35  17  43  1   
 36  17  44  1   
 37  18  20  1   
 38  18  45  1   
 39  18  46  1   
 40  19  20  1   
 41  19  47  1   
 42  19  48  1   
 43  20  21  1   
 44  20  49  1   
 45  21  22  1   
 46  21  50  1   
 47  21  51  1   
 48  22  23  1   
 49  22  52  1   
 50  22  53  1   
 51  23  24  ar  
 52  23  25  ar  
 53  24  26  ar  
 54  24  54  1   
 55  25  27  ar  
 56  25  55  1   
 57  26  28  ar  
 58  26  56  1   
 59  27  28  ar  
 60  27  57  1   
 61  28  58  1   
@<TRIPOS>SUBSTRUCTURE
  1 ****  16 GROUP 4 **** **** 0

# MOE 2024.06 (io_trps.svl 2023.06)
