@<TRIPOS>MOLECULE
NONAME
59 62 1 0 0 
SMALL
USER_CHARGES


@<TRIPOS>ATOM
  1 F       -2.3510     0.6600     0.5080 F     1 <1>  -0.1900 
  2 C       -2.8530    -0.4770     0.1080 C.ar  1 <1>   0.1900 
  3 C       -3.7270    -0.4800    -0.9620 C.ar  1 <1>  -0.1500 
  4 C       -2.4910    -1.6350     0.7690 C.ar  1 <1>  -0.1500 
  5 C       -4.2570    -1.6890    -1.3820 C.ar  1 <1>  -0.1500 
  6 C       -3.0280    -2.8360     0.3380 C.ar  1 <1>  -0.1500 
  7 C       -3.9100    -2.8700    -0.7360 C.ar  1 <1>  -0.1430 
  8 C       -4.4880    -4.2020    -1.2000 C.3   1 <1>   0.2540 
  9 N       -5.0920    -4.9480    -0.0830 N.3   1 <1>  -0.8100 
 10 C       -5.4140    -6.3510    -0.4820 C.3   1 <1>   0.1710 
 11 C       -6.2320    -4.2350     0.5130 C.3   1 <1>   0.0300 
 12 C       -5.8890    -7.2950     0.6400 C.2   1 <1>   0.5690 
 13 O       -5.0330    -7.9100     1.2360 O.2   1 <1>  -0.5700 
 14 N       -7.2270    -7.4760     0.9270 N.am  1 <1>  -0.6600 
 15 C       -7.6650    -8.4170     1.9970 C.3   1 <1>   0.1400 
 16 C       -8.3720    -6.8430     0.2180 C.3   1 <1>   0.1400 
 17 C       -8.5060    -9.5360     1.3740 C.3   1 <1>  -0.1600 
 18 C       -9.2140    -7.9330    -0.4500 C.3   1 <1>  -0.1600 
 19 C       -9.6960    -8.9880     0.5660 C.3   1 <1>   0.4240 
 20 O      -10.4640    -8.2960     1.5280 O.3   1 <1>  -0.5600 
 21 C      -10.5080   -10.1350    -0.1020 C.ar  1 <1>  -0.1430 
 22 C      -11.8090    -8.0730     1.2540 C.3   1 <1>   0.1200 
 23 C       -9.9420   -10.9940    -1.0540 C.ar  1 <1>   0.0830 
 24 C      -11.8450   -10.3320     0.2430 C.ar  1 <1>  -0.1440 
 25 C      -12.5180    -9.4170     1.2460 C.3   1 <1>  -0.0170 
 26 O       -8.6460   -10.8110    -1.4220 O.3   1 <1>  -0.3630 
 27 C      -10.7020   -12.0180    -1.6170 C.ar  1 <1>  -0.1500 
 28 C      -12.5890   -11.3550    -0.3200 C.ar  1 <1>  -0.1500 
 29 C       -7.9170   -11.7820    -2.1400 C.3   1 <1>   0.0400 
 30 C      -12.0190   -12.1990    -1.2500 C.ar  1 <1>  -0.1500 
 31 H       -3.9840     0.4420    -1.4490 H     1 <1>   0.1500 
 32 H       -1.8100    -1.5960     1.5990 H     1 <1>   0.1500 
 33 H       -4.9390    -1.7050    -2.2140 H     1 <1>   0.1500 
 34 H       -2.7690    -3.7540     0.8410 H     1 <1>   0.1500 
 35 H       -3.6850    -4.7840    -1.6200 H     1 <1>   0.0800 
 36 H       -5.2240    -4.0430    -1.9690 H     1 <1>   0.0800 
 37 H       -4.5170    -6.7940    -0.8770 H     1 <1>   0.0800 
 38 H       -6.1310    -6.3490    -1.2800 H     1 <1>   0.0800 
 39 H       -5.9190    -3.2690     0.8690 H     1 <1>   0.0800 
 40 H       -6.6110    -4.7850     1.3570 H     1 <1>   0.0800 
 41 H       -7.0170    -4.1020    -0.2110 H     1 <1>   0.0800 
 42 H       -8.2460    -7.8780     2.7250 H     1 <1>   0.0800 
 43 H       -6.8170    -8.8450     2.5040 H     1 <1>   0.0800 
 44 H       -8.0410    -6.1420    -0.5230 H     1 <1>   0.0800 
 45 H       -8.9710    -6.3050     0.9340 H     1 <1>   0.0800 
 46 H       -8.8760   -10.1850     2.1450 H     1 <1>   0.0800 
 47 H       -7.8550   -10.1180     0.7540 H     1 <1>   0.0800 
 48 H       -8.6080    -8.3930    -1.2050 H     1 <1>   0.0800 
 49 H      -10.0560    -7.4960    -0.9510 H     1 <1>   0.0800 
 50 H      -11.9040    -7.5750     0.3050 H     1 <1>   0.0800 
 51 H      -12.2040    -7.4410     2.0290 H     1 <1>   0.0800 
 52 H      -13.5500    -9.2700     0.9850 H     1 <1>   0.0800 
 53 H      -12.4730    -9.8550     2.2270 H     1 <1>   0.0800 
 54 H      -10.2890   -12.6840    -2.3490 H     1 <1>   0.1500 
 55 H      -13.6180   -11.4980    -0.0380 H     1 <1>   0.1500 
 56 H       -6.8930   -11.4590    -2.1900 H     1 <1>   0.0800 
 57 H       -8.3230   -11.8610    -3.1330 H     1 <1>   0.0800 
 58 H       -7.9790   -12.7210    -1.6200 H     1 <1>   0.0800 
 59 H      -12.6000   -12.9920    -1.6860 H     1 <1>   0.1500 
@<TRIPOS>BOND
  1   1   2  1   
  2   2   3  ar  
  3   2   4  ar  
  4   3   5  ar  
  5   3  31  1   
  6   4   6  ar  
  7   4  32  1   
  8   5   7  ar  
  9   5  33  1   
 10   6   7  ar  
 11   6  34  1   
 12   7   8  1   
 13   8   9  1   
 14   8  35  1   
 15   8  36  1   
 16   9  10  1   
 17   9  11  1   
 18  10  12  1   
 19  10  37  1   
 20  10  38  1   
 21  11  39  1   
 22  11  40  1   
 23  11  41  1   
 24  12  13  2   
 25  12  14  am  
 26  14  15  1   
 27  14  16  1   
 28  15  17  1   
 29  15  42  1   
 30  15  43  1   
 31  16  18  1   
 32  16  44  1   
 33  16  45  1   
 34  17  19  1   
 35  17  46  1   
 36  17  47  1   
 37  18  19  1   
 38  18  48  1   
 39  18  49  1   
 40  19  20  1   
 41  19  21  1   
 42  20  22  1   
 43  21  23  ar  
 44  21  24  ar  
 45  22  25  1   
 46  22  50  1   
 47  22  51  1   
 48  23  26  1   
 49  23  27  ar  
 50  24  25  1   
 51  24  28  ar  
 52  25  52  1   
 53  25  53  1   
 54  26  29  1   
 55  27  30  ar  
 56  27  54  1   
 57  28  30  ar  
 58  28  55  1   
 59  29  56  1   
 60  29  57  1   
 61  29  58  1   
 62  30  59  1   
@<TRIPOS>SUBSTRUCTURE
  1 ****  16 GROUP 4 **** **** 0

# MOE 2024.06 (io_trps.svl 2023.06)
