@<TRIPOS>MOLECULE
NONAME
47 49 1 0 0 
SMALL
USER_CHARGES


@<TRIPOS>ATOM
  1 F       -3.2060     2.0440    -2.2760 F     1 <1>  -0.1900 
  2 C       -2.2270     2.4550    -1.5100 C.ar  1 <1>   0.1900 
  3 C       -2.4890     2.8090    -0.1870 C.ar  1 <1>   0.0830 
  4 C       -0.9640     2.5280    -2.0650 C.ar  1 <1>  -0.1500 
  5 O       -3.7650     2.7070     0.2740 O.3   1 <1>  -0.3630 
  6 C       -1.4300     3.2510     0.6070 C.ar  1 <1>  -0.1500 
  7 C        0.0560     2.9730    -1.2470 C.ar  1 <1>   0.1900 
  8 C       -4.1840     3.4060     1.4380 C.3   1 <1>   0.1810 
  9 C       -0.1520     3.3350     0.0730 C.ar  1 <1>  -0.1500 
 10 F        1.2630     3.0560    -1.7390 F     1 <1>  -0.1900 
 11 C       -5.6940     3.3070     1.6360 C.2   1 <1>   0.5690 
 12 O       -6.0730     2.8130     2.6740 O.2   1 <1>  -0.5700 
 13 N       -6.5790     3.7750     0.6910 N.am  1 <1>  -0.6600 
 14 C       -8.0490     3.5330     0.8170 C.3   1 <1>   0.1400 
 15 C       -6.2030     4.3880    -0.6120 C.3   1 <1>   0.1400 
 16 C       -8.5420     2.5760    -0.2990 C.3   1 <1>   0.0000 
 17 C       -6.6350     3.4600    -1.7520 C.3   1 <1>  -0.1600 
 18 C      -10.0600     2.3450    -0.2050 C.3   1 <1>   0.2000 
 19 C       -8.1380     3.1390    -1.6800 C.3   1 <1>  -0.1600 
 20 C       -7.9990     1.1540    -0.0680 C.3   1 <1>  -0.1600 
 21 O      -10.7410     3.5250     0.1030 O.3   1 <1>  -0.5600 
 22 C      -10.2530     1.2860     0.8870 C.3   1 <1>  -0.1600 
 23 C       -8.9200     0.5300     0.9840 C.3   1 <1>  -0.1600 
 24 C      -12.1190     3.4760    -0.0900 C.3   1 <1>   0.0400 
 25 H       -0.7830     2.2510    -3.0860 H     1 <1>   0.1500 
 26 H       -1.5770     3.5250     1.6360 H     1 <1>   0.1500 
 27 H       -3.6900     2.9690     2.2870 H     1 <1>   0.0800 
 28 H       -3.9030     4.4380     1.3420 H     1 <1>   0.0800 
 29 H        0.6780     3.6730     0.6690 H     1 <1>   0.1500 
 30 H       -8.2860     3.1280     1.7850 H     1 <1>   0.0800 
 31 H       -8.5560     4.4790     0.7350 H     1 <1>   0.0800 
 32 H       -6.7060     5.3350    -0.7070 H     1 <1>   0.0800 
 33 H       -5.1450     4.5700    -0.6730 H     1 <1>   0.0800 
 34 H       -6.4120     3.9290    -2.6930 H     1 <1>   0.0800 
 35 H       -6.0590     2.5520    -1.6990 H     1 <1>   0.0800 
 36 H      -10.4180     1.9670    -1.1490 H     1 <1>   0.0800 
 37 H       -8.3950     2.4410    -2.4570 H     1 <1>   0.0800 
 38 H       -8.6940     4.0440    -1.8570 H     1 <1>   0.0800 
 39 H       -8.0770     0.5850    -0.9780 H     1 <1>   0.0800 
 40 H       -6.9710     1.1430     0.2490 H     1 <1>   0.0800 
 41 H      -10.4650     1.7580     1.8300 H     1 <1>   0.0800 
 42 H      -11.0530     0.6180     0.6260 H     1 <1>   0.0800 
 43 H       -8.4950     0.6730     1.9640 H     1 <1>   0.0800 
 44 H       -9.0450    -0.5250     0.8110 H     1 <1>   0.0800 
 45 H      -12.5250     4.4400     0.1580 H     1 <1>   0.0800 
 46 H      -12.5460     2.7290     0.5560 H     1 <1>   0.0800 
 47 H      -12.3260     3.2500    -1.1220 H     1 <1>   0.0800 
@<TRIPOS>BOND
  1   1   2  1   
  2   2   3  ar  
  3   2   4  ar  
  4   3   5  1   
  5   3   6  ar  
  6   4   7  ar  
  7   4  25  1   
  8   5   8  1   
  9   6   9  ar  
 10   6  26  1   
 11   7   9  ar  
 12   7  10  1   
 13   8  11  1   
 14   8  27  1   
 15   8  28  1   
 16   9  29  1   
 17  11  12  2   
 18  11  13  am  
 19  13  14  1   
 20  13  15  1   
 21  14  16  1   
 22  14  30  1   
 23  14  31  1   
 24  15  17  1   
 25  15  32  1   
 26  15  33  1   
 27  16  18  1   
 28  16  19  1   
 29  16  20  1   
 30  17  19  1   
 31  17  34  1   
 32  17  35  1   
 33  18  21  1   
 34  18  22  1   
 35  18  36  1   
 36  19  37  1   
 37  19  38  1   
 38  20  23  1   
 39  20  39  1   
 40  20  40  1   
 41  21  24  1   
 42  22  23  1   
 43  22  41  1   
 44  22  42  1   
 45  23  43  1   
 46  23  44  1   
 47  24  45  1   
 48  24  46  1   
 49  24  47  1   
@<TRIPOS>SUBSTRUCTURE
  1 ****  13 GROUP 4 **** **** 0

# MOE 2024.06 (io_trps.svl 2023.06)
