@<TRIPOS>MOLECULE
Untitled Document
41 44 1 0 0 
SMALL
USER_CHARGES


@<TRIPOS>ATOM
  1 N        1.5070    -0.4910    -1.8910 N.pl3 1 <1>  -0.7940 
  2 C        1.6310     0.6110    -1.1850 C.cat 1 <1>   0.6040 
  3 C        0.3610    -0.4640    -2.8250 C.3   1 <1>   0.3300 
  4 N        0.6770     1.4640    -1.5000 N.pl3 1 <1>  -0.7940 
  5 C        2.7610     0.8130    -0.1150 C.3   1 <1>   0.4740 
  6 C       -0.2340     0.9340    -2.5490 C.3   1 <1>   0.3290 
  7 N        2.7240    -0.3000     0.8950 N.pl3 1 <1>  -0.8380 
  8 C        4.1570     0.5930    -0.7950 C.3   1 <1>  -0.0170 
  9 C        2.6750     2.1530     0.6460 C.3   1 <1>  -0.1600 
 10 C        3.5070    -1.2680     0.3670 C.ar  1 <1>   0.1000 
 11 C        1.5860    -1.0200     1.5420 C.3   1 <1>   0.2090 
 12 C        4.3840    -0.8910    -0.6030 C.ar  1 <1>  -0.1430 
 13 C        3.0100     3.4080    -0.1870 C.3   1 <1>  -0.1600 
 14 C        3.2580    -2.5500     0.7420 C.ar  1 <1>  -0.1440 
 15 C        2.0850    -2.4870     1.6970 C.3   1 <1>  -0.0170 
 16 C        5.1700    -1.8720    -1.1800 C.ar  1 <1>  -0.1500 
 17 C        2.7700     4.6790     0.6320 C.3   1 <1>  -0.2400 
 18 C        4.0320    -3.5470     0.1770 C.ar  1 <1>  -0.1500 
 19 C        4.9960    -3.1980    -0.7730 C.ar  1 <1>  -0.1500 
 20 H        2.1270    -1.3100    -1.7720 H     1 <1>   0.4500 
 21 H       -0.3460    -1.2430    -2.5920 H     1 <1>   0.0800 
 22 H        0.6920    -0.5560    -3.8460 H     1 <1>   0.0800 
 23 H        0.5310     2.3920    -1.0870 H     1 <1>   0.4500 
 24 H       -1.2440     0.8600    -2.1820 H     1 <1>   0.0800 
 25 H       -0.2060     1.5490    -3.4330 H     1 <1>   0.0800 
 26 H        4.9250     1.1320    -0.2710 H     1 <1>   0.0800 
 27 H        4.1590     0.8790    -1.8310 H     1 <1>   0.0800 
 28 H        3.3630     2.1090     1.4740 H     1 <1>   0.0800 
 29 H        1.6870     2.2460     1.0610 H     1 <1>   0.0800 
 30 H        0.7140    -0.9830     0.9140 H     1 <1>   0.0800 
 31 H        1.3650    -0.5860     2.5020 H     1 <1>   0.0800 
 32 H        2.4170     3.4570    -1.0820 H     1 <1>   0.0800 
 33 H        4.0460     3.3870    -0.4820 H     1 <1>   0.0800 
 34 H        1.3170    -3.1940     1.4430 H     1 <1>   0.0800 
 35 H        2.4220    -2.6610     2.7040 H     1 <1>   0.0800 
 36 H        5.8970    -1.6240    -1.9330 H     1 <1>   0.1500 
 37 H        1.7390     4.7580     0.9270 H     1 <1>   0.0800 
 38 H        3.0240     5.5480     0.0490 H     1 <1>   0.0800 
 39 H        3.3820     4.6780     1.5170 H     1 <1>   0.0800 
 40 H        3.8910    -4.5760     0.4590 H     1 <1>   0.1500 
 41 H        5.6100    -3.9680    -1.2080 H     1 <1>   0.1500 
@<TRIPOS>BOND
  1   1   2  ar  
  2   1   3  1   
  3   1  20  1   
  4   2   4  ar  
  5   2   5  1   
  6   3   6  1   
  7   3  21  1   
  8   3  22  1   
  9   4   6  1   
 10   4  23  1   
 11   5   7  1   
 12   5   8  1   
 13   5   9  1   
 14   6  24  1   
 15   6  25  1   
 16   7  10  1   
 17   7  11  1   
 18   8  12  1   
 19   8  26  1   
 20   8  27  1   
 21   9  13  1   
 22   9  28  1   
 23   9  29  1   
 24  10  12  ar  
 25  10  14  ar  
 26  11  15  1   
 27  11  30  1   
 28  11  31  1   
 29  12  16  ar  
 30  13  17  1   
 31  13  32  1   
 32  13  33  1   
 33  14  15  1   
 34  14  18  ar  
 35  15  34  1   
 36  15  35  1   
 37  16  19  ar  
 38  16  36  1   
 39  17  37  1   
 40  17  38  1   
 41  17  39  1   
 42  18  19  ar  
 43  18  40  1   
 44  19  41  1   
@<TRIPOS>SUBSTRUCTURE
  1 ****   5 GROUP 4 **** **** 0

# MOE 2024.06 (io_trps.svl 2023.06)
