@<TRIPOS>MOLECULE
NONAME
57 60 1 0 0 
SMALL
USER_CHARGES


@<TRIPOS>ATOM
  1 O       -1.5280    -0.8520    -0.3120 O.3   1 <1>  -0.3630 
  2 C       -2.2020     0.2110     0.2030 C.ar  1 <1>   0.0820 
  3 C       -0.3100    -0.6780    -1.0080 C.3   1 <1>   0.1200 
  4 C       -3.2680    -0.0570     1.0580 C.ar  1 <1>  -0.1440 
  5 C       -1.8770     1.5320    -0.0950 C.ar  1 <1>  -0.1500 
  6 C        0.2470    -2.0600    -1.3500 C.3   1 <1>  -0.1600 
  7 C       -3.9980     0.9880     1.6030 C.ar  1 <1>  -0.1500 
  8 C       -3.6340    -1.4890     1.3970 C.3   1 <1>   0.4870 
  9 C       -2.6110     2.5680     0.4530 C.ar  1 <1>  -0.1500 
 10 C        1.5760    -1.9500    -2.1040 C.3   1 <1>  -0.2400 
 11 C       -3.6700     2.2970     1.3010 C.ar  1 <1>  -0.1500 
 12 N       -4.0000    -2.1920     0.1420 N.4   1 <1>  -0.9590 
 13 C       -5.2670    -1.6380    -0.4270 C.3   1 <1>   0.3430 
 14 C       -4.2120    -3.6500     0.3730 C.3   1 <1>   0.3430 
 15 C       -6.3650    -2.6140     0.0050 C.3   1 <1>   0.2000 
 16 C       -5.6460    -3.9620    -0.0720 C.3   1 <1>  -0.0800 
 17 O       -6.7060    -2.3350     1.3270 O.3   1 <1>  -0.6800 
 18 C       -6.2840    -5.1270     0.7140 C.3   1 <1>  -0.0170 
 19 C       -5.3820    -6.3550     0.6700 C.ar  1 <1>  -0.1440 
 20 C       -5.2440    -7.1580    -0.4890 C.ar  1 <1>   0.0000 
 21 C       -4.6560    -6.7070     1.7710 C.ar  1 <1>  -0.1500 
 22 C       -4.3170    -8.2280    -0.4390 C.ar  1 <1>   0.3100 
 23 C       -5.9710    -6.9700    -1.6880 C.ar  1 <1>  -0.1500 
 24 C       -3.7840    -7.8010     1.7220 C.ar  1 <1>   0.1600 
 25 N       -3.5950    -8.5290     0.6690 N.ar  1 <1>  -0.6200 
 26 C       -4.1300    -9.0210    -1.5820 C.ar  1 <1>  -0.1500 
 27 C       -5.7680    -7.7650    -2.7830 C.ar  1 <1>  -0.1500 
 28 C       -4.8330    -8.8000    -2.7340 C.ar  1 <1>  -0.1500 
 29 H       -0.5040    -0.1150    -1.9050 H     1 <1>   0.0800 
 30 H        0.3730    -0.1400    -0.3720 H     1 <1>   0.0800 
 31 H       -1.0630     1.7790    -0.7500 H     1 <1>   0.1500 
 32 H        0.4060    -2.6160    -0.4410 H     1 <1>   0.0800 
 33 H       -0.4600    -2.5910    -1.9630 H     1 <1>   0.0800 
 34 H       -4.8240     0.7980     2.2690 H     1 <1>   0.1500 
 35 H       -4.4590    -1.5100     2.0910 H     1 <1>   0.0800 
 36 H       -2.7830    -1.9680     1.8530 H     1 <1>   0.0800 
 37 H       -2.3580     3.5890     0.2220 H     1 <1>   0.1500 
 38 H        2.3100    -1.4390    -1.5050 H     1 <1>   0.0800 
 39 H        1.4460    -1.4120    -3.0270 H     1 <1>   0.0800 
 40 H        1.9510    -2.9320    -2.3340 H     1 <1>   0.0800 
 41 H       -4.2360     3.1090     1.7260 H     1 <1>   0.1500 
 42 H       -3.2060    -2.0050    -0.4940 H     1 <1>   0.4500 
 43 H       -5.4720    -0.6380    -0.0830 H     1 <1>   0.0800 
 44 H       -5.2020    -1.6340    -1.5020 H     1 <1>   0.0800 
 45 H       -3.5040    -4.2440    -0.1830 H     1 <1>   0.0800 
 46 H       -4.1070    -3.8750     1.4220 H     1 <1>   0.0800 
 47 H       -7.2460    -2.5460    -0.6110 H     1 <1>   0.0800 
 48 H       -5.5900    -4.2420    -1.1080 H     1 <1>   0.0800 
 49 H       -7.5740    -2.7280     1.5590 H     1 <1>   0.4000 
 50 H       -7.2540    -5.3670     0.3140 H     1 <1>   0.0800 
 51 H       -6.4300    -4.8440     1.7420 H     1 <1>   0.0800 
 52 H       -4.7250    -6.1660     2.6980 H     1 <1>   0.1500 
 53 H       -6.7090    -6.1940    -1.7480 H     1 <1>   0.1500 
 54 H       -3.2310    -8.0490     2.6120 H     1 <1>   0.1500 
 55 H       -3.4110    -9.8180    -1.5190 H     1 <1>   0.1500 
 56 H       -6.3260    -7.6120    -3.6920 H     1 <1>   0.1500 
 57 H       -4.6800    -9.4180    -3.6030 H     1 <1>   0.1500 
@<TRIPOS>BOND
  1   1   2  1   
  2   1   3  1   
  3   2   4  ar  
  4   2   5  ar  
  5   3   6  1   
  6   3  29  1   
  7   3  30  1   
  8   4   7  ar  
  9   4   8  1   
 10   5   9  ar  
 11   5  31  1   
 12   6  10  1   
 13   6  32  1   
 14   6  33  1   
 15   7  11  ar  
 16   7  34  1   
 17   8  12  1   
 18   8  35  1   
 19   8  36  1   
 20   9  11  ar  
 21   9  37  1   
 22  10  38  1   
 23  10  39  1   
 24  10  40  1   
 25  11  41  1   
 26  12  13  1   
 27  12  14  1   
 28  12  42  1   
 29  13  15  1   
 30  13  43  1   
 31  13  44  1   
 32  14  16  1   
 33  14  45  1   
 34  14  46  1   
 35  15  16  1   
 36  15  17  1   
 37  15  47  1   
 38  16  18  1   
 39  16  48  1   
 40  17  49  1   
 41  18  19  1   
 42  18  50  1   
 43  18  51  1   
 44  19  20  ar  
 45  19  21  ar  
 46  20  22  ar  
 47  20  23  ar  
 48  21  24  ar  
 49  21  52  1   
 50  22  25  ar  
 51  22  26  ar  
 52  23  27  ar  
 53  23  53  1   
 54  24  25  ar  
 55  24  54  1   
 56  26  28  ar  
 57  26  55  1   
 58  27  28  ar  
 59  27  56  1   
 60  28  57  1   
@<TRIPOS>SUBSTRUCTURE
  1 ****  14 GROUP 4 **** **** 0

# MOE 2024.06 (io_trps.svl 2023.06)
