@<TRIPOS>MOLECULE
NONAME
42 43 1 0 0 
SMALL
USER_CHARGES


@<TRIPOS>ATOM
  1 S        0.1050     0.6190    -0.7000 S.3   1 <1>  -0.0800 
  2 C        1.7530     0.1520    -0.3430 C.2   1 <1>   0.1980 
  3 C        0.2360     1.8940     0.4730 C.2   1 <1>  -0.1100 
  4 N        2.3280     0.8850     0.5290 N.2   1 <1>  -0.5650 
  5 C        2.3100    -1.0450    -1.0930 C.3   1 <1>   0.0200 
  6 C        1.4650     1.8700     1.0120 C.2   1 <1>   0.0460 
  7 C        1.7350    -2.3630    -0.5540 C.3   1 <1>  -0.1600 
  8 C        1.9530     2.8110     2.1130 C.3   1 <1>   0.3900 
  9 C        2.3170    -3.5740    -1.2900 C.3   1 <1>  -0.2400 
 10 N        2.8130     3.9160     1.6000 N.pl3 1 <1>  -0.8690 
 11 C        3.8670     3.9420     0.7790 C.ar  1 <1>   0.7710 
 12 N        4.4540     5.1110     0.6460 N.ar  1 <1>  -0.6200 
 13 N        4.2920     2.8400     0.1470 N.ar  1 <1>  -0.1790 
 14 C        5.5210     5.1820    -0.1300 C.ar  1 <1>   0.4100 
 15 C        5.3550     2.8740    -0.6850 C.ar  1 <1>   0.2110 
 16 N        6.1300     6.3930    -0.1990 N.pl3 1 <1>  -0.8380 
 17 C        6.0000     4.0560    -0.8510 C.ar  1 <1>  -0.1430 
 18 C        7.5590     6.5960     0.1670 C.3   1 <1>   0.1290 
 19 C        5.3400     7.6550    -0.2710 C.3   1 <1>   0.1290 
 20 C        7.1770     4.1590    -1.8210 C.3   1 <1>  -0.0970 
 21 H       -0.6290     2.5140     0.6350 H     1 <1>   0.1500 
 22 H        3.3790    -1.0560    -0.9870 H     1 <1>   0.0800 
 23 H        2.0770    -0.9450    -2.1380 H     1 <1>   0.0800 
 24 H        0.6640    -2.3640    -0.6670 H     1 <1>   0.0800 
 25 H        1.9560    -2.4460     0.4970 H     1 <1>   0.0800 
 26 H        2.4890     2.2460     2.8580 H     1 <1>   0.0800 
 27 H        1.0930     3.2460     2.5930 H     1 <1>   0.0800 
 28 H        2.0880    -3.5270    -2.3400 H     1 <1>   0.0800 
 29 H        1.8960    -4.4810    -0.8920 H     1 <1>   0.0800 
 30 H        3.3860    -3.6170    -1.1680 H     1 <1>   0.0800 
 31 H        2.6070     4.8290     2.0170 H     1 <1>   0.4000 
 32 H        3.7220     2.0010     0.2970 H     1 <1>   0.4570 
 33 H        5.6430     1.9680    -1.1930 H     1 <1>   0.1500 
 34 H        7.9890     5.6800     0.5310 H     1 <1>   0.0800 
 35 H        7.6360     7.3360     0.9460 H     1 <1>   0.0800 
 36 H        8.1120     6.9340    -0.6920 H     1 <1>   0.0800 
 37 H        4.3400     7.4520    -0.6150 H     1 <1>   0.0800 
 38 H        5.8050     8.3410    -0.9570 H     1 <1>   0.0800 
 39 H        5.2850     8.1080     0.7040 H     1 <1>   0.0800 
 40 H        7.0780     5.0430    -2.4270 H     1 <1>   0.0800 
 41 H        7.2170     3.3090    -2.4790 H     1 <1>   0.0800 
 42 H        8.1050     4.2120    -1.2820 H     1 <1>   0.0800 
@<TRIPOS>BOND
  1   1   2  1   
  2   1   3  1   
  3   2   4  2   
  4   2   5  1   
  5   3   6  2   
  6   3  21  1   
  7   4   6  1   
  8   5   7  1   
  9   5  22  1   
 10   5  23  1   
 11   6   8  1   
 12   7   9  1   
 13   7  24  1   
 14   7  25  1   
 15   8  10  1   
 16   8  26  1   
 17   8  27  1   
 18   9  28  1   
 19   9  29  1   
 20   9  30  1   
 21  10  11  1   
 22  10  31  1   
 23  11  12  ar  
 24  11  13  ar  
 25  12  14  ar  
 26  13  15  ar  
 27  13  32  1   
 28  14  16  1   
 29  14  17  ar  
 30  15  17  ar  
 31  15  33  1   
 32  16  18  1   
 33  16  19  1   
 34  17  20  1   
 35  18  34  1   
 36  18  35  1   
 37  18  36  1   
 38  19  37  1   
 39  19  38  1   
 40  19  39  1   
 41  20  40  1   
 42  20  41  1   
 43  20  42  1   
@<TRIPOS>SUBSTRUCTURE
  1 ****  13 GROUP 4 **** **** 0

# MOE 2024.06 (io_trps.svl 2023.06)
