@<TRIPOS>MOLECULE
NONAME
54 55 1 0 0 
SMALL
USER_CHARGES


@<TRIPOS>ATOM
  1 S        1.3320     1.9410    -0.5220 S.o2  1 <1>   1.3330 
  2 O        0.6450     2.8330    -1.4250 O.2   1 <1>  -0.6500 
  3 O        2.5550     2.3920     0.1060 O.2   1 <1>  -0.6500 
  4 N        1.6010     0.4550    -1.2830 N.am  1 <1>  -0.8490 
  5 C        0.2050     1.5440     0.8190 C.3   1 <1>  -0.0550 
  6 C        0.5630     0.0990    -2.2600 C.3   1 <1>   0.1160 
  7 C        2.9210     0.3790    -1.9190 C.3   1 <1>   0.1160 
  8 C       -0.2030     2.7270     1.7360 C.3   1 <1>  -0.0800 
  9 C       -0.9830     3.8260     1.0020 C.3   1 <1>   0.2000 
 10 C        0.9900     3.4700     2.3490 C.3   1 <1>   0.3430 
 11 O       -1.9380     4.3340     1.8730 O.3   1 <1>  -0.6800 
 12 C        0.0350     4.9250     0.6600 C.3   1 <1>   0.3430 
 13 N        1.2780     4.5990     1.4290 N.4   1 <1>  -0.9590 
 14 C        1.9620     5.7690     2.0370 C.3   1 <1>   0.4860 
 15 C        2.1770     6.8390     0.9820 C.ar  1 <1>  -0.1430 
 16 C        2.8660     6.5510    -0.1920 C.ar  1 <1>   0.0830 
 17 C        1.6710     8.1130     1.1790 C.ar  1 <1>  -0.1500 
 18 O        3.3680     5.3030    -0.3420 O.3   1 <1>  -0.3630 
 19 C        3.0030     7.5080    -1.1950 C.ar  1 <1>  -0.1430 
 20 C        1.8390     9.0840     0.2100 C.ar  1 <1>  -0.1500 
 21 C        4.7620     5.1460    -0.1780 C.3   1 <1>   0.0400 
 22 C        2.5000     8.7890    -0.9790 C.ar  1 <1>   0.0830 
 23 C        3.6700     7.1780    -2.5310 C.3   1 <1>  -0.0970 
 24 O        2.6790     9.7130    -1.9600 O.3   1 <1>  -0.3630 
 25 C        2.1980    11.0340    -1.8460 C.3   1 <1>   0.0400 
 26 H       -0.6860     1.1130     0.4050 H     1 <1>   0.0800 
 27 H        0.6630     0.7870     1.4260 H     1 <1>   0.0800 
 28 H        0.7440    -0.8890    -2.6490 H     1 <1>   0.0800 
 29 H        0.5580     0.8010    -3.0780 H     1 <1>   0.0800 
 30 H       -0.4070     0.1040    -1.7940 H     1 <1>   0.0800 
 31 H        3.0650    -0.5890    -2.3680 H     1 <1>   0.0800 
 32 H        3.6950     0.5240    -1.1830 H     1 <1>   0.0800 
 33 H        3.0180     1.1390    -2.6770 H     1 <1>   0.0800 
 34 H       -0.8050     2.3080     2.5250 H     1 <1>   0.0800 
 35 H       -1.4990     3.4720     0.1240 H     1 <1>   0.0800 
 36 H        1.8500     2.8270     2.4600 H     1 <1>   0.0800 
 37 H        0.7090     3.8550     3.3150 H     1 <1>   0.0800 
 38 H       -1.5580     4.6920     2.6980 H     1 <1>   0.4000 
 39 H       -0.3570     5.8930     0.9250 H     1 <1>   0.0800 
 40 H        0.2540     4.9150    -0.3960 H     1 <1>   0.0800 
 41 H        1.9670     4.2630     0.7160 H     1 <1>   0.4500 
 42 H        1.3660     6.1690     2.8400 H     1 <1>   0.0800 
 43 H        2.9180     5.4680     2.4330 H     1 <1>   0.0800 
 44 H        1.1450     8.3670     2.0830 H     1 <1>   0.1500 
 45 H        1.4440    10.0650     0.3960 H     1 <1>   0.1500 
 46 H        4.9960     4.1000    -0.2760 H     1 <1>   0.0800 
 47 H        5.0440     5.4980     0.7990 H     1 <1>   0.0800 
 48 H        5.2790     5.7070    -0.9350 H     1 <1>   0.0800 
 49 H        3.1360     7.6420    -3.3410 H     1 <1>   0.0800 
 50 H        3.6780     6.1200    -2.7180 H     1 <1>   0.0800 
 51 H        4.6800     7.5450    -2.5340 H     1 <1>   0.0800 
 52 H        2.4590    11.5630    -2.7450 H     1 <1>   0.0800 
 53 H        2.6650    11.5040    -0.9990 H     1 <1>   0.0800 
 54 H        1.1280    11.0090    -1.7360 H     1 <1>   0.0800 
@<TRIPOS>BOND
  1   1   2  2   
  2   1   3  2   
  3   1   4  am  
  4   1   5  1   
  5   4   6  1   
  6   4   7  1   
  7   5   8  1   
  8   5  26  1   
  9   5  27  1   
 10   6  28  1   
 11   6  29  1   
 12   6  30  1   
 13   7  31  1   
 14   7  32  1   
 15   7  33  1   
 16   8   9  1   
 17   8  10  1   
 18   8  34  1   
 19   9  11  1   
 20   9  12  1   
 21   9  35  1   
 22  10  13  1   
 23  10  36  1   
 24  10  37  1   
 25  11  38  1   
 26  12  13  1   
 27  12  39  1   
 28  12  40  1   
 29  13  14  1   
 30  13  41  1   
 31  14  15  1   
 32  14  42  1   
 33  14  43  1   
 34  15  16  ar  
 35  15  17  ar  
 36  16  18  1   
 37  16  19  ar  
 38  17  20  ar  
 39  17  44  1   
 40  18  21  1   
 41  19  22  ar  
 42  19  23  1   
 43  20  22  ar  
 44  20  45  1   
 45  21  46  1   
 46  21  47  1   
 47  21  48  1   
 48  22  24  1   
 49  23  49  1   
 50  23  50  1   
 51  23  51  1   
 52  24  25  1   
 53  25  52  1   
 54  25  53  1   
 55  25  54  1   
@<TRIPOS>SUBSTRUCTURE
  1 ****  13 GROUP 4 **** **** 0

# MOE 2024.06 (io_trps.svl 2023.06)
