@<TRIPOS>MOLECULE
NONAME
51 52 1 0 0 
SMALL
USER_CHARGES


@<TRIPOS>ATOM
  1 F        0.8080     1.0680    -0.6800 F     1 <1>  -0.1900 
  2 C        1.8260     1.8290    -0.3760 C.ar  1 <1>   0.1900 
  3 C        3.0850     1.2650    -0.3160 C.ar  1 <1>  -0.1500 
  4 C        1.6040     3.1700    -0.1280 C.ar  1 <1>  -0.1500 
  5 C        4.1580     2.0790     0.0060 C.ar  1 <1>  -0.1500 
  6 C        2.6860     3.9720     0.1930 C.ar  1 <1>  -0.1500 
  7 C        3.9650     3.4310     0.2610 C.ar  1 <1>  -0.1430 
  8 C        5.1530     4.3170     0.6180 C.3   1 <1>   0.2540 
  9 N        6.2200     4.2270    -0.4000 N.3   1 <1>  -0.8100 
 10 C        7.4550     4.9170     0.0770 C.3   1 <1>   0.1710 
 11 C        5.7660     4.7300    -1.7030 C.3   1 <1>   0.0300 
 12 C        7.3200     6.4230     0.3850 C.2   1 <1>   0.5690 
 13 O        6.9780     6.7030     1.5120 O.2   1 <1>  -0.5700 
 14 N        7.5680     7.4030    -0.5610 N.am  1 <1>  -0.6600 
 15 C        7.2320     8.8440    -0.3260 C.3   1 <1>   0.2200 
 16 C        8.0980     7.1540    -1.9340 C.3   1 <1>   0.0600 
 17 C        7.9220     9.4070     0.9310 C.3   1 <1>  -0.0170 
 18 C        5.7080     9.0030    -0.3060 C.3   1 <1>  -0.2400 
 19 C        8.3430    10.8550     0.7320 C.ar  1 <1>   0.1670 
 20 N        7.3730    11.7530     0.6500 N.ar  1 <1>  -0.6200 
 21 C        9.6930    11.1660     0.6450 C.ar  1 <1>  -0.1500 
 22 C        7.7640    13.0040     0.4760 C.ar  1 <1>   0.1600 
 23 C       10.0900    12.4740     0.4620 C.ar  1 <1>  -0.1430 
 24 C        9.0840    13.4110     0.3760 C.ar  1 <1>  -0.1500 
 25 C       11.5550    12.8570     0.3600 C.3   1 <1>  -0.0970 
 26 H        3.2210     0.2180    -0.5170 H     1 <1>   0.1500 
 27 H        0.6090     3.5710    -0.1850 H     1 <1>   0.1500 
 28 H        5.1530     1.6680     0.0530 H     1 <1>   0.1500 
 29 H        2.5310     5.0190     0.3890 H     1 <1>   0.1500 
 30 H        5.5410     3.9980     1.5700 H     1 <1>   0.0800 
 31 H        4.8310     5.3400     0.7210 H     1 <1>   0.0800 
 32 H        8.2470     4.7490    -0.6250 H     1 <1>   0.0800 
 33 H        7.7680     4.4400     0.9880 H     1 <1>   0.0800 
 34 H        4.9320     4.1460    -2.0550 H     1 <1>   0.0800 
 35 H        6.5570     4.6440    -2.4260 H     1 <1>   0.0800 
 36 H        5.4600     5.7600    -1.6270 H     1 <1>   0.0800 
 37 H        7.6010     9.4130    -1.1640 H     1 <1>   0.0800 
 38 H        8.3680     6.1270    -2.0890 H     1 <1>   0.0800 
 39 H        8.9740     7.7580    -2.0960 H     1 <1>   0.0800 
 40 H        7.3520     7.4240    -2.6610 H     1 <1>   0.0800 
 41 H        8.7910     8.8170     1.1540 H     1 <1>   0.0800 
 42 H        7.2600     9.3470     1.7760 H     1 <1>   0.0800 
 43 H        5.2830     8.4930     0.5380 H     1 <1>   0.0800 
 44 H        5.2820     8.6140    -1.2120 H     1 <1>   0.0800 
 45 H        5.4510    10.0440    -0.2320 H     1 <1>   0.0800 
 46 H       10.4300    10.3880     0.7190 H     1 <1>   0.1500 
 47 H        6.9900    13.7490     0.4090 H     1 <1>   0.1500 
 48 H        9.3110    14.4510     0.2340 H     1 <1>   0.1500 
 49 H       12.1520    12.2250     0.9940 H     1 <1>   0.0800 
 50 H       11.7000    13.8770     0.6670 H     1 <1>   0.0800 
 51 H       11.8910    12.7480    -0.6550 H     1 <1>   0.0800 
@<TRIPOS>BOND
  1   1   2  1   
  2   2   3  ar  
  3   2   4  ar  
  4   3   5  ar  
  5   3  26  1   
  6   4   6  ar  
  7   4  27  1   
  8   5   7  ar  
  9   5  28  1   
 10   6   7  ar  
 11   6  29  1   
 12   7   8  1   
 13   8   9  1   
 14   8  30  1   
 15   8  31  1   
 16   9  10  1   
 17   9  11  1   
 18  10  12  1   
 19  10  32  1   
 20  10  33  1   
 21  11  34  1   
 22  11  35  1   
 23  11  36  1   
 24  12  13  2   
 25  12  14  am  
 26  14  15  1   
 27  14  16  1   
 28  15  17  1   
 29  15  18  1   
 30  15  37  1   
 31  16  38  1   
 32  16  39  1   
 33  16  40  1   
 34  17  19  1   
 35  17  41  1   
 36  17  42  1   
 37  18  43  1   
 38  18  44  1   
 39  18  45  1   
 40  19  20  ar  
 41  19  21  ar  
 42  20  22  ar  
 43  21  23  ar  
 44  21  46  1   
 45  22  24  ar  
 46  22  47  1   
 47  23  24  ar  
 48  23  25  1   
 49  24  48  1   
 50  25  49  1   
 51  25  50  1   
 52  25  51  1   
@<TRIPOS>SUBSTRUCTURE
  1 ****  12 GROUP 4 **** **** 0

# MOE 2024.06 (io_trps.svl 2023.06)
