@<TRIPOS>MOLECULE
NONAME
60 63 1 0 0 
SMALL
USER_CHARGES


@<TRIPOS>ATOM
  1 O       -0.7370    -0.3410     1.6470 O.3   1 <1>  -0.3630 
  2 C       -1.8040    -0.9980     1.1120 C.ar  1 <1>   0.0820 
  3 C        0.5820    -0.7380     1.3480 C.3   1 <1>   0.0400 
  4 C       -1.8660    -2.3830     0.8540 C.ar  1 <1>   0.0820 
  5 C       -2.8950    -0.1920     0.8230 C.ar  1 <1>  -0.1500 
  6 O       -0.8080    -3.1820     1.1820 O.3   1 <1>  -0.3630 
  7 C       -3.0230    -2.9160     0.2830 C.ar  1 <1>  -0.1500 
  8 C       -4.0340    -0.7460     0.2700 C.ar  1 <1>  -0.1440 
  9 C       -0.8890    -4.5890     1.1320 C.3   1 <1>   0.0400 
 10 C       -4.0930    -2.0880    -0.0020 C.ar  1 <1>  -0.1440 
 11 C       -5.3210    -0.0680    -0.1180 C.3   1 <1>   0.3430 
 12 C       -5.4220    -2.4610    -0.6150 C.3   1 <1>  -0.0160 
 13 O       -5.7250     0.7480     0.9240 O.3   1 <1>  -0.6800 
 14 C       -6.3120    -1.2370    -0.3100 C.3   1 <1>  -0.0800 
 15 C       -7.4240    -1.0440    -1.3730 C.3   1 <1>  -0.1600 
 16 C       -8.4650     0.0810    -1.1480 C.3   1 <1>  -0.0800 
 17 C       -7.9450     1.4700    -1.5740 C.3   1 <1>  -0.1600 
 18 C       -9.0320     0.1010     0.2870 C.3   1 <1>  -0.1600 
 19 C       -8.9380     2.5870    -1.2630 C.3   1 <1>   0.3430 
 20 C       -9.9810     1.2740     0.5260 C.3   1 <1>   0.3430 
 21 N       -9.2700     2.5320     0.1860 N.4   1 <1>  -0.9590 
 22 C      -10.0020     3.7400     0.6470 C.3   1 <1>   0.4860 
 23 C       -9.1190     4.9540     0.4340 C.ar  1 <1>  -0.1440 
 24 C       -9.4530     5.8990    -0.5260 C.ar  1 <1>  -0.1500 
 25 C       -7.9660     5.1270     1.1890 C.ar  1 <1>  -0.1500 
 26 C       -8.6390     6.9980    -0.7360 C.ar  1 <1>  -0.1500 
 27 C       -7.1530     6.2260     0.9760 C.ar  1 <1>  -0.1500 
 28 C       -7.4890     7.1610     0.0140 C.ar  1 <1>  -0.1500 
 29 H        1.2330     0.0970     1.5300 H     1 <1>   0.0800 
 30 H        0.6370    -1.0320     0.3150 H     1 <1>   0.0800 
 31 H        0.8520    -1.5560     1.9920 H     1 <1>   0.0800 
 32 H       -2.8380     0.8620     1.0280 H     1 <1>   0.1500 
 33 H       -3.1110    -3.9610     0.0550 H     1 <1>   0.1500 
 34 H        0.0330    -4.9890     1.5140 H     1 <1>   0.0800 
 35 H       -1.0240    -4.8960     0.1110 H     1 <1>   0.0800 
 36 H       -1.7100    -4.9130     1.7470 H     1 <1>   0.0800 
 37 H       -5.1850     0.5140    -1.0130 H     1 <1>   0.0800 
 38 H       -5.8220    -3.3600    -0.1790 H     1 <1>   0.0800 
 39 H       -5.2930    -2.5990    -1.6750 H     1 <1>   0.0800 
 40 H       -5.2260     0.4570     1.7150 H     1 <1>   0.4000 
 41 H       -6.7600    -1.4490     0.6450 H     1 <1>   0.0800 
 42 H       -7.9670    -1.9720    -1.4290 H     1 <1>   0.0800 
 43 H       -6.9650    -0.9030    -2.3370 H     1 <1>   0.0800 
 44 H       -9.2920    -0.1390    -1.8050 H     1 <1>   0.0800 
 45 H       -7.7460     1.4690    -2.6310 H     1 <1>   0.0800 
 46 H       -7.0280     1.7150    -1.0800 H     1 <1>   0.0800 
 47 H       -8.2460     0.1750     1.0130 H     1 <1>   0.0800 
 48 H       -9.5570    -0.8190     0.4770 H     1 <1>   0.0800 
 49 H       -9.8300     2.4650    -1.8540 H     1 <1>   0.0800 
 50 H       -8.4880     3.5370    -1.5090 H     1 <1>   0.0800 
 51 H      -10.2830     1.2820     1.5610 H     1 <1>   0.0800 
 52 H      -10.8600     1.1670    -0.0890 H     1 <1>   0.0800 
 53 H       -8.3650     2.5230     0.6780 H     1 <1>   0.4500 
 54 H      -10.2370     3.6550     1.6960 H     1 <1>   0.0800 
 55 H      -10.9220     3.8530     0.0970 H     1 <1>   0.0800 
 56 H      -10.3460     5.7960    -1.1190 H     1 <1>   0.1500 
 57 H       -7.6840     4.4170     1.9480 H     1 <1>   0.1500 
 58 H       -8.9000     7.7310    -1.4810 H     1 <1>   0.1500 
 59 H       -6.2580     6.3590     1.5610 H     1 <1>   0.1500 
 60 H       -6.8560     8.0170    -0.1500 H     1 <1>   0.1500 
@<TRIPOS>BOND
  1   1   2  1   
  2   1   3  1   
  3   2   4  ar  
  4   2   5  ar  
  5   3  29  1   
  6   3  30  1   
  7   3  31  1   
  8   4   6  1   
  9   4   7  ar  
 10   5   8  ar  
 11   5  32  1   
 12   6   9  1   
 13   7  10  ar  
 14   7  33  1   
 15   8  10  ar  
 16   8  11  1   
 17   9  34  1   
 18   9  35  1   
 19   9  36  1   
 20  10  12  1   
 21  11  13  1   
 22  11  14  1   
 23  11  37  1   
 24  12  14  1   
 25  12  38  1   
 26  12  39  1   
 27  13  40  1   
 28  14  15  1   
 29  14  41  1   
 30  15  16  1   
 31  15  42  1   
 32  15  43  1   
 33  16  17  1   
 34  16  18  1   
 35  16  44  1   
 36  17  19  1   
 37  17  45  1   
 38  17  46  1   
 39  18  20  1   
 40  18  47  1   
 41  18  48  1   
 42  19  21  1   
 43  19  49  1   
 44  19  50  1   
 45  20  21  1   
 46  20  51  1   
 47  20  52  1   
 48  21  22  1   
 49  21  53  1   
 50  22  23  1   
 51  22  54  1   
 52  22  55  1   
 53  23  24  ar  
 54  23  25  ar  
 55  24  26  ar  
 56  24  56  1   
 57  25  27  ar  
 58  25  57  1   
 59  26  28  ar  
 60  26  58  1   
 61  27  28  ar  
 62  27  59  1   
 63  28  60  1   
@<TRIPOS>SUBSTRUCTURE
  1 ****  13 GROUP 4 **** **** 0

# MOE 2024.06 (io_trps.svl 2023.06)
