@<TRIPOS>MOLECULE
NONAME
44 45 1 0 0 
SMALL
USER_CHARGES


@<TRIPOS>ATOM
  1 F       -0.3960     0.7970     0.6230 F     1 <1>  -0.1900 
  2 C       -1.6880     0.9920     0.5510 C.ar  1 <1>   0.1900 
  3 C       -2.2430     2.0130    -0.2310 C.ar  1 <1>   0.0830 
  4 C       -2.4810     0.1380     1.2930 C.ar  1 <1>  -0.1500 
  5 O       -1.5700     2.9150    -1.0010 O.3   1 <1>  -0.3630 
  6 C       -3.6220     2.1390    -0.2370 C.ar  1 <1>  -0.1500 
  7 C       -3.8550     0.2930     1.2630 C.ar  1 <1>  -0.1500 
  8 C       -0.1670     2.9070    -1.1470 C.3   1 <1>   0.0400 
  9 C       -4.4560     1.2920     0.4960 C.ar  1 <1>   0.0530 
 10 C       -5.8870     1.4710     0.4650 C.2   1 <1>   0.0870 
 11 O       -6.3760     2.6860     0.4810 O.3   1 <1>  -0.0190 
 12 C       -6.9480     0.6170     0.4290 C.2   1 <1>  -0.0860 
 13 N       -7.6800     2.7140     0.4690 N.2   1 <1>  -0.4100 
 14 C       -8.0510     1.4830     0.4390 C.2   1 <1>   0.3720 
 15 C       -7.0040    -0.8140     0.3760 C.2   1 <1>   0.7160 
 16 N       -9.4030     1.1010     0.3960 N.pl3 1 <1>  -0.8210 
 17 O       -6.0180    -1.4840     0.1360 O.2   1 <1>  -0.5700 
 18 N       -8.1820    -1.4560     0.5980 N.am  1 <1>  -0.7300 
 19 C      -10.2490     1.8060     1.4010 C.3   1 <1>   0.1290 
 20 C       -9.9750     1.2330    -0.9720 C.3   1 <1>   0.1290 
 21 C       -8.4500    -2.9130     0.4940 C.3   1 <1>   0.1400 
 22 C       -9.7020    -3.1910    -0.3570 C.3   1 <1>   0.2000 
 23 O       -9.9220    -4.5530    -0.3960 O.3   1 <1>  -0.6800 
 24 C      -10.9790    -2.5530     0.1920 C.3   1 <1>  -0.2400 
 25 H       -2.0280    -0.6380     1.8830 H     1 <1>   0.1500 
 26 H       -4.0600     2.9190    -0.8330 H     1 <1>   0.1500 
 27 H       -4.4710    -0.3710     1.8440 H     1 <1>   0.1500 
 28 H        0.1030     3.7000    -1.8210 H     1 <1>   0.0800 
 29 H        0.1380     1.9610    -1.5570 H     1 <1>   0.0800 
 30 H        0.2870     3.0760    -0.1870 H     1 <1>   0.0800 
 31 H       -8.9930    -0.8290     0.7130 H     1 <1>   0.3700 
 32 H      -11.2110     1.3280     1.4750 H     1 <1>   0.0800 
 33 H      -10.3860     2.8360     1.1180 H     1 <1>   0.0800 
 34 H       -9.7730     1.7760     2.3660 H     1 <1>   0.0800 
 35 H      -10.9830     0.8570    -0.9920 H     1 <1>   0.0800 
 36 H       -9.3820     0.6700    -1.6730 H     1 <1>   0.0800 
 37 H       -9.9780     2.2680    -1.2740 H     1 <1>   0.0800 
 38 H       -7.6030    -3.4030     0.0440 H     1 <1>   0.0800 
 39 H       -8.5890    -3.3070     1.4850 H     1 <1>   0.0800 
 40 H       -9.5240    -2.8700    -1.3700 H     1 <1>   0.0800 
 41 H      -10.2220    -4.8740     0.4750 H     1 <1>   0.4000 
 42 H      -11.1490    -2.8520     1.2100 H     1 <1>   0.0800 
 43 H      -11.8210    -2.8380    -0.4130 H     1 <1>   0.0800 
 44 H      -10.8990    -1.4820     0.1630 H     1 <1>   0.0800 
@<TRIPOS>BOND
  1   1   2  1   
  2   2   3  ar  
  3   2   4  ar  
  4   3   5  1   
  5   3   6  ar  
  6   4   7  ar  
  7   4  25  1   
  8   5   8  1   
  9   6   9  ar  
 10   6  26  1   
 11   7   9  ar  
 12   7  27  1   
 13   8  28  1   
 14   8  29  1   
 15   8  30  1   
 16   9  10  1   
 17  10  11  1   
 18  10  12  2   
 19  11  13  1   
 20  12  14  1   
 21  12  15  1   
 22  13  14  2   
 23  14  16  1   
 24  15  17  2   
 25  15  18  am  
 26  16  19  1   
 27  16  20  1   
 28  18  21  1   
 29  18  31  1   
 30  19  32  1   
 31  19  33  1   
 32  19  34  1   
 33  20  35  1   
 34  20  36  1   
 35  20  37  1   
 36  21  22  1   
 37  21  38  1   
 38  21  39  1   
 39  22  23  1   
 40  22  24  1   
 41  22  40  1   
 42  23  41  1   
 43  24  42  1   
 44  24  43  1   
 45  24  44  1   
@<TRIPOS>SUBSTRUCTURE
  1 ****  12 GROUP 4 **** **** 0

# MOE 2024.06 (io_trps.svl 2023.06)
