@<TRIPOS>MOLECULE
NONAME
48 50 1 0 0 
SMALL
USER_CHARGES


@<TRIPOS>ATOM
  1 O       -0.7890    -0.4010    -0.1460 O.co2 1 <1>  -0.9000 
  2 C       -1.7420    -1.0780    -0.5510 C.2   1 <1>   0.9060 
  3 O       -2.7700    -0.5630    -1.0110 O.co2 1 <1>  -0.9000 
  4 C       -1.6070    -2.5930    -0.5790 C.3   1 <1>   0.0140 
  5 O       -2.1920    -3.2380     0.5540 O.3   1 <1>  -0.3630 
  6 C       -2.3480    -4.5800     0.5920 C.ar  1 <1>   0.0830 
  7 C       -3.1250    -5.0870     1.6190 C.ar  1 <1>  -0.1500 
  8 C       -1.7840    -5.4500    -0.3360 C.ar  1 <1>  -0.1500 
  9 C       -3.3660    -6.4460     1.7120 C.ar  1 <1>  -0.1500 
 10 C       -2.0240    -6.8090    -0.2450 C.ar  1 <1>  -0.1500 
 11 C       -2.8300    -7.3110     0.7680 C.ar  1 <1>  -0.1440 
 12 C       -3.1430    -8.7890     0.8350 C.3   1 <1>   0.4870 
 13 N       -4.0570    -9.1670    -0.2860 N.4   1 <1>  -0.9590 
 14 C       -5.3900    -8.4860    -0.1690 C.3   1 <1>   0.4230 
 15 C       -4.1080   -10.6610    -0.3850 C.3   1 <1>   0.2630 
 16 C       -6.5760    -9.2960    -0.6980 C.3   1 <1>  -0.1600 
 17 C       -5.4440    -7.2160    -1.0200 C.3   1 <1>  -0.1600 
 18 C       -7.6660    -8.2570    -0.9760 C.3   1 <1>  -0.0800 
 19 C       -6.9370    -6.9270    -1.2160 C.3   1 <1>  -0.0800 
 20 C       -8.6140    -8.0230     0.2090 C.3   1 <1>  -0.1600 
 21 C       -7.5100    -5.9250    -0.2000 C.3   1 <1>  -0.1600 
 22 C       -8.8480    -6.5210     0.2120 C.3   1 <1>   0.2000 
 23 O       -9.2000    -6.0950     1.4720 O.3   1 <1>  -0.6800 
 24 H       -0.5640    -2.8400    -0.6070 H     1 <1>   0.0800 
 25 H       -2.0990    -2.9480    -1.4630 H     1 <1>   0.0800 
 26 H       -3.5370    -4.3980     2.3360 H     1 <1>   0.1500 
 27 H       -1.1590    -5.0750    -1.1250 H     1 <1>   0.1500 
 28 H       -3.9760    -6.8070     2.5220 H     1 <1>   0.1500 
 29 H       -1.5730    -7.4590    -0.9750 H     1 <1>   0.1500 
 30 H       -3.6000    -9.0240     1.7820 H     1 <1>   0.0800 
 31 H       -2.2200    -9.3410     0.7590 H     1 <1>   0.0800 
 32 H       -3.6290    -8.7870    -1.1400 H     1 <1>   0.4500 
 33 H       -5.5900    -8.2260     0.8580 H     1 <1>   0.0800 
 34 H       -4.6020   -11.0780     0.4770 H     1 <1>   0.0800 
 35 H       -3.1110   -11.0680    -0.4430 H     1 <1>   0.0800 
 36 H       -4.6450   -10.9630    -1.2700 H     1 <1>   0.0800 
 37 H       -6.3260    -9.7570    -1.6380 H     1 <1>   0.0800 
 38 H       -6.9080   -10.0440     0.0000 H     1 <1>   0.0800 
 39 H       -4.9470    -6.3770    -0.5660 H     1 <1>   0.0800 
 40 H       -5.0060    -7.4010    -1.9850 H     1 <1>   0.0800 
 41 H       -8.2430    -8.5270    -1.8470 H     1 <1>   0.0800 
 42 H       -7.1280    -6.5720    -2.2160 H     1 <1>   0.0800 
 43 H       -8.1500    -8.3190     1.1330 H     1 <1>   0.0800 
 44 H       -9.5400    -8.5560     0.0840 H     1 <1>   0.0800 
 45 H       -7.6400    -4.9520    -0.6420 H     1 <1>   0.0800 
 46 H       -6.8650    -5.8430     0.6570 H     1 <1>   0.0800 
 47 H       -9.6270    -6.2480    -0.4820 H     1 <1>   0.0800 
 48 H       -8.4630    -6.2140     2.0970 H     1 <1>   0.4000 
@<TRIPOS>BOND
  1   1   2  ar  
  2   2   3  ar  
  3   2   4  1   
  4   4   5  1   
  5   4  24  1   
  6   4  25  1   
  7   5   6  1   
  8   6   7  ar  
  9   6   8  ar  
 10   7   9  ar  
 11   7  26  1   
 12   8  10  ar  
 13   8  27  1   
 14   9  11  ar  
 15   9  28  1   
 16  10  11  ar  
 17  10  29  1   
 18  11  12  1   
 19  12  13  1   
 20  12  30  1   
 21  12  31  1   
 22  13  14  1   
 23  13  15  1   
 24  13  32  1   
 25  14  16  1   
 26  14  17  1   
 27  14  33  1   
 28  15  34  1   
 29  15  35  1   
 30  15  36  1   
 31  16  18  1   
 32  16  37  1   
 33  16  38  1   
 34  17  19  1   
 35  17  39  1   
 36  17  40  1   
 37  18  19  1   
 38  18  20  1   
 39  18  41  1   
 40  19  21  1   
 41  19  42  1   
 42  20  22  1   
 43  20  43  1   
 44  20  44  1   
 45  21  22  1   
 46  21  45  1   
 47  21  46  1   
 48  22  23  1   
 49  22  47  1   
 50  23  48  1   
@<TRIPOS>SUBSTRUCTURE
  1 ****  17 GROUP 4 **** **** 0

# MOE 2024.06 (io_trps.svl 2023.06)
