@<TRIPOS>MOLECULE
NONAME
48 50 1 0 0 
SMALL
USER_CHARGES


@<TRIPOS>ATOM
  1 O       -1.1720     0.1010    -0.0050 O.2   1 <1>  -0.5700 
  2 C       -1.9450     0.9140    -0.4830 C.2   1 <1>   0.7150 
  3 N       -3.0850     0.4200    -1.0750 N.am  1 <1>  -0.6600 
  4 C       -1.6920     2.3320    -0.4160 C.2   1 <1>  -0.2370 
  5 C       -3.1070    -0.9830    -1.5620 C.3   1 <1>   0.1400 
  6 C       -4.4220     0.9610    -0.7120 C.3   1 <1>   0.1400 
  7 N       -0.8580     2.9430     0.4900 N.pl3 1 <1>   0.0480 
  8 C       -2.2050     3.3190    -1.2200 C.2   1 <1>  -0.1500 
  9 C       -3.6900    -1.8950    -0.4590 C.3   1 <1>   0.4230 
 10 C       -5.0210     0.0720     0.3860 C.3   1 <1>  -0.1600 
 11 C       -0.8760     4.2730     0.2450 C.2   1 <1>  -0.3020 
 12 C       -0.0600     2.3030     1.5560 C.3   1 <1>   0.0160 
 13 C       -1.6990     4.5520    -0.8070 C.2   1 <1>   0.0190 
 14 N       -3.5910    -3.3830    -0.7700 N.4   1 <1>  -0.9590 
 15 C       -5.1090    -1.4330    -0.0070 C.3   1 <1>   0.0000 
 16 C       -2.0090     5.8240    -1.3970 C.1   1 <1>   0.5380 
 17 C       -4.4960    -4.2440     0.0590 C.3   1 <1>   0.3430 
 18 C       -3.7200    -3.7520    -2.2180 C.3   1 <1>   0.2630 
 19 C       -5.5410    -2.2490     1.2470 C.3   1 <1>  -0.1600 
 20 C       -6.1320    -1.6320    -1.1620 C.3   1 <1>   0.1200 
 21 N       -2.2680     6.8300    -1.8690 N.1   1 <1>  -0.5570 
 22 C       -4.7950    -3.5880     1.4060 C.3   1 <1>  -0.1600 
 23 O       -7.3460    -1.0290    -0.8810 O.3   1 <1>  -0.6800 
 24 H       -3.6920    -1.0240    -2.4620 H     1 <1>   0.0800 
 25 H       -2.1030    -1.2930    -1.7970 H     1 <1>   0.0800 
 26 H       -4.3370     1.9690    -0.3430 H     1 <1>   0.0800 
 27 H       -5.0580     0.9790    -1.5810 H     1 <1>   0.0800 
 28 H       -2.8840     3.1900    -2.0470 H     1 <1>   0.1500 
 29 H       -3.0560    -1.7270     0.3970 H     1 <1>   0.0800 
 30 H       -4.4040     0.1860     1.2610 H     1 <1>   0.0800 
 31 H       -5.9930     0.4550     0.6470 H     1 <1>   0.0800 
 32 H       -0.3020     4.9750     0.8250 H     1 <1>   0.1500 
 33 H        0.4200     3.0550     2.1540 H     1 <1>   0.0800 
 34 H        0.6870     1.6720     1.1080 H     1 <1>   0.0800 
 35 H       -0.7040     1.7080     2.1770 H     1 <1>   0.0800 
 36 H       -2.6310    -3.6320    -0.4870 H     1 <1>   0.4500 
 37 H       -5.4290    -4.3970    -0.4590 H     1 <1>   0.0800 
 38 H       -4.0420    -5.2100     0.2150 H     1 <1>   0.0800 
 39 H       -4.6910    -3.4760    -2.5940 H     1 <1>   0.0800 
 40 H       -3.5940    -4.8160    -2.3450 H     1 <1>   0.0800 
 41 H       -2.9660    -3.2530    -2.8060 H     1 <1>   0.0800 
 42 H       -5.3730    -1.6820     2.1480 H     1 <1>   0.0800 
 43 H       -6.6000    -2.4430     1.2140 H     1 <1>   0.0800 
 44 H       -6.3260    -2.6740    -1.3440 H     1 <1>   0.0800 
 45 H       -5.7830    -1.1880    -2.0770 H     1 <1>   0.0800 
 46 H       -5.3940    -4.2570     2.0010 H     1 <1>   0.0800 
 47 H       -3.8700    -3.4370     1.9370 H     1 <1>   0.0800 
 48 H       -7.7820    -1.4170    -0.0970 H     1 <1>   0.4000 
@<TRIPOS>BOND
  1   1   2  2   
  2   2   3  am  
  3   2   4  1   
  4   3   5  1   
  5   3   6  1   
  6   4   7  1   
  7   4   8  2   
  8   5   9  1   
  9   5  24  1   
 10   5  25  1   
 11   6  10  1   
 12   6  26  1   
 13   6  27  1   
 14   7  11  1   
 15   7  12  1   
 16   8  13  1   
 17   8  28  1   
 18   9  14  1   
 19   9  15  1   
 20   9  29  1   
 21  10  15  1   
 22  10  30  1   
 23  10  31  1   
 24  11  13  2   
 25  11  32  1   
 26  12  33  1   
 27  12  34  1   
 28  12  35  1   
 29  13  16  1   
 30  14  17  1   
 31  14  18  1   
 32  14  36  1   
 33  15  19  1   
 34  15  20  1   
 35  16  21  3   
 36  17  22  1   
 37  17  37  1   
 38  17  38  1   
 39  18  39  1   
 40  18  40  1   
 41  18  41  1   
 42  19  22  1   
 43  19  42  1   
 44  19  43  1   
 45  20  23  1   
 46  20  44  1   
 47  20  45  1   
 48  22  46  1   
 49  22  47  1   
 50  23  48  1   
@<TRIPOS>SUBSTRUCTURE
  1 ****   3 GROUP 4 **** **** 0

# MOE 2024.06 (io_trps.svl 2023.06)
