@<TRIPOS>MOLECULE
NONAME
47 49 1 0 0 
SMALL
USER_CHARGES


@<TRIPOS>ATOM
  1 S        0.3750     0.3010    -0.4600 S.o2  1 <1>   1.3330 
  2 O        0.1150     0.8590    -1.7670 O.2   1 <1>  -0.6500 
  3 O        0.3460    -1.1320    -0.2770 O.2   1 <1>  -0.6500 
  4 N       -0.7280     0.9860     0.6330 N.am  1 <1>  -0.8490 
  5 C        1.9430     0.9740     0.0860 C.3   1 <1>  -0.0550 
  6 C       -0.7840     0.2770     1.9170 C.3   1 <1>   0.1160 
  7 C       -2.0760     1.0820     0.0640 C.3   1 <1>   0.1160 
  8 C        3.1470     0.4960    -0.7610 C.3   1 <1>  -0.0800 
  9 C        4.4410     1.2640    -0.5050 C.3   1 <1>   0.2200 
 10 C        3.5770    -0.8970    -0.3080 C.3   1 <1>   0.1200 
 11 N        4.2350     2.7220    -0.2990 N.am  1 <1>  -0.7300 
 12 C        5.0320     0.5420     0.7120 C.3   1 <1>   0.1200 
 13 O        4.3460    -0.6730     0.8280 O.3   1 <1>  -0.5600 
 14 C        5.2260     3.6050     0.0280 C.2   1 <1>   0.5440 
 15 O        6.3460     3.1710     0.2130 O.2   1 <1>  -0.5700 
 16 C        4.9530     5.0280     0.1260 C.ar  1 <1>   0.0860 
 17 C        5.9680     5.9700    -0.0490 C.ar  1 <1>  -0.1500 
 18 C        3.6770     5.5260     0.3970 C.ar  1 <1>  -0.1500 
 19 C        5.7220     7.3270     0.0290 C.ar  1 <1>  -0.1500 
 20 C        3.4310     6.8840     0.4730 C.ar  1 <1>  -0.1500 
 21 C        4.4460     7.8220     0.2890 C.ar  1 <1>   0.0530 
 22 C        4.1900     9.2420     0.3650 C.2   1 <1>   0.0870 
 23 O        2.9830     9.7080     0.5860 O.3   1 <1>  -0.2800 
 24 C        4.9860    10.3290     0.2510 C.2   1 <1>   0.0770 
 25 C        3.0860    11.0140     0.5970 C.2   1 <1>   0.3280 
 26 N        4.2730    11.4600     0.4000 N.2   1 <1>  -0.5650 
 27 H        1.8580     2.0400     0.0300 H     1 <1>   0.0800 
 28 H        2.1110     0.7210     1.1160 H     1 <1>   0.0800 
 29 H       -1.4340     0.7980     2.5990 H     1 <1>   0.0800 
 30 H        0.1970     0.2240     2.3580 H     1 <1>   0.0800 
 31 H       -1.1540    -0.7260     1.7790 H     1 <1>   0.0800 
 32 H       -2.7500     1.5330     0.7730 H     1 <1>   0.0800 
 33 H       -2.4420     0.1040    -0.2010 H     1 <1>   0.0800 
 34 H       -2.0600     1.6960    -0.8210 H     1 <1>   0.0800 
 35 H        2.9000     0.5000    -1.8090 H     1 <1>   0.0800 
 36 H        5.1150     1.1260    -1.3350 H     1 <1>   0.0800 
 37 H        4.2050    -1.3700    -1.0450 H     1 <1>   0.0800 
 38 H        2.7620    -1.5540    -0.0570 H     1 <1>   0.0800 
 39 H        3.3870     3.1000    -0.7220 H     1 <1>   0.3700 
 40 H        4.8780     1.0990     1.6190 H     1 <1>   0.0800 
 41 H        6.0800     0.3390     0.5740 H     1 <1>   0.0800 
 42 H        6.9680     5.6210    -0.2490 H     1 <1>   0.1500 
 43 H        2.8630     4.8430     0.5610 H     1 <1>   0.1500 
 44 H        6.5390     8.0120    -0.1150 H     1 <1>   0.1500 
 45 H        2.4330     7.2280     0.6830 H     1 <1>   0.1500 
 46 H        6.0450    10.3600     0.0680 H     1 <1>   0.1500 
 47 H        2.2010    11.6040     0.7640 H     1 <1>   0.1500 
@<TRIPOS>BOND
  1   1   2  2   
  2   1   3  2   
  3   1   4  am  
  4   1   5  1   
  5   4   6  1   
  6   4   7  1   
  7   5   8  1   
  8   5  27  1   
  9   5  28  1   
 10   6  29  1   
 11   6  30  1   
 12   6  31  1   
 13   7  32  1   
 14   7  33  1   
 15   7  34  1   
 16   8   9  1   
 17   8  10  1   
 18   8  35  1   
 19   9  11  1   
 20   9  12  1   
 21   9  36  1   
 22  10  13  1   
 23  10  37  1   
 24  10  38  1   
 25  11  14  am  
 26  11  39  1   
 27  12  13  1   
 28  12  40  1   
 29  12  41  1   
 30  14  15  2   
 31  14  16  1   
 32  16  17  ar  
 33  16  18  ar  
 34  17  19  ar  
 35  17  42  1   
 36  18  20  ar  
 37  18  43  1   
 38  19  21  ar  
 39  19  44  1   
 40  20  21  ar  
 41  20  45  1   
 42  21  22  1   
 43  22  23  1   
 44  22  24  2   
 45  23  25  1   
 46  24  26  1   
 47  24  46  1   
 48  25  26  2   
 49  25  47  1   
@<TRIPOS>SUBSTRUCTURE
  1 ****  18 GROUP 4 **** **** 0

# MOE 2024.06 (io_trps.svl 2023.06)
