@<TRIPOS>MOLECULE
NONAME
49 52 1 0 0 
SMALL
USER_CHARGES


@<TRIPOS>ATOM
  1 O       -3.5900     4.0690    -0.6860 O.2   1 <1>  -0.5700 
  2 C       -3.0440     3.0030    -0.8280 C.2   1 <1>   0.5690 
  3 N       -3.7230     1.9320    -1.3610 N.am  1 <1>  -0.6600 
  4 C       -1.6480     2.8320    -0.2470 C.3   1 <1>   0.0820 
  5 C       -5.1760     1.7810    -1.0600 C.3   1 <1>   0.1400 
  6 C       -3.1080     0.6860    -1.9270 C.3   1 <1>   0.1400 
  7 C       -1.7360     1.7750     0.8500 C.2   1 <1>  -0.1810 
  8 C       -5.4020     0.6770     0.0100 C.3   1 <1>   0.4230 
  9 C       -3.6920    -0.6030    -1.2980 C.3   1 <1>   0.3430 
 10 C       -2.5200     1.7950     1.9420 C.2   1 <1>  -0.0400 
 11 C       -1.0980     0.5370     0.9350 C.2   1 <1>   0.1080 
 12 N       -4.2700    -0.3470     0.0650 N.4   1 <1>  -0.9590 
 13 C       -6.7800     0.0240    -0.2310 C.3   1 <1>   0.1200 
 14 O       -2.3950     0.6480     2.5450 O.3   1 <1>  -0.0190 
 15 C       -3.4500     2.8410     2.5310 C.3   1 <1>  -0.0600 
 16 N       -1.5500    -0.1280     1.9350 N.2   1 <1>  -0.4100 
 17 C       -0.0080    -0.0020     0.0290 C.3   1 <1>  -0.0590 
 18 C       -4.6360    -1.5740     0.8640 C.3   1 <1>   0.5180 
 19 O       -6.9930    -1.0250     0.6600 O.3   1 <1>  -0.5600 
 20 C       -3.5660    -2.6760     0.6890 C.3   1 <1>  -0.1950 
 21 C       -6.0680    -2.0670     0.5460 C.3   1 <1>   0.1200 
 22 C       -3.5390    -3.6870    -0.4230 C.3   1 <1>  -0.2000 
 23 C       -3.8200    -4.1240     0.9870 C.3   1 <1>  -0.2000 
 24 H       -0.9590     2.5580    -1.0220 H     1 <1>   0.0800 
 25 H       -1.3220     3.7640     0.1780 H     1 <1>   0.0800 
 26 H       -5.5950     2.7090    -0.7070 H     1 <1>   0.0800 
 27 H       -5.6890     1.5340    -1.9730 H     1 <1>   0.0800 
 28 H       -3.2790     0.6640    -2.9900 H     1 <1>   0.0800 
 29 H       -2.0440     0.6980    -1.7870 H     1 <1>   0.0800 
 30 H       -5.4550     1.1670     0.9680 H     1 <1>   0.0800 
 31 H       -2.9080    -1.3400    -1.2440 H     1 <1>   0.0800 
 32 H       -4.4610    -0.9940    -1.9440 H     1 <1>   0.0800 
 33 H       -3.5060     0.0970     0.6070 H     1 <1>   0.4500 
 34 H       -6.8650    -0.3570    -1.2340 H     1 <1>   0.0800 
 35 H       -7.5640     0.7450    -0.0730 H     1 <1>   0.0800 
 36 H       -3.4230     3.7490     1.9570 H     1 <1>   0.0800 
 37 H       -3.1390     3.0700     3.5350 H     1 <1>   0.0800 
 38 H       -4.4590     2.4750     2.5610 H     1 <1>   0.0800 
 39 H        0.5260     0.8000    -0.4460 H     1 <1>   0.0800 
 40 H       -0.4220    -0.6510    -0.7180 H     1 <1>   0.0800 
 41 H        0.6950    -0.5660     0.6170 H     1 <1>   0.0800 
 42 H       -4.6360    -1.3010     1.9070 H     1 <1>   0.0800 
 43 H       -2.6150    -2.3300     1.0520 H     1 <1>   0.1000 
 44 H       -6.3580    -2.8260     1.2520 H     1 <1>   0.0800 
 45 H       -6.1330    -2.4800    -0.4440 H     1 <1>   0.0800 
 46 H       -4.3450    -3.7750    -1.1310 H     1 <1>   0.1000 
 47 H       -2.5930    -3.9750    -0.8520 H     1 <1>   0.1000 
 48 H       -3.0590    -4.6810     1.5100 H     1 <1>   0.1000 
 49 H       -4.8050    -4.4960     1.2080 H     1 <1>   0.1000 
@<TRIPOS>BOND
  1   1   2  2   
  2   2   3  am  
  3   2   4  1   
  4   3   5  1   
  5   3   6  1   
  6   4   7  1   
  7   4  24  1   
  8   4  25  1   
  9   5   8  1   
 10   5  26  1   
 11   5  27  1   
 12   6   9  1   
 13   6  28  1   
 14   6  29  1   
 15   7  10  2   
 16   7  11  1   
 17   8  12  1   
 18   8  13  1   
 19   8  30  1   
 20   9  12  1   
 21   9  31  1   
 22   9  32  1   
 23  10  14  1   
 24  10  15  1   
 25  11  16  2   
 26  11  17  1   
 27  12  18  1   
 28  12  33  1   
 29  13  19  1   
 30  13  34  1   
 31  13  35  1   
 32  14  16  1   
 33  15  36  1   
 34  15  37  1   
 35  15  38  1   
 36  17  39  1   
 37  17  40  1   
 38  17  41  1   
 39  18  20  1   
 40  18  21  1   
 41  18  42  1   
 42  19  21  1   
 43  20  22  1   
 44  20  23  1   
 45  20  43  1   
 46  21  44  1   
 47  21  45  1   
 48  22  23  1   
 49  22  46  1   
 50  22  47  1   
 51  23  48  1   
 52  23  49  1   
@<TRIPOS>SUBSTRUCTURE
  1 ****  12 GROUP 4 **** **** 0

# MOE 2024.06 (io_trps.svl 2023.06)
