@<TRIPOS>MOLECULE
NONAME
58 61 1 0 0 
SMALL
USER_CHARGES


@<TRIPOS>ATOM
  1 O       -1.5480     1.3630     2.2170 O.2   1 <1>  -0.5700 
  2 C       -2.3240     1.4940     1.2990 C.2   1 <1>   0.5690 
  3 N       -3.5240     0.8250     1.2720 N.am  1 <1>  -0.6600 
  4 C       -1.9410     2.4160     0.1470 C.3   1 <1>  -0.0990 
  5 C       -3.9090    -0.1180     2.3590 C.3   1 <1>   0.1400 
  6 C       -4.5400     0.9050     0.1870 C.3   1 <1>   0.1400 
  7 C       -0.5730     3.1030     0.3150 C.3   1 <1>  -0.0650 
  8 C       -4.0770    -1.5200     1.7690 C.3   1 <1>  -0.1600 
  9 C       -4.7050    -0.4810    -0.4400 C.3   1 <1>  -0.1600 
 10 C       -0.2540     4.0690    -0.8400 C.3   1 <1>  -0.1900 
 11 C       -5.0850    -1.5410     0.6100 C.3   1 <1>   0.4240 
 12 C        0.5900     5.2620    -0.5310 C.3   1 <1>  -0.2000 
 13 C       -0.8770     5.4260    -0.8370 C.3   1 <1>  -0.2000 
 14 C       -0.0190     3.3700    -2.1850 C.3   1 <1>  -0.1450 
 15 O       -6.3160    -1.1630     1.1840 O.3   1 <1>  -0.5600 
 16 C       -5.1540    -2.9490    -0.0190 C.ar  1 <1>  -0.1440 
 17 C       -7.4810    -1.5300     0.5130 C.3   1 <1>   0.1200 
 18 C       -6.3430    -3.6650    -0.0600 C.ar  1 <1>  -0.1440 
 19 C       -4.0190    -3.5300    -0.5690 C.ar  1 <1>  -0.1500 
 20 C       -7.5990    -3.0510     0.5250 C.3   1 <1>  -0.0170 
 21 C       -6.3880    -4.9260    -0.6320 C.ar  1 <1>  -0.1500 
 22 C       -4.0430    -4.7900    -1.1400 C.ar  1 <1>   0.0820 
 23 C       -5.2500    -5.5060    -1.1860 C.ar  1 <1>   0.0820 
 24 O       -2.8430    -5.2200    -1.6240 O.3   1 <1>  -0.3630 
 25 O       -5.2950    -6.7340    -1.7820 O.3   1 <1>  -0.3620 
 26 C       -2.4960    -6.5860    -1.6120 C.3   1 <1>   0.0400 
 27 C       -6.5080    -7.4190    -2.0020 C.3   1 <1>   0.0400 
 28 H       -2.6940     3.1760     0.0580 H     1 <1>   0.0800 
 29 H       -1.9340     1.8300    -0.7510 H     1 <1>   0.0800 
 30 H       -4.8340     0.2110     2.8020 H     1 <1>   0.0800 
 31 H       -3.1610    -0.1400     3.1340 H     1 <1>   0.0800 
 32 H       -4.2570     1.6110    -0.5710 H     1 <1>   0.0800 
 33 H       -5.4770     1.2300     0.6080 H     1 <1>   0.0800 
 34 H        0.1990     2.3560     0.3830 H     1 <1>   0.0800 
 35 H       -0.5760     3.6450     1.2450 H     1 <1>   0.0800 
 36 H       -4.4040    -2.2010     2.5330 H     1 <1>   0.0800 
 37 H       -3.1140    -1.8540     1.4320 H     1 <1>   0.0800 
 38 H       -3.7740    -0.7530    -0.9020 H     1 <1>   0.0800 
 39 H       -5.4440    -0.4510    -1.2160 H     1 <1>   0.0800 
 40 H        1.3070     5.6040    -1.2560 H     1 <1>   0.1000 
 41 H        0.9240     5.4240     0.4800 H     1 <1>   0.1000 
 42 H       -1.5390     5.7000    -0.0340 H     1 <1>   0.1000 
 43 H       -1.1580     5.8780    -1.7730 H     1 <1>   0.1000 
 44 H        0.7460     2.6200    -2.0850 H     1 <1>   0.0800 
 45 H        0.2990     4.0780    -2.9300 H     1 <1>   0.0800 
 46 H       -0.9210     2.9030    -2.5350 H     1 <1>   0.0800 
 47 H       -7.4470    -1.1510    -0.4930 H     1 <1>   0.0800 
 48 H       -8.3130    -1.0840     1.0300 H     1 <1>   0.0800 
 49 H       -3.0800    -3.0070    -0.5620 H     1 <1>   0.1500 
 50 H       -8.4600    -3.3420    -0.0490 H     1 <1>   0.0800 
 51 H       -7.7340    -3.3920     1.5360 H     1 <1>   0.0800 
 52 H       -7.3270    -5.4440    -0.6370 H     1 <1>   0.1500 
 53 H       -1.4270    -6.6620    -1.6820 H     1 <1>   0.0800 
 54 H       -2.9510    -7.0670    -2.4590 H     1 <1>   0.0800 
 55 H       -2.8380    -7.0280    -0.6920 H     1 <1>   0.0800 
 56 H       -6.2880    -8.3210    -2.5440 H     1 <1>   0.0800 
 57 H       -7.1620    -6.7940    -2.5850 H     1 <1>   0.0800 
 58 H       -6.9490    -7.6630    -1.0520 H     1 <1>   0.0800 
@<TRIPOS>BOND
  1   1   2  2   
  2   2   3  am  
  3   2   4  1   
  4   3   5  1   
  5   3   6  1   
  6   4   7  1   
  7   4  28  1   
  8   4  29  1   
  9   5   8  1   
 10   5  30  1   
 11   5  31  1   
 12   6   9  1   
 13   6  32  1   
 14   6  33  1   
 15   7  10  1   
 16   7  34  1   
 17   7  35  1   
 18   8  11  1   
 19   8  36  1   
 20   8  37  1   
 21   9  11  1   
 22   9  38  1   
 23   9  39  1   
 24  10  12  1   
 25  10  13  1   
 26  10  14  1   
 27  11  15  1   
 28  11  16  1   
 29  12  13  1   
 30  12  40  1   
 31  12  41  1   
 32  13  42  1   
 33  13  43  1   
 34  14  44  1   
 35  14  45  1   
 36  14  46  1   
 37  15  17  1   
 38  16  18  ar  
 39  16  19  ar  
 40  17  20  1   
 41  17  47  1   
 42  17  48  1   
 43  18  20  1   
 44  18  21  ar  
 45  19  22  ar  
 46  19  49  1   
 47  20  50  1   
 48  20  51  1   
 49  21  23  ar  
 50  21  52  1   
 51  22  23  ar  
 52  22  24  1   
 53  23  25  1   
 54  24  26  1   
 55  25  27  1   
 56  26  53  1   
 57  26  54  1   
 58  26  55  1   
 59  27  56  1   
 60  27  57  1   
 61  27  58  1   
@<TRIPOS>SUBSTRUCTURE
  1 ****   9 GROUP 4 **** **** 0

# MOE 2024.06 (io_trps.svl 2023.06)
