@<TRIPOS>MOLECULE
NONAME
46 48 1 0 0 
SMALL
USER_CHARGES


@<TRIPOS>ATOM
  1 O       -0.9650    -0.4130    -0.8640 O.2   1 <1>  -0.5700 
  2 C       -1.8340    -1.1700    -0.4680 C.2   1 <1>   0.6900 
  3 N       -2.6880    -1.8700    -1.2370 N.am  1 <1>  -0.5390 
  4 N       -2.0940    -1.4560     0.8250 N.am  1 <1>  -0.5390 
  5 C       -3.5200    -2.6440    -0.4140 C.2   1 <1>   0.1230 
  6 C       -3.1250    -2.3730     0.8560 C.2   1 <1>  -0.0410 
  7 C       -4.5390    -3.5360    -0.9310 C.2   1 <1>   0.6160 
  8 O       -4.4650    -3.9220    -2.0860 O.2   1 <1>  -0.5700 
  9 N       -5.6060    -3.9710    -0.1690 N.am  1 <1>  -0.6600 
 10 C       -6.2830    -5.2590    -0.5100 C.3   1 <1>   0.1400 
 11 C       -6.3730    -3.0440     0.7100 C.3   1 <1>   0.1400 
 12 C       -7.6150    -5.0420    -1.2440 C.3   1 <1>   0.1400 
 13 C       -7.4310    -2.3020    -0.1160 C.3   1 <1>  -0.1600 
 14 N       -8.6640    -4.5170    -0.3120 N.am  1 <1>  -0.6600 
 15 C       -8.7790    -3.0290    -0.2410 C.3   1 <1>   0.1400 
 16 C       -9.5510    -5.3050     0.3860 C.2   1 <1>   0.5690 
 17 O      -10.4970    -4.8270     0.9670 O.2   1 <1>  -0.5700 
 18 C       -9.4160    -6.8270     0.4340 C.3   1 <1>  -0.0190 
 19 C      -10.4650    -7.4150    -0.5200 C.3   1 <1>   0.0960 
 20 C       -9.5650    -7.3810     1.8670 C.3   1 <1>  -0.2400 
 21 N      -10.2190    -8.8460    -0.7630 N.pl3 1 <1>   0.3140 
 22 N       -9.1820    -9.2810    -1.4650 N.2   1 <1>  -0.7070 
 23 C      -10.9320    -9.9000    -0.3560 C.2   1 <1>   0.0360 
 24 C       -9.3440   -10.5630    -1.4320 C.2   1 <1>   0.3660 
 25 N      -10.4130   -11.0040    -0.7560 N.2   1 <1>  -0.5650 
 26 H       -2.6530    -1.9020    -2.2560 H     1 <1>   0.3700 
 27 H       -1.5450    -1.0490     1.5820 H     1 <1>   0.3700 
 28 H       -3.5040    -2.7820     1.7780 H     1 <1>   0.1500 
 29 H       -6.4480    -5.8250     0.3890 H     1 <1>   0.0800 
 30 H       -5.6370    -5.8440    -1.1420 H     1 <1>   0.0800 
 31 H       -5.7090    -2.3190     1.1440 H     1 <1>   0.0800 
 32 H       -6.8330    -3.5910     1.5160 H     1 <1>   0.0800 
 33 H       -7.9400    -5.9720    -1.6750 H     1 <1>   0.0800 
 34 H       -7.4640    -4.3570    -2.0620 H     1 <1>   0.0800 
 35 H       -7.0440    -2.0810    -1.0950 H     1 <1>   0.0800 
 36 H       -7.6270    -1.3550     0.3550 H     1 <1>   0.0800 
 37 H       -9.2990    -2.6760    -1.1160 H     1 <1>   0.0800 
 38 H       -9.3780    -2.7610     0.6140 H     1 <1>   0.0800 
 39 H       -8.4410    -7.1120     0.0910 H     1 <1>   0.0800 
 40 H      -10.4180    -6.9110    -1.4680 H     1 <1>   0.0800 
 41 H      -11.4520    -7.2840    -0.1150 H     1 <1>   0.0800 
 42 H      -10.5490    -7.1780     2.2540 H     1 <1>   0.0800 
 43 H       -8.8460    -6.9120     2.5160 H     1 <1>   0.0800 
 44 H       -9.3950    -8.4430     1.8880 H     1 <1>   0.0800 
 45 H      -11.8260    -9.8120     0.2350 H     1 <1>   0.1500 
 46 H       -8.6720   -11.2580    -1.9110 H     1 <1>   0.1500 
@<TRIPOS>BOND
  1   1   2  2   
  2   2   3  am  
  3   2   4  am  
  4   3   5  1   
  5   3  26  1   
  6   4   6  1   
  7   4  27  1   
  8   5   6  2   
  9   5   7  1   
 10   6  28  1   
 11   7   8  2   
 12   7   9  am  
 13   9  10  1   
 14   9  11  1   
 15  10  12  1   
 16  10  29  1   
 17  10  30  1   
 18  11  13  1   
 19  11  31  1   
 20  11  32  1   
 21  12  14  1   
 22  12  33  1   
 23  12  34  1   
 24  13  15  1   
 25  13  35  1   
 26  13  36  1   
 27  14  15  1   
 28  14  16  am  
 29  15  37  1   
 30  15  38  1   
 31  16  17  2   
 32  16  18  1   
 33  18  19  1   
 34  18  20  1   
 35  18  39  1   
 36  19  21  1   
 37  19  40  1   
 38  19  41  1   
 39  20  42  1   
 40  20  43  1   
 41  20  44  1   
 42  21  22  1   
 43  21  23  1   
 44  22  24  2   
 45  23  25  2   
 46  23  45  1   
 47  24  25  1   
 48  24  46  1   
@<TRIPOS>SUBSTRUCTURE
  1 ****  10 GROUP 4 **** **** 0

# MOE 2024.06 (io_trps.svl 2023.06)
