@<TRIPOS>MOLECULE
NONAME
53 56 1 0 0 
SMALL
USER_CHARGES


@<TRIPOS>ATOM
  1 O       -3.8930    -0.9860    -2.3160 O.2   1 <1>  -0.5700 
  2 C       -3.2480    -1.1010    -1.3000 C.2   1 <1>   0.5690 
  3 N       -3.3380    -0.1840    -0.2820 N.am  1 <1>  -0.6600 
  4 C       -2.3050    -2.2910    -1.1850 C.3   1 <1>  -0.0190 
  5 C       -2.6890    -0.4310     1.0470 C.3   1 <1>   0.2200 
  6 C       -4.0530     1.1130    -0.4440 C.3   1 <1>   0.0600 
  7 C       -0.8610    -1.8240    -0.9460 C.3   1 <1>   0.1200 
  8 C       -2.7710    -3.3410    -0.1600 C.3   1 <1>   0.2090 
  9 C       -1.1530    -0.3860     0.9170 C.3   1 <1>   0.1200 
 10 C       -3.1890    -1.7320     1.7420 C.3   1 <1>   0.2090 
 11 O       -0.6140    -1.5680     0.4030 O.3   1 <1>  -0.5600 
 12 N       -3.7540    -2.7790     0.8200 N.pl3 1 <1>  -0.8380 
 13 C       -5.0780    -3.0500     0.6920 C.ar  1 <1>   0.4100 
 14 N       -5.4240    -4.2850     0.3880 N.ar  1 <1>  -0.6200 
 15 C       -6.0400    -2.0330     0.8370 C.ar  1 <1>  -0.1500 
 16 C       -6.7080    -4.5480     0.2020 C.ar  1 <1>   0.7710 
 17 C       -7.3480    -2.3220     0.6410 C.ar  1 <1>   0.2180 
 18 N       -7.6530    -3.6010     0.3210 N.ar  1 <1>  -0.1790 
 19 N       -7.0860    -5.8100    -0.1180 N.pl3 1 <1>  -0.8380 
 20 C       -8.4670    -1.2940     0.7490 C.3   1 <1>  -0.0170 
 21 C       -8.4450    -6.3220    -0.4430 C.3   1 <1>   0.2090 
 22 C       -6.0900    -6.9140    -0.2210 C.3   1 <1>   0.2090 
 23 C       -9.1560    -1.0530    -0.6000 C.3   1 <1>  -0.2400 
 24 C       -8.2160    -7.7100    -1.0250 C.3   1 <1>  -0.1600 
 25 C       -6.9150    -8.1820    -0.3890 C.3   1 <1>  -0.1600 
 26 H       -2.3000    -2.7710    -2.1460 H     1 <1>   0.0800 
 27 H       -2.9500     0.3860     1.6960 H     1 <1>   0.0800 
 28 H       -4.8480     1.1870     0.2760 H     1 <1>   0.0800 
 29 H       -4.4740     1.1950    -1.4320 H     1 <1>   0.0800 
 30 H       -3.3650     1.9270    -0.2990 H     1 <1>   0.0800 
 31 H       -0.6310    -0.9450    -1.5250 H     1 <1>   0.0800 
 32 H       -0.1830    -2.6070    -1.2380 H     1 <1>   0.0800 
 33 H       -1.9300    -3.7520     0.3730 H     1 <1>   0.0800 
 34 H       -3.2230    -4.1540    -0.7010 H     1 <1>   0.0800 
 35 H       -0.7230    -0.2570     1.8940 H     1 <1>   0.0800 
 36 H       -0.8420     0.4420     0.3030 H     1 <1>   0.0800 
 37 H       -3.9390    -1.4630     2.4650 H     1 <1>   0.0800 
 38 H       -2.3800    -2.1670     2.3030 H     1 <1>   0.0800 
 39 H       -5.7110    -1.0420     1.0740 H     1 <1>   0.1500 
 40 H       -8.6000    -3.9040     0.1480 H     1 <1>   0.4570 
 41 H       -9.1910    -1.6180     1.4760 H     1 <1>   0.0800 
 42 H       -8.0590    -0.3600     1.0970 H     1 <1>   0.0800 
 43 H       -9.0250    -6.4010     0.4620 H     1 <1>   0.0800 
 44 H       -8.9500    -5.6930    -1.1570 H     1 <1>   0.0800 
 45 H       -5.4700    -6.7530    -1.0880 H     1 <1>   0.0800 
 46 H       -5.4680    -6.9650     0.6580 H     1 <1>   0.0800 
 47 H       -9.6450    -1.9410    -0.9600 H     1 <1>   0.0800 
 48 H       -8.4390    -0.7290    -1.3360 H     1 <1>   0.0800 
 49 H       -9.9000    -0.2810    -0.4970 H     1 <1>   0.0800 
 50 H       -9.0370    -8.3740    -0.8170 H     1 <1>   0.0800 
 51 H       -8.0930    -7.6300    -2.0910 H     1 <1>   0.0800 
 52 H       -6.4040    -8.9130    -0.9920 H     1 <1>   0.0800 
 53 H       -7.1090    -8.6050     0.5810 H     1 <1>   0.0800 
@<TRIPOS>BOND
  1   1   2  2   
  2   2   3  am  
  3   2   4  1   
  4   3   5  1   
  5   3   6  1   
  6   4   7  1   
  7   4   8  1   
  8   4  26  1   
  9   5   9  1   
 10   5  10  1   
 11   5  27  1   
 12   6  28  1   
 13   6  29  1   
 14   6  30  1   
 15   7  11  1   
 16   7  31  1   
 17   7  32  1   
 18   8  12  1   
 19   8  33  1   
 20   8  34  1   
 21   9  11  1   
 22   9  35  1   
 23   9  36  1   
 24  10  12  1   
 25  10  37  1   
 26  10  38  1   
 27  12  13  1   
 28  13  14  ar  
 29  13  15  ar  
 30  14  16  ar  
 31  15  17  ar  
 32  15  39  1   
 33  16  18  ar  
 34  16  19  1   
 35  17  18  ar  
 36  17  20  1   
 37  18  40  1   
 38  19  21  1   
 39  19  22  1   
 40  20  23  1   
 41  20  41  1   
 42  20  42  1   
 43  21  24  1   
 44  21  43  1   
 45  21  44  1   
 46  22  25  1   
 47  22  45  1   
 48  22  46  1   
 49  23  47  1   
 50  23  48  1   
 51  23  49  1   
 52  24  25  1   
 53  24  50  1   
 54  24  51  1   
 55  25  52  1   
 56  25  53  1   
@<TRIPOS>SUBSTRUCTURE
  1 ****  13 GROUP 4 **** **** 0

# MOE 2024.06 (io_trps.svl 2023.06)
