@<TRIPOS>MOLECULE
NONAME
32 33 1 0 0 
SMALL
USER_CHARGES


@<TRIPOS>ATOM
  1 S       -0.8940    -0.9650     1.5170 S.3   1 <1>  -0.2820 
  2 C       -1.1310     0.6890     0.9820 C.2   1 <1>   0.7320 
  3 C       -1.9190    -1.4920     0.2090 C.2   1 <1>   0.6510 
  4 S       -0.2940     1.9410     1.9420 S.3   1 <1>  -0.3710 
  5 N       -1.8750     0.8490    -0.0310 N.2   1 <1>  -0.5120 
  6 N       -2.2050    -2.7380    -0.0030 N.2   1 <1>  -0.6210 
  7 N       -2.3410    -0.3930    -0.4960 N.am  1 <1>  -0.0580 
  8 C       -0.7650     3.5220     1.1060 C.3   1 <1>  -0.0100 
  9 C       -3.0220    -2.9850    -1.0750 C.2   1 <1>   0.0330 
 10 C       -3.1840    -0.6240    -1.5720 C.2   1 <1>   0.6160 
 11 C       -3.5110    -1.9770    -1.8460 C.2   1 <1>  -0.1360 
 12 C       -3.3450    -4.4560    -1.3400 C.3   1 <1>   0.4810 
 13 O       -3.6370     0.2820    -2.2540 O.2   1 <1>  -0.5700 
 14 N       -3.6400    -5.1180    -0.0370 N.4   1 <1>  -0.9590 
 15 C       -3.3900    -6.5810    -0.0900 C.3   1 <1>   0.3430 
 16 C       -5.0000    -4.7610     0.4730 C.3   1 <1>   0.2630 
 17 C       -3.2700    -7.1320     1.3260 C.3   1 <1>  -0.2400 
 18 H       -0.2940     4.3290     1.6390 H     1 <1>   0.0800 
 19 H       -1.8360     3.6120     1.1410 H     1 <1>   0.0800 
 20 H       -0.4170     3.4780     0.0890 H     1 <1>   0.0800 
 21 H       -4.1550    -2.1370    -2.6920 H     1 <1>   0.1500 
 22 H       -2.4800    -4.9150    -1.7900 H     1 <1>   0.0800 
 23 H       -4.1780    -4.5520    -2.0170 H     1 <1>   0.0800 
 24 H       -2.9420    -4.6890     0.5980 H     1 <1>   0.4500 
 25 H       -2.4660    -6.7740    -0.6140 H     1 <1>   0.0800 
 26 H       -4.1880    -7.0800    -0.6160 H     1 <1>   0.0800 
 27 H       -5.7630    -5.1700    -0.1690 H     1 <1>   0.0800 
 28 H       -5.1150    -3.6900     0.5120 H     1 <1>   0.0800 
 29 H       -5.1420    -5.1510     1.4680 H     1 <1>   0.0800 
 30 H       -2.4940    -6.6240     1.8700 H     1 <1>   0.0800 
 31 H       -3.0110    -8.1750     1.2770 H     1 <1>   0.0800 
 32 H       -4.2000    -7.0540     1.8600 H     1 <1>   0.0800 
@<TRIPOS>BOND
  1   1   2  1   
  2   1   3  1   
  3   2   4  1   
  4   2   5  2   
  5   3   6  2   
  6   3   7  1   
  7   4   8  1   
  8   5   7  1   
  9   6   9  1   
 10   7  10  am  
 11   8  18  1   
 12   8  19  1   
 13   8  20  1   
 14   9  11  2   
 15   9  12  1   
 16  10  11  1   
 17  10  13  2   
 18  11  21  1   
 19  12  14  1   
 20  12  22  1   
 21  12  23  1   
 22  14  15  1   
 23  14  16  1   
 24  14  24  1   
 25  15  17  1   
 26  15  25  1   
 27  15  26  1   
 28  16  27  1   
 29  16  28  1   
 30  16  29  1   
 31  17  30  1   
 32  17  31  1   
 33  17  32  1   
@<TRIPOS>SUBSTRUCTURE
  1 ****   3 GROUP 4 **** **** 0

# MOE 2024.06 (io_trps.svl 2023.06)
