@<TRIPOS>MOLECULE
NONAME
45 47 1 0 0 
SMALL
USER_CHARGES


@<TRIPOS>ATOM
  1 S       -2.2390     0.9350     0.3650 S.3   1 <1>  -0.0800 
  2 C       -2.5090    -0.6510     1.0600 C.2   1 <1>  -0.1100 
  3 C       -2.4130     0.3010    -1.2600 C.2   1 <1>  -0.1100 
  4 C       -2.7260    -1.5680     0.0960 C.2   1 <1>  -0.1810 
  5 C       -2.6620    -1.0210    -1.2310 C.2   1 <1>  -0.1500 
  6 C       -3.0070    -3.0360     0.3350 C.3   1 <1>   0.5240 
  7 N       -4.4440    -3.1880     0.6850 N.4   1 <1>  -0.9590 
  8 C       -4.6650    -4.5430     1.3090 C.3   1 <1>   0.3430 
  9 C       -5.3210    -2.8840    -0.4930 C.3   1 <1>   0.3430 
 10 C       -6.1260    -4.8370     1.6850 C.3   1 <1>   0.1400 
 11 C       -6.7510    -2.5490    -0.0500 C.3   1 <1>  -0.1600 
 12 N       -6.9520    -4.9790     0.4530 N.am  1 <1>  -0.6600 
 13 C       -7.6840    -3.7660     0.0060 C.3   1 <1>   0.1400 
 14 C       -6.9630    -6.1870    -0.2030 C.2   1 <1>   0.5690 
 15 O       -6.0920    -6.9950     0.0220 O.2   1 <1>  -0.5700 
 16 C       -8.0210    -6.5540    -1.2390 C.3   1 <1>   0.0440 
 17 C       -9.4510    -6.2940    -0.7700 C.ar  1 <1>  -0.1430 
 18 C      -10.3280    -5.5570    -1.5530 C.ar  1 <1>  -0.1500 
 19 C       -9.8900    -6.7970     0.4500 C.ar  1 <1>  -0.1500 
 20 C      -11.6100    -5.3310    -1.0900 C.ar  1 <1>   0.1900 
 21 C      -11.1820    -6.5610     0.8960 C.ar  1 <1>  -0.1500 
 22 F      -12.4280    -4.6290    -1.8270 F     1 <1>  -0.1900 
 23 C      -12.0570    -5.8180     0.1230 C.ar  1 <1>  -0.1500 
 24 H       -2.4720    -0.7120     2.1350 H     1 <1>   0.1500 
 25 H       -2.3010     0.9970    -2.0740 H     1 <1>   0.1500 
 26 H       -2.7940    -1.6310    -2.1090 H     1 <1>   0.1500 
 27 H       -2.3940    -3.3770     1.1540 H     1 <1>   0.0800 
 28 H       -2.7620    -3.6160    -0.5400 H     1 <1>   0.0800 
 29 H       -4.6340    -2.4630     1.3870 H     1 <1>   0.4500 
 30 H       -4.0660    -4.6240     2.2010 H     1 <1>   0.0800 
 31 H       -4.3410    -5.3160     0.6300 H     1 <1>   0.0800 
 32 H       -5.3290    -3.7140    -1.1820 H     1 <1>   0.0800 
 33 H       -4.9310    -2.0240    -1.0110 H     1 <1>   0.0800 
 34 H       -6.5220    -4.0700     2.3270 H     1 <1>   0.0800 
 35 H       -6.1600    -5.7640     2.2320 H     1 <1>   0.0800 
 36 H       -7.1720    -1.8630    -0.7640 H     1 <1>   0.0800 
 37 H       -6.7460    -2.0360     0.8950 H     1 <1>   0.0800 
 38 H       -8.0890    -3.9300    -0.9770 H     1 <1>   0.0800 
 39 H       -8.5110    -3.5770     0.6720 H     1 <1>   0.0800 
 40 H       -7.9270    -7.6010    -1.4670 H     1 <1>   0.0800 
 41 H       -7.8160    -6.0120    -2.1430 H     1 <1>   0.0800 
 42 H      -10.0390    -5.1610    -2.5100 H     1 <1>   0.1500 
 43 H       -9.2240    -7.3810     1.0640 H     1 <1>   0.1500 
 44 H      -11.5050    -6.9570     1.8440 H     1 <1>   0.1500 
 45 H      -13.0630    -5.6220     0.4470 H     1 <1>   0.1500 
@<TRIPOS>BOND
  1   1   2  1   
  2   1   3  1   
  3   2   4  2   
  4   2  24  1   
  5   3   5  2   
  6   3  25  1   
  7   4   5  1   
  8   4   6  1   
  9   5  26  1   
 10   6   7  1   
 11   6  27  1   
 12   6  28  1   
 13   7   8  1   
 14   7   9  1   
 15   7  29  1   
 16   8  10  1   
 17   8  30  1   
 18   8  31  1   
 19   9  11  1   
 20   9  32  1   
 21   9  33  1   
 22  10  12  1   
 23  10  34  1   
 24  10  35  1   
 25  11  13  1   
 26  11  36  1   
 27  11  37  1   
 28  12  13  1   
 29  12  14  am  
 30  13  38  1   
 31  13  39  1   
 32  14  15  2   
 33  14  16  1   
 34  16  17  1   
 35  16  40  1   
 36  16  41  1   
 37  17  18  ar  
 38  17  19  ar  
 39  18  20  ar  
 40  18  42  1   
 41  19  21  ar  
 42  19  43  1   
 43  20  22  1   
 44  20  23  ar  
 45  21  23  ar  
 46  21  44  1   
 47  23  45  1   
@<TRIPOS>SUBSTRUCTURE
  1 ****  13 GROUP 4 **** **** 0

# MOE 2024.06 (io_trps.svl 2023.06)
