@<TRIPOS>MOLECULE
NONAME
51 53 1 0 0 
SMALL
USER_CHARGES


@<TRIPOS>ATOM
  1 S        2.2230     1.4990     0.7030 S.o2  1 <1>   1.3330 
  2 O        2.8580     1.6870     1.9910 O.2   1 <1>  -0.6500 
  3 O        0.8500     1.0500     0.6470 O.2   1 <1>  -0.6500 
  4 N        3.1650     0.3820    -0.1640 N.am  1 <1>  -0.8490 
  5 C        2.3440     3.0160    -0.2420 C.3   1 <1>  -0.0550 
  6 C        2.8170    -1.0010     0.1710 C.3   1 <1>   0.1160 
  7 C        4.6080     0.5860     0.0010 C.3   1 <1>   0.1160 
  8 C        1.7820     2.9720    -1.6810 C.3   1 <1>  -0.0800 
  9 C        1.6740     4.3410    -2.3520 C.3   1 <1>   0.2200 
 10 C        2.6460     2.1670    -2.6640 C.3   1 <1>   0.1200 
 11 N        2.7890     5.2140    -1.9170 N.am  1 <1>  -0.7300 
 12 C        1.8560     3.9750    -3.8170 C.3   1 <1>   0.1200 
 13 O        2.7870     2.9410    -3.8180 O.3   1 <1>  -0.5600 
 14 C        2.6540     6.2580    -1.0590 C.2   1 <1>   0.5690 
 15 O        1.5790     6.7610    -0.8350 O.2   1 <1>  -0.5700 
 16 C        3.8810     6.7540    -0.3150 C.3   1 <1>   0.0820 
 17 C        4.4800     5.6240     0.5120 C.2   1 <1>  -0.1810 
 18 C        5.5880     4.8380     0.1190 C.ar  1 <1>   0.0000 
 19 C        4.0410     5.1500     1.7050 C.2   1 <1>  -0.3320 
 20 C        5.7810     3.9010     1.1300 C.ar  1 <1>  -0.1520 
 21 C        6.4290     4.8200    -1.0000 C.ar  1 <1>  -0.1500 
 22 N        4.8250     4.1000     2.0920 N.pl3 1 <1>   0.0330 
 23 C        2.8630     5.5990     2.5520 C.3   1 <1>  -0.0600 
 24 C        6.8090     2.9590     1.0560 C.ar  1 <1>  -0.1500 
 25 C        7.4340     3.8840    -1.0790 C.ar  1 <1>  -0.1500 
 26 C        7.6270     2.9540    -0.0490 C.ar  1 <1>  -0.1500 
 27 H        1.8180     3.7810     0.2970 H     1 <1>   0.0800 
 28 H        3.3720     3.3050    -0.2810 H     1 <1>   0.0800 
 29 H        3.4110    -1.6860    -0.4080 H     1 <1>   0.0800 
 30 H        1.7790    -1.1850    -0.0530 H     1 <1>   0.0800 
 31 H        2.9810    -1.1850     1.2200 H     1 <1>   0.0800 
 32 H        5.1530    -0.1110    -0.6110 H     1 <1>   0.0800 
 33 H        4.8960     0.4480     1.0310 H     1 <1>   0.0800 
 34 H        4.8800     1.5810    -0.3040 H     1 <1>   0.0800 
 35 H        0.8020     2.5280    -1.6600 H     1 <1>   0.0800 
 36 H        0.7250     4.8180    -2.1700 H     1 <1>   0.0800 
 37 H        2.1790     1.2330    -2.9270 H     1 <1>   0.0800 
 38 H        3.6340     1.9820    -2.2830 H     1 <1>   0.0800 
 39 H        3.7140     4.8050    -2.0710 H     1 <1>   0.3700 
 40 H        2.2210     4.7960    -4.4080 H     1 <1>   0.0800 
 41 H        0.9390     3.5970    -4.2340 H     1 <1>   0.0800 
 42 H        4.5980     7.1330    -1.0170 H     1 <1>   0.0800 
 43 H        3.5950     7.5600     0.3340 H     1 <1>   0.0800 
 44 H        6.2850     5.5390    -1.7850 H     1 <1>   0.1500 
 45 H        4.6670     3.4960     2.9070 H     1 <1>   0.2700 
 46 H        2.3070     6.3740     2.0560 H     1 <1>   0.0800 
 47 H        3.2120     5.9790     3.4960 H     1 <1>   0.0800 
 48 H        2.2010     4.7710     2.7350 H     1 <1>   0.0800 
 49 H        6.9490     2.2550     1.8580 H     1 <1>   0.1500 
 50 H        8.0880     3.8600    -1.9330 H     1 <1>   0.1500 
 51 H        8.4270     2.2400    -0.1320 H     1 <1>   0.1500 
@<TRIPOS>BOND
  1   1   2  2   
  2   1   3  2   
  3   1   4  am  
  4   1   5  1   
  5   4   6  1   
  6   4   7  1   
  7   5   8  1   
  8   5  27  1   
  9   5  28  1   
 10   6  29  1   
 11   6  30  1   
 12   6  31  1   
 13   7  32  1   
 14   7  33  1   
 15   7  34  1   
 16   8   9  1   
 17   8  10  1   
 18   8  35  1   
 19   9  11  1   
 20   9  12  1   
 21   9  36  1   
 22  10  13  1   
 23  10  37  1   
 24  10  38  1   
 25  11  14  am  
 26  11  39  1   
 27  12  13  1   
 28  12  40  1   
 29  12  41  1   
 30  14  15  2   
 31  14  16  1   
 32  16  17  1   
 33  16  42  1   
 34  16  43  1   
 35  17  18  1   
 36  17  19  2   
 37  18  20  ar  
 38  18  21  ar  
 39  19  22  1   
 40  19  23  1   
 41  20  22  1   
 42  20  24  ar  
 43  21  25  ar  
 44  21  44  1   
 45  22  45  1   
 46  23  46  1   
 47  23  47  1   
 48  23  48  1   
 49  24  26  ar  
 50  24  49  1   
 51  25  26  ar  
 52  25  50  1   
 53  26  51  1   
@<TRIPOS>SUBSTRUCTURE
  1 ****   5 GROUP 4 **** **** 0

# MOE 2024.06 (io_trps.svl 2023.06)
