@<TRIPOS>MOLECULE
NONAME
31 32 1 0 0 
SMALL
USER_CHARGES


@<TRIPOS>ATOM
  1 N       -1.1940     0.2740    -1.4610 N.4   1 <1>  -0.8530 
  2 C       -1.0350     0.7890    -0.1060 C.3   1 <1>   0.5660 
  3 C       -1.1010     2.3050    -0.2110 C.ar  1 <1>  -0.1430 
  4 C       -2.1160     0.1900     0.7870 C.3   1 <1>  -0.2400 
  5 C        0.0260     3.0920     0.0400 C.ar  1 <1>  -0.1430 
  6 C       -2.2930     2.9120    -0.5930 C.ar  1 <1>  -0.1500 
  7 C       -0.0570     4.4740    -0.1290 C.ar  1 <1>  -0.1430 
  8 C        1.3510     2.4560     0.4840 C.3   1 <1>  -0.0170 
  9 C       -2.3680     4.2810    -0.7450 C.ar  1 <1>  -0.1500 
 10 C       -1.2510     5.0560    -0.5170 C.ar  1 <1>  -0.1500 
 11 C        1.1230     5.4110     0.1120 C.3   1 <1>  -0.0170 
 12 C        2.3740     3.4560     1.0320 C.3   1 <1>  -0.1600 
 13 C        2.4660     4.6800     0.1230 C.3   1 <1>  -0.1600 
 14 H       -1.0880    -0.7410    -1.4990 H     1 <1>   0.4500 
 15 H       -0.4990     0.7300    -2.0600 H     1 <1>   0.4500 
 16 H       -2.1170     0.5450    -1.8090 H     1 <1>   0.4500 
 17 H       -0.0730     0.4910     0.2760 H     1 <1>   0.0800 
 18 H       -3.1050     0.3830     0.4130 H     1 <1>   0.0800 
 19 H       -2.0420     0.6300     1.7670 H     1 <1>   0.0800 
 20 H       -1.9760    -0.8700     0.8920 H     1 <1>   0.0800 
 21 H       -3.1890     2.3460    -0.7770 H     1 <1>   0.1500 
 22 H        1.1760     1.7300     1.2580 H     1 <1>   0.0800 
 23 H        1.7910     1.9550    -0.3600 H     1 <1>   0.0800 
 24 H       -3.2930     4.7500    -1.0380 H     1 <1>   0.1500 
 25 H       -1.3170     6.1240    -0.6390 H     1 <1>   0.1500 
 26 H        1.1470     6.1730    -0.6470 H     1 <1>   0.0800 
 27 H        0.9790     5.8980     1.0610 H     1 <1>   0.0800 
 28 H        2.0770     3.7690     2.0190 H     1 <1>   0.0800 
 29 H        3.3380     2.9840     1.1110 H     1 <1>   0.0800 
 30 H        2.7200     4.3750    -0.8770 H     1 <1>   0.0800 
 31 H        3.2350     5.3450     0.4770 H     1 <1>   0.0800 
@<TRIPOS>BOND
  1   1   2  1   
  2   1  14  1   
  3   1  15  1   
  4   1  16  1   
  5   2   3  1   
  6   2   4  1   
  7   2  17  1   
  8   3   5  ar  
  9   3   6  ar  
 10   4  18  1   
 11   4  19  1   
 12   4  20  1   
 13   5   7  ar  
 14   5   8  1   
 15   6   9  ar  
 16   6  21  1   
 17   7  10  ar  
 18   7  11  1   
 19   8  12  1   
 20   8  22  1   
 21   8  23  1   
 22   9  10  ar  
 23   9  24  1   
 24  10  25  1   
 25  11  13  1   
 26  11  26  1   
 27  11  27  1   
 28  12  13  1   
 29  12  28  1   
 30  12  29  1   
 31  13  30  1   
 32  13  31  1   
@<TRIPOS>SUBSTRUCTURE
  1 ****   5 GROUP 4 **** **** 0

# MOE 2024.06 (io_trps.svl 2023.06)
