@<TRIPOS>MOLECULE
NONAME
39 42 1 0 0 
SMALL
USER_CHARGES


@<TRIPOS>ATOM
  1 O        0.2470    -0.0630     1.3100 O.2   1 <1>  -0.5700 
  2 C        1.2250    -0.5580     0.7830 C.2   1 <1>   0.5440 
  3 N        2.2930     0.2250     0.4470 N.am  1 <1>  -0.4930 
  4 C        1.2730    -1.9740     0.5150 C.ar  1 <1>   0.0860 
  5 C        2.5240     1.6010     0.7130 C.2   1 <1>   0.0630 
  6 C        0.2430    -2.6650    -0.1380 C.ar  1 <1>   0.0000 
  7 C        2.3540    -2.7580     0.8840 C.ar  1 <1>  -0.1500 
  8 C        3.5530     2.3250     0.2100 C.2   1 <1>  -0.0680 
  9 C        1.8250     2.4880     1.5370 C.2   1 <1>   0.1390 
 10 C        0.3960    -4.0120    -0.3570 C.ar  1 <1>   0.3970 
 11 C       -1.0160    -2.4090    -0.7160 C.2   1 <1>   0.1080 
 12 C        2.3900    -4.1260     0.6050 C.ar  1 <1>   0.1670 
 13 N        3.4420     3.5620     0.7630 N.pl3 1 <1>   0.3140 
 14 N        4.5750     1.9570    -0.7000 N.pl3 1 <1>  -0.8530 
 15 N        2.3660     3.6720     1.5750 N.2   1 <1>  -0.7070 
 16 O       -0.6780    -4.4460    -0.9920 O.3   1 <1>  -0.0190 
 17 N        1.4340    -4.7760    -0.0140 N.ar  1 <1>  -0.5670 
 18 N       -1.5300    -3.4720    -1.2100 N.2   1 <1>  -0.4100 
 19 C       -1.7110    -1.0640    -0.7720 C.3   1 <1>  -0.0590 
 20 C        3.5890    -4.9510     1.0270 C.3   1 <1>  -0.0970 
 21 C        4.3820     4.6590     0.4850 C.3   1 <1>   0.0960 
 22 C        5.4510     3.0590    -1.1900 C.3   1 <1>   0.2090 
 23 C        5.6980     4.0930    -0.0800 C.3   1 <1>  -0.1600 
 24 H        3.0810    -0.2180    -0.0220 H     1 <1>   0.3700 
 25 H        3.1810    -2.3080     1.4050 H     1 <1>   0.1500 
 26 H        0.9380     2.2230     2.0870 H     1 <1>   0.1500 
 27 H        4.2180     1.4040    -1.4880 H     1 <1>   0.4000 
 28 H       -1.0410    -0.3110    -1.1430 H     1 <1>   0.0800 
 29 H       -2.0440    -0.7840     0.2120 H     1 <1>   0.0800 
 30 H       -2.5660    -1.1150    -1.4210 H     1 <1>   0.0800 
 31 H        4.3310    -4.3460     1.5160 H     1 <1>   0.0800 
 32 H        4.0320    -5.4110     0.1630 H     1 <1>   0.0800 
 33 H        3.2730    -5.7250     1.7030 H     1 <1>   0.0800 
 34 H        4.5580     5.2000     1.3960 H     1 <1>   0.0800 
 35 H        3.9180     5.3150    -0.2270 H     1 <1>   0.0800 
 36 H        4.9810     3.5360    -2.0340 H     1 <1>   0.0800 
 37 H        6.3910     2.6450    -1.5130 H     1 <1>   0.0800 
 38 H        6.2520     3.6230     0.7140 H     1 <1>   0.0800 
 39 H        6.2990     4.8980    -0.4620 H     1 <1>   0.0800 
@<TRIPOS>BOND
  1   1   2  2   
  2   2   3  am  
  3   2   4  1   
  4   3   5  1   
  5   3  24  1   
  6   4   6  ar  
  7   4   7  ar  
  8   5   8  2   
  9   5   9  1   
 10   6  10  ar  
 11   6  11  1   
 12   7  12  ar  
 13   7  25  1   
 14   8  13  1   
 15   8  14  1   
 16   9  15  2   
 17   9  26  1   
 18  10  16  1   
 19  10  17  ar  
 20  11  18  2   
 21  11  19  1   
 22  12  17  ar  
 23  12  20  1   
 24  13  15  1   
 25  13  21  1   
 26  14  22  1   
 27  14  27  1   
 28  16  18  1   
 29  19  28  1   
 30  19  29  1   
 31  19  30  1   
 32  20  31  1   
 33  20  32  1   
 34  20  33  1   
 35  21  23  1   
 36  21  34  1   
 37  21  35  1   
 38  22  23  1   
 39  22  36  1   
 40  22  37  1   
 41  23  38  1   
 42  23  39  1   
@<TRIPOS>SUBSTRUCTURE
  1 ****   3 GROUP 4 **** **** 0

# MOE 2024.06 (io_trps.svl 2023.06)
