@<TRIPOS>MOLECULE
NONAME
54 58 1 0 0 
SMALL
USER_CHARGES


@<TRIPOS>ATOM
  1 O       -0.7520     0.3760     1.2400 O.2   1 <1>  -0.5700 
  2 C       -1.7860     0.8590     0.8160 C.2   1 <1>   0.6160 
  3 N       -2.9320     0.0890     0.8570 N.am  1 <1>  -0.6600 
  4 C       -1.7680     2.2160     0.3510 C.2   1 <1>   0.0290 
  5 C       -2.8840    -1.3920     1.0730 C.3   1 <1>   0.1400 
  6 C       -4.2990     0.5600     0.4700 C.3   1 <1>   0.1400 
  7 C       -2.0970     2.4840    -1.0140 C.2   1 <1>   0.6160 
  8 C       -1.4200     3.2680     1.1620 C.2   1 <1>  -0.1500 
  9 C       -3.5340    -2.1440    -0.1060 C.3   1 <1>   0.3440 
 10 C       -4.8570    -0.2900    -0.6890 C.3   1 <1>   0.2950 
 11 O       -2.4330     1.6360    -1.8280 O.2   1 <1>  -0.5700 
 12 N       -2.0630     3.7800    -1.4500 N.am  1 <1>  -0.5390 
 13 C       -1.4060     4.5920     0.6700 C.2   1 <1>  -0.1380 
 14 O       -4.8250    -1.6450    -0.3480 O.3   1 <1>  -0.5600 
 15 C       -3.6090    -3.6390     0.1880 C.ar  1 <1>  -0.1430 
 16 C       -6.3100     0.0770    -1.0030 C.3   1 <1>  -0.1950 
 17 C       -1.7230     4.8280    -0.6370 C.2   1 <1>  -0.0290 
 18 C       -1.0210     5.7130     1.6270 C.3   1 <1>  -0.0220 
 19 C       -4.6930    -4.1930     0.8570 C.ar  1 <1>  -0.1500 
 20 C       -2.5680    -4.4680    -0.2060 C.ar  1 <1>  -0.1500 
 21 C       -6.9100    -0.2110    -2.3430 C.3   1 <1>  -0.2000 
 22 C       -6.6290     1.2070    -1.9310 C.3   1 <1>  -0.2000 
 23 C       -1.7290     6.2180    -1.2590 C.3   1 <1>  -0.0220 
 24 C       -1.4250     7.0940     1.0920 C.3   1 <1>  -0.1600 
 25 C       -4.7340    -5.5490     1.1290 C.ar  1 <1>  -0.1500 
 26 C       -2.6080    -5.8250     0.0650 C.ar  1 <1>  -0.1500 
 27 C       -1.0140     7.2500    -0.3760 C.3   1 <1>  -0.1600 
 28 C       -3.6910    -6.3670     0.7330 C.ar  1 <1>  -0.1500 
 29 H       -1.8690    -1.7310     1.1810 H     1 <1>   0.0800 
 30 H       -3.4080    -1.6370     1.9790 H     1 <1>   0.0800 
 31 H       -4.9540     0.4660     1.3170 H     1 <1>   0.0800 
 32 H       -4.2900     1.5940     0.1800 H     1 <1>   0.0800 
 33 H       -1.1470     3.0890     2.1880 H     1 <1>   0.1500 
 34 H       -2.9490    -1.9880    -0.9960 H     1 <1>   0.0800 
 35 H       -4.2550    -0.1500    -1.5710 H     1 <1>   0.0800 
 36 H       -2.2950     3.9060    -2.4350 H     1 <1>   0.3700 
 37 H       -6.9500    -0.0490    -0.1460 H     1 <1>   0.1000 
 38 H       -1.4900     5.5570     2.5830 H     1 <1>   0.0800 
 39 H        0.0450     5.6850     1.7720 H     1 <1>   0.0800 
 40 H       -5.5110    -3.5650     1.1650 H     1 <1>   0.1500 
 41 H       -1.7180    -4.0610    -0.7260 H     1 <1>   0.1500 
 42 H       -6.2910    -0.6720    -3.0930 H     1 <1>   0.1000 
 43 H       -7.9290    -0.5550    -2.3820 H     1 <1>   0.1000 
 44 H       -7.4610     1.8510    -1.7010 H     1 <1>   0.1000 
 45 H       -5.8260     1.7300    -2.4240 H     1 <1>   0.1000 
 46 H       -1.2490     6.1890    -2.2210 H     1 <1>   0.0800 
 47 H       -2.7520     6.5200    -1.4040 H     1 <1>   0.0800 
 48 H       -2.4920     7.2110     1.1780 H     1 <1>   0.0800 
 49 H       -0.9590     7.8600     1.6880 H     1 <1>   0.0800 
 50 H       -5.5800    -5.9670     1.6460 H     1 <1>   0.1500 
 51 H       -1.7960    -6.4590    -0.2450 H     1 <1>   0.1500 
 52 H        0.0500     7.1120    -0.4610 H     1 <1>   0.0800 
 53 H       -1.2480     8.2430    -0.7210 H     1 <1>   0.0800 
 54 H       -3.7230    -7.4210     0.9440 H     1 <1>   0.1500 
@<TRIPOS>BOND
  1   1   2  2   
  2   2   3  am  
  3   2   4  1   
  4   3   5  1   
  5   3   6  1   
  6   4   7  1   
  7   4   8  2   
  8   5   9  1   
  9   5  29  1   
 10   5  30  1   
 11   6  10  1   
 12   6  31  1   
 13   6  32  1   
 14   7  11  2   
 15   7  12  am  
 16   8  13  1   
 17   8  33  1   
 18   9  14  1   
 19   9  15  1   
 20   9  34  1   
 21  10  14  1   
 22  10  16  1   
 23  10  35  1   
 24  12  17  1   
 25  12  36  1   
 26  13  17  2   
 27  13  18  1   
 28  15  19  ar  
 29  15  20  ar  
 30  16  21  1   
 31  16  22  1   
 32  16  37  1   
 33  17  23  1   
 34  18  24  1   
 35  18  38  1   
 36  18  39  1   
 37  19  25  ar  
 38  19  40  1   
 39  20  26  ar  
 40  20  41  1   
 41  21  22  1   
 42  21  42  1   
 43  21  43  1   
 44  22  44  1   
 45  22  45  1   
 46  23  27  1   
 47  23  46  1   
 48  23  47  1   
 49  24  27  1   
 50  24  48  1   
 51  24  49  1   
 52  25  28  ar  
 53  25  50  1   
 54  26  28  ar  
 55  26  51  1   
 56  27  52  1   
 57  27  53  1   
 58  28  54  1   
@<TRIPOS>SUBSTRUCTURE
  1 ****   3 GROUP 4 **** **** 0

# MOE 2024.06 (io_trps.svl 2023.06)
