@<TRIPOS>MOLECULE
NONAME
37 38 1 0 0 
SMALL
USER_CHARGES


@<TRIPOS>ATOM
  1 S       -0.6540     1.6320    -0.7720 S.3   1 <1>  -0.0800 
  2 C        1.0480     1.5540    -1.1870 C.2   1 <1>  -0.1100 
  3 C       -0.3060     2.6150     0.6360 C.2   1 <1>  -0.1100 
  4 C        1.8000     2.2360    -0.2980 C.2   1 <1>  -0.1810 
  5 C        1.0160     2.8420     0.7430 C.2   1 <1>  -0.1500 
  6 C        3.3110     2.4050    -0.3090 C.3   1 <1>   0.4700 
  7 N        3.5830     3.8350    -0.4670 N.pl3 1 <1>  -0.8690 
  8 C        3.9890     1.6690    -1.4600 C.3   1 <1>  -0.2400 
  9 C        4.5280     4.6560    -0.0130 C.ar  1 <1>   0.7710 
 10 N        4.3490     5.9310    -0.2700 N.ar  1 <1>  -0.6200 
 11 N        5.5930     4.1890     0.6610 N.ar  1 <1>  -0.1790 
 12 C        5.2660     6.7850     0.1460 C.ar  1 <1>   0.4100 
 13 C        6.5370     5.0360     1.1380 C.ar  1 <1>   0.2110 
 14 N        5.0650     8.0860    -0.1850 N.pl3 1 <1>  -0.8380 
 15 C        6.3930     6.3640     0.8990 C.ar  1 <1>  -0.1430 
 16 C        3.7020     8.6930    -0.1520 C.3   1 <1>   0.1290 
 17 C        6.0570     8.8830    -0.9590 C.3   1 <1>   0.1290 
 18 C        7.4030     7.3600     1.4660 C.3   1 <1>  -0.0970 
 19 H        1.2990     0.9940    -2.0710 H     1 <1>   0.1500 
 20 H       -1.1410     2.9230     1.2410 H     1 <1>   0.1500 
 21 H        1.4710     3.4230     1.5260 H     1 <1>   0.1500 
 22 H        3.7020     2.0490     0.6300 H     1 <1>   0.0800 
 23 H        2.8230     4.3040    -0.9730 H     1 <1>   0.4000 
 24 H        3.6110     2.0210    -2.4040 H     1 <1>   0.0800 
 25 H        3.7880     0.6160    -1.3850 H     1 <1>   0.0800 
 26 H        5.0530     1.8110    -1.4340 H     1 <1>   0.0800 
 27 H        5.6510     3.1870     0.7890 H     1 <1>   0.4570 
 28 H        7.3650     4.6310     1.6980 H     1 <1>   0.1500 
 29 H        3.0530     8.1230     0.4890 H     1 <1>   0.0800 
 30 H        3.2840     8.7070    -1.1440 H     1 <1>   0.0800 
 31 H        3.7570     9.7000     0.2250 H     1 <1>   0.0800 
 32 H        6.8910     8.2690    -1.2490 H     1 <1>   0.0800 
 33 H        6.4100     9.7060    -0.3620 H     1 <1>   0.0800 
 34 H        5.5990     9.2710    -1.8530 H     1 <1>   0.0800 
 35 H        6.8890     8.2020     1.8970 H     1 <1>   0.0800 
 36 H        8.0570     7.7170     0.6910 H     1 <1>   0.0800 
 37 H        8.0070     6.9120     2.2350 H     1 <1>   0.0800 
@<TRIPOS>BOND
  1   1   2  1   
  2   1   3  1   
  3   2   4  2   
  4   2  19  1   
  5   3   5  2   
  6   3  20  1   
  7   4   5  1   
  8   4   6  1   
  9   5  21  1   
 10   6   7  1   
 11   6   8  1   
 12   6  22  1   
 13   7   9  1   
 14   7  23  1   
 15   8  24  1   
 16   8  25  1   
 17   8  26  1   
 18   9  10  ar  
 19   9  11  ar  
 20  10  12  ar  
 21  11  13  ar  
 22  11  27  1   
 23  12  14  1   
 24  12  15  ar  
 25  13  15  ar  
 26  13  28  1   
 27  14  16  1   
 28  14  17  1   
 29  15  18  1   
 30  16  29  1   
 31  16  30  1   
 32  16  31  1   
 33  17  32  1   
 34  17  33  1   
 35  17  34  1   
 36  18  35  1   
 37  18  36  1   
 38  18  37  1   
@<TRIPOS>SUBSTRUCTURE
  1 ****   9 GROUP 4 **** **** 0

# MOE 2024.06 (io_trps.svl 2023.06)
