@<TRIPOS>MOLECULE
NONAME
26 25 1 0 0 
SMALL
USER_CHARGES


@<TRIPOS>ATOM
  1 O        0.6760     0.9480    -1.3610 O.co2 1 <1>  -0.9000 
  2 C       -0.2720     1.7090    -1.0890 C.2   1 <1>   0.9060 
  3 O       -1.2720     1.7750    -1.8200 O.co2 1 <1>  -0.9000 
  4 C       -0.1650     2.5180     0.2500 C.3   1 <1>   0.1740 
  5 O        0.6030     1.7420     1.1220 O.3   1 <1>  -0.6800 
  6 C        0.6530     3.8330     0.1020 C.3   1 <1>  -0.1600 
  7 C       -1.5120     2.6800     0.9680 C.3   1 <1>  -0.2400 
  8 C        0.0710     5.1200    -0.5510 C.3   1 <1>   0.0000 
  9 C       -0.6560     4.8410    -1.8720 C.3   1 <1>  -0.2400 
 10 C        1.2500     6.0590    -0.8550 C.3   1 <1>  -0.2400 
 11 C       -0.8750     5.8750     0.3980 C.3   1 <1>  -0.2400 
 12 H        1.0410     1.0900     0.5150 H     1 <1>   0.4000 
 13 H        1.5250     3.5560    -0.4650 H     1 <1>   0.0800 
 14 H        1.0020     4.1090     1.0810 H     1 <1>   0.0800 
 15 H       -1.9110     1.7110     1.2070 H     1 <1>   0.0800 
 16 H       -2.2150     3.1630     0.3160 H     1 <1>   0.0800 
 17 H       -1.3960     3.2560     1.8670 H     1 <1>   0.0800 
 18 H       -0.0340     4.2590    -2.5300 H     1 <1>   0.0800 
 19 H       -0.9180     5.7570    -2.3690 H     1 <1>   0.0800 
 20 H       -1.5630     4.2900    -1.7000 H     1 <1>   0.0800 
 21 H        1.9270     5.5970    -1.5520 H     1 <1>   0.0800 
 22 H        1.7930     6.2850     0.0460 H     1 <1>   0.0800 
 23 H        0.9050     6.9810    -1.2860 H     1 <1>   0.0800 
 24 H       -1.7840     5.3320     0.5600 H     1 <1>   0.0800 
 25 H       -1.1410     6.8300    -0.0190 H     1 <1>   0.0800 
 26 H       -0.4020     6.0400     1.3500 H     1 <1>   0.0800 
@<TRIPOS>BOND
  1   1   2  ar  
  2   2   3  ar  
  3   2   4  1   
  4   4   5  1   
  5   4   6  1   
  6   4   7  1   
  7   5  12  1   
  8   6   8  1   
  9   6  13  1   
 10   6  14  1   
 11   7  15  1   
 12   7  16  1   
 13   7  17  1   
 14   8   9  1   
 15   8  10  1   
 16   8  11  1   
 17   9  18  1   
 18   9  19  1   
 19   9  20  1   
 20  10  21  1   
 21  10  22  1   
 22  10  23  1   
 23  11  24  1   
 24  11  25  1   
 25  11  26  1   
@<TRIPOS>SUBSTRUCTURE
  1 ****   6 GROUP 4 **** **** 0

# MOE 2024.06 (io_trps.svl 2023.06)
