@<TRIPOS>MOLECULE
NONAME
52 55 1 0 0 
SMALL
USER_CHARGES


@<TRIPOS>ATOM
  1 O       -0.2550     0.8180     0.3320 O.2   1 <1>  -0.5700 
  2 C       -1.2960     1.2070    -0.1410 C.2   1 <1>   0.5690 
  3 N       -2.3720     0.3730    -0.2550 N.am  1 <1>  -0.6600 
  4 C       -1.4120     2.6520    -0.6120 C.3   1 <1>  -0.0990 
  5 C       -3.7320     0.7170    -0.7430 C.3   1 <1>   0.1400 
  6 C       -2.3350    -1.0330     0.2180 C.3   1 <1>   0.1400 
  7 C       -0.0940     3.4470    -0.5340 C.3   1 <1>  -0.1600 
  8 C       -4.6320    -0.3410    -0.1080 C.3   1 <1>   0.2000 
  9 C       -3.7410    -1.5870    -0.0520 C.3   1 <1>  -0.0800 
 10 C       -0.2680     4.8980    -1.0050 C.3   1 <1>   0.0200 
 11 O       -4.9330     0.0740     1.1800 O.3   1 <1>  -0.6800 
 12 C       -4.1930    -2.6630     0.9540 C.3   1 <1>   0.0200 
 13 C        1.0260     5.6800    -0.8800 C.2   1 <1>   0.2980 
 14 C       -3.3720    -3.9400     0.8740 C.2   1 <1>  -0.0400 
 15 O        2.0150     5.3970    -1.6870 O.3   1 <1>  -0.0190 
 16 N        1.2490     6.6100    -0.0480 N.2   1 <1>  -0.5650 
 17 O       -3.5870    -4.8760     1.7600 O.3   1 <1>  -0.0190 
 18 C       -2.4070    -4.3750     0.0480 C.2   1 <1>  -0.1500 
 19 N        2.9520     6.2190    -1.3360 N.2   1 <1>  -0.4100 
 20 C        2.5060     6.9350    -0.3660 C.2   1 <1>   0.4620 
 21 N       -2.8170    -5.9100     1.5740 N.2   1 <1>  -0.4100 
 22 C       -2.0950    -5.6350     0.5490 C.2   1 <1>   0.1080 
 23 C        3.2430     7.9760     0.3230 C.ar  1 <1>   0.0540 
 24 C       -1.0490    -6.5640    -0.0270 C.3   1 <1>  -0.0590 
 25 C        2.6800     8.6870     1.3850 C.ar  1 <1>   0.1600 
 26 C        4.5410     8.3170    -0.0370 C.ar  1 <1>  -0.1500 
 27 N        3.2690     9.6510     2.0770 N.ar  1 <1>  -0.6200 
 28 C        5.1730     9.3180     0.6680 C.ar  1 <1>  -0.1500 
 29 C        4.5020     9.9460     1.7030 C.ar  1 <1>   0.1600 
 30 H       -1.7590     2.6460    -1.6280 H     1 <1>   0.0800 
 31 H       -2.1500     3.1400    -0.0020 H     1 <1>   0.0800 
 32 H       -4.0320     1.7110    -0.4600 H     1 <1>   0.0800 
 33 H       -3.7530     0.6210    -1.8150 H     1 <1>   0.0800 
 34 H       -1.5770    -1.5860    -0.3100 H     1 <1>   0.0800 
 35 H       -2.1090    -1.0430     1.2710 H     1 <1>   0.0800 
 36 H        0.2600     3.4470     0.4840 H     1 <1>   0.0800 
 37 H        0.6530     2.9580    -1.1380 H     1 <1>   0.0800 
 38 H       -5.5530    -0.4940    -0.6450 H     1 <1>   0.0800 
 39 H       -3.7360    -2.0240    -1.0360 H     1 <1>   0.0800 
 40 H       -1.0200     5.3830    -0.4080 H     1 <1>   0.0800 
 41 H       -0.5880     4.9190    -2.0310 H     1 <1>   0.0800 
 42 H       -4.1030     0.3290     1.6320 H     1 <1>   0.4000 
 43 H       -5.2230    -2.9110     0.7710 H     1 <1>   0.0800 
 44 H       -4.1250    -2.2800     1.9570 H     1 <1>   0.0800 
 45 H       -1.9530    -3.9080    -0.8050 H     1 <1>   0.1500 
 46 H       -0.0890    -6.0820    -0.0170 H     1 <1>   0.0800 
 47 H       -1.3070    -6.8230    -1.0370 H     1 <1>   0.0800 
 48 H       -0.9930    -7.4630     0.5600 H     1 <1>   0.0800 
 49 H        1.6750     8.4380     1.6820 H     1 <1>   0.1500 
 50 H        5.0400     7.8120    -0.8460 H     1 <1>   0.1500 
 51 H        6.1780     9.6120     0.4220 H     1 <1>   0.1500 
 52 H        5.0040    10.7270     2.2490 H     1 <1>   0.1500 
@<TRIPOS>BOND
  1   1   2  2   
  2   2   3  am  
  3   2   4  1   
  4   3   5  1   
  5   3   6  1   
  6   4   7  1   
  7   4  30  1   
  8   4  31  1   
  9   5   8  1   
 10   5  32  1   
 11   5  33  1   
 12   6   9  1   
 13   6  34  1   
 14   6  35  1   
 15   7  10  1   
 16   7  36  1   
 17   7  37  1   
 18   8   9  1   
 19   8  11  1   
 20   8  38  1   
 21   9  12  1   
 22   9  39  1   
 23  10  13  1   
 24  10  40  1   
 25  10  41  1   
 26  11  42  1   
 27  12  14  1   
 28  12  43  1   
 29  12  44  1   
 30  13  15  1   
 31  13  16  2   
 32  14  17  1   
 33  14  18  2   
 34  15  19  1   
 35  16  20  1   
 36  17  21  1   
 37  18  22  1   
 38  18  45  1   
 39  19  20  2   
 40  20  23  1   
 41  21  22  2   
 42  22  24  1   
 43  23  25  ar  
 44  23  26  ar  
 45  24  46  1   
 46  24  47  1   
 47  24  48  1   
 48  25  27  ar  
 49  25  49  1   
 50  26  28  ar  
 51  26  50  1   
 52  27  29  ar  
 53  28  29  ar  
 54  28  51  1   
 55  29  52  1   
@<TRIPOS>SUBSTRUCTURE
  1 ****   1 GROUP 4 **** **** 0

# MOE 2024.06 (io_trps.svl 2023.06)
