@<TRIPOS>MOLECULE
NONAME
48 49 1 0 0 
SMALL
USER_CHARGES


@<TRIPOS>ATOM
  1 O       -0.1590    -0.8570    -0.2880 O.2   1 <1>  -0.5700 
  2 C       -0.5100    -2.0200    -0.1920 C.2   1 <1>   0.6900 
  3 N        0.4020    -3.0290    -0.0060 N.am  1 <1>  -0.6600 
  4 N       -1.8260    -2.3180    -0.2540 N.am  1 <1>  -0.7300 
  5 C        1.8410    -2.7370     0.2400 C.3   1 <1>   0.0600 
  6 C        0.0570    -4.4750    -0.0740 C.3   1 <1>   0.0600 
  7 C       -2.9180    -1.3060    -0.2130 C.3   1 <1>   0.2010 
  8 C       -4.2260    -1.8490     0.3800 C.2   1 <1>   0.5690 
  9 O       -4.2730    -3.0290     0.6630 O.2   1 <1>  -0.5700 
 10 N       -5.3050    -1.0190     0.5770 N.am  1 <1>  -0.6600 
 11 C       -6.5990    -1.5420     1.1150 C.3   1 <1>   0.1400 
 12 C       -5.3380     0.4350     0.2560 C.3   1 <1>   0.1400 
 13 C       -7.7650    -1.3060     0.1250 C.3   1 <1>   0.0000 
 14 C       -6.4560     0.7130    -0.7520 C.3   1 <1>  -0.1600 
 15 C       -9.0720    -1.8190     0.7640 C.3   1 <1>   0.2000 
 16 C       -7.8150     0.1960    -0.2510 C.3   1 <1>  -0.1600 
 17 C       -7.6160    -2.2110    -1.1110 C.3   1 <1>  -0.1600 
 18 O      -10.1730    -1.2660     0.0990 O.3   1 <1>  -0.5600 
 19 C       -9.0660    -3.3340     0.5200 C.3   1 <1>  -0.1600 
 20 C       -8.1760    -3.5780    -0.7060 C.3   1 <1>  -0.1600 
 21 C      -11.3530    -1.2270     0.8360 C.3   1 <1>   0.0400 
 22 H       -2.1260    -3.2380     0.0710 H     1 <1>   0.3700 
 23 H        2.1840    -3.2910     1.0960 H     1 <1>   0.0800 
 24 H        1.9920    -1.6880     0.4300 H     1 <1>   0.0800 
 25 H        2.4190    -3.0170    -0.6230 H     1 <1>   0.0800 
 26 H        0.8830    -5.0310    -0.4820 H     1 <1>   0.0800 
 27 H       -0.7980    -4.6320    -0.7070 H     1 <1>   0.0800 
 28 H       -0.1600    -4.8410     0.9140 H     1 <1>   0.0800 
 29 H       -2.5920    -0.4680     0.3770 H     1 <1>   0.0800 
 30 H       -3.1070    -0.9660    -1.2150 H     1 <1>   0.0800 
 31 H       -6.5130    -2.5910     1.3370 H     1 <1>   0.0800 
 32 H       -6.8080    -1.0350     2.0410 H     1 <1>   0.0800 
 33 H       -5.5240     0.9860     1.1630 H     1 <1>   0.0800 
 34 H       -4.4010     0.7730    -0.1490 H     1 <1>   0.0800 
 35 H       -6.5200     1.7720    -0.9270 H     1 <1>   0.0800 
 36 H       -6.2090     0.2440    -1.6890 H     1 <1>   0.0800 
 37 H       -9.1300    -1.5650     1.8100 H     1 <1>   0.0800 
 38 H       -8.5580     0.3630    -1.0120 H     1 <1>   0.0800 
 39 H       -8.1090     0.7620     0.6150 H     1 <1>   0.0800 
 40 H       -8.2220    -1.8200    -1.9110 H     1 <1>   0.0800 
 41 H       -6.6000    -2.2850    -1.4570 H     1 <1>   0.0800 
 42 H       -8.6310    -3.8270     1.3710 H     1 <1>   0.0800 
 43 H      -10.0570    -3.7230     0.3700 H     1 <1>   0.0800 
 44 H       -7.3700    -4.2450    -0.4470 H     1 <1>   0.0800 
 45 H       -8.7400    -4.0080    -1.5150 H     1 <1>   0.0800 
 46 H      -12.1230    -0.8140     0.2090 H     1 <1>   0.0800 
 47 H      -11.2120    -0.5980     1.6980 H     1 <1>   0.0800 
 48 H      -11.6270    -2.2240     1.1340 H     1 <1>   0.0800 
@<TRIPOS>BOND
  1   1   2  2   
  2   2   3  am  
  3   2   4  am  
  4   3   5  1   
  5   3   6  1   
  6   4   7  1   
  7   4  22  1   
  8   5  23  1   
  9   5  24  1   
 10   5  25  1   
 11   6  26  1   
 12   6  27  1   
 13   6  28  1   
 14   7   8  1   
 15   7  29  1   
 16   7  30  1   
 17   8   9  2   
 18   8  10  am  
 19  10  11  1   
 20  10  12  1   
 21  11  13  1   
 22  11  31  1   
 23  11  32  1   
 24  12  14  1   
 25  12  33  1   
 26  12  34  1   
 27  13  15  1   
 28  13  16  1   
 29  13  17  1   
 30  14  16  1   
 31  14  35  1   
 32  14  36  1   
 33  15  18  1   
 34  15  19  1   
 35  15  37  1   
 36  16  38  1   
 37  16  39  1   
 38  17  20  1   
 39  17  40  1   
 40  17  41  1   
 41  18  21  1   
 42  19  20  1   
 43  19  42  1   
 44  19  43  1   
 45  20  44  1   
 46  20  45  1   
 47  21  46  1   
 48  21  47  1   
 49  21  48  1   
@<TRIPOS>SUBSTRUCTURE
  1 ****   8 GROUP 4 **** **** 0

# MOE 2024.06 (io_trps.svl 2023.06)
