@<TRIPOS>MOLECULE
NONAME
57 61 1 0 0 
SMALL
USER_CHARGES


@<TRIPOS>ATOM
  1 O       -0.1280    -0.2770     0.4490 O.3   1 <1>  -0.5600 
  2 C        0.5770     0.9260     0.4560 C.3   1 <1>   0.1200 
  3 C       -1.5050    -0.0610     0.5360 C.3   1 <1>   0.1200 
  4 C       -0.4220     1.9890     0.0250 C.3   1 <1>   0.2890 
  5 C       -1.7190     1.4540     0.6040 C.3   1 <1>  -0.0800 
  6 N       -0.1100     3.3330     0.5690 N.pl3 1 <1>  -0.8690 
  7 C       -2.9630     1.9480    -0.1590 C.3   1 <1>  -0.0170 
  8 C        0.5140     4.3760     0.0020 C.ar  1 <1>   0.4100 
  9 C       -4.3160     1.4460     0.3600 C.ar  1 <1>  -0.1430 
 10 N        0.5260     5.4650     0.7320 N.ar  1 <1>  -0.6200 
 11 C        1.1170     4.3150    -1.2670 C.ar  1 <1>  -0.1500 
 12 C       -5.4800     1.5900    -0.4380 C.ar  1 <1>   0.0000 
 13 C       -4.4780     0.8650     1.5870 C.ar  1 <1>  -0.1500 
 14 C        1.1280     6.5380     0.2360 C.ar  1 <1>   0.7710 
 15 C        1.7310     5.4220    -1.7540 C.ar  1 <1>   0.2180 
 16 C       -6.7030     1.0880     0.0730 C.ar  1 <1>   0.3100 
 17 C       -5.5070     2.2100    -1.7100 C.ar  1 <1>  -0.1500 
 18 C       -5.7360     0.4110     2.0010 C.ar  1 <1>   0.1600 
 19 N        1.7190     6.5280    -0.9720 N.ar  1 <1>  -0.1790 
 20 N        1.1530     7.6790     0.9660 N.pl3 1 <1>  -0.8380 
 21 C        2.4200     5.4810    -3.1060 C.3   1 <1>  -0.0970 
 22 N       -6.8130     0.5010     1.2900 N.ar  1 <1>  -0.6200 
 23 C       -7.8660     1.2010    -0.7040 C.ar  1 <1>  -0.1500 
 24 C       -6.6600     2.3080    -2.4410 C.ar  1 <1>  -0.1500 
 25 C        1.7050     9.0110     0.5940 C.3   1 <1>   0.2090 
 26 C        0.5500     7.7440     2.3280 C.3   1 <1>   0.2090 
 27 C       -7.8560     1.7950    -1.9360 C.ar  1 <1>  -0.1500 
 28 C        1.1680     9.9700     1.6480 C.3   1 <1>  -0.1600 
 29 C        0.9550     9.1030     2.8820 C.3   1 <1>  -0.1600 
 30 H        0.9180     1.0990     1.4620 H     1 <1>   0.0800 
 31 H        1.4110     0.8460    -0.2180 H     1 <1>   0.0800 
 32 H       -1.9570    -0.4870    -0.3440 H     1 <1>   0.0800 
 33 H       -1.8780    -0.5640     1.4110 H     1 <1>   0.0800 
 34 H       -0.4720     2.0090    -1.0500 H     1 <1>   0.0800 
 35 H       -1.7800     1.7400     1.6380 H     1 <1>   0.0800 
 36 H       -0.4510     3.4900     1.5230 H     1 <1>   0.4000 
 37 H       -2.8550     1.6390    -1.1840 H     1 <1>   0.0800 
 38 H       -2.9760     3.0240    -0.1410 H     1 <1>   0.0800 
 39 H        1.0860     3.3970    -1.8200 H     1 <1>   0.1500 
 40 H       -3.6710     0.7310     2.2800 H     1 <1>   0.1500 
 41 H       -4.6060     2.6220    -2.1210 H     1 <1>   0.1500 
 42 H       -5.8110    -0.0440     2.9740 H     1 <1>   0.1500 
 43 H        2.1590     7.3960    -1.2460 H     1 <1>   0.4570 
 44 H        2.3480     4.5320    -3.6080 H     1 <1>   0.0800 
 45 H        3.4630     5.7180    -2.9870 H     1 <1>   0.0800 
 46 H        1.9600     6.2260    -3.7310 H     1 <1>   0.0800 
 47 H       -8.7750     0.8030    -0.2920 H     1 <1>   0.1500 
 48 H       -6.6620     2.7810    -3.4090 H     1 <1>   0.1500 
 49 H        2.7810     8.9830     0.6490 H     1 <1>   0.0800 
 50 H        1.3890     9.3180    -0.3890 H     1 <1>   0.0800 
 51 H       -0.5230     7.6800     2.2470 H     1 <1>   0.0800 
 52 H        0.9090     6.9450     2.9560 H     1 <1>   0.0800 
 53 H       -8.7570     1.8760    -2.5210 H     1 <1>   0.1500 
 54 H        1.8460    10.7850     1.8330 H     1 <1>   0.0800 
 55 H        0.2250    10.3690     1.3160 H     1 <1>   0.0800 
 56 H        0.2060     9.5040     3.5420 H     1 <1>   0.0800 
 57 H        1.8790     8.9990     3.4250 H     1 <1>   0.0800 
@<TRIPOS>BOND
  1   1   2  1   
  2   1   3  1   
  3   2   4  1   
  4   2  30  1   
  5   2  31  1   
  6   3   5  1   
  7   3  32  1   
  8   3  33  1   
  9   4   5  1   
 10   4   6  1   
 11   4  34  1   
 12   5   7  1   
 13   5  35  1   
 14   6   8  1   
 15   6  36  1   
 16   7   9  1   
 17   7  37  1   
 18   7  38  1   
 19   8  10  ar  
 20   8  11  ar  
 21   9  12  ar  
 22   9  13  ar  
 23  10  14  ar  
 24  11  15  ar  
 25  11  39  1   
 26  12  16  ar  
 27  12  17  ar  
 28  13  18  ar  
 29  13  40  1   
 30  14  19  ar  
 31  14  20  1   
 32  15  19  ar  
 33  15  21  1   
 34  16  22  ar  
 35  16  23  ar  
 36  17  24  ar  
 37  17  41  1   
 38  18  22  ar  
 39  18  42  1   
 40  19  43  1   
 41  20  25  1   
 42  20  26  1   
 43  21  44  1   
 44  21  45  1   
 45  21  46  1   
 46  23  27  ar  
 47  23  47  1   
 48  24  27  ar  
 49  24  48  1   
 50  25  28  1   
 51  25  49  1   
 52  25  50  1   
 53  26  29  1   
 54  26  51  1   
 55  26  52  1   
 56  27  53  1   
 57  28  29  1   
 58  28  54  1   
 59  28  55  1   
 60  29  56  1   
 61  29  57  1   
@<TRIPOS>SUBSTRUCTURE
  1 ****   6 GROUP 4 **** **** 0

# MOE 2024.06 (io_trps.svl 2023.06)
