@<TRIPOS>MOLECULE
NONAME
57 59 1 0 0 
SMALL
USER_CHARGES


@<TRIPOS>ATOM
  1 O       -0.1970     0.4650    -0.5100 O.2   1 <1>  -0.5700 
  2 C       -1.0510     1.1980    -0.0450 C.2   1 <1>   0.5440 
  3 N       -0.6600     2.2570     0.7480 N.am  1 <1>  -0.6600 
  4 C       -2.4500     0.9320    -0.3280 C.ar  1 <1>   0.0860 
  5 C        0.7240     2.7990     0.6870 C.3   1 <1>   0.1400 
  6 C       -1.5410     2.8850     1.7700 C.3   1 <1>   0.1400 
  7 C       -3.2930     1.9240    -0.8260 C.ar  1 <1>  -0.1500 
  8 C       -2.9990    -0.3310    -0.1140 C.ar  1 <1>  -0.1500 
  9 C        0.6670     4.3070     0.4340 C.3   1 <1>  -0.1600 
 10 C       -1.6150     4.3940     1.5330 C.3   1 <1>  -0.1600 
 11 C       -4.6290     1.6750    -1.0770 C.ar  1 <1>  -0.1500 
 12 C       -4.3360    -0.5860    -0.3640 C.ar  1 <1>  -0.1500 
 13 C       -0.2090     5.0020     1.4800 C.3   1 <1>   0.2200 
 14 C       -5.1610     0.4180    -0.8430 C.ar  1 <1>  -0.1430 
 15 N       -0.2660     6.4610     1.2340 N.am  1 <1>  -0.7300 
 16 C       -6.6280     0.1430    -1.1210 C.3   1 <1>  -0.0970 
 17 C       -0.7920     7.1060     0.1560 C.2   1 <1>   0.5690 
 18 O       -1.3160     6.5220    -0.7610 O.2   1 <1>  -0.5700 
 19 C       -0.6950     8.6330     0.1220 C.3   1 <1>  -0.0190 
 20 C       -1.8260     9.2890    -0.6980 C.3   1 <1>  -0.1600 
 21 C        0.6890     9.0860    -0.3980 C.3   1 <1>  -0.1600 
 22 C       -1.8010    10.8300    -0.6000 C.3   1 <1>   0.2000 
 23 C        0.7150    10.5390    -0.9170 C.3   1 <1>  -0.1600 
 24 O       -2.2420    11.3630    -1.8250 O.3   1 <1>  -0.5600 
 25 C       -0.3890    11.3890    -0.2820 C.3   1 <1>   0.2000 
 26 C       -3.6200    11.3160    -2.0330 C.3   1 <1>   0.0400 
 27 O       -0.2840    12.6700    -0.7820 O.3   1 <1>  -0.6800 
 28 H        1.2240     2.5910     1.6170 H     1 <1>   0.0800 
 29 H        1.2800     2.3250    -0.1050 H     1 <1>   0.0800 
 30 H       -2.5300     2.4610     1.7410 H     1 <1>   0.0800 
 31 H       -1.1300     2.6900     2.7460 H     1 <1>   0.0800 
 32 H       -2.8860     2.9020    -1.0210 H     1 <1>   0.1500 
 33 H       -2.3610    -1.1160     0.2520 H     1 <1>   0.1500 
 34 H        0.2680     4.4680    -0.5520 H     1 <1>   0.0800 
 35 H        1.6630     4.7080     0.4660 H     1 <1>   0.0800 
 36 H       -2.1790     4.8510     2.3250 H     1 <1>   0.0800 
 37 H       -2.1320     4.5650     0.6070 H     1 <1>   0.0800 
 38 H       -5.2540     2.4630    -1.4600 H     1 <1>   0.1500 
 39 H       -4.7290    -1.5720    -0.1870 H     1 <1>   0.1500 
 40 H        0.2490     4.8520     2.4440 H     1 <1>   0.0800 
 41 H        0.1950     7.0220     1.9500 H     1 <1>   0.3700 
 42 H       -7.2190     1.0150    -0.9050 H     1 <1>   0.0800 
 43 H       -6.9830    -0.6680    -0.5110 H     1 <1>   0.0800 
 44 H       -6.7580    -0.1180    -2.1560 H     1 <1>   0.0800 
 45 H       -0.8030     8.9750     1.1360 H     1 <1>   0.0800 
 46 H       -2.7770     8.9250    -0.3530 H     1 <1>   0.0800 
 47 H       -1.7080     8.9950    -1.7270 H     1 <1>   0.0800 
 48 H        1.4090     8.9770     0.3950 H     1 <1>   0.0800 
 49 H        0.9990     8.4380    -1.2010 H     1 <1>   0.0800 
 50 H       -2.4670    11.1620     0.1790 H     1 <1>   0.0800 
 51 H        0.5620    10.5280    -1.9830 H     1 <1>   0.0800 
 52 H        1.6770    10.9780    -0.7190 H     1 <1>   0.0800 
 53 H       -0.2350    11.4370     0.7820 H     1 <1>   0.0800 
 54 H       -3.8290    11.7780    -2.9820 H     1 <1>   0.0800 
 55 H       -4.1180    11.8600    -1.2490 H     1 <1>   0.0800 
 56 H       -3.9480    10.2910    -2.0540 H     1 <1>   0.0800 
 57 H       -0.8590    12.6900    -1.5810 H     1 <1>   0.4000 
@<TRIPOS>BOND
  1   1   2  2   
  2   2   3  am  
  3   2   4  1   
  4   3   5  1   
  5   3   6  1   
  6   4   7  ar  
  7   4   8  ar  
  8   5   9  1   
  9   5  28  1   
 10   5  29  1   
 11   6  10  1   
 12   6  30  1   
 13   6  31  1   
 14   7  11  ar  
 15   7  32  1   
 16   8  12  ar  
 17   8  33  1   
 18   9  13  1   
 19   9  34  1   
 20   9  35  1   
 21  10  13  1   
 22  10  36  1   
 23  10  37  1   
 24  11  14  ar  
 25  11  38  1   
 26  12  14  ar  
 27  12  39  1   
 28  13  15  1   
 29  13  40  1   
 30  14  16  1   
 31  15  17  am  
 32  15  41  1   
 33  16  42  1   
 34  16  43  1   
 35  16  44  1   
 36  17  18  2   
 37  17  19  1   
 38  19  20  1   
 39  19  21  1   
 40  19  45  1   
 41  20  22  1   
 42  20  46  1   
 43  20  47  1   
 44  21  23  1   
 45  21  48  1   
 46  21  49  1   
 47  22  24  1   
 48  22  25  1   
 49  22  50  1   
 50  23  25  1   
 51  23  51  1   
 52  23  52  1   
 53  24  26  1   
 54  25  27  1   
 55  25  53  1   
 56  26  54  1   
 57  26  55  1   
 58  26  56  1   
 59  27  57  1   
@<TRIPOS>SUBSTRUCTURE
  1 ****  18 GROUP 4 **** **** 0

# MOE 2024.06 (io_trps.svl 2023.06)
