@<TRIPOS>MOLECULE
NONAME
43 45 1 0 0 
SMALL
USER_CHARGES


@<TRIPOS>ATOM
  1 O        1.1950     0.2620    -2.7590 O.2   1 <1>  -0.5700 
  2 C        2.0810     0.1140    -1.9470 C.2   1 <1>   0.7150 
  3 N        2.3690    -1.1790    -1.6470 N.am  1 <1>  -0.7300 
  4 C        2.7370     1.2620    -1.3900 C.2   1 <1>  -0.2370 
  5 C        3.0950    -1.8400    -0.5290 C.3   1 <1>   0.1400 
  6 N        3.8940     1.2750    -0.6900 N.pl3 1 <1>   0.3140 
  7 C        2.3600     2.5640    -1.4640 C.2   1 <1>  -0.1500 
  8 C        3.8670    -0.9050     0.4150 C.3   1 <1>   0.2000 
  9 N        4.2540     2.5060    -0.3190 N.2   1 <1>  -0.7070 
 10 C        4.7250     0.1240    -0.3150 C.3   1 <1>   0.0960 
 11 C        3.3170     3.3170    -0.7870 C.2   1 <1>   0.2030 
 12 O        4.6960    -1.6880     1.2100 O.3   1 <1>  -0.6800 
 13 C        3.2490     4.7740    -0.6680 C.2   1 <1>   0.7160 
 14 O        2.5260     5.3960    -1.4320 O.2   1 <1>  -0.5700 
 15 N        3.9670     5.5060     0.2650 N.am  1 <1>  -0.6600 
 16 C        4.1780     6.9700     0.0910 C.3   1 <1>   0.2840 
 17 C        4.6250     4.8950     1.4540 C.3   1 <1>   0.0600 
 18 C        5.6610     7.3230     0.1660 C.ar  1 <1>  -0.1430 
 19 C        6.5920     6.9380    -0.7870 C.ar  1 <1>  -0.1430 
 20 C        6.1430     8.0670     1.2260 C.ar  1 <1>  -0.1500 
 21 C        7.9190     7.3120    -0.6150 C.ar  1 <1>   0.1600 
 22 C        6.2030     6.1090    -2.0050 C.3   1 <1>  -0.0970 
 23 C        7.4880     8.3840     1.2920 C.ar  1 <1>   0.1600 
 24 N        8.3890     8.0240     0.3960 N.ar  1 <1>  -0.6200 
 25 H        1.7930    -1.8180    -2.2010 H     1 <1>   0.3700 
 26 H        3.7870    -2.5410    -0.9640 H     1 <1>   0.0800 
 27 H        2.3820    -2.3970     0.0560 H     1 <1>   0.0800 
 28 H        1.4900     2.9650    -1.9560 H     1 <1>   0.1500 
 29 H        3.1840    -0.4080     1.0840 H     1 <1>   0.0800 
 30 H        5.5020     0.4810     0.3370 H     1 <1>   0.0800 
 31 H        5.1630    -0.2900    -1.2030 H     1 <1>   0.0800 
 32 H        5.3850    -2.1400     0.6860 H     1 <1>   0.4000 
 33 H        3.6350     7.4880     0.8620 H     1 <1>   0.0800 
 34 H        3.7900     7.3060    -0.8540 H     1 <1>   0.0800 
 35 H        4.0780     4.0290     1.7840 H     1 <1>   0.0800 
 36 H        4.6620     5.6010     2.2650 H     1 <1>   0.0800 
 37 H        5.6290     4.5990     1.1990 H     1 <1>   0.0800 
 38 H        5.4860     8.4050     2.0050 H     1 <1>   0.1500 
 39 H        8.6390     7.0070    -1.3540 H     1 <1>   0.1500 
 40 H        5.3090     6.4970    -2.4600 H     1 <1>   0.0800 
 41 H        6.0280     5.0890    -1.7110 H     1 <1>   0.0800 
 42 H        6.9840     6.1200    -2.7440 H     1 <1>   0.0800 
 43 H        7.8420     8.9650     2.1260 H     1 <1>   0.1500 
@<TRIPOS>BOND
  1   1   2  2   
  2   2   3  am  
  3   2   4  1   
  4   3   5  1   
  5   3  25  1   
  6   4   6  1   
  7   4   7  2   
  8   5   8  1   
  9   5  26  1   
 10   5  27  1   
 11   6   9  1   
 12   6  10  1   
 13   7  11  1   
 14   7  28  1   
 15   8  10  1   
 16   8  12  1   
 17   8  29  1   
 18   9  11  2   
 19  10  30  1   
 20  10  31  1   
 21  11  13  1   
 22  12  32  1   
 23  13  14  2   
 24  13  15  am  
 25  15  16  1   
 26  15  17  1   
 27  16  18  1   
 28  16  33  1   
 29  16  34  1   
 30  17  35  1   
 31  17  36  1   
 32  17  37  1   
 33  18  19  ar  
 34  18  20  ar  
 35  19  21  ar  
 36  19  22  1   
 37  20  23  ar  
 38  20  38  1   
 39  21  24  ar  
 40  21  39  1   
 41  22  40  1   
 42  22  41  1   
 43  22  42  1   
 44  23  24  ar  
 45  23  43  1   
@<TRIPOS>SUBSTRUCTURE
  1 ****   9 GROUP 4 **** **** 0

# MOE 2024.06 (io_trps.svl 2023.06)
