@<TRIPOS>MOLECULE
NONAME
19 19 1 0 0 
SMALL
USER_CHARGES


@<TRIPOS>ATOM
  1 O       -1.3080     0.1530     1.6110 O.3   1 <1>  -0.6800 
  2 C       -1.6340    -0.0910     0.3040 C.3   1 <1>   0.4610 
  3 C       -1.3200    -1.5750     0.0470 C.2   1 <1>   0.1080 
  4 C       -0.7690     0.8350    -0.5480 C.3   1 <1>  -0.2400 
  5 C       -3.1210     0.2170     0.1550 C.3   1 <1>  -0.2400 
  6 N       -0.8370    -2.3840     0.9550 N.2   1 <1>  -0.7070 
  7 C       -1.5120    -2.2270    -1.1690 C.2   1 <1>  -0.1500 
  8 N       -0.7120    -3.5700     0.3290 N.pl3 1 <1>   0.3000 
  9 C       -1.1140    -3.4980    -0.9540 C.2   1 <1>  -0.3020 
 10 H       -0.9820    -0.7220     1.9300 H     1 <1>   0.4000 
 11 H        0.2700     0.6060    -0.3950 H     1 <1>   0.0800 
 12 H       -0.9510     1.8610    -0.2840 H     1 <1>   0.0800 
 13 H       -0.9990     0.7000    -1.5880 H     1 <1>   0.0800 
 14 H       -3.6940    -0.4360     0.7890 H     1 <1>   0.0800 
 15 H       -3.4300     0.0610    -0.8620 H     1 <1>   0.0800 
 16 H       -3.3190     1.2380     0.4240 H     1 <1>   0.0800 
 17 H       -1.8980    -1.7870    -2.0720 H     1 <1>   0.1500 
 18 H       -0.3500    -4.4060     0.8060 H     1 <1>   0.2700 
 19 H       -1.0950    -4.3360    -1.6260 H     1 <1>   0.1500 
@<TRIPOS>BOND
  1   1   2  1   
  2   1  10  1   
  3   2   3  1   
  4   2   4  1   
  5   2   5  1   
  6   3   6  2   
  7   3   7  1   
  8   4  11  1   
  9   4  12  1   
 10   4  13  1   
 11   5  14  1   
 12   5  15  1   
 13   5  16  1   
 14   6   8  1   
 15   7   9  2   
 16   7  17  1   
 17   8   9  1   
 18   8  18  1   
 19   9  19  1   
@<TRIPOS>SUBSTRUCTURE
  1 ****   3 GROUP 4 **** **** 0

# MOE 2024.06 (io_trps.svl 2023.06)
