@<TRIPOS>MOLECULE
NONAME
51 52 1 0 0 
SMALL
USER_CHARGES


@<TRIPOS>ATOM
  1 O        0.4140     0.9200    -0.1520 O.co2 1 <1>  -0.9000 
  2 C       -0.6350     1.1310     0.4740 C.2   1 <1>   0.9060 
  3 O       -1.4860     0.2570     0.6710 O.co2 1 <1>  -0.9000 
  4 C       -0.8960     2.5390     1.0290 C.3   1 <1>   0.1030 
  5 N        0.0470     3.6050     0.5150 N.pl3 1 <1>  -0.8690 
  6 C       -0.1530     4.9070     0.2970 C.ar  1 <1>   0.4100 
  7 N        0.7660     5.5250    -0.4090 N.ar  1 <1>  -0.6200 
  8 C       -1.2850     5.5720     0.7960 C.ar  1 <1>  -0.1500 
  9 C        0.6040     6.8130    -0.6650 C.ar  1 <1>   0.7710 
 10 C       -1.4380     6.8860     0.5180 C.ar  1 <1>   0.2110 
 11 N       -0.4750     7.4890    -0.2230 N.ar  1 <1>  -0.1790 
 12 N        1.5600     7.4560    -1.4010 N.pl3 1 <1>  -0.8380 
 13 C        1.8610     8.9190    -1.4390 C.3   1 <1>   0.2090 
 14 C        2.4960     6.6210    -2.2370 C.3   1 <1>   0.1290 
 15 C        3.1460     9.1960    -0.6450 C.3   1 <1>  -0.1600 
 16 C        3.5760    10.6630    -0.7490 C.3   1 <1>   0.3430 
 17 N        4.7980    10.9050     0.0680 N.4   1 <1>  -0.9590 
 18 C        5.0110    12.3600     0.3090 C.3   1 <1>   0.3430 
 19 C        6.0280    10.3220    -0.5370 C.3   1 <1>   0.3430 
 20 C        5.7760    12.5920     1.6160 C.3   1 <1>  -0.1600 
 21 C        6.8500     9.6090     0.5360 C.3   1 <1>  -0.1600 
 22 C        7.1320    11.8730     1.7500 C.3   1 <1>  -0.1600 
 23 C        7.0000    10.3480     1.8790 C.3   1 <1>  -0.1600 
 24 H       -0.8100     2.4770     2.0970 H     1 <1>   0.0800 
 25 H       -1.9080     2.7900     0.7790 H     1 <1>   0.0800 
 26 H        0.8380     3.1330     0.0390 H     1 <1>   0.4000 
 27 H       -1.9960     5.0180     1.3810 H     1 <1>   0.1500 
 28 H       -2.2880     7.4570     0.8570 H     1 <1>   0.1500 
 29 H       -0.5560     8.4490    -0.5290 H     1 <1>   0.4570 
 30 H        1.0500     9.4910    -1.0240 H     1 <1>   0.0800 
 31 H        1.9860     9.2240    -2.4670 H     1 <1>   0.0800 
 32 H        1.9840     5.7580    -2.6340 H     1 <1>   0.0800 
 33 H        3.3180     6.2730    -1.6340 H     1 <1>   0.0800 
 34 H        2.8800     7.1850    -3.0690 H     1 <1>   0.0800 
 35 H        3.9330     8.5730    -1.0280 H     1 <1>   0.0800 
 36 H        2.9750     8.9440     0.3860 H     1 <1>   0.0800 
 37 H        2.7760    11.2890    -0.3860 H     1 <1>   0.0800 
 38 H        3.7670    10.9240    -1.7780 H     1 <1>   0.0800 
 39 H        4.6900    10.4670     0.9930 H     1 <1>   0.4500 
 40 H        4.0600    12.8630     0.3810 H     1 <1>   0.0800 
 41 H        5.5550    12.7950    -0.5140 H     1 <1>   0.0800 
 42 H        6.6230    11.1050    -0.9800 H     1 <1>   0.0800 
 43 H        5.7770     9.6190    -1.3140 H     1 <1>   0.0800 
 44 H        5.1450    12.3270     2.4470 H     1 <1>   0.0800 
 45 H        5.9550    13.6500     1.6980 H     1 <1>   0.0800 
 46 H        7.8330     9.4470     0.1270 H     1 <1>   0.0800 
 47 H        6.4320     8.6330     0.7160 H     1 <1>   0.0800 
 48 H        7.6010    12.2370     2.6500 H     1 <1>   0.0800 
 49 H        7.7870    12.1310     0.9350 H     1 <1>   0.0800 
 50 H        7.8840     9.9680     2.3660 H     1 <1>   0.0800 
 51 H        6.1740    10.1110     2.5290 H     1 <1>   0.0800 
@<TRIPOS>BOND
  1   1   2  ar  
  2   2   3  ar  
  3   2   4  1   
  4   4   5  1   
  5   4  24  1   
  6   4  25  1   
  7   5   6  1   
  8   5  26  1   
  9   6   7  ar  
 10   6   8  ar  
 11   7   9  ar  
 12   8  10  ar  
 13   8  27  1   
 14   9  11  ar  
 15   9  12  1   
 16  10  11  ar  
 17  10  28  1   
 18  11  29  1   
 19  12  13  1   
 20  12  14  1   
 21  13  15  1   
 22  13  30  1   
 23  13  31  1   
 24  14  32  1   
 25  14  33  1   
 26  14  34  1   
 27  15  16  1   
 28  15  35  1   
 29  15  36  1   
 30  16  17  1   
 31  16  37  1   
 32  16  38  1   
 33  17  18  1   
 34  17  19  1   
 35  17  39  1   
 36  18  20  1   
 37  18  40  1   
 38  18  41  1   
 39  19  21  1   
 40  19  42  1   
 41  19  43  1   
 42  20  22  1   
 43  20  44  1   
 44  20  45  1   
 45  21  23  1   
 46  21  46  1   
 47  21  47  1   
 48  22  23  1   
 49  22  48  1   
 50  22  49  1   
 51  23  50  1   
 52  23  51  1   
@<TRIPOS>SUBSTRUCTURE
  1 ****  12 GROUP 4 **** **** 0

# MOE 2024.06 (io_trps.svl 2023.06)
