@<TRIPOS>MOLECULE
NONAME
47 48 1 0 0 
SMALL
USER_CHARGES


@<TRIPOS>ATOM
  1 S        0.2960     0.0320     0.6500 S.o2  1 <1>   1.3330 
  2 O        1.6240     0.0540     1.2220 O.2   1 <1>  -0.6500 
  3 O       -0.8560     0.2120     1.5030 O.2   1 <1>  -0.6500 
  4 N        0.1160    -1.4280    -0.1980 N.am  1 <1>  -0.8490 
  5 C        0.2060     1.2630    -0.6480 C.3   1 <1>  -0.0550 
  6 C        1.3710    -1.9310    -0.7660 C.3   1 <1>   0.1160 
  7 C       -0.5150    -2.4700     0.6180 C.3   1 <1>   0.1160 
  8 C        0.2310     2.7060    -0.1170 C.3   1 <1>  -0.0800 
  9 C        0.0770     3.7370    -1.2320 C.3   1 <1>   0.2000 
 10 C        1.5370     3.1050     0.5750 C.3   1 <1>   0.1400 
 11 O       -1.2630     3.9080    -1.5370 O.3   1 <1>  -0.6800 
 12 C        0.7070     5.0220    -0.6950 C.3   1 <1>   0.1400 
 13 N        1.6510     4.5670     0.3580 N.am  1 <1>  -0.6600 
 14 C        2.4910     5.3570     1.0910 C.2   1 <1>   0.5690 
 15 O        3.2090     4.8920     1.9430 O.2   1 <1>  -0.5700 
 16 C        2.5170     6.8530     0.8470 C.3   1 <1>  -0.0990 
 17 C        3.7100     7.5350     1.5310 C.3   1 <1>   0.0960 
 18 N        3.6710     8.9910     1.3070 N.pl3 1 <1>   0.3140 
 19 N        3.7030     9.5270     0.0730 N.2   1 <1>  -0.7070 
 20 C        3.5850     9.9490     2.2520 C.2   1 <1>  -0.3020 
 21 C        3.6420    10.8070     0.2620 C.2   1 <1>   0.1080 
 22 C        3.5650    11.1350     1.6100 C.2   1 <1>  -0.1500 
 23 C        3.6550    11.7950    -0.8800 C.3   1 <1>  -0.0590 
 24 H        1.0180     1.1200    -1.3330 H     1 <1>   0.0800 
 25 H       -0.7090     1.1180    -1.1900 H     1 <1>   0.0800 
 26 H        1.1820    -2.8060    -1.3650 H     1 <1>   0.0800 
 27 H        2.0640    -2.1870     0.0190 H     1 <1>   0.0800 
 28 H        1.8220    -1.1820    -1.3930 H     1 <1>   0.0800 
 29 H       -0.6290    -3.3750     0.0460 H     1 <1>   0.0800 
 30 H       -1.4930    -2.1480     0.9350 H     1 <1>   0.0800 
 31 H        0.0810    -2.6740     1.4920 H     1 <1>   0.0800 
 32 H       -0.5610     2.8360     0.6020 H     1 <1>   0.0800 
 33 H        0.5910     3.4290    -2.1260 H     1 <1>   0.0800 
 34 H        2.3850     2.6190     0.1220 H     1 <1>   0.0800 
 35 H        1.5180     2.8730     1.6280 H     1 <1>   0.0800 
 36 H       -1.7760     4.1200    -0.7320 H     1 <1>   0.4000 
 37 H       -0.0370     5.6620    -0.2550 H     1 <1>   0.0800 
 38 H        1.2330     5.5400    -1.4780 H     1 <1>   0.0800 
 39 H        2.5800     7.0320    -0.2110 H     1 <1>   0.0800 
 40 H        1.6030     7.2730     1.2200 H     1 <1>   0.0800 
 41 H        4.6320     7.1560     1.1290 H     1 <1>   0.0800 
 42 H        3.6920     7.3460     2.5890 H     1 <1>   0.0800 
 43 H        3.5450     9.7380     3.3040 H     1 <1>   0.1500 
 44 H        3.5040    12.1260     2.0230 H     1 <1>   0.1500 
 45 H        3.5870    12.8000    -0.5090 H     1 <1>   0.0800 
 46 H        2.8220    11.6010    -1.5300 H     1 <1>   0.0800 
 47 H        4.5660    11.6840    -1.4380 H     1 <1>   0.0800 
@<TRIPOS>BOND
  1   1   2  2   
  2   1   3  2   
  3   1   4  am  
  4   1   5  1   
  5   4   6  1   
  6   4   7  1   
  7   5   8  1   
  8   5  24  1   
  9   5  25  1   
 10   6  26  1   
 11   6  27  1   
 12   6  28  1   
 13   7  29  1   
 14   7  30  1   
 15   7  31  1   
 16   8   9  1   
 17   8  10  1   
 18   8  32  1   
 19   9  11  1   
 20   9  12  1   
 21   9  33  1   
 22  10  13  1   
 23  10  34  1   
 24  10  35  1   
 25  11  36  1   
 26  12  13  1   
 27  12  37  1   
 28  12  38  1   
 29  13  14  am  
 30  14  15  2   
 31  14  16  1   
 32  16  17  1   
 33  16  39  1   
 34  16  40  1   
 35  17  18  1   
 36  17  41  1   
 37  17  42  1   
 38  18  19  1   
 39  18  20  1   
 40  19  21  2   
 41  20  22  2   
 42  20  43  1   
 43  21  22  1   
 44  21  23  1   
 45  22  44  1   
 46  23  45  1   
 47  23  46  1   
 48  23  47  1   
@<TRIPOS>SUBSTRUCTURE
  1 ****  13 GROUP 4 **** **** 0

# MOE 2024.06 (io_trps.svl 2023.06)
