@<TRIPOS>MOLECULE
NONAME
51 54 1 0 0 
SMALL
USER_CHARGES


@<TRIPOS>ATOM
  1 O       -1.3350    -1.2430    -0.1610 O.3   1 <1>  -0.6800 
  2 C       -0.1500    -1.5700    -0.8000 C.3   1 <1>   0.1200 
  3 C        0.9990    -1.7230     0.2450 C.3   1 <1>   0.0000 
  4 C        2.3450    -2.1690    -0.3860 C.3   1 <1>   0.4230 
  5 C        1.2640    -0.3460     0.9080 C.3   1 <1>  -0.1600 
  6 C        0.6470    -2.7580     1.3370 C.3   1 <1>  -0.1600 
  7 N        2.4550    -3.6590    -0.7040 N.4   1 <1>  -0.9590 
  8 C        2.7910    -1.1560    -1.4680 C.3   1 <1>   0.2090 
  9 C        1.7990     0.7130    -0.0730 C.3   1 <1>   0.2090 
 10 C        0.5150    -4.1910     0.7840 C.3   1 <1>  -0.1600 
 11 C        1.1900    -4.4390    -0.5720 C.3   1 <1>   0.3430 
 12 C        3.1620    -3.9880    -1.9810 C.3   1 <1>   0.2630 
 13 N        2.9760     0.1800    -0.8250 N.pl3 1 <1>  -0.8380 
 14 C        4.2400     0.5020    -0.3450 C.ar  1 <1>   0.4100 
 15 N        4.9220    -0.4810     0.2130 N.ar  1 <1>  -0.3100 
 16 C        4.7420     1.8240    -0.4410 C.ar  1 <1>   0.0000 
 17 N        6.1090    -0.2510     0.7530 N.ar  1 <1>  -0.3100 
 18 C        5.9880     2.0650     0.1540 C.ar  1 <1>   0.0000 
 19 C        4.0860     2.8890    -1.0970 C.ar  1 <1>  -0.1500 
 20 C        6.6190     0.9500     0.7390 C.ar  1 <1>   0.1670 
 21 C        6.5150     3.3780     0.1130 C.ar  1 <1>  -0.1500 
 22 C        4.6200     4.1470    -1.1290 C.ar  1 <1>  -0.1500 
 23 C        7.9790     1.1070     1.3990 C.3   1 <1>  -0.0970 
 24 C        5.8480     4.3960    -0.5110 C.ar  1 <1>  -0.1500 
 25 H       -2.0610    -1.0790    -0.7980 H     1 <1>   0.4000 
 26 H       -0.3290    -2.4720    -1.3510 H     1 <1>   0.0800 
 27 H        0.0550    -0.7850    -1.5050 H     1 <1>   0.0800 
 28 H        3.0670    -2.0180     0.4000 H     1 <1>   0.0800 
 29 H        1.9870    -0.4510     1.6990 H     1 <1>   0.0800 
 30 H        0.3630     0.0280     1.3620 H     1 <1>   0.0800 
 31 H        1.4260    -2.7540     2.0820 H     1 <1>   0.0800 
 32 H       -0.2630    -2.4800     1.8440 H     1 <1>   0.0800 
 33 H        3.0570    -4.0120     0.0550 H     1 <1>   0.4500 
 34 H        2.0710    -1.0780    -2.2620 H     1 <1>   0.0800 
 35 H        3.7330    -1.4520    -1.8950 H     1 <1>   0.0800 
 36 H        2.0870     1.5910     0.4830 H     1 <1>   0.0800 
 37 H        1.0330     1.0100    -0.7680 H     1 <1>   0.0800 
 38 H       -0.5310    -4.4240     0.6730 H     1 <1>   0.0800 
 39 H        0.9050    -4.8850     1.5080 H     1 <1>   0.0800 
 40 H        0.5160    -4.1610    -1.3630 H     1 <1>   0.0800 
 41 H        1.3920    -5.4930    -0.6770 H     1 <1>   0.0800 
 42 H        2.6020    -3.6230    -2.8260 H     1 <1>   0.0800 
 43 H        3.2780    -5.0550    -2.0800 H     1 <1>   0.0800 
 44 H        4.1430    -3.5390    -1.9930 H     1 <1>   0.0800 
 45 H        3.1480     2.6960    -1.5840 H     1 <1>   0.1500 
 46 H        7.4610     3.5830     0.5800 H     1 <1>   0.1500 
 47 H        4.1100     4.9540    -1.6280 H     1 <1>   0.1500 
 48 H        7.9130     1.8040     2.2140 H     1 <1>   0.0800 
 49 H        8.6970     1.4590     0.6820 H     1 <1>   0.0800 
 50 H        8.3230     0.1640     1.7870 H     1 <1>   0.0800 
 51 H        6.2550     5.3920    -0.5380 H     1 <1>   0.1500 
@<TRIPOS>BOND
  1   1   2  1   
  2   1  25  1   
  3   2   3  1   
  4   2  26  1   
  5   2  27  1   
  6   3   4  1   
  7   3   5  1   
  8   3   6  1   
  9   4   7  1   
 10   4   8  1   
 11   4  28  1   
 12   5   9  1   
 13   5  29  1   
 14   5  30  1   
 15   6  10  1   
 16   6  31  1   
 17   6  32  1   
 18   7  11  1   
 19   7  12  1   
 20   7  33  1   
 21   8  13  1   
 22   8  34  1   
 23   8  35  1   
 24   9  13  1   
 25   9  36  1   
 26   9  37  1   
 27  10  11  1   
 28  10  38  1   
 29  10  39  1   
 30  11  40  1   
 31  11  41  1   
 32  12  42  1   
 33  12  43  1   
 34  12  44  1   
 35  13  14  1   
 36  14  15  ar  
 37  14  16  ar  
 38  15  17  ar  
 39  16  18  ar  
 40  16  19  ar  
 41  17  20  ar  
 42  18  20  ar  
 43  18  21  ar  
 44  19  22  ar  
 45  19  45  1   
 46  20  23  1   
 47  21  24  ar  
 48  21  46  1   
 49  22  24  ar  
 50  22  47  1   
 51  23  48  1   
 52  23  49  1   
 53  23  50  1   
 54  24  51  1   
@<TRIPOS>SUBSTRUCTURE
  1 ****  13 GROUP 4 **** **** 0

# MOE 2024.06 (io_trps.svl 2023.06)
