@<TRIPOS>MOLECULE
NONAME
39 39 1 0 0 
SMALL
USER_CHARGES


@<TRIPOS>ATOM
  1 S        1.0160     1.3220    -0.2500 S.o2  1 <1>   1.0900 
  2 O        1.8630     1.1570     0.9140 O.2   1 <1>  -0.6500 
  3 O        1.5770     2.1230    -1.3080 O.2   1 <1>  -0.6500 
  4 C       -0.4610     2.1390     0.3360 C.3   1 <1>  -0.0550 
  5 C        0.4720    -0.2700    -0.8860 C.3   1 <1>  -0.0550 
  6 C       -0.1340     3.2070     1.3850 C.3   1 <1>   0.2090 
  7 C        1.6170    -1.1480    -1.4160 C.3   1 <1>  -0.2400 
  8 N        0.6090     4.3580     0.8110 N.pl3 1 <1>  -0.8690 
  9 C        1.9170     4.6450     0.7040 C.ar  1 <1>   0.7710 
 10 N        2.1920     5.8830     0.3510 N.ar  1 <1>  -0.6200 
 11 N        2.8710     3.7250     0.9430 N.ar  1 <1>  -0.1790 
 12 C        3.4610     6.2270     0.2100 C.ar  1 <1>   0.4100 
 13 C        4.1800     4.0310     0.8100 C.ar  1 <1>   0.2110 
 14 N        3.7320     7.5080    -0.1680 N.pl3 1 <1>  -0.8380 
 15 C        4.4950     5.2960     0.4450 C.ar  1 <1>  -0.1500 
 16 C        4.9940     7.9370    -0.8280 C.3   1 <1>   0.2090 
 17 C        2.6880     8.5800    -0.1280 C.3   1 <1>   0.1290 
 18 C        5.9170     8.5710     0.2080 C.3   1 <1>  -0.2400 
 19 H       -1.1010     1.4160     0.8040 H     1 <1>   0.0800 
 20 H       -1.0030     2.5800    -0.4790 H     1 <1>   0.0800 
 21 H       -0.2270    -0.1140    -1.6860 H     1 <1>   0.0800 
 22 H       -0.0360    -0.8130    -0.1110 H     1 <1>   0.0800 
 23 H        0.4270     2.7750     2.1980 H     1 <1>   0.0800 
 24 H       -1.0570     3.5760     1.8030 H     1 <1>   0.0800 
 25 H        2.1310    -0.6460    -2.2180 H     1 <1>   0.0800 
 26 H        1.2300    -2.0810    -1.7870 H     1 <1>   0.0800 
 27 H        2.3240    -1.3570    -0.6320 H     1 <1>   0.0800 
 28 H        0.0160     5.1490     0.5290 H     1 <1>   0.4000 
 29 H        2.5670     2.7630     1.1310 H     1 <1>   0.4570 
 30 H        4.9180     3.2670     0.9920 H     1 <1>   0.1500 
 31 H        5.5170     5.6010     0.3360 H     1 <1>   0.1500 
 32 H        4.7720     8.6500    -1.6050 H     1 <1>   0.0800 
 33 H        5.4780     7.0960    -1.2950 H     1 <1>   0.0800 
 34 H        1.9680     8.3820     0.6470 H     1 <1>   0.0800 
 35 H        2.1780     8.6230    -1.0740 H     1 <1>   0.0800 
 36 H        3.1390     9.5360     0.0740 H     1 <1>   0.0800 
 37 H        5.4600     9.4470     0.6300 H     1 <1>   0.0800 
 38 H        6.8390     8.8630    -0.2600 H     1 <1>   0.0800 
 39 H        6.1380     7.8750     0.9960 H     1 <1>   0.0800 
@<TRIPOS>BOND
  1   1   2  2   
  2   1   3  2   
  3   1   4  1   
  4   1   5  1   
  5   4   6  1   
  6   4  19  1   
  7   4  20  1   
  8   5   7  1   
  9   5  21  1   
 10   5  22  1   
 11   6   8  1   
 12   6  23  1   
 13   6  24  1   
 14   7  25  1   
 15   7  26  1   
 16   7  27  1   
 17   8   9  1   
 18   8  28  1   
 19   9  10  ar  
 20   9  11  ar  
 21  10  12  ar  
 22  11  13  ar  
 23  11  29  1   
 24  12  14  1   
 25  12  15  ar  
 26  13  15  ar  
 27  13  30  1   
 28  14  16  1   
 29  14  17  1   
 30  15  31  1   
 31  16  18  1   
 32  16  32  1   
 33  16  33  1   
 34  17  34  1   
 35  17  35  1   
 36  17  36  1   
 37  18  37  1   
 38  18  38  1   
 39  18  39  1   
@<TRIPOS>SUBSTRUCTURE
  1 ****   9 GROUP 4 **** **** 0

# MOE 2024.06 (io_trps.svl 2023.06)
