@<TRIPOS>MOLECULE
NONAME
56 59 1 0 0 
SMALL
USER_CHARGES


@<TRIPOS>ATOM
  1 F       -0.4280    -3.3530     2.9960 F     1 <1>  -0.1900 
  2 C       -1.1800    -3.9000     2.0750 C.ar  1 <1>   0.1900 
  3 C       -1.9960    -4.9590     2.4220 C.ar  1 <1>  -0.1500 
  4 C       -1.1280    -3.3990     0.7880 C.ar  1 <1>  -0.1500 
  5 C       -2.7900    -5.5290     1.4420 C.ar  1 <1>  -0.1500 
  6 C       -1.9280    -3.9800    -0.1810 C.ar  1 <1>  -0.1500 
  7 C       -2.7740    -5.0430     0.1360 C.ar  1 <1>   0.1000 
  8 N       -3.5980    -5.6320    -0.8210 N.pl3 1 <1>  -0.8380 
  9 C       -4.3580    -4.7840    -1.8090 C.3   1 <1>   0.2090 
 10 C       -3.2560    -7.0090    -1.2780 C.3   1 <1>   0.2090 
 11 C       -5.8800    -5.0320    -1.6840 C.3   1 <1>   0.3430 
 12 C       -4.4090    -7.9710    -0.9610 C.3   1 <1>  -0.1600 
 13 N       -6.1250    -6.2290    -0.8260 N.4   1 <1>  -0.9590 
 14 C       -5.7800    -7.5170    -1.4730 C.3   1 <1>   0.3430 
 15 C       -7.3620    -6.2130    -0.0290 C.3   1 <1>   0.5230 
 16 C       -7.0310    -6.9820     1.2220 C.2   1 <1>  -0.3320 
 17 N       -7.4220    -8.2430     1.5220 N.pl3 1 <1>   0.0480 
 18 C       -6.2750    -6.5520     2.2570 C.2   1 <1>   0.0770 
 19 C       -6.8510    -8.4880     2.7240 C.2   1 <1>   0.0360 
 20 C       -8.3000    -9.1710     0.7590 C.3   1 <1>   0.1760 
 21 N       -6.1520    -7.5050     3.1900 N.2   1 <1>  -0.5650 
 22 C       -9.6040    -9.4360     1.5300 C.3   1 <1>  -0.1600 
 23 C       -7.5650   -10.4860     0.4460 C.3   1 <1>  -0.1600 
 24 C      -10.5130   -10.4020     0.7570 C.3   1 <1>  -0.1600 
 25 C       -8.4710   -11.4490    -0.3320 C.3   1 <1>  -0.1600 
 26 C       -9.7810   -11.7100     0.4250 C.3   1 <1>  -0.1600 
 27 H       -2.0060    -5.3250     3.4330 H     1 <1>   0.1500 
 28 H       -0.4730    -2.5790     0.5580 H     1 <1>   0.1500 
 29 H       -3.4240    -6.3590     1.6960 H     1 <1>   0.1500 
 30 H       -1.8840    -3.6110    -1.1880 H     1 <1>   0.1500 
 31 H       -4.0330    -5.0070    -2.8110 H     1 <1>   0.0800 
 32 H       -4.1650    -3.7400    -1.6330 H     1 <1>   0.0800 
 33 H       -2.3600    -7.3440    -0.7790 H     1 <1>   0.0800 
 34 H       -3.0530    -7.0020    -2.3370 H     1 <1>   0.0800 
 35 H       -6.3240    -5.1550    -2.6580 H     1 <1>   0.0800 
 36 H       -6.3200    -4.1630    -1.2240 H     1 <1>   0.0800 
 37 H       -4.4560    -8.1270     0.1030 H     1 <1>   0.0800 
 38 H       -4.1780    -8.9240    -1.4020 H     1 <1>   0.0800 
 39 H       -5.3520    -6.1240    -0.1360 H     1 <1>   0.4500 
 40 H       -6.5150    -8.2640    -1.2240 H     1 <1>   0.0800 
 41 H       -5.7570    -7.4050    -2.5450 H     1 <1>   0.0800 
 42 H       -8.1830    -6.6550    -0.5690 H     1 <1>   0.0800 
 43 H       -7.6180    -5.2000     0.2370 H     1 <1>   0.0800 
 44 H       -5.7940    -5.5950     2.3900 H     1 <1>   0.1500 
 45 H       -6.9790    -9.4250     3.2390 H     1 <1>   0.1500 
 46 H       -8.5580    -8.7030    -0.1730 H     1 <1>   0.0800 
 47 H      -10.1280    -8.5100     1.6920 H     1 <1>   0.0800 
 48 H       -9.3790    -9.8680     2.4900 H     1 <1>   0.0800 
 49 H       -7.2680   -10.9640     1.3640 H     1 <1>   0.0800 
 50 H       -6.6790   -10.2880    -0.1310 H     1 <1>   0.0800 
 51 H      -10.8440    -9.9380    -0.1560 H     1 <1>   0.0800 
 52 H      -11.3880   -10.6230     1.3460 H     1 <1>   0.0800 
 53 H       -7.9580   -12.3840    -0.4870 H     1 <1>   0.0800 
 54 H       -8.6980   -11.0370    -1.3010 H     1 <1>   0.0800 
 55 H      -10.4210   -12.3400    -0.1680 H     1 <1>   0.0800 
 56 H       -9.5650   -12.2380     1.3390 H     1 <1>   0.0800 
@<TRIPOS>BOND
  1   1   2  1   
  2   2   3  ar  
  3   2   4  ar  
  4   3   5  ar  
  5   3  27  1   
  6   4   6  ar  
  7   4  28  1   
  8   5   7  ar  
  9   5  29  1   
 10   6   7  ar  
 11   6  30  1   
 12   7   8  1   
 13   8   9  1   
 14   8  10  1   
 15   9  11  1   
 16   9  31  1   
 17   9  32  1   
 18  10  12  1   
 19  10  33  1   
 20  10  34  1   
 21  11  13  1   
 22  11  35  1   
 23  11  36  1   
 24  12  14  1   
 25  12  37  1   
 26  12  38  1   
 27  13  14  1   
 28  13  15  1   
 29  13  39  1   
 30  14  40  1   
 31  14  41  1   
 32  15  16  1   
 33  15  42  1   
 34  15  43  1   
 35  16  17  1   
 36  16  18  2   
 37  17  19  1   
 38  17  20  1   
 39  18  21  1   
 40  18  44  1   
 41  19  21  2   
 42  19  45  1   
 43  20  22  1   
 44  20  23  1   
 45  20  46  1   
 46  22  24  1   
 47  22  47  1   
 48  22  48  1   
 49  23  25  1   
 50  23  49  1   
 51  23  50  1   
 52  24  26  1   
 53  24  51  1   
 54  24  52  1   
 55  25  26  1   
 56  25  53  1   
 57  25  54  1   
 58  26  55  1   
 59  26  56  1   
@<TRIPOS>SUBSTRUCTURE
  1 ****  16 GROUP 4 **** **** 0

# MOE 2024.06 (io_trps.svl 2023.06)
