@<TRIPOS>MOLECULE
NONAME
48 50 1 0 0 
SMALL
USER_CHARGES


@<TRIPOS>ATOM
  1 F       -1.8570    -2.1850     0.3580 F     1 <1>  -0.1900 
  2 C       -2.3900    -0.9920     0.2850 C.ar  1 <1>   0.1900 
  3 C       -3.5010    -0.7140     1.0570 C.ar  1 <1>  -0.1440 
  4 C       -1.8210    -0.0710    -0.5710 C.ar  1 <1>  -0.1500 
  5 C       -4.0540     0.5520     0.9560 C.ar  1 <1>  -0.1500 
  6 C       -4.0880    -1.7640     1.9760 C.3   1 <1>   0.4870 
  7 C       -2.3850     1.1980    -0.6760 C.ar  1 <1>   0.0820 
  8 C       -3.5190     1.5070     0.1040 C.ar  1 <1>   0.0820 
  9 N       -4.9420    -2.6750     1.1750 N.4   1 <1>  -0.9590 
 10 O       -1.8600     2.1250    -1.5270 O.3   1 <1>  -0.3620 
 11 O       -4.1960     2.6910     0.1270 O.3   1 <1>  -0.3620 
 12 C       -6.0930    -2.0300     0.4750 C.3   1 <1>   0.3430 
 13 C       -5.4690    -3.8650     1.8800 C.3   1 <1>   0.3430 
 14 C       -0.6510     1.9200    -2.2280 C.3   1 <1>   0.0400 
 15 C       -3.6720     3.8930    -0.3940 C.3   1 <1>   0.0400 
 16 C       -7.1640    -3.1200     0.3300 C.3   1 <1>   0.2000 
 17 C       -6.5910    -4.3880     0.9790 C.3   1 <1>  -0.0800 
 18 O       -8.3100    -2.7400     1.0190 O.3   1 <1>  -0.6800 
 19 C       -6.1120    -5.4350    -0.0600 C.3   1 <1>  -0.0170 
 20 C       -4.7480    -5.1840    -0.7050 C.ar  1 <1>   0.1670 
 21 N       -4.5770    -4.0330    -1.3390 N.ar  1 <1>  -0.6200 
 22 C       -3.7540    -6.1580    -0.6090 C.ar  1 <1>   0.1600 
 23 C       -3.3760    -3.9370    -1.8920 C.ar  1 <1>   0.1600 
 24 N       -2.5450    -6.0430    -1.1250 N.ar  1 <1>  -0.6200 
 25 C       -2.3900    -4.9090    -1.7830 C.ar  1 <1>   0.1600 
 26 H       -0.9570    -0.3650    -1.1350 H     1 <1>   0.1500 
 27 H       -4.9160     0.8280     1.5400 H     1 <1>   0.1500 
 28 H       -4.6700    -1.2900     2.7500 H     1 <1>   0.0800 
 29 H       -3.2880    -2.3190     2.4390 H     1 <1>   0.0800 
 30 H       -4.3590    -3.0420     0.3950 H     1 <1>   0.4500 
 31 H       -6.4850    -1.2060     1.0470 H     1 <1>   0.0800 
 32 H       -5.7830    -1.6780    -0.4960 H     1 <1>   0.0800 
 33 H       -4.7020    -4.6070     2.0350 H     1 <1>   0.0800 
 34 H       -5.8800    -3.5710     2.8320 H     1 <1>   0.0800 
 35 H       -0.4270     2.8180    -2.7760 H     1 <1>   0.0800 
 36 H       -0.7760     1.1010    -2.9130 H     1 <1>   0.0800 
 37 H        0.1350     1.7200    -1.5220 H     1 <1>   0.0800 
 38 H       -4.3120     4.6990    -0.0870 H     1 <1>   0.0800 
 39 H       -3.6570     3.8310    -1.4680 H     1 <1>   0.0800 
 40 H       -2.6810     4.0420    -0.0040 H     1 <1>   0.0800 
 41 H       -7.4370    -3.2610    -0.7030 H     1 <1>   0.0800 
 42 H       -7.3450    -4.8680     1.5800 H     1 <1>   0.0800 
 43 H       -8.1860    -2.6940     1.9860 H     1 <1>   0.4000 
 44 H       -6.8450    -5.5190    -0.8440 H     1 <1>   0.0800 
 45 H       -6.0850    -6.3940     0.4270 H     1 <1>   0.0800 
 46 H       -3.9610    -7.0750    -0.0850 H     1 <1>   0.1500 
 47 H       -3.1550    -3.0470    -2.4580 H     1 <1>   0.1500 
 48 H       -1.4380    -4.7410    -2.2580 H     1 <1>   0.1500 
@<TRIPOS>BOND
  1   1   2  1   
  2   2   3  ar  
  3   2   4  ar  
  4   3   5  ar  
  5   3   6  1   
  6   4   7  ar  
  7   4  26  1   
  8   5   8  ar  
  9   5  27  1   
 10   6   9  1   
 11   6  28  1   
 12   6  29  1   
 13   7   8  ar  
 14   7  10  1   
 15   8  11  1   
 16   9  12  1   
 17   9  13  1   
 18   9  30  1   
 19  10  14  1   
 20  11  15  1   
 21  12  16  1   
 22  12  31  1   
 23  12  32  1   
 24  13  17  1   
 25  13  33  1   
 26  13  34  1   
 27  14  35  1   
 28  14  36  1   
 29  14  37  1   
 30  15  38  1   
 31  15  39  1   
 32  15  40  1   
 33  16  17  1   
 34  16  18  1   
 35  16  41  1   
 36  17  19  1   
 37  17  42  1   
 38  18  43  1   
 39  19  20  1   
 40  19  44  1   
 41  19  45  1   
 42  20  21  ar  
 43  20  22  ar  
 44  21  23  ar  
 45  22  24  ar  
 46  22  46  1   
 47  23  25  ar  
 48  23  47  1   
 49  24  25  ar  
 50  25  48  1   
@<TRIPOS>SUBSTRUCTURE
  1 ****   3 GROUP 4 **** **** 0

# MOE 2024.06 (io_trps.svl 2023.06)
