@<TRIPOS>MOLECULE
NONAME
55 59 1 0 0 
SMALL
USER_CHARGES


@<TRIPOS>ATOM
  1 N        0.1110     0.0100     0.2290 N.ar  1 <1>  -0.6200 
  2 C       -0.8180     0.8670     0.6740 C.ar  1 <1>   0.6200 
  3 C        1.1190     0.5430    -0.4190 C.ar  1 <1>   0.1660 
  4 N       -0.7830     2.1980     0.5080 N.ar  1 <1>  -0.6200 
  5 C       -1.9520     0.3070     1.3980 C.ar  1 <1>   0.0000 
  6 C        1.2380     1.8830    -0.6260 C.ar  1 <1>  -0.1430 
  7 C        2.2930    -0.2150    -1.0100 C.3   1 <1>   0.1440 
  8 C        0.2470     2.6950    -0.1390 C.ar  1 <1>   0.1600 
  9 C       -3.2000     0.9370     1.4060 C.ar  1 <1>  -0.1500 
 10 C       -1.8470    -0.8870     2.1180 C.ar  1 <1>  -0.1500 
 11 C        2.4990     2.2240    -1.3800 C.3   1 <1>  -0.0160 
 12 C        3.2330    -0.6220     0.1420 C.3   1 <1>   0.2090 
 13 C        1.8640    -1.4680    -1.8040 C.3   1 <1>  -0.1600 
 14 C        2.9450     0.8560    -1.9220 C.3   1 <1>  -0.1600 
 15 C       -4.2790     0.4090     2.0920 C.ar  1 <1>  -0.1500 
 16 C       -2.9210    -1.4220     2.8050 C.ar  1 <1>  -0.1500 
 17 N        4.4040    -1.4080    -0.3530 N.pl3 1 <1>  -0.8380 
 18 C        3.0890    -2.2780    -2.2660 C.3   1 <1>  -0.1600 
 19 C       -4.1420    -0.7740     2.7940 C.ar  1 <1>  -0.1500 
 20 C        5.4800    -1.4760     0.5490 C.ar  1 <1>   0.4100 
 21 C        4.0070    -2.6390    -1.0910 C.3   1 <1>   0.2090 
 22 N        5.7020    -2.6770     1.0640 N.ar  1 <1>  -0.6200 
 23 C        6.2640    -0.3180     0.9110 C.ar  1 <1>   0.4100 
 24 C        6.6900    -2.6870     1.9450 C.ar  1 <1>   0.1600 
 25 N        7.2410    -0.3640     1.8050 N.ar  1 <1>  -0.6200 
 26 N        6.0740     0.9420     0.3160 N.pl3 1 <1>  -0.8380 
 27 C        7.4260    -1.5770     2.3040 C.ar  1 <1>   0.1600 
 28 C        6.6290     1.0530    -1.0550 C.3   1 <1>   0.1290 
 29 C        6.3030     2.1540     1.1490 C.3   1 <1>   0.1290 
 30 H        0.2990     3.7610    -0.2780 H     1 <1>   0.1500 
 31 H       -3.3270     1.8590     0.8650 H     1 <1>   0.1500 
 32 H       -0.9040    -1.4060     2.1390 H     1 <1>   0.1500 
 33 H        3.2360     2.6150    -0.6990 H     1 <1>   0.0800 
 34 H        2.3190     2.9260    -2.1750 H     1 <1>   0.0800 
 35 H        2.6860    -1.2240     0.8480 H     1 <1>   0.0800 
 36 H        3.5710     0.2600     0.6570 H     1 <1>   0.0800 
 37 H        1.2620    -1.1850    -2.6490 H     1 <1>   0.0800 
 38 H        1.2580    -2.0900    -1.1680 H     1 <1>   0.0800 
 39 H        2.5660     0.7520    -2.9230 H     1 <1>   0.0800 
 40 H        4.0140     0.7640    -1.9540 H     1 <1>   0.0800 
 41 H       -5.2270     0.9200     2.0780 H     1 <1>   0.1500 
 42 H       -2.8060    -2.3430     3.3490 H     1 <1>   0.1500 
 43 H        3.6570    -1.7150    -2.9850 H     1 <1>   0.0800 
 44 H        2.7610    -3.1830    -2.7440 H     1 <1>   0.0800 
 45 H       -4.9800    -1.1870     3.3280 H     1 <1>   0.1500 
 46 H        3.4960    -3.3060    -0.4170 H     1 <1>   0.0800 
 47 H        4.8880    -3.1380    -1.4560 H     1 <1>   0.0800 
 48 H        6.9190    -3.6330     2.4030 H     1 <1>   0.1500 
 49 H        8.2080    -1.6840     3.0340 H     1 <1>   0.1500 
 50 H        6.3920     0.1670    -1.6190 H     1 <1>   0.0800 
 51 H        7.6990     1.1580    -1.0070 H     1 <1>   0.0800 
 52 H        6.2080     1.9070    -1.5550 H     1 <1>   0.0800 
 53 H        5.9050     1.9960     2.1370 H     1 <1>   0.0800 
 54 H        5.8100     3.0020     0.7070 H     1 <1>   0.0800 
 55 H        7.3580     2.3520     1.2280 H     1 <1>   0.0800 
@<TRIPOS>BOND
  1   1   2  ar  
  2   1   3  ar  
  3   2   4  ar  
  4   2   5  1   
  5   3   6  ar  
  6   3   7  1   
  7   4   8  ar  
  8   5   9  ar  
  9   5  10  ar  
 10   6   8  ar  
 11   6  11  1   
 12   7  12  1   
 13   7  13  1   
 14   7  14  1   
 15   8  30  1   
 16   9  15  ar  
 17   9  31  1   
 18  10  16  ar  
 19  10  32  1   
 20  11  14  1   
 21  11  33  1   
 22  11  34  1   
 23  12  17  1   
 24  12  35  1   
 25  12  36  1   
 26  13  18  1   
 27  13  37  1   
 28  13  38  1   
 29  14  39  1   
 30  14  40  1   
 31  15  19  ar  
 32  15  41  1   
 33  16  19  ar  
 34  16  42  1   
 35  17  20  1   
 36  17  21  1   
 37  18  21  1   
 38  18  43  1   
 39  18  44  1   
 40  19  45  1   
 41  20  22  ar  
 42  20  23  ar  
 43  21  46  1   
 44  21  47  1   
 45  22  24  ar  
 46  23  25  ar  
 47  23  26  1   
 48  24  27  ar  
 49  24  48  1   
 50  25  27  ar  
 51  26  28  1   
 52  26  29  1   
 53  27  49  1   
 54  28  50  1   
 55  28  51  1   
 56  28  52  1   
 57  29  53  1   
 58  29  54  1   
 59  29  55  1   
@<TRIPOS>SUBSTRUCTURE
  1 ****  12 GROUP 4 **** **** 0

# MOE 2024.06 (io_trps.svl 2023.06)
