@<TRIPOS>MOLECULE
NONAME
51 54 1 0 0 
SMALL
USER_CHARGES


@<TRIPOS>ATOM
  1 O       -0.4650     2.4200    -2.0300 O.2   1 <1>  -0.5700 
  2 C        0.5650     2.6040    -1.4400 C.2   1 <1>   0.5690 
  3 N        1.4700     3.5420    -1.7430 N.am  1 <1>  -0.7300 
  4 C        0.9940     1.8390    -0.2200 C.3   1 <1>  -0.0990 
  5 C        2.5720     3.6530    -0.7670 C.3   1 <1>   0.2810 
  6 C        2.0990     2.7310     0.3770 C.3   1 <1>  -0.1600 
  7 C        2.8900     5.0990    -0.3130 C.2   1 <1>   0.5690 
  8 O        2.3280     6.0250    -0.8510 O.2   1 <1>  -0.5700 
  9 N        3.8380     5.3490     0.6510 N.am  1 <1>  -0.6600 
 10 C        5.1600     4.6640     0.6740 C.3   1 <1>   0.1400 
 11 C        3.7110     6.5580     1.5130 C.3   1 <1>   0.1400 
 12 C        6.0640     5.1860    -0.4670 C.3   1 <1>   0.3430 
 13 C        4.7670     7.6180     1.1850 C.3   1 <1>  -0.1600 
 14 N        6.4220     6.6470    -0.3890 N.4   1 <1>  -0.9590 
 15 C        5.2550     7.5820    -0.2630 C.3   1 <1>   0.3430 
 16 C        7.2670     7.0350    -1.5530 C.3   1 <1>   0.4860 
 17 C        7.9440     8.3520    -1.2310 C.ar  1 <1>  -0.1440 
 18 C        8.9960     8.3910    -0.3190 C.ar  1 <1>  -0.1500 
 19 C        7.5090     9.5260    -1.8440 C.ar  1 <1>  -0.1500 
 20 C        9.5810     9.6070    -0.0270 C.ar  1 <1>  -0.1440 
 21 C        8.1050    10.7400    -1.5420 C.ar  1 <1>  -0.1500 
 22 C        9.1380    10.7550    -0.6270 C.ar  1 <1>   0.0820 
 23 C       10.7120     9.9600     0.8950 C.3   1 <1>  -0.0170 
 24 O        9.8100    11.8470    -0.2340 O.3   1 <1>  -0.3620 
 25 C       10.8250    11.4820     0.6900 C.3   1 <1>   0.1200 
 26 H        1.2190     4.3400    -2.3350 H     1 <1>   0.3700 
 27 H        1.3780     0.8830    -0.5260 H     1 <1>   0.0800 
 28 H        0.1690     1.7070     0.4560 H     1 <1>   0.0800 
 29 H        3.4490     3.2340    -1.2260 H     1 <1>   0.0800 
 30 H        2.9060     2.1520     0.7870 H     1 <1>   0.0800 
 31 H        1.6750     3.3330     1.1630 H     1 <1>   0.0800 
 32 H        5.0170     3.6050     0.5530 H     1 <1>   0.0800 
 33 H        5.6400     4.8160     1.6260 H     1 <1>   0.0800 
 34 H        3.7840     6.2720     2.5490 H     1 <1>   0.0800 
 35 H        2.7310     6.9870     1.3740 H     1 <1>   0.0800 
 36 H        5.5620     4.9950    -1.4020 H     1 <1>   0.0800 
 37 H        6.9720     4.6050    -0.4660 H     1 <1>   0.0800 
 38 H        5.5940     7.5470     1.8680 H     1 <1>   0.0800 
 39 H        4.3120     8.5770     1.3600 H     1 <1>   0.0800 
 40 H        7.0080     6.8150     0.4370 H     1 <1>   0.4500 
 41 H        5.5650     8.5800    -0.5280 H     1 <1>   0.0800 
 42 H        4.4530     7.2950    -0.9250 H     1 <1>   0.0800 
 43 H        6.6630     7.1320    -2.4410 H     1 <1>   0.0800 
 44 H        8.0240     6.2890    -1.7320 H     1 <1>   0.0800 
 45 H        9.3680     7.5010     0.1580 H     1 <1>   0.1500 
 46 H        6.7070     9.5130    -2.5630 H     1 <1>   0.1500 
 47 H        7.7870    11.6600    -2.0010 H     1 <1>   0.1500 
 48 H       11.6240     9.4660     0.6070 H     1 <1>   0.0800 
 49 H       10.4760     9.7280     1.9170 H     1 <1>   0.0800 
 50 H       11.7760    11.7550     0.2660 H     1 <1>   0.0800 
 51 H       10.6570    12.0210     1.6060 H     1 <1>   0.0800 
@<TRIPOS>BOND
  1   1   2  2   
  2   2   3  am  
  3   2   4  1   
  4   3   5  1   
  5   3  26  1   
  6   4   6  1   
  7   4  27  1   
  8   4  28  1   
  9   5   6  1   
 10   5   7  1   
 11   5  29  1   
 12   6  30  1   
 13   6  31  1   
 14   7   8  2   
 15   7   9  am  
 16   9  10  1   
 17   9  11  1   
 18  10  12  1   
 19  10  32  1   
 20  10  33  1   
 21  11  13  1   
 22  11  34  1   
 23  11  35  1   
 24  12  14  1   
 25  12  36  1   
 26  12  37  1   
 27  13  15  1   
 28  13  38  1   
 29  13  39  1   
 30  14  15  1   
 31  14  16  1   
 32  14  40  1   
 33  15  41  1   
 34  15  42  1   
 35  16  17  1   
 36  16  43  1   
 37  16  44  1   
 38  17  18  ar  
 39  17  19  ar  
 40  18  20  ar  
 41  18  45  1   
 42  19  21  ar  
 43  19  46  1   
 44  20  22  ar  
 45  20  23  1   
 46  21  22  ar  
 47  21  47  1   
 48  22  24  1   
 49  23  25  1   
 50  23  48  1   
 51  23  49  1   
 52  24  25  1   
 53  25  50  1   
 54  25  51  1   
@<TRIPOS>SUBSTRUCTURE
  1 ****  15 GROUP 4 **** **** 0

# MOE 2024.06 (io_trps.svl 2023.06)
