@<TRIPOS>MOLECULE
NONAME
47 51 1 0 0 
SMALL
USER_CHARGES


@<TRIPOS>ATOM
  1 S       -2.0720     1.2920    -1.5890 S.3   1 <1>  -0.0800 
  2 C       -1.2720     1.4510    -0.0330 C.2   1 <1>  -0.1400 
  3 C       -3.1470     0.0570    -0.9450 C.2   1 <1>  -0.1100 
  4 C       -1.8200     0.6250     0.8680 C.2   1 <1>  -0.1810 
  5 C       -0.1170     2.4160     0.2070 C.3   1 <1>   0.4600 
  6 C       -2.8860    -0.1790     0.3550 C.2   1 <1>  -0.1500 
  7 C       -1.2910     0.6110     2.2850 C.3   1 <1>   0.0210 
  8 O        0.4030     2.1830     1.5030 O.3   1 <1>  -0.5600 
  9 C        1.0320     2.1520    -0.7710 C.3   1 <1>  -0.1600 
 10 C       -0.5720     3.8770     0.1060 C.3   1 <1>  -0.1600 
 11 C       -0.5080     1.9130     2.5440 C.3   1 <1>   0.1200 
 12 C        2.1860     3.1340    -0.5610 C.3   1 <1>   0.1400 
 13 C        0.5940     4.8460     0.3130 C.3   1 <1>   0.1400 
 14 N        1.6790     4.5330    -0.6610 N.am  1 <1>  -0.6600 
 15 C        2.2490     5.4360    -1.5310 C.2   1 <1>   0.5690 
 16 O        3.1050     5.1020    -2.3190 O.2   1 <1>  -0.5700 
 17 C        1.8390     6.9090    -1.5520 C.3   1 <1>   0.2010 
 18 N        2.3160     7.6600    -0.3580 N.am  1 <1>  -0.4770 
 19 C        1.5340     8.2760     0.5740 C.2   1 <1>   0.7800 
 20 C        3.6160     7.7810     0.0870 C.ar  1 <1>   0.1170 
 21 O        0.3200     8.3480     0.5590 O.2   1 <1>  -0.5700 
 22 O        2.2770     8.7850     1.5570 O.3   1 <1>  -0.2320 
 23 C        3.5590     8.4830     1.2720 C.ar  1 <1>   0.0830 
 24 C        4.8370     7.3510    -0.4110 C.ar  1 <1>  -0.1500 
 25 C        4.6940     8.7860     2.0000 C.ar  1 <1>  -0.1500 
 26 C        5.9850     7.6460     0.3080 C.ar  1 <1>  -0.1500 
 27 C        5.9160     8.3580     1.5040 C.ar  1 <1>  -0.1500 
 28 H       -3.8690    -0.3680    -1.6190 H     1 <1>   0.1500 
 29 H       -3.4000    -0.8890     0.9790 H     1 <1>   0.1500 
 30 H       -0.6470    -0.2370     2.4250 H     1 <1>   0.0800 
 31 H       -2.1050     0.5410     2.9830 H     1 <1>   0.0800 
 32 H        0.6810     2.2510    -1.7810 H     1 <1>   0.0800 
 33 H        1.3810     1.1440    -0.6440 H     1 <1>   0.0800 
 34 H       -1.3470     4.0750     0.8210 H     1 <1>   0.0800 
 35 H       -0.9900     4.0490    -0.8690 H     1 <1>   0.0800 
 36 H        0.0550     1.8320     3.4570 H     1 <1>   0.0800 
 37 H       -1.1830     2.7460     2.6300 H     1 <1>   0.0800 
 38 H        2.9520     2.9490    -1.2940 H     1 <1>   0.0800 
 39 H        2.6190     2.9870     0.4140 H     1 <1>   0.0800 
 40 H        0.9810     4.7470     1.3130 H     1 <1>   0.0800 
 41 H        0.2320     5.8480     0.1920 H     1 <1>   0.0800 
 42 H        0.7690     6.9780    -1.6250 H     1 <1>   0.0800 
 43 H        2.2560     7.3660    -2.4300 H     1 <1>   0.0800 
 44 H        4.8870     6.7980    -1.3330 H     1 <1>   0.1500 
 45 H        4.6200     9.3360     2.9220 H     1 <1>   0.1500 
 46 H        6.9420     7.3200    -0.0620 H     1 <1>   0.1500 
 47 H        6.8200     8.5760     2.0460 H     1 <1>   0.1500 
@<TRIPOS>BOND
  1   1   2  1   
  2   1   3  1   
  3   2   4  2   
  4   2   5  1   
  5   3   6  2   
  6   3  28  1   
  7   4   6  1   
  8   4   7  1   
  9   5   8  1   
 10   5   9  1   
 11   5  10  1   
 12   6  29  1   
 13   7  11  1   
 14   7  30  1   
 15   7  31  1   
 16   8  11  1   
 17   9  12  1   
 18   9  32  1   
 19   9  33  1   
 20  10  13  1   
 21  10  34  1   
 22  10  35  1   
 23  11  36  1   
 24  11  37  1   
 25  12  14  1   
 26  12  38  1   
 27  12  39  1   
 28  13  14  1   
 29  13  40  1   
 30  13  41  1   
 31  14  15  am  
 32  15  16  2   
 33  15  17  1   
 34  17  18  1   
 35  17  42  1   
 36  17  43  1   
 37  18  19  am  
 38  18  20  1   
 39  19  21  2   
 40  19  22  1   
 41  20  23  ar  
 42  20  24  ar  
 43  22  23  1   
 44  23  25  ar  
 45  24  26  ar  
 46  24  44  1   
 47  25  27  ar  
 48  25  45  1   
 49  26  27  ar  
 50  26  46  1   
 51  27  47  1   
@<TRIPOS>SUBSTRUCTURE
  1 ****  13 GROUP 4 **** **** 0

# MOE 2024.06 (io_trps.svl 2023.06)
