@<TRIPOS>MOLECULE
NONAME
44 46 1 0 0 
SMALL
USER_CHARGES


@<TRIPOS>ATOM
  1 F        0.5960     1.8860     0.8390 F     1 <1>  -0.1900 
  2 C        1.7070     1.6200     0.2000 C.ar  1 <1>   0.1900 
  3 C        1.9860     0.3360    -0.2750 C.ar  1 <1>   0.0820 
  4 C        2.5750     2.6830     0.0320 C.ar  1 <1>  -0.1500 
  5 O        1.1970    -0.7720    -0.1590 O.3   1 <1>  -0.3630 
  6 C        3.2040     0.2010    -0.9330 C.ar  1 <1>   0.1900 
  7 C        3.7970     2.5230    -0.6290 C.ar  1 <1>   0.0860 
  8 C       -0.0820    -0.7670     0.4370 C.3   1 <1>   0.0400 
  9 F        3.5500    -0.9670    -1.4120 F     1 <1>  -0.1900 
 10 C        4.0890     1.2470    -1.1140 C.ar  1 <1>  -0.1500 
 11 C        4.7250     3.6270    -0.8080 C.2   1 <1>   0.5440 
 12 O        5.7320     3.5170    -1.4830 O.2   1 <1>  -0.5700 
 13 N        4.5400     4.8410    -0.2030 N.am  1 <1>  -0.6600 
 14 C        5.1860     5.0480     1.1420 C.3   1 <1>   0.2200 
 15 C        4.2940     6.0240    -1.0840 C.3   1 <1>   0.1400 
 16 C        4.5270     6.1750     1.9540 C.3   1 <1>   0.1200 
 17 C        6.7150     5.2870     1.0160 C.3   1 <1>   0.3430 
 18 C        5.1450     7.2690    -0.7690 C.3   1 <1>  -0.0800 
 19 O        5.1050     7.4070     1.6440 O.3   1 <1>  -0.5600 
 20 N        7.1360     5.6950    -0.3680 N.4   1 <1>  -0.9590 
 21 C        4.6510     8.0140     0.4810 C.3   1 <1>   0.1200 
 22 C        6.6750     7.0620    -0.7670 C.3   1 <1>   0.3430 
 23 C        8.6010     5.5260    -0.5690 C.3   1 <1>   0.2630 
 24 H        2.2900     3.6440     0.4190 H     1 <1>   0.1500 
 25 H       -0.4850    -1.7610     0.3670 H     1 <1>   0.0800 
 26 H       -0.7150    -0.0800    -0.0960 H     1 <1>   0.0800 
 27 H        0.0130    -0.4860     1.4710 H     1 <1>   0.0800 
 28 H        5.0120     1.0640    -1.6370 H     1 <1>   0.1500 
 29 H        5.0440     4.1460     1.7120 H     1 <1>   0.0800 
 30 H        4.4750     5.7370    -2.1080 H     1 <1>   0.0800 
 31 H        3.2510     6.2850    -1.0160 H     1 <1>   0.0800 
 32 H        4.7110     6.0100     3.0010 H     1 <1>   0.0800 
 33 H        3.4620     6.2130     1.8020 H     1 <1>   0.0800 
 34 H        7.2100     4.3650     1.2710 H     1 <1>   0.0800 
 35 H        7.0260     6.0280     1.7340 H     1 <1>   0.0800 
 36 H        4.9500     7.9550    -1.5740 H     1 <1>   0.0800 
 37 H        6.6420     5.0110    -0.9870 H     1 <1>   0.4500 
 38 H        3.5750     8.0760     0.5130 H     1 <1>   0.0800 
 39 H        5.0400     9.0180     0.4850 H     1 <1>   0.0800 
 40 H        7.1230     7.7960    -0.1170 H     1 <1>   0.0800 
 41 H        7.0320     7.2550    -1.7660 H     1 <1>   0.0800 
 42 H        9.1490     6.1920     0.0770 H     1 <1>   0.0800 
 43 H        8.8640     5.7400    -1.5920 H     1 <1>   0.0800 
 44 H        8.8920     4.5110    -0.3500 H     1 <1>   0.0800 
@<TRIPOS>BOND
  1   1   2  1   
  2   2   3  ar  
  3   2   4  ar  
  4   3   5  1   
  5   3   6  ar  
  6   4   7  ar  
  7   4  24  1   
  8   5   8  1   
  9   6   9  1   
 10   6  10  ar  
 11   7  10  ar  
 12   7  11  1   
 13   8  25  1   
 14   8  26  1   
 15   8  27  1   
 16  10  28  1   
 17  11  12  2   
 18  11  13  am  
 19  13  14  1   
 20  13  15  1   
 21  14  16  1   
 22  14  17  1   
 23  14  29  1   
 24  15  18  1   
 25  15  30  1   
 26  15  31  1   
 27  16  19  1   
 28  16  32  1   
 29  16  33  1   
 30  17  20  1   
 31  17  34  1   
 32  17  35  1   
 33  18  21  1   
 34  18  22  1   
 35  18  36  1   
 36  19  21  1   
 37  20  22  1   
 38  20  23  1   
 39  20  37  1   
 40  21  38  1   
 41  21  39  1   
 42  22  40  1   
 43  22  41  1   
 44  23  42  1   
 45  23  43  1   
 46  23  44  1   
@<TRIPOS>SUBSTRUCTURE
  1 ****  11 GROUP 4 **** **** 0

# MOE 2024.06 (io_trps.svl 2023.06)
