@<TRIPOS>MOLECULE
NONAME
50 54 1 0 0 
SMALL
USER_CHARGES


@<TRIPOS>ATOM
  1 O       -0.5060     0.0840     0.1360 O.2   1 <1>  -0.5700 
  2 C       -1.4580     0.7980     0.3900 C.2   1 <1>   0.7030 
  3 N       -2.6890     0.2020     0.5600 N.am  1 <1>  -0.6600 
  4 C       -1.2700     2.2380     0.4730 C.2   1 <1>   0.2770 
  5 C       -2.8120    -1.2510     0.9270 C.3   1 <1>   0.1400 
  6 C       -3.9540     0.7590    -0.0220 C.3   1 <1>   0.1400 
  7 N       -0.3760     2.9760    -0.3160 N.pl3 1 <1>  -0.6290 
  8 C       -1.8750     3.1410     1.2980 C.2   1 <1>   0.1820 
  9 C       -3.4640    -2.0720    -0.2010 C.3   1 <1>   0.3440 
 10 C       -4.5360    -0.1740    -1.1050 C.3   1 <1>   0.2950 
 11 C       -0.4920     4.2630     0.0470 C.cat 1 <1>   0.9620 
 12 C        0.5440     2.6190    -1.2630 C.2   1 <1>   0.2290 
 13 N       -1.3950     4.3790     1.0070 N.pl3 1 <1>  -0.7000 
 14 C       -2.8940     2.9610     2.4100 C.3   1 <1>  -0.0720 
 15 O       -4.6680    -1.4670    -0.5910 O.3   1 <1>  -0.5600 
 16 C       -3.7390    -3.4960     0.2700 C.ar  1 <1>  -0.1440 
 17 C       -5.9110     0.3340    -1.5750 C.3   1 <1>  -0.1950 
 18 N        0.2060     5.2720    -0.4750 N.2   1 <1>  -0.6120 
 19 C        1.2850     3.6140    -1.8140 C.2   1 <1>  -0.1360 
 20 C       -2.7810    -4.4810     0.0710 C.ar  1 <1>  -0.1500 
 21 C       -4.9250    -3.8310     0.9110 C.ar  1 <1>  -0.1500 
 22 C       -7.1760     0.0350    -0.8300 C.3   1 <1>  -0.2000 
 23 C       -6.9340    -0.5760    -2.1820 C.3   1 <1>  -0.2000 
 24 C        1.0720     4.9360    -1.3830 C.2   1 <1>   0.3760 
 25 C       -3.0020    -5.7760     0.5070 C.ar  1 <1>  -0.1500 
 26 C       -5.1470    -5.1260     1.3470 C.ar  1 <1>  -0.1500 
 27 C       -4.1850    -6.0990     1.1460 C.ar  1 <1>  -0.1500 
 28 H       -1.8480    -1.6720     1.1530 H     1 <1>   0.0800 
 29 H       -3.4180    -1.3430     1.8110 H     1 <1>   0.0800 
 30 H       -4.6850     0.8720     0.7600 H     1 <1>   0.0800 
 31 H       -3.7790     1.7260    -0.4580 H     1 <1>   0.0800 
 32 H       -2.8130    -2.1020    -1.0580 H     1 <1>   0.0800 
 33 H       -3.8740    -0.2180    -1.9530 H     1 <1>   0.0800 
 34 H        0.6540     1.5780    -1.5340 H     1 <1>   0.1500 
 35 H       -1.6090     5.2860     1.4250 H     1 <1>   0.4500 
 36 H       -3.0650     1.9210     2.6190 H     1 <1>   0.0800 
 37 H       -3.8280     3.4180     2.1350 H     1 <1>   0.0800 
 38 H       -2.5360     3.4250     3.3120 H     1 <1>   0.0800 
 39 H       -5.8350     1.3090    -2.0220 H     1 <1>   0.1000 
 40 H        2.0290     3.4210    -2.5660 H     1 <1>   0.1500 
 41 H       -1.8540    -4.2480    -0.4250 H     1 <1>   0.1500 
 42 H       -5.6830    -3.0840     1.0690 H     1 <1>   0.1500 
 43 H       -7.1520    -0.6210     0.0240 H     1 <1>   0.1000 
 44 H       -7.9300     0.7970    -0.7420 H     1 <1>   0.1000 
 45 H       -7.5130    -0.2270    -3.0180 H     1 <1>   0.1000 
 46 H       -6.7370    -1.6340    -2.2320 H     1 <1>   0.1000 
 47 H        1.6660     5.7120    -1.8350 H     1 <1>   0.0600 
 48 H       -2.2540    -6.5330     0.3480 H     1 <1>   0.1500 
 49 H       -6.0700    -5.3740     1.8410 H     1 <1>   0.1500 
 50 H       -4.3590    -7.1050     1.4850 H     1 <1>   0.1500 
@<TRIPOS>BOND
  1   1   2  2   
  2   2   3  am  
  3   2   4  1   
  4   3   5  1   
  5   3   6  1   
  6   4   7  1   
  7   4   8  2   
  8   5   9  1   
  9   5  28  1   
 10   5  29  1   
 11   6  10  1   
 12   6  30  1   
 13   6  31  1   
 14   7  11  ar  
 15   7  12  1   
 16   8  13  1   
 17   8  14  1   
 18   9  15  1   
 19   9  16  1   
 20   9  32  1   
 21  10  15  1   
 22  10  17  1   
 23  10  33  1   
 24  11  13  ar  
 25  11  18  1   
 26  12  19  2   
 27  12  34  1   
 28  13  35  1   
 29  14  36  1   
 30  14  37  1   
 31  14  38  1   
 32  16  20  ar  
 33  16  21  ar  
 34  17  22  1   
 35  17  23  1   
 36  17  39  1   
 37  18  24  2   
 38  19  24  1   
 39  19  40  1   
 40  20  25  ar  
 41  20  41  1   
 42  21  26  ar  
 43  21  42  1   
 44  22  23  1   
 45  22  43  1   
 46  22  44  1   
 47  23  45  1   
 48  23  46  1   
 49  24  47  1   
 50  25  27  ar  
 51  25  48  1   
 52  26  27  ar  
 53  26  49  1   
 54  27  50  1   
@<TRIPOS>SUBSTRUCTURE
  1 ****   3 GROUP 4 **** **** 0

# MOE 2024.06 (io_trps.svl 2023.06)
