@<TRIPOS>MOLECULE
NONAME
55 57 1 0 0 
SMALL
USER_CHARGES


@<TRIPOS>ATOM
  1 O        4.4830    -1.1910     0.1650 O.2   1 <1>  -0.5700 
  2 C        3.3200    -1.3330     0.4620 C.2   1 <1>   0.5690 
  3 N        2.5440    -0.2940     0.8630 N.am  1 <1>  -0.7300 
  4 C        2.6870    -2.7270     0.3810 C.3   1 <1>   0.1710 
  5 C        2.9760     1.1150     1.0010 C.3   1 <1>   0.1400 
  6 N        1.2210    -2.7300     0.0970 N.3   1 <1>  -0.8100 
  7 C        2.5120     1.9220    -0.2110 C.3   1 <1>  -0.0170 
  8 C        0.9130    -2.2420    -1.2590 C.3   1 <1>   0.1100 
  9 C        0.6390    -4.0850     0.1790 C.3   1 <1>   0.1100 
 10 C        2.9040     3.3820    -0.0530 C.ar  1 <1>  -0.1430 
 11 C       -0.4770    -2.7950    -1.5440 C.3   1 <1>   0.2000 
 12 C       -0.3690    -4.2080    -0.9760 C.3   1 <1>  -0.0800 
 13 C        4.1860     3.7970    -0.3800 C.ar  1 <1>  -0.1500 
 14 C        1.9900     4.3110     0.4220 C.ar  1 <1>  -0.1500 
 15 O       -1.3690    -2.0570    -0.7860 O.3   1 <1>  -0.6800 
 16 C       -1.7000    -4.8720    -0.5780 C.3   1 <1>   0.0210 
 17 C        4.5480     5.1240    -0.2330 C.ar  1 <1>  -0.1500 
 18 C        2.3500     5.6400     0.5690 C.ar  1 <1>  -0.1500 
 19 C       -1.4770    -6.2780    -0.0510 C.2   1 <1>   0.1080 
 20 C        3.6370     6.0540     0.2400 C.ar  1 <1>   0.0830 
 21 N       -0.9310    -7.2200    -0.7560 N.2   1 <1>  -0.7070 
 22 C       -1.8250    -6.7100     1.2240 C.2   1 <1>  -0.1500 
 23 O        4.0720     7.3340     0.3540 O.3   1 <1>  -0.3630 
 24 N       -0.9220    -8.2930     0.0580 N.pl3 1 <1>   0.3000 
 25 C       -1.4550    -8.0080     1.2650 C.2   1 <1>  -0.3320 
 26 C        3.2210     8.3580     0.8170 C.3   1 <1>   0.0400 
 27 C       -1.5850    -9.0090     2.3980 C.3   1 <1>  -0.0600 
 28 H        1.5550    -0.5070     1.0250 H     1 <1>   0.3700 
 29 H        2.8590    -3.2100     1.3260 H     1 <1>   0.0800 
 30 H        3.2060    -3.2920    -0.3740 H     1 <1>   0.0800 
 31 H        2.5610     1.5300     1.9030 H     1 <1>   0.0800 
 32 H        4.0510     1.1590     1.0730 H     1 <1>   0.0800 
 33 H        2.9700     1.5230    -1.0990 H     1 <1>   0.0800 
 34 H        1.4450     1.8420    -0.3140 H     1 <1>   0.0800 
 35 H        0.9360    -1.1670    -1.3170 H     1 <1>   0.0800 
 36 H        1.6110    -2.6520    -1.9700 H     1 <1>   0.0800 
 37 H        1.3940    -4.8490     0.0780 H     1 <1>   0.0800 
 38 H        0.1540    -4.2040     1.1330 H     1 <1>   0.0800 
 39 H       -0.7670    -2.7550    -2.5800 H     1 <1>   0.0800 
 40 H        0.0890    -4.8250    -1.7300 H     1 <1>   0.0800 
 41 H        4.9070     3.0880    -0.7480 H     1 <1>   0.1500 
 42 H        0.9920     4.0030     0.6790 H     1 <1>   0.1500 
 43 H       -0.9670    -1.9820     0.1050 H     1 <1>   0.4000 
 44 H       -2.3430    -4.9260    -1.4380 H     1 <1>   0.0800 
 45 H       -2.2010    -4.2920     0.1740 H     1 <1>   0.0800 
 46 H        5.5410     5.4470    -0.4860 H     1 <1>   0.1500 
 47 H        1.6190     6.3330     0.9380 H     1 <1>   0.1500 
 48 H       -2.2890    -6.1160     1.9900 H     1 <1>   0.1500 
 49 H       -0.5520    -9.2030    -0.2400 H     1 <1>   0.2700 
 50 H        3.7760     9.2780     0.8190 H     1 <1>   0.0800 
 51 H        2.9020     8.1210     1.8170 H     1 <1>   0.0800 
 52 H        2.3800     8.4390     0.1520 H     1 <1>   0.0800 
 53 H       -2.0420    -8.5430     3.2530 H     1 <1>   0.0800 
 54 H       -0.6160    -9.3750     2.6850 H     1 <1>   0.0800 
 55 H       -2.1980    -9.8380     2.0930 H     1 <1>   0.0800 
@<TRIPOS>BOND
  1   1   2  2   
  2   2   3  am  
  3   2   4  1   
  4   3   5  1   
  5   3  28  1   
  6   4   6  1   
  7   4  29  1   
  8   4  30  1   
  9   5   7  1   
 10   5  31  1   
 11   5  32  1   
 12   6   8  1   
 13   6   9  1   
 14   7  10  1   
 15   7  33  1   
 16   7  34  1   
 17   8  11  1   
 18   8  35  1   
 19   8  36  1   
 20   9  12  1   
 21   9  37  1   
 22   9  38  1   
 23  10  13  ar  
 24  10  14  ar  
 25  11  12  1   
 26  11  15  1   
 27  11  39  1   
 28  12  16  1   
 29  12  40  1   
 30  13  17  ar  
 31  13  41  1   
 32  14  18  ar  
 33  14  42  1   
 34  15  43  1   
 35  16  19  1   
 36  16  44  1   
 37  16  45  1   
 38  17  20  ar  
 39  17  46  1   
 40  18  20  ar  
 41  18  47  1   
 42  19  21  2   
 43  19  22  1   
 44  20  23  1   
 45  21  24  1   
 46  22  25  2   
 47  22  48  1   
 48  23  26  1   
 49  24  25  1   
 50  24  49  1   
 51  25  27  1   
 52  26  50  1   
 53  26  51  1   
 54  26  52  1   
 55  27  53  1   
 56  27  54  1   
 57  27  55  1   
@<TRIPOS>SUBSTRUCTURE
  1 ****   3 GROUP 4 **** **** 0

# MOE 2024.06 (io_trps.svl 2023.06)
