@<TRIPOS>MOLECULE
NONAME
48 50 1 0 0 
SMALL
USER_CHARGES


@<TRIPOS>ATOM
  1 O        0.4960     1.5430     0.8900 O.3   1 <1>  -0.3630 
  2 C       -0.7590     1.7120     0.3820 C.ar  1 <1>   0.0830 
  3 C        1.0540     0.2710     1.1320 C.3   1 <1>   0.0400 
  4 C       -1.2380     3.0430     0.2360 C.ar  1 <1>   0.3100 
  5 C       -1.5470     0.6380     0.0180 C.ar  1 <1>  -0.1500 
  6 N       -0.4540     4.0990     0.5950 N.ar  1 <1>  -0.6200 
  7 C       -2.5390     3.2260    -0.2940 C.ar  1 <1>   0.0000 
  8 C       -2.8260     0.8380    -0.5000 C.ar  1 <1>  -0.1500 
  9 C       -0.9320     5.2920     0.4380 C.ar  1 <1>   0.4100 
 10 C       -3.0230     4.5390    -0.4420 C.ar  1 <1>  -0.1500 
 11 C       -3.3110     2.1070    -0.6530 C.ar  1 <1>  -0.1500 
 12 N       -0.0890     6.2950     0.8020 N.pl3 1 <1>  -0.8690 
 13 C       -2.2130     5.5640    -0.0720 C.ar  1 <1>  -0.1500 
 14 C        0.2580     7.3540    -0.1560 C.3   1 <1>   0.2090 
 15 C        1.7010     7.7810     0.0940 C.3   1 <1>  -0.1600 
 16 C        2.1100     8.9050    -0.8650 C.3   1 <1>   0.0960 
 17 N        3.4860     9.3650    -0.5760 N.pl3 1 <1>   0.0480 
 18 C        3.9270    10.5280    -0.0240 C.2   1 <1>   0.0070 
 19 C        4.6030     8.6590    -0.8300 C.2   1 <1>  -0.3020 
 20 N        5.2190    10.5820     0.0830 N.2   1 <1>  -0.5650 
 21 C        2.9930    11.6560     0.4280 C.3   1 <1>   0.1000 
 22 C        5.6440     9.4130    -0.4230 C.2   1 <1>   0.0770 
 23 C        3.7050    13.0160     0.4620 C.3   1 <1>  -0.2400 
 24 C        2.4110    11.3450     1.8120 C.3   1 <1>  -0.2400 
 25 H        2.0340     0.4140     1.5510 H     1 <1>   0.0800 
 26 H        1.1290    -0.2600     0.2000 H     1 <1>   0.0800 
 27 H        0.4310    -0.2560     1.8320 H     1 <1>   0.0800 
 28 H       -1.2070    -0.3750     0.1190 H     1 <1>   0.1500 
 29 H       -3.4210    -0.0160    -0.7770 H     1 <1>   0.1500 
 30 H       -4.0100     4.7040    -0.8340 H     1 <1>   0.1500 
 31 H       -4.2970     2.2670    -1.0520 H     1 <1>   0.1500 
 32 H        0.7360     5.8760     1.2410 H     1 <1>   0.4000 
 33 H       -2.5240     6.5880    -0.1470 H     1 <1>   0.1500 
 34 H       -0.4100     8.1870    -0.0160 H     1 <1>   0.0800 
 35 H        0.1490     6.9820    -1.1620 H     1 <1>   0.0800 
 36 H        2.3490     6.9340    -0.0530 H     1 <1>   0.0800 
 37 H        1.7950     8.1240     1.1090 H     1 <1>   0.0800 
 38 H        1.4310     9.7310    -0.7730 H     1 <1>   0.0800 
 39 H        2.0780     8.5530    -1.8810 H     1 <1>   0.0800 
 40 H        4.6020     7.6810    -1.2750 H     1 <1>   0.1500 
 41 H        2.1870    11.7420    -0.2790 H     1 <1>   0.0800 
 42 H        6.6930     9.1730    -0.4660 H     1 <1>   0.1500 
 43 H        4.5040    13.0010     1.1830 H     1 <1>   0.0800 
 44 H        3.0170    13.7990     0.7220 H     1 <1>   0.0800 
 45 H        4.1260    13.2300    -0.5040 H     1 <1>   0.0800 
 46 H        3.2090    11.2390     2.5260 H     1 <1>   0.0800 
 47 H        1.8510    10.4300     1.7900 H     1 <1>   0.0800 
 48 H        1.7600    12.1370     2.1340 H     1 <1>   0.0800 
@<TRIPOS>BOND
  1   1   2  1   
  2   1   3  1   
  3   2   4  ar  
  4   2   5  ar  
  5   3  25  1   
  6   3  26  1   
  7   3  27  1   
  8   4   6  ar  
  9   4   7  ar  
 10   5   8  ar  
 11   5  28  1   
 12   6   9  ar  
 13   7  10  ar  
 14   7  11  ar  
 15   8  11  ar  
 16   8  29  1   
 17   9  12  1   
 18   9  13  ar  
 19  10  13  ar  
 20  10  30  1   
 21  11  31  1   
 22  12  14  1   
 23  12  32  1   
 24  13  33  1   
 25  14  15  1   
 26  14  34  1   
 27  14  35  1   
 28  15  16  1   
 29  15  36  1   
 30  15  37  1   
 31  16  17  1   
 32  16  38  1   
 33  16  39  1   
 34  17  18  1   
 35  17  19  1   
 36  18  20  2   
 37  18  21  1   
 38  19  22  2   
 39  19  40  1   
 40  20  22  1   
 41  21  23  1   
 42  21  24  1   
 43  21  41  1   
 44  22  42  1   
 45  23  43  1   
 46  23  44  1   
 47  23  45  1   
 48  24  46  1   
 49  24  47  1   
 50  24  48  1   
@<TRIPOS>SUBSTRUCTURE
  1 ****  12 GROUP 4 **** **** 0

# MOE 2024.06 (io_trps.svl 2023.06)
