@<TRIPOS>MOLECULE
NONAME
50 53 1 0 0 
SMALL
USER_CHARGES


@<TRIPOS>ATOM
  1 O        0.7660    -0.4780     0.9590 O.3   1 <1>  -0.5600 
  2 C        1.8950    -0.9260     0.2520 C.3   1 <1>   0.4240 
  3 C       -0.4850    -0.8760     0.4900 C.3   1 <1>   0.1200 
  4 C        1.7290    -2.3630    -0.2970 C.ar  1 <1>  -0.1440 
  5 C        2.9930    -0.8950     1.3250 C.3   1 <1>  -0.1600 
  6 C        2.1300     0.1070    -0.8720 C.3   1 <1>  -0.1600 
  7 C       -0.6020    -2.3850     0.6560 C.3   1 <1>  -0.0160 
  8 C        2.7500    -2.9910    -1.0210 C.ar  1 <1>   0.0830 
  9 C        0.5420    -3.0560    -0.0770 C.ar  1 <1>  -0.1440 
 10 C        3.2510     0.5450     1.7460 C.3   1 <1>   0.3430 
 11 C        3.5000     0.7640    -0.7680 C.3   1 <1>   0.3430 
 12 O        3.8950    -2.2960    -1.2760 O.3   1 <1>  -0.3630 
 13 C        2.5760    -4.2980    -1.4730 C.ar  1 <1>  -0.1500 
 14 C        0.3820    -4.3540    -0.5320 C.ar  1 <1>  -0.1500 
 15 N        3.6700     1.3830     0.5800 N.4   1 <1>  -0.9590 
 16 C        4.9510    -2.8560    -2.0300 C.3   1 <1>   0.0400 
 17 C        1.3990    -4.9760    -1.2260 C.ar  1 <1>  -0.1500 
 18 C        5.0170     1.9880     0.7360 C.3   1 <1>   0.5230 
 19 C        5.0060     3.3340     0.0230 C.2   1 <1>   0.0060 
 20 N        6.1280     4.0270    -0.2810 N.pl3 1 <1>   0.0330 
 21 N        3.9140     3.9330    -0.3470 N.2   1 <1>  -0.5650 
 22 C        5.6970     5.1450    -0.8910 C.2   1 <1>  -0.3320 
 23 C        4.3480     5.0710    -0.9220 C.2   1 <1>   0.0770 
 24 C        6.6210     6.2320    -1.4110 C.3   1 <1>  -0.0600 
 25 H       -0.5830    -0.5900    -0.5440 H     1 <1>   0.0800 
 26 H       -1.2360    -0.3710     1.0720 H     1 <1>   0.0800 
 27 H        3.9090    -1.3350     0.9820 H     1 <1>   0.0800 
 28 H        2.6670    -1.4720     2.1720 H     1 <1>   0.0800 
 29 H        1.3790     0.8760    -0.8520 H     1 <1>   0.0800 
 30 H        2.0590    -0.3770    -1.8290 H     1 <1>   0.0800 
 31 H       -1.5440    -2.7120     0.2550 H     1 <1>   0.0800 
 32 H       -0.5700    -2.6400     1.7000 H     1 <1>   0.0800 
 33 H        4.0020     0.5680     2.5190 H     1 <1>   0.0800 
 34 H        2.3370     0.9450     2.1580 H     1 <1>   0.0800 
 35 H        3.6010     1.5180    -1.5340 H     1 <1>   0.0800 
 36 H        4.2600     0.0160    -0.9240 H     1 <1>   0.0800 
 37 H        3.3400    -4.8140    -2.0220 H     1 <1>   0.1500 
 38 H       -0.5360    -4.8860    -0.3490 H     1 <1>   0.1500 
 39 H        3.0680     2.2290     0.5540 H     1 <1>   0.4500 
 40 H        5.7350    -2.1260    -2.1120 H     1 <1>   0.0800 
 41 H        4.5860    -3.1090    -3.0100 H     1 <1>   0.0800 
 42 H        5.3200    -3.7300    -1.5210 H     1 <1>   0.0800 
 43 H        1.2720    -5.9860    -1.5760 H     1 <1>   0.1500 
 44 H        5.7700     1.3400     0.3190 H     1 <1>   0.0800 
 45 H        5.2300     2.1530     1.7790 H     1 <1>   0.0800 
 46 H        7.1080     3.7850    -0.0950 H     1 <1>   0.2700 
 47 H        3.6580     5.7910    -1.3330 H     1 <1>   0.1500 
 48 H        7.2860     5.8330    -2.1570 H     1 <1>   0.0800 
 49 H        7.2030     6.6460    -0.6070 H     1 <1>   0.0800 
 50 H        6.0460     7.0250    -1.8570 H     1 <1>   0.0800 
@<TRIPOS>BOND
  1   1   2  1   
  2   1   3  1   
  3   2   4  1   
  4   2   5  1   
  5   2   6  1   
  6   3   7  1   
  7   3  25  1   
  8   3  26  1   
  9   4   8  ar  
 10   4   9  ar  
 11   5  10  1   
 12   5  27  1   
 13   5  28  1   
 14   6  11  1   
 15   6  29  1   
 16   6  30  1   
 17   7   9  1   
 18   7  31  1   
 19   7  32  1   
 20   8  12  1   
 21   8  13  ar  
 22   9  14  ar  
 23  10  15  1   
 24  10  33  1   
 25  10  34  1   
 26  11  15  1   
 27  11  35  1   
 28  11  36  1   
 29  12  16  1   
 30  13  17  ar  
 31  13  37  1   
 32  14  17  ar  
 33  14  38  1   
 34  15  18  1   
 35  15  39  1   
 36  16  40  1   
 37  16  41  1   
 38  16  42  1   
 39  17  43  1   
 40  18  19  1   
 41  18  44  1   
 42  18  45  1   
 43  19  20  1   
 44  19  21  2   
 45  20  22  1   
 46  20  46  1   
 47  21  23  1   
 48  22  23  2   
 49  22  24  1   
 50  23  47  1   
 51  24  48  1   
 52  24  49  1   
 53  24  50  1   
@<TRIPOS>SUBSTRUCTURE
  1 ****  11 GROUP 4 **** **** 0

# MOE 2024.06 (io_trps.svl 2023.06)
