@<TRIPOS>MOLECULE
NONAME
41 43 1 0 0 
SMALL
USER_CHARGES


@<TRIPOS>ATOM
  1 CL      -2.4490     0.5790     2.3800 Cl    1 <1>  -0.1230 
  2 C       -2.4890     0.5390     0.6260 C.2   1 <1>   0.1230 
  3 C       -2.8880    -0.5460    -0.1360 C.2   1 <1>   0.1080 
  4 C       -2.1520     1.5160    -0.2370 C.2   1 <1>  -0.3320 
  5 N       -2.8170    -0.2810    -1.4140 N.2   1 <1>  -0.7070 
  6 C       -3.3500    -1.8770     0.4340 C.3   1 <1>   0.5240 
  7 N       -2.3560     0.9970    -1.4710 N.pl3 1 <1>   0.3000 
  8 C       -1.6430     2.9240     0.0270 C.3   1 <1>  -0.0600 
  9 N       -4.1650    -2.5580    -0.6120 N.4   1 <1>  -0.9590 
 10 C       -5.5640    -2.0380    -0.5910 C.3   1 <1>   0.3430 
 11 C       -4.2300    -4.0350    -0.4150 C.3   1 <1>   0.3430 
 12 C       -6.3610    -3.0720     0.2080 C.3   1 <1>   0.2000 
 13 C       -5.7110    -4.3870    -0.2290 C.3   1 <1>  -0.0800 
 14 O       -6.1220    -2.8540     1.5630 O.3   1 <1>  -0.6800 
 15 C       -5.9310    -5.5990     0.6970 C.3   1 <1>  -0.0170 
 16 C       -5.1280    -6.7900     0.2000 C.ar  1 <1>  -0.1430 
 17 C       -3.9930    -7.2290     0.8530 C.ar  1 <1>  -0.1500 
 18 C       -5.4900    -7.4910    -0.9330 C.ar  1 <1>  -0.1500 
 19 C       -3.2840    -8.3050     0.3450 C.ar  1 <1>   0.1600 
 20 C       -4.7110    -8.5550    -1.3570 C.ar  1 <1>   0.1600 
 21 N       -3.6130    -8.9700    -0.7500 N.ar  1 <1>  -0.6200 
 22 H       -3.9270    -1.7270     1.3330 H     1 <1>   0.0800 
 23 H       -2.4820    -2.4680     0.6710 H     1 <1>   0.0800 
 24 H       -2.1880     1.4870    -2.3610 H     1 <1>   0.2700 
 25 H       -1.5650     3.1010     1.0860 H     1 <1>   0.0800 
 26 H       -2.3170     3.6520    -0.3900 H     1 <1>   0.0800 
 27 H       -0.6700     3.0590    -0.4110 H     1 <1>   0.0800 
 28 H       -3.7070    -2.2660    -1.4950 H     1 <1>   0.4500 
 29 H       -5.6320    -1.0570    -0.1510 H     1 <1>   0.0800 
 30 H       -5.9440    -1.9990    -1.5990 H     1 <1>   0.0800 
 31 H       -3.8180    -4.5630    -1.2610 H     1 <1>   0.0800 
 32 H       -3.6810    -4.3140     0.4700 H     1 <1>   0.0800 
 33 H       -7.4210    -3.0170     0.0200 H     1 <1>   0.0800 
 34 H       -6.0980    -4.6380    -1.2010 H     1 <1>   0.0800 
 35 H       -6.8050    -3.2880     2.1170 H     1 <1>   0.4000 
 36 H       -6.9760    -5.8580     0.7200 H     1 <1>   0.0800 
 37 H       -5.6300    -5.3700     1.7050 H     1 <1>   0.0800 
 38 H       -3.6480    -6.7540     1.7540 H     1 <1>   0.1500 
 39 H       -6.3700    -7.2300    -1.4920 H     1 <1>   0.1500 
 40 H       -2.4020    -8.6380     0.8650 H     1 <1>   0.1500 
 41 H       -5.0060    -9.0940    -2.2420 H     1 <1>   0.1500 
@<TRIPOS>BOND
  1   1   2  1   
  2   2   3  1   
  3   2   4  2   
  4   3   5  2   
  5   3   6  1   
  6   4   7  1   
  7   4   8  1   
  8   5   7  1   
  9   6   9  1   
 10   6  22  1   
 11   6  23  1   
 12   7  24  1   
 13   8  25  1   
 14   8  26  1   
 15   8  27  1   
 16   9  10  1   
 17   9  11  1   
 18   9  28  1   
 19  10  12  1   
 20  10  29  1   
 21  10  30  1   
 22  11  13  1   
 23  11  31  1   
 24  11  32  1   
 25  12  13  1   
 26  12  14  1   
 27  12  33  1   
 28  13  15  1   
 29  13  34  1   
 30  14  35  1   
 31  15  16  1   
 32  15  36  1   
 33  15  37  1   
 34  16  17  ar  
 35  16  18  ar  
 36  17  19  ar  
 37  17  38  1   
 38  18  20  ar  
 39  18  39  1   
 40  19  21  ar  
 41  19  40  1   
 42  20  21  ar  
 43  20  41  1   
@<TRIPOS>SUBSTRUCTURE
  1 ****   9 GROUP 4 **** **** 0

# MOE 2024.06 (io_trps.svl 2023.06)
