@<TRIPOS>MOLECULE
NONAME
48 50 1 0 0 
SMALL
USER_CHARGES


@<TRIPOS>ATOM
  1 O       -0.1270    -0.1280    -0.1070 O.2   1 <1>  -0.5700 
  2 C       -1.1380     0.5310     0.0290 C.2   1 <1>   0.5690 
  3 N       -2.3560    -0.1160     0.0440 N.am  1 <1>  -0.6600 
  4 C       -0.9960     2.0930     0.1200 C.3   1 <1>   0.3410 
  5 C       -3.6970     0.4940     0.2250 C.3   1 <1>   0.1400 
  6 C       -2.4720    -1.5890    -0.0870 C.3   1 <1>   0.1400 
  7 O       -1.9650     2.6220     1.0120 O.3   1 <1>  -0.5600 
  8 C       -1.2180     2.6920    -1.2800 C.3   1 <1>  -0.2400 
  9 C        0.4020     2.4940     0.6390 C.3   1 <1>  -0.2400 
 10 C       -4.6860    -0.6610     0.0660 C.3   1 <1>   0.2000 
 11 C       -3.8890    -1.9230     0.3820 C.3   1 <1>  -0.0800 
 12 C       -2.0450     3.9980     1.2560 C.3   1 <1>   0.0400 
 13 O       -5.7550    -0.5430     0.9410 O.3   1 <1>  -0.6800 
 14 C       -4.4810    -3.1810    -0.2740 C.3   1 <1>  -0.0170 
 15 C       -3.6460    -4.4110     0.0370 C.ar  1 <1>   0.1670 
 16 N       -2.6740    -4.6940    -0.7740 N.ar  1 <1>  -0.6200 
 17 C       -3.9520    -5.1690     1.1790 C.ar  1 <1>  -0.1500 
 18 C       -1.9080    -5.7780    -0.4900 C.ar  1 <1>   0.3100 
 19 C       -3.2050    -6.2660     1.4840 C.ar  1 <1>  -0.1500 
 20 C       -2.1380    -6.6010     0.6340 C.ar  1 <1>   0.0000 
 21 C       -0.8400    -6.0970    -1.3440 C.ar  1 <1>  -0.1500 
 22 C       -1.2960    -7.7090     0.8560 C.ar  1 <1>  -0.1500 
 23 C       -0.0320    -7.1780    -1.1100 C.ar  1 <1>  -0.1500 
 24 C       -0.2640    -7.9930     0.0030 C.ar  1 <1>  -0.1500 
 25 H       -3.7620     0.9140     1.2130 H     1 <1>   0.0800 
 26 H       -3.8720     1.2550    -0.5140 H     1 <1>   0.0800 
 27 H       -2.3330    -1.8600    -1.1200 H     1 <1>   0.0800 
 28 H       -1.7290    -2.0920     0.5100 H     1 <1>   0.0800 
 29 H       -0.5740     2.1950    -1.9830 H     1 <1>   0.0800 
 30 H       -0.9820     3.7390    -1.3070 H     1 <1>   0.0800 
 31 H       -2.2340     2.5410    -1.5950 H     1 <1>   0.0800 
 32 H        1.1620     2.0480     0.0220 H     1 <1>   0.0800 
 33 H        0.5350     2.1320     1.6420 H     1 <1>   0.0800 
 34 H        0.5540     3.5550     0.6100 H     1 <1>   0.0800 
 35 H       -5.0670    -0.6790    -0.9410 H     1 <1>   0.0800 
 36 H       -3.8430    -2.0630     1.4470 H     1 <1>   0.0800 
 37 H       -2.8790     4.1650     1.9140 H     1 <1>   0.0800 
 38 H       -2.2140     4.5290     0.3370 H     1 <1>   0.0800 
 39 H       -1.1480     4.3380     1.7390 H     1 <1>   0.0800 
 40 H       -5.4310    -0.4810     1.8600 H     1 <1>   0.4000 
 41 H       -4.5260    -3.0510    -1.3420 H     1 <1>   0.0800 
 42 H       -5.4870    -3.3300     0.0750 H     1 <1>   0.0800 
 43 H       -4.7760    -4.8710     1.8020 H     1 <1>   0.1500 
 44 H       -3.4090    -6.8710     2.3490 H     1 <1>   0.1500 
 45 H       -0.6780    -5.4570    -2.1910 H     1 <1>   0.1500 
 46 H       -1.4790    -8.3300     1.7140 H     1 <1>   0.1500 
 47 H        0.7840    -7.4100    -1.7730 H     1 <1>   0.1500 
 48 H        0.3790    -8.8390     0.1750 H     1 <1>   0.1500 
@<TRIPOS>BOND
  1   1   2  2   
  2   2   3  am  
  3   2   4  1   
  4   3   5  1   
  5   3   6  1   
  6   4   7  1   
  7   4   8  1   
  8   4   9  1   
  9   5  10  1   
 10   5  25  1   
 11   5  26  1   
 12   6  11  1   
 13   6  27  1   
 14   6  28  1   
 15   7  12  1   
 16   8  29  1   
 17   8  30  1   
 18   8  31  1   
 19   9  32  1   
 20   9  33  1   
 21   9  34  1   
 22  10  11  1   
 23  10  13  1   
 24  10  35  1   
 25  11  14  1   
 26  11  36  1   
 27  12  37  1   
 28  12  38  1   
 29  12  39  1   
 30  13  40  1   
 31  14  15  1   
 32  14  41  1   
 33  14  42  1   
 34  15  16  ar  
 35  15  17  ar  
 36  16  18  ar  
 37  17  19  ar  
 38  17  43  1   
 39  18  20  ar  
 40  18  21  ar  
 41  19  20  ar  
 42  19  44  1   
 43  20  22  ar  
 44  21  23  ar  
 45  21  45  1   
 46  22  24  ar  
 47  22  46  1   
 48  23  24  ar  
 49  23  47  1   
 50  24  48  1   
@<TRIPOS>SUBSTRUCTURE
  1 ****   6 GROUP 4 **** **** 0

# MOE 2024.06 (io_trps.svl 2023.06)
