@<TRIPOS>MOLECULE
NONAME
43 44 1 0 0 
SMALL
USER_CHARGES


@<TRIPOS>ATOM
  1 O        0.4100     0.6330     0.1910 O.2   1 <1>  -0.5700 
  2 C        1.4880     1.1680     0.3100 C.2   1 <1>   0.6900 
  3 N        2.5340     0.5170     0.8790 N.am  1 <1>  -0.4900 
  4 N        1.6800     2.4490    -0.1270 N.am  1 <1>  -0.5390 
  5 C        3.7600     1.0910     1.0230 C.2   1 <1>   0.6160 
  6 C        2.9030     3.1020    -0.0220 C.2   1 <1>  -0.0290 
  7 O        4.6490     0.4530     1.5460 O.2   1 <1>  -0.5700 
  8 C        3.9300     2.4250     0.5510 C.2   1 <1>  -0.1360 
  9 C        2.9880     4.5340    -0.5520 C.3   1 <1>   0.2480 
 10 N        4.3890     4.9550    -0.7860 N.3   1 <1>  -0.8100 
 11 C        4.5810     6.4190    -0.7890 C.3   1 <1>   0.1100 
 12 C        4.9120     4.3480    -2.0240 C.3   1 <1>   0.0300 
 13 C        4.5920     7.0240     0.6420 C.3   1 <1>   0.4230 
 14 N        4.8500     8.4960     0.6500 N.4   1 <1>  -0.9590 
 15 C        5.6280     6.3550     1.5480 C.3   1 <1>  -0.2400 
 16 C        3.7160     9.3200     0.1070 C.3   1 <1>   0.3430 
 17 C        6.1600     8.9410     0.0530 C.3   1 <1>   0.3430 
 18 C        4.0190    10.8340     0.2070 C.3   1 <1>   0.1200 
 19 C        6.3450    10.4710     0.1820 C.3   1 <1>   0.1200 
 20 O        5.2530    11.0630     0.8330 O.3   1 <1>  -0.5600 
 21 H        2.3970    -0.4310     1.2080 H     1 <1>   0.3700 
 22 H        0.8520     2.8670    -0.5560 H     1 <1>   0.3700 
 23 H        4.9090     2.8450     0.6780 H     1 <1>   0.1500 
 24 H        2.5230     5.1780     0.1730 H     1 <1>   0.0800 
 25 H        2.4320     4.6130    -1.4710 H     1 <1>   0.0800 
 26 H        3.8100     6.8760    -1.3850 H     1 <1>   0.0800 
 27 H        5.5310     6.6290    -1.2460 H     1 <1>   0.0800 
 28 H        4.8010     3.2770    -1.9940 H     1 <1>   0.0800 
 29 H        5.9620     4.5660    -2.1280 H     1 <1>   0.0800 
 30 H        4.3880     4.7260    -2.8860 H     1 <1>   0.0800 
 31 H        3.6200     6.8520     1.0760 H     1 <1>   0.0800 
 32 H        4.9210     8.7890     1.6360 H     1 <1>   0.4500 
 33 H        6.6070     6.3730     1.1070 H     1 <1>   0.0800 
 34 H        5.3600     5.3230     1.6940 H     1 <1>   0.0800 
 35 H        5.6530     6.8220     2.5160 H     1 <1>   0.0800 
 36 H        2.8130     9.1100     0.6560 H     1 <1>   0.0800 
 37 H        3.5350     9.0710    -0.9250 H     1 <1>   0.0800 
 38 H        6.2040     8.6720    -0.9890 H     1 <1>   0.0800 
 39 H        6.9800     8.4500     0.5500 H     1 <1>   0.0800 
 40 H        3.2600    11.3270     0.7890 H     1 <1>   0.0800 
 41 H        4.0390    11.2860    -0.7700 H     1 <1>   0.0800 
 42 H        6.4580    10.9260    -0.7880 H     1 <1>   0.0800 
 43 H        7.2280    10.6900     0.7590 H     1 <1>   0.0800 
@<TRIPOS>BOND
  1   1   2  2   
  2   2   3  am  
  3   2   4  am  
  4   3   5  am  
  5   3  21  1   
  6   4   6  1   
  7   4  22  1   
  8   5   7  2   
  9   5   8  1   
 10   6   8  2   
 11   6   9  1   
 12   8  23  1   
 13   9  10  1   
 14   9  24  1   
 15   9  25  1   
 16  10  11  1   
 17  10  12  1   
 18  11  13  1   
 19  11  26  1   
 20  11  27  1   
 21  12  28  1   
 22  12  29  1   
 23  12  30  1   
 24  13  14  1   
 25  13  15  1   
 26  13  31  1   
 27  14  16  1   
 28  14  17  1   
 29  14  32  1   
 30  15  33  1   
 31  15  34  1   
 32  15  35  1   
 33  16  18  1   
 34  16  36  1   
 35  16  37  1   
 36  17  19  1   
 37  17  38  1   
 38  17  39  1   
 39  18  20  1   
 40  18  40  1   
 41  18  41  1   
 42  19  20  1   
 43  19  42  1   
 44  19  43  1   
@<TRIPOS>SUBSTRUCTURE
  1 ****  10 GROUP 4 **** **** 0

# MOE 2024.06 (io_trps.svl 2023.06)
