@<TRIPOS>MOLECULE
NONAME
53 56 1 0 0 
SMALL
USER_CHARGES


@<TRIPOS>ATOM
  1 O       -2.5130     1.1330     2.4550 O.2   1 <1>  -0.5700 
  2 C       -2.3560     1.1980     1.2500 C.2   1 <1>   0.7160 
  3 N       -2.4570     0.0340     0.5240 N.am  1 <1>  -0.6600 
  4 C       -2.0500     2.4380     0.6120 C.2   1 <1>  -0.0860 
  5 C       -2.3180    -1.3100     1.1530 C.3   1 <1>   0.1400 
  6 C       -2.2590    -0.0880    -0.9460 C.3   1 <1>   0.1400 
  7 C       -2.8810     3.5600     0.4940 C.2   1 <1>   0.3720 
  8 C       -0.9140     2.8090    -0.0350 C.2   1 <1>   0.0870 
  9 C       -1.8840    -2.2560     0.0260 C.3   1 <1>   0.2000 
 10 C       -2.4300    -1.5780    -1.2380 C.3   1 <1>   0.2000 
 11 N       -2.2860     4.4950    -0.1640 N.2   1 <1>  -0.4100 
 12 N       -4.1820     3.6940     1.0070 N.pl3 1 <1>  -0.8210 
 13 O       -1.1080     4.0250    -0.4740 O.3   1 <1>  -0.0190 
 14 C        0.3270     2.1230    -0.2960 C.ar  1 <1>   0.0530 
 15 O       -0.4810    -2.2690    -0.0110 O.3   1 <1>  -0.5600 
 16 O       -3.7910    -1.8530    -1.3500 O.3   1 <1>  -0.6800 
 17 C       -5.1290     2.5550     0.9280 C.3   1 <1>   0.2090 
 18 C       -4.9070     4.9670     0.7740 C.3   1 <1>   0.2090 
 19 C        0.8030     1.1120     0.5420 C.ar  1 <1>  -0.1500 
 20 C        1.0900     2.4280    -1.4240 C.ar  1 <1>  -0.1500 
 21 C        0.0840    -3.3260    -0.7210 C.3   1 <1>   0.0400 
 22 C       -6.4730     3.1630     0.5430 C.3   1 <1>  -0.1600 
 23 C       -6.3750     4.6210     0.9710 C.3   1 <1>  -0.1600 
 24 C        1.9620     0.4170     0.2560 C.ar  1 <1>  -0.1500 
 25 C        2.2540     1.7410    -1.7140 C.ar  1 <1>  -0.1500 
 26 C        2.6980     0.7260    -0.8830 C.ar  1 <1>   0.0830 
 27 O        3.8390     0.0920    -1.2410 O.3   1 <1>  -0.3630 
 28 C        4.3860    -0.9400    -0.4500 C.3   1 <1>   0.0400 
 29 H       -1.5970    -1.2980     1.9520 H     1 <1>   0.0800 
 30 H       -3.2750    -1.6110     1.5420 H     1 <1>   0.0800 
 31 H       -2.9570     0.5160    -1.4990 H     1 <1>   0.0800 
 32 H       -1.2540     0.1980    -1.1970 H     1 <1>   0.0800 
 33 H       -2.2460    -3.2590     0.1690 H     1 <1>   0.0800 
 34 H       -1.9460    -1.8950    -2.1430 H     1 <1>   0.0800 
 35 H       -4.2700    -1.4010    -0.6270 H     1 <1>   0.4000 
 36 H       -4.8150     1.8300     0.1980 H     1 <1>   0.0800 
 37 H       -5.1900     2.0900     1.8980 H     1 <1>   0.0800 
 38 H       -4.5780     5.7230     1.4670 H     1 <1>   0.0800 
 39 H       -4.7400     5.3050    -0.2360 H     1 <1>   0.0800 
 40 H        0.2610     0.8580     1.4350 H     1 <1>   0.1500 
 41 H        0.7640     3.2100    -2.0860 H     1 <1>   0.1500 
 42 H        1.1530    -3.2190    -0.6840 H     1 <1>   0.0800 
 43 H       -0.2440    -3.2940    -1.7450 H     1 <1>   0.0800 
 44 H       -0.2020    -4.2570    -0.2620 H     1 <1>   0.0800 
 45 H       -6.5880     3.1030    -0.5250 H     1 <1>   0.0800 
 46 H       -7.2920     2.6500     1.0150 H     1 <1>   0.0800 
 47 H       -6.6160     4.7150     2.0160 H     1 <1>   0.0800 
 48 H       -7.0180     5.2660     0.4000 H     1 <1>   0.0800 
 49 H        2.2730    -0.3610     0.9280 H     1 <1>   0.1500 
 50 H        2.8290     1.9860    -2.5890 H     1 <1>   0.1500 
 51 H        5.2860    -1.2850    -0.9270 H     1 <1>   0.0800 
 52 H        3.6750    -1.7440    -0.3840 H     1 <1>   0.0800 
 53 H        4.6160    -0.5480     0.5250 H     1 <1>   0.0800 
@<TRIPOS>BOND
  1   1   2  2   
  2   2   3  am  
  3   2   4  1   
  4   3   5  1   
  5   3   6  1   
  6   4   7  1   
  7   4   8  2   
  8   5   9  1   
  9   5  29  1   
 10   5  30  1   
 11   6  10  1   
 12   6  31  1   
 13   6  32  1   
 14   7  11  2   
 15   7  12  1   
 16   8  13  1   
 17   8  14  1   
 18   9  10  1   
 19   9  15  1   
 20   9  33  1   
 21  10  16  1   
 22  10  34  1   
 23  11  13  1   
 24  12  17  1   
 25  12  18  1   
 26  14  19  ar  
 27  14  20  ar  
 28  15  21  1   
 29  16  35  1   
 30  17  22  1   
 31  17  36  1   
 32  17  37  1   
 33  18  23  1   
 34  18  38  1   
 35  18  39  1   
 36  19  24  ar  
 37  19  40  1   
 38  20  25  ar  
 39  20  41  1   
 40  21  42  1   
 41  21  43  1   
 42  21  44  1   
 43  22  23  1   
 44  22  45  1   
 45  22  46  1   
 46  23  47  1   
 47  23  48  1   
 48  24  26  ar  
 49  24  49  1   
 50  25  26  ar  
 51  25  50  1   
 52  26  27  1   
 53  27  28  1   
 54  28  51  1   
 55  28  52  1   
 56  28  53  1   
@<TRIPOS>SUBSTRUCTURE
  1 ****   4 GROUP 4 **** **** 0

# MOE 2024.06 (io_trps.svl 2023.06)
