@<TRIPOS>MOLECULE
NONAME
35 36 1 0 0 
SMALL
USER_CHARGES


@<TRIPOS>ATOM
  1 O        0.1910    -0.0520     1.0070 O.2   1 <1>  -0.5700 
  2 C        1.2150    -0.5740     0.6120 C.2   1 <1>   0.7160 
  3 N        2.3020     0.1930     0.2830 N.am  1 <1>  -0.4940 
  4 C        1.3320    -2.0070     0.4470 C.2   1 <1>  -0.0860 
  5 C        2.5250     1.5650     0.4210 C.2   1 <1>   0.2040 
  6 C        0.3890    -2.9580     0.1230 C.2   1 <1>  -0.3320 
  7 C        2.5350    -2.7290     0.6010 C.2   1 <1>  -0.1500 
  8 O        1.7090     2.3510     1.0830 O.3   1 <1>  -0.0190 
  9 C        3.5430     2.3240    -0.0320 C.2   1 <1>  -0.1810 
 10 N        0.9590    -4.1870     0.0740 N.pl3 1 <1>   0.0480 
 11 C       -1.0920    -2.7390    -0.1570 C.3   1 <1>  -0.0600 
 12 C        2.2750    -4.0360     0.3660 C.2   1 <1>  -0.3020 
 13 N        2.1310     3.5910     1.0970 N.2   1 <1>  -0.4100 
 14 C        3.2300     3.6000     0.4330 C.2   1 <1>   0.1080 
 15 C        4.7520     1.9140    -0.8560 C.3   1 <1>   0.0210 
 16 C        0.2970    -5.4680    -0.2270 C.3   1 <1>   0.0160 
 17 C        4.0470     4.8540     0.2060 C.3   1 <1>  -0.0590 
 18 C        5.9520     1.6340     0.0500 C.3   1 <1>  -0.2400 
 19 H        3.0490    -0.3370    -0.1510 H     1 <1>   0.3700 
 20 H        3.4860    -2.3040     0.8730 H     1 <1>   0.1500 
 21 H       -1.3380    -1.6930    -0.1510 H     1 <1>   0.0800 
 22 H       -1.6840    -3.2270     0.5960 H     1 <1>   0.0800 
 23 H       -1.3520    -3.1370    -1.1210 H     1 <1>   0.0800 
 24 H        2.9550    -4.8690     0.3970 H     1 <1>   0.1500 
 25 H        4.9950     2.6950    -1.5560 H     1 <1>   0.0800 
 26 H        4.5180     1.0310    -1.4230 H     1 <1>   0.0800 
 27 H       -0.5170    -5.6160     0.4580 H     1 <1>   0.0800 
 28 H        1.0010    -6.2730    -0.1240 H     1 <1>   0.0800 
 29 H       -0.0770    -5.4450    -1.2340 H     1 <1>   0.0800 
 30 H        5.0230     4.7400     0.6400 H     1 <1>   0.0800 
 31 H        3.5610     5.6960     0.6660 H     1 <1>   0.0800 
 32 H        4.1430     5.0430    -0.8470 H     1 <1>   0.0800 
 33 H        6.2150     2.5150     0.6070 H     1 <1>   0.0800 
 34 H        6.7990     1.3320    -0.5390 H     1 <1>   0.0800 
 35 H        5.7170     0.8470     0.7460 H     1 <1>   0.0800 
@<TRIPOS>BOND
  1   1   2  2   
  2   2   3  am  
  3   2   4  1   
  4   3   5  1   
  5   3  19  1   
  6   4   6  2   
  7   4   7  1   
  8   5   8  1   
  9   5   9  2   
 10   6  10  1   
 11   6  11  1   
 12   7  12  2   
 13   7  20  1   
 14   8  13  1   
 15   9  14  1   
 16   9  15  1   
 17  10  12  1   
 18  10  16  1   
 19  11  21  1   
 20  11  22  1   
 21  11  23  1   
 22  12  24  1   
 23  13  14  2   
 24  14  17  1   
 25  15  18  1   
 26  15  25  1   
 27  15  26  1   
 28  16  27  1   
 29  16  28  1   
 30  16  29  1   
 31  17  30  1   
 32  17  31  1   
 33  17  32  1   
 34  18  33  1   
 35  18  34  1   
 36  18  35  1   
@<TRIPOS>SUBSTRUCTURE
  1 ****   3 GROUP 4 **** **** 0

# MOE 2024.06 (io_trps.svl 2023.06)
