@<TRIPOS>MOLECULE
NONAME
54 56 1 0 0 
SMALL
USER_CHARGES


@<TRIPOS>ATOM
  1 O       -0.7460     0.6870    -0.9530 O.2   1 <1>  -0.5700 
  2 C       -1.8220     0.9130    -0.4320 C.2   1 <1>   0.5440 
  3 N       -2.7770    -0.0920    -0.4360 N.am  1 <1>  -0.6600 
  4 C       -2.0330     2.2180     0.1670 C.ar  1 <1>   0.0860 
  5 C       -4.2480     0.0910    -0.6250 C.3   1 <1>   0.2200 
  6 C       -2.3360    -1.5080    -0.5840 C.3   1 <1>   0.0600 
  7 C       -2.0900     3.3720    -0.6110 C.ar  1 <1>  -0.1500 
  8 C       -2.1420     2.3740     1.5460 C.ar  1 <1>  -0.1500 
  9 C       -4.6060     1.0830    -1.7350 C.3   1 <1>  -0.1600 
 10 C       -4.9620     0.5360     0.6510 C.3   1 <1>  -0.1600 
 11 C       -2.2940     4.6260    -0.0570 C.ar  1 <1>  -0.1430 
 12 C       -2.3400     3.6180     2.1150 C.ar  1 <1>  -0.1500 
 13 C       -5.8640     1.8270    -1.2670 C.3   1 <1>  -0.0800 
 14 C       -6.0290     1.5540     0.2300 C.3   1 <1>  -0.0800 
 15 C       -2.4250     4.7510     1.3220 C.ar  1 <1>  -0.1430 
 16 C       -2.3380     5.8400    -0.9740 C.3   1 <1>  -0.0970 
 17 C       -5.7900     3.3580    -1.4160 C.3   1 <1>  -0.1600 
 18 C       -5.9050     2.9240     0.9080 C.3   1 <1>  -0.1600 
 19 C       -2.6300     6.1050     1.9850 C.3   1 <1>  -0.0970 
 20 C       -6.3850     3.9380    -0.1310 C.3   1 <1>   0.4230 
 21 N       -7.8820     3.9610    -0.2070 N.4   1 <1>  -0.9590 
 22 C       -8.3890     4.8780    -1.2770 C.3   1 <1>   0.2630 
 23 C       -8.5250     4.3440     1.0910 C.3   1 <1>   0.2630 
 24 H       -4.6790    -0.8550    -0.9110 H     1 <1>   0.0800 
 25 H       -2.9290    -2.1480     0.0440 H     1 <1>   0.0800 
 26 H       -1.3030    -1.6130    -0.2960 H     1 <1>   0.0800 
 27 H       -2.4390    -1.8150    -1.6110 H     1 <1>   0.0800 
 28 H       -1.9560     3.2660    -1.6730 H     1 <1>   0.1500 
 29 H       -2.0620     1.5030     2.1730 H     1 <1>   0.1500 
 30 H       -3.8000     1.7610    -1.9270 H     1 <1>   0.0800 
 31 H       -4.8050     0.5500    -2.6480 H     1 <1>   0.0800 
 32 H       -5.4260    -0.3160     1.1140 H     1 <1>   0.0800 
 33 H       -4.2770     0.9560     1.3570 H     1 <1>   0.0800 
 34 H       -2.4170     3.6970     3.1860 H     1 <1>   0.1500 
 35 H       -6.7240     1.4400    -1.7890 H     1 <1>   0.0800 
 36 H       -7.0100     1.1440     0.4110 H     1 <1>   0.0800 
 37 H       -2.2320     5.5510    -2.0040 H     1 <1>   0.0800 
 38 H       -1.5310     6.5080    -0.7320 H     1 <1>   0.0800 
 39 H       -3.2690     6.3630    -0.8610 H     1 <1>   0.0800 
 40 H       -6.2490     3.6990    -2.3240 H     1 <1>   0.0800 
 41 H       -4.7620     3.6700    -1.4470 H     1 <1>   0.0800 
 42 H       -4.8660     3.1340     1.0870 H     1 <1>   0.0800 
 43 H       -6.4040     2.9660     1.8570 H     1 <1>   0.0800 
 44 H       -2.7280     6.0030     3.0510 H     1 <1>   0.0800 
 45 H       -3.5180     6.5780     1.6070 H     1 <1>   0.0800 
 46 H       -1.7850     6.7400     1.7870 H     1 <1>   0.0800 
 47 H       -5.9990     4.9240     0.0750 H     1 <1>   0.0800 
 48 H       -8.1660     2.9980    -0.4390 H     1 <1>   0.4500 
 49 H       -8.0320     5.8820    -1.1100 H     1 <1>   0.0800 
 50 H       -9.4670     4.8920    -1.2770 H     1 <1>   0.0800 
 51 H       -8.0590     4.5520    -2.2500 H     1 <1>   0.0800 
 52 H       -8.1670     5.3080     1.4170 H     1 <1>   0.0800 
 53 H       -8.3070     3.6170     1.8550 H     1 <1>   0.0800 
 54 H       -9.5960     4.3970     0.9760 H     1 <1>   0.0800 
@<TRIPOS>BOND
  1   1   2  2   
  2   2   3  am  
  3   2   4  1   
  4   3   5  1   
  5   3   6  1   
  6   4   7  ar  
  7   4   8  ar  
  8   5   9  1   
  9   5  10  1   
 10   5  24  1   
 11   6  25  1   
 12   6  26  1   
 13   6  27  1   
 14   7  11  ar  
 15   7  28  1   
 16   8  12  ar  
 17   8  29  1   
 18   9  13  1   
 19   9  30  1   
 20   9  31  1   
 21  10  14  1   
 22  10  32  1   
 23  10  33  1   
 24  11  15  ar  
 25  11  16  1   
 26  12  15  ar  
 27  12  34  1   
 28  13  14  1   
 29  13  17  1   
 30  13  35  1   
 31  14  18  1   
 32  14  36  1   
 33  15  19  1   
 34  16  37  1   
 35  16  38  1   
 36  16  39  1   
 37  17  20  1   
 38  17  40  1   
 39  17  41  1   
 40  18  20  1   
 41  18  42  1   
 42  18  43  1   
 43  19  44  1   
 44  19  45  1   
 45  19  46  1   
 46  20  21  1   
 47  20  47  1   
 48  21  22  1   
 49  21  23  1   
 50  21  48  1   
 51  22  49  1   
 52  22  50  1   
 53  22  51  1   
 54  23  52  1   
 55  23  53  1   
 56  23  54  1   
@<TRIPOS>SUBSTRUCTURE
  1 ****  18 GROUP 4 **** **** 0

# MOE 2024.06 (io_trps.svl 2023.06)
