@<TRIPOS>MOLECULE
NONAME
43 46 1 0 0 
SMALL
USER_CHARGES


@<TRIPOS>ATOM
  1 S       -1.3080    -0.8970    -2.1520 S.3   1 <1>  -0.2420 
  2 C       -2.1000    -1.4860    -0.6900 C.2   1 <1>   0.6510 
  3 C       -1.3830     0.7820    -1.5850 C.2   1 <1>  -0.0490 
  4 N       -2.3620    -2.7370    -0.4820 N.2   1 <1>  -0.6210 
  5 N       -2.3800    -0.4260     0.1310 N.am  1 <1>  -0.2290 
  6 C       -1.9720     0.8250    -0.3830 C.2   1 <1>  -0.0410 
  7 C       -2.9820    -3.0260     0.7060 C.2   1 <1>   0.0330 
  8 C       -3.0160    -0.6920     1.3180 C.2   1 <1>   0.6160 
  9 C       -3.3140    -2.0510     1.5940 C.2   1 <1>  -0.1360 
 10 C       -3.2790    -4.5030     0.9580 C.3   1 <1>   0.4810 
 11 O       -3.3120     0.2060     2.0880 O.2   1 <1>  -0.5700 
 12 N       -3.8160    -5.0980    -0.2970 N.4   1 <1>  -0.9590 
 13 C       -5.2320    -4.6790    -0.5260 C.3   1 <1>   0.3430 
 14 C       -3.8000    -6.5910    -0.2540 C.3   1 <1>   0.3430 
 15 C       -6.0850    -5.8260     0.0210 C.3   1 <1>   0.2000 
 16 C       -5.2590    -7.0520    -0.3700 C.3   1 <1>  -0.0800 
 17 O       -6.1360    -5.7110     1.4090 O.3   1 <1>  -0.6800 
 18 C       -5.5450    -8.3560     0.4020 C.3   1 <1>   0.0200 
 19 C       -4.5280    -9.4180     0.0330 C.2   1 <1>  -0.0400 
 20 O       -4.2710    -9.6620    -1.2240 O.3   1 <1>  -0.0190 
 21 C       -3.7520   -10.2210     0.7760 C.2   1 <1>  -0.1500 
 22 N       -3.3540   -10.5720    -1.3620 N.2   1 <1>  -0.4100 
 23 C       -3.0280   -10.9360    -0.1740 C.2   1 <1>   0.1080 
 24 C       -1.9970   -11.9990     0.1360 C.3   1 <1>  -0.0590 
 25 H       -0.9700     1.5390    -2.2300 H     1 <1>   0.1500 
 26 H       -2.1590     1.7050     0.2130 H     1 <1>   0.1500 
 27 H       -3.8040    -2.2440     2.5300 H     1 <1>   0.1500 
 28 H       -3.9810    -4.6210     1.7670 H     1 <1>   0.0800 
 29 H       -2.3570    -4.9940     1.2230 H     1 <1>   0.0800 
 30 H       -3.2100    -4.7130    -1.0430 H     1 <1>   0.4500 
 31 H       -5.4690    -3.7450    -0.0430 H     1 <1>   0.0800 
 32 H       -5.4090    -4.5830    -1.5850 H     1 <1>   0.0800 
 33 H       -3.2110    -7.0010    -1.0600 H     1 <1>   0.0800 
 34 H       -3.3870    -6.9290     0.6830 H     1 <1>   0.0800 
 35 H       -7.0870    -5.8240    -0.3740 H     1 <1>   0.0800 
 36 H       -5.4380    -7.2450    -1.4150 H     1 <1>   0.0800 
 37 H       -6.8990    -6.2080     1.7770 H     1 <1>   0.4000 
 38 H       -6.5300    -8.7150     0.1570 H     1 <1>   0.0800 
 39 H       -5.4980    -8.1980     1.4650 H     1 <1>   0.0800 
 40 H       -3.6730   -10.3220     1.8430 H     1 <1>   0.1500 
 41 H       -1.1940   -11.5760     0.7120 H     1 <1>   0.0800 
 42 H       -1.5950   -12.4000    -0.7770 H     1 <1>   0.0800 
 43 H       -2.4510   -12.7970     0.6930 H     1 <1>   0.0800 
@<TRIPOS>BOND
  1   1   2  1   
  2   1   3  1   
  3   2   4  2   
  4   2   5  1   
  5   3   6  2   
  6   3  25  1   
  7   4   7  1   
  8   5   6  1   
  9   5   8  am  
 10   6  26  1   
 11   7   9  2   
 12   7  10  1   
 13   8   9  1   
 14   8  11  2   
 15   9  27  1   
 16  10  12  1   
 17  10  28  1   
 18  10  29  1   
 19  12  13  1   
 20  12  14  1   
 21  12  30  1   
 22  13  15  1   
 23  13  31  1   
 24  13  32  1   
 25  14  16  1   
 26  14  33  1   
 27  14  34  1   
 28  15  16  1   
 29  15  17  1   
 30  15  35  1   
 31  16  18  1   
 32  16  36  1   
 33  17  37  1   
 34  18  19  1   
 35  18  38  1   
 36  18  39  1   
 37  19  20  1   
 38  19  21  2   
 39  20  22  1   
 40  21  23  1   
 41  21  40  1   
 42  22  23  2   
 43  23  24  1   
 44  24  41  1   
 45  24  42  1   
 46  24  43  1   
@<TRIPOS>SUBSTRUCTURE
  1 ****  12 GROUP 4 **** **** 0

# MOE 2024.06 (io_trps.svl 2023.06)
