@<TRIPOS>MOLECULE
NONAME
42 44 1 0 0 
SMALL
USER_CHARGES


@<TRIPOS>ATOM
  1 O       -0.0250    -0.5420     0.7510 O.3   1 <1>  -0.5600 
  2 C        0.6980     0.6190     0.9750 C.3   1 <1>   0.1200 
  3 C       -1.3920    -0.2660     0.7180 C.3   1 <1>   0.1200 
  4 C       -0.0940     1.6940     0.2460 C.3   1 <1>   0.2890 
  5 C       -1.5300     1.2440     0.4800 C.3   1 <1>  -0.0800 
  6 N        0.1460     3.0630     0.7870 N.pl3 1 <1>  -0.8690 
  7 C       -2.4740     1.6030    -0.6800 C.3   1 <1>  -0.0170 
  8 C        0.8180     4.1180     0.2600 C.ar  1 <1>   0.4610 
  9 C       -3.8870     1.1140    -0.4060 C.ar  1 <1>  -0.1440 
 10 N        1.4980     4.0050    -0.8940 N.ar  1 <1>  -0.1790 
 11 C        0.8550     5.3520     0.8670 C.ar  1 <1>  -0.1500 
 12 C       -4.4000    -0.0180    -1.0070 C.ar  1 <1>  -0.1500 
 13 C       -4.7320     1.7790     0.4600 C.ar  1 <1>  -0.1500 
 14 C        2.1710     5.0440    -1.4260 C.ar  1 <1>   0.7710 
 15 C        1.5610     6.3740     0.2700 C.ar  1 <1>   0.3930 
 16 C       -5.6920    -0.4230    -0.7150 C.ar  1 <1>   0.1600 
 17 C       -6.0080     1.2900     0.6830 C.ar  1 <1>   0.1600 
 18 N        2.2220     6.2320    -0.8770 N.ar  1 <1>  -0.6200 
 19 N        2.8350     4.8900    -2.5720 N.pl3 1 <1>  -0.9000 
 20 O        1.5740     7.5560     0.8830 O.3   1 <1>  -0.3620 
 21 N       -6.5070     0.2040     0.1180 N.ar  1 <1>  -0.6200 
 22 C        2.2600     8.6870     0.3780 C.3   1 <1>   0.0400 
 23 H        0.7230     0.7920     2.0380 H     1 <1>   0.0800 
 24 H        1.6920     0.4900     0.5860 H     1 <1>   0.0800 
 25 H       -1.8280    -0.8530    -0.0710 H     1 <1>   0.0800 
 26 H       -1.8240    -0.5560     1.6610 H     1 <1>   0.0800 
 27 H        0.1410     1.6390    -0.8020 H     1 <1>   0.0800 
 28 H       -1.9080     1.6770     1.3890 H     1 <1>   0.0800 
 29 H       -0.2940     3.1880     1.7100 H     1 <1>   0.4000 
 30 H       -2.1160     1.1670    -1.5970 H     1 <1>   0.0800 
 31 H       -2.4960     2.6710    -0.8120 H     1 <1>   0.0800 
 32 H        1.5310     3.1210    -1.3750 H     1 <1>   0.4570 
 33 H        0.3430     5.5320     1.7940 H     1 <1>   0.1500 
 34 H       -3.8140    -0.5940    -1.7000 H     1 <1>   0.1500 
 35 H       -4.4150     2.6730     0.9650 H     1 <1>   0.1500 
 36 H       -6.0770    -1.3080    -1.1920 H     1 <1>   0.1500 
 37 H       -6.6540     1.8210     1.3620 H     1 <1>   0.1500 
 38 H        2.9280     4.0580    -3.1570 H     1 <1>   0.4000 
 39 H        3.3340     5.7080    -2.9400 H     1 <1>   0.4000 
 40 H        2.1100     9.5050     1.0590 H     1 <1>   0.0800 
 41 H        1.8600     8.9360    -0.5890 H     1 <1>   0.0800 
 42 H        3.3080     8.4570     0.3040 H     1 <1>   0.0800 
@<TRIPOS>BOND
  1   1   2  1   
  2   1   3  1   
  3   2   4  1   
  4   2  23  1   
  5   2  24  1   
  6   3   5  1   
  7   3  25  1   
  8   3  26  1   
  9   4   5  1   
 10   4   6  1   
 11   4  27  1   
 12   5   7  1   
 13   5  28  1   
 14   6   8  1   
 15   6  29  1   
 16   7   9  1   
 17   7  30  1   
 18   7  31  1   
 19   8  10  ar  
 20   8  11  ar  
 21   9  12  ar  
 22   9  13  ar  
 23  10  14  ar  
 24  10  32  1   
 25  11  15  ar  
 26  11  33  1   
 27  12  16  ar  
 28  12  34  1   
 29  13  17  ar  
 30  13  35  1   
 31  14  18  ar  
 32  14  19  1   
 33  15  18  ar  
 34  15  20  1   
 35  16  21  ar  
 36  16  36  1   
 37  17  21  ar  
 38  17  37  1   
 39  19  38  1   
 40  19  39  1   
 41  20  22  1   
 42  22  40  1   
 43  22  41  1   
 44  22  42  1   
@<TRIPOS>SUBSTRUCTURE
  1 ****   6 GROUP 4 **** **** 0

# MOE 2024.06 (io_trps.svl 2023.06)
