@<TRIPOS>MOLECULE
NONAME
59 61 1 0 0 
SMALL
USER_CHARGES


@<TRIPOS>ATOM
  1 O        0.6040     0.5220     0.3070 O.2   1 <1>  -0.5700 
  2 C        0.5720     1.7230     0.3660 C.2   1 <1>   0.5690 
  3 N        1.0070     2.3680     1.4740 N.am  1 <1>  -0.7300 
  4 C        0.0560     2.5160    -0.8230 C.3   1 <1>  -0.0990 
  5 C        0.8770     3.8220     1.7400 C.3   1 <1>   0.1400 
  6 C       -0.3140     3.9720    -0.4790 C.3   1 <1>  -0.1600 
  7 C        0.7640     4.6070     0.4220 C.3   1 <1>  -0.0190 
  8 C        0.4730     6.0850     0.6930 C.2   1 <1>   0.5690 
  9 O       -0.2590     6.3440     1.6200 O.2   1 <1>  -0.5700 
 10 N        1.0200     7.0780    -0.0870 N.am  1 <1>  -0.6600 
 11 C        1.8110     6.8430    -1.3330 C.3   1 <1>   0.1400 
 12 C        0.7860     8.5110     0.2600 C.3   1 <1>   0.1400 
 13 C        3.3180     6.7740    -1.0360 C.3   1 <1>   0.1100 
 14 C        2.0020     9.4150     0.0160 C.3   1 <1>  -0.1600 
 15 N        3.9290     8.0880    -0.7640 N.3   1 <1>  -0.8100 
 16 C        3.3470     8.7890     0.3960 C.3   1 <1>   0.1100 
 17 C        5.4110     7.9640    -0.6400 C.3   1 <1>   0.1710 
 18 C        6.2460     9.2640    -0.5910 C.2   1 <1>   0.5690 
 19 O        5.7800    10.2910    -1.0320 O.2   1 <1>  -0.5700 
 20 N        7.5140     9.2470    -0.0560 N.am  1 <1>  -0.6600 
 21 C        8.2810     8.0290     0.3510 C.3   1 <1>   0.1400 
 22 C        8.3080    10.5060     0.1070 C.3   1 <1>   0.1400 
 23 C        9.6880     8.0260    -0.2840 C.3   1 <1>   0.2000 
 24 C        9.7120    10.3600    -0.5110 C.3   1 <1>   0.2000 
 25 O       10.3470     9.2230    -0.0040 O.3   1 <1>  -0.5600 
 26 C       10.5610     6.9000     0.2620 C.3   1 <1>  -0.2400 
 27 C       10.6090    11.5520    -0.1860 C.3   1 <1>  -0.2400 
 28 H        1.2930     1.7720     2.2540 H     1 <1>   0.3700 
 29 H        0.8260     2.5080    -1.5720 H     1 <1>   0.0800 
 30 H       -0.8010     2.0110    -1.2290 H     1 <1>   0.0800 
 31 H       -0.0030     3.9800     2.3420 H     1 <1>   0.0800 
 32 H        1.7330     4.1660     2.2950 H     1 <1>   0.0800 
 33 H       -1.2550     3.9850     0.0450 H     1 <1>   0.0800 
 34 H       -0.4330     4.5400    -1.3840 H     1 <1>   0.0800 
 35 H        1.7180     4.5240    -0.0610 H     1 <1>   0.0800 
 36 H        1.5000     5.9220    -1.7900 H     1 <1>   0.0800 
 37 H        1.6210     7.6250    -2.0480 H     1 <1>   0.0800 
 38 H       -0.0520     8.8760    -0.3080 H     1 <1>   0.0800 
 39 H        0.5250     8.5830     1.3020 H     1 <1>   0.0800 
 40 H        3.7970     6.3570    -1.9050 H     1 <1>   0.0800 
 41 H        3.4940     6.1080    -0.2090 H     1 <1>   0.0800 
 42 H        2.0330     9.7390    -1.0090 H     1 <1>   0.0800 
 43 H        1.8640    10.3000     0.6100 H     1 <1>   0.0800 
 44 H        3.2430     8.1230     1.2370 H     1 <1>   0.0800 
 45 H        3.9980     9.5940     0.6890 H     1 <1>   0.0800 
 46 H        5.6200     7.3980     0.2490 H     1 <1>   0.0800 
 47 H        5.7750     7.4050    -1.4820 H     1 <1>   0.0800 
 48 H        8.3790     8.0190     1.4220 H     1 <1>   0.0800 
 49 H        7.7720     7.1320     0.0520 H     1 <1>   0.0800 
 50 H        7.8060    11.3370    -0.3580 H     1 <1>   0.0800 
 51 H        8.4030    10.7260     1.1550 H     1 <1>   0.0800 
 52 H        9.6060     7.9300    -1.3540 H     1 <1>   0.0800 
 53 H        9.6290    10.2550    -1.5800 H     1 <1>   0.0800 
 54 H       10.6830     7.0050     1.3250 H     1 <1>   0.0800 
 55 H       11.5280     6.9310    -0.2080 H     1 <1>   0.0800 
 56 H       10.1120     5.9460     0.0550 H     1 <1>   0.0800 
 57 H       10.7290    11.6490     0.8770 H     1 <1>   0.0800 
 58 H       10.1740    12.4560    -0.5720 H     1 <1>   0.0800 
 59 H       11.5730    11.4160    -0.6420 H     1 <1>   0.0800 
@<TRIPOS>BOND
  1   1   2  2   
  2   2   3  am  
  3   2   4  1   
  4   3   5  1   
  5   3  28  1   
  6   4   6  1   
  7   4  29  1   
  8   4  30  1   
  9   5   7  1   
 10   5  31  1   
 11   5  32  1   
 12   6   7  1   
 13   6  33  1   
 14   6  34  1   
 15   7   8  1   
 16   7  35  1   
 17   8   9  2   
 18   8  10  am  
 19  10  11  1   
 20  10  12  1   
 21  11  13  1   
 22  11  36  1   
 23  11  37  1   
 24  12  14  1   
 25  12  38  1   
 26  12  39  1   
 27  13  15  1   
 28  13  40  1   
 29  13  41  1   
 30  14  16  1   
 31  14  42  1   
 32  14  43  1   
 33  15  16  1   
 34  15  17  1   
 35  16  44  1   
 36  16  45  1   
 37  17  18  1   
 38  17  46  1   
 39  17  47  1   
 40  18  19  2   
 41  18  20  am  
 42  20  21  1   
 43  20  22  1   
 44  21  23  1   
 45  21  48  1   
 46  21  49  1   
 47  22  24  1   
 48  22  50  1   
 49  22  51  1   
 50  23  25  1   
 51  23  26  1   
 52  23  52  1   
 53  24  25  1   
 54  24  27  1   
 55  24  53  1   
 56  26  54  1   
 57  26  55  1   
 58  26  56  1   
 59  27  57  1   
 60  27  58  1   
 61  27  59  1   
@<TRIPOS>SUBSTRUCTURE
  1 ****  15 GROUP 4 **** **** 0

# MOE 2024.06 (io_trps.svl 2023.06)
