@<TRIPOS>MOLECULE
NONAME
63 66 1 0 0 
SMALL
USER_CHARGES


@<TRIPOS>ATOM
  1 O       -0.7710     0.6890     0.5360 O.2   1 <1>  -0.5700 
  2 C       -1.2930     1.7510     0.2560 C.2   1 <1>   0.5440 
  3 N       -2.2130     1.7900    -0.7700 N.am  1 <1>  -0.6600 
  4 C       -0.9230     2.9360     1.0070 C.ar  1 <1>   0.0860 
  5 C       -2.8080     0.5440    -1.3450 C.3   1 <1>   0.1400 
  6 C       -2.4990     3.0050    -1.5910 C.3   1 <1>   0.1400 
  7 C        0.3880     3.2050     1.3540 C.ar  1 <1>  -0.1500 
  8 C       -1.8470     3.8720     1.4530 C.ar  1 <1>  -0.1500 
  9 C       -2.4820     0.4260    -2.8420 C.3   1 <1>   0.1200 
 10 C       -2.1980     2.7400    -3.0770 C.3   1 <1>   0.1200 
 11 C        0.7280     4.3370     2.0840 C.ar  1 <1>   0.4100 
 12 C       -1.4250     4.9790     2.1590 C.ar  1 <1>   0.1600 
 13 O       -2.8600     1.5910    -3.5210 O.3   1 <1>  -0.5600 
 14 N       -0.1680     5.2390     2.4690 N.ar  1 <1>  -0.6200 
 15 N        2.0540     4.5510     2.4400 N.pl3 1 <1>  -0.8380 
 16 C        2.5170     5.9250     2.7910 C.3   1 <1>   0.2090 
 17 C        2.7120     3.4870     3.2520 C.3   1 <1>   0.1290 
 18 C        2.5260     6.8330     1.5470 C.3   1 <1>  -0.0800 
 19 C        3.3970     6.2620     0.4130 C.3   1 <1>  -0.1600 
 20 C        3.0040     8.2490     1.9040 C.3   1 <1>  -0.1600 
 21 C        3.4190     7.1940    -0.7950 C.3   1 <1>   0.3430 
 22 C        3.0380     9.1540     0.6730 C.3   1 <1>   0.3430 
 23 N        3.9010     8.5410    -0.3810 N.4   1 <1>  -0.9590 
 24 C        4.0630     9.4460    -1.5500 C.3   1 <1>   0.4860 
 25 C        4.7980    10.6920    -1.0970 C.ar  1 <1>  -0.1440 
 26 C        4.1110    11.8870    -0.9340 C.ar  1 <1>  -0.1500 
 27 C        6.1610    10.6460    -0.8370 C.ar  1 <1>  -0.1500 
 28 C        4.7790    13.0200    -0.5020 C.ar  1 <1>  -0.1500 
 29 C        6.8250    11.7800    -0.4050 C.ar  1 <1>  -0.1500 
 30 C        6.1340    12.9660    -0.2350 C.ar  1 <1>  -0.1500 
 31 H       -3.8760     0.5730    -1.2190 H     1 <1>   0.0800 
 32 H       -2.4420    -0.3280    -0.8310 H     1 <1>   0.0800 
 33 H       -1.9040     3.8360    -1.2620 H     1 <1>   0.0800 
 34 H       -3.5370     3.2690    -1.4840 H     1 <1>   0.0800 
 35 H        1.1600     2.5220     1.0560 H     1 <1>   0.1500 
 36 H       -2.8920     3.7270     1.2510 H     1 <1>   0.1500 
 37 H       -3.0200    -0.3980    -3.2750 H     1 <1>   0.0800 
 38 H       -1.4270     0.2640    -2.9850 H     1 <1>   0.0800 
 39 H       -1.1410     2.6090    -3.2320 H     1 <1>   0.0800 
 40 H       -2.5360     3.5650    -3.6780 H     1 <1>   0.0800 
 41 H       -2.1620     5.6910     2.4920 H     1 <1>   0.1500 
 42 H        3.5120     5.8730     3.2000 H     1 <1>   0.0800 
 43 H        1.8720     6.3390     3.5480 H     1 <1>   0.0800 
 44 H        2.1880     2.5510     3.1630 H     1 <1>   0.0800 
 45 H        2.7190     3.7700     4.2910 H     1 <1>   0.0800 
 46 H        3.7250     3.3470     2.9170 H     1 <1>   0.0800 
 47 H        1.5110     6.9090     1.1940 H     1 <1>   0.0800 
 48 H        3.0000     5.3120     0.1000 H     1 <1>   0.0800 
 49 H        4.4000     6.0900     0.7610 H     1 <1>   0.0800 
 50 H        3.9830     8.2160     2.3500 H     1 <1>   0.0800 
 51 H        2.3330     8.6790     2.6280 H     1 <1>   0.0800 
 52 H        2.4240     7.2700    -1.2030 H     1 <1>   0.0800 
 53 H        4.0670     6.7820    -1.5520 H     1 <1>   0.0800 
 54 H        3.4260    10.1210     0.9540 H     1 <1>   0.0800 
 55 H        2.0370     9.2860     0.2960 H     1 <1>   0.0800 
 56 H        4.8340     8.4360     0.0340 H     1 <1>   0.4500 
 57 H        3.1000     9.7110    -1.9560 H     1 <1>   0.0800 
 58 H        4.6370     8.9590    -2.3220 H     1 <1>   0.0800 
 59 H        3.0570    11.9560    -1.1410 H     1 <1>   0.1500 
 60 H        6.7230     9.7370    -0.9700 H     1 <1>   0.1500 
 61 H        4.2470    13.9490    -0.3750 H     1 <1>   0.1500 
 62 H        7.8830    11.7460    -0.2030 H     1 <1>   0.1500 
 63 H        6.6530    13.8480     0.1000 H     1 <1>   0.1500 
@<TRIPOS>BOND
  1   1   2  2   
  2   2   3  am  
  3   2   4  1   
  4   3   5  1   
  5   3   6  1   
  6   4   7  ar  
  7   4   8  ar  
  8   5   9  1   
  9   5  31  1   
 10   5  32  1   
 11   6  10  1   
 12   6  33  1   
 13   6  34  1   
 14   7  11  ar  
 15   7  35  1   
 16   8  12  ar  
 17   8  36  1   
 18   9  13  1   
 19   9  37  1   
 20   9  38  1   
 21  10  13  1   
 22  10  39  1   
 23  10  40  1   
 24  11  14  ar  
 25  11  15  1   
 26  12  14  ar  
 27  12  41  1   
 28  15  16  1   
 29  15  17  1   
 30  16  18  1   
 31  16  42  1   
 32  16  43  1   
 33  17  44  1   
 34  17  45  1   
 35  17  46  1   
 36  18  19  1   
 37  18  20  1   
 38  18  47  1   
 39  19  21  1   
 40  19  48  1   
 41  19  49  1   
 42  20  22  1   
 43  20  50  1   
 44  20  51  1   
 45  21  23  1   
 46  21  52  1   
 47  21  53  1   
 48  22  23  1   
 49  22  54  1   
 50  22  55  1   
 51  23  24  1   
 52  23  56  1   
 53  24  25  1   
 54  24  57  1   
 55  24  58  1   
 56  25  26  ar  
 57  25  27  ar  
 58  26  28  ar  
 59  26  59  1   
 60  27  29  ar  
 61  27  60  1   
 62  28  30  ar  
 63  28  61  1   
 64  29  30  ar  
 65  29  62  1   
 66  30  63  1   
@<TRIPOS>SUBSTRUCTURE
  1 ****  18 GROUP 4 **** **** 0

# MOE 2024.06 (io_trps.svl 2023.06)
