@<TRIPOS>MOLECULE
NONAME
51 54 1 0 0 
SMALL
USER_CHARGES


@<TRIPOS>ATOM
  1 O        3.5830    -1.7920    -1.7990 O.2   1 <1>  -0.5700 
  2 C        2.6920    -1.6700    -0.9800 C.2   1 <1>   0.5440 
  3 N        2.5580    -0.4200    -0.4380 N.am  1 <1>  -0.6600 
  4 C        1.9350    -2.8170    -0.5290 C.ar  1 <1>   0.0860 
  5 C        3.1020    -0.1920     0.9450 C.3   1 <1>   0.2200 
  6 C        2.4110     0.7530    -1.3570 C.3   1 <1>   0.1400 
  7 C        0.6320    -2.7700    -0.0330 C.ar  1 <1>   0.3100 
  8 C        2.5190    -4.0690    -0.5570 C.ar  1 <1>   0.1600 
  9 C        2.4720     1.0230     1.6470 C.3   1 <1>   0.1200 
 10 C        4.6490    -0.0670     0.9050 C.3   1 <1>   0.3430 
 11 C        3.3490     1.9380    -1.0590 C.3   1 <1>  -0.0800 
 12 N        0.0470    -3.8590     0.4450 N.ar  1 <1>  -0.6200 
 13 C       -0.1540    -1.5570    -0.0130 C.ar  1 <1>   0.0000 
 14 N        1.9380    -5.1550    -0.1030 N.ar  1 <1>  -0.6200 
 15 O        3.1780     2.1880     1.3380 O.3   1 <1>  -0.5600 
 16 N        5.1750     0.2270    -0.4760 N.4   1 <1>  -0.9590 
 17 C        2.8530     2.7810     0.1270 C.3   1 <1>   0.1200 
 18 C        4.8540     1.6070    -0.9600 C.3   1 <1>   0.3430 
 19 C        0.7230    -4.9850     0.3810 C.ar  1 <1>   0.4770 
 20 C       -0.5720    -0.9460    -1.1940 C.ar  1 <1>  -0.1500 
 21 C       -0.5210    -0.9610     1.1930 C.ar  1 <1>  -0.1500 
 22 C        6.6280    -0.0740    -0.5940 C.3   1 <1>   0.2630 
 23 C        0.0420    -6.2230     0.9140 C.3   1 <1>  -0.0970 
 24 C       -1.3000     0.2290    -1.1740 C.ar  1 <1>  -0.1500 
 25 C       -1.2480     0.2150     1.2190 C.ar  1 <1>  -0.1500 
 26 C       -1.6340     0.8150     0.0340 C.ar  1 <1>  -0.1500 
 27 H        2.8520    -1.0500     1.5440 H     1 <1>   0.0800 
 28 H        2.5780     0.4280    -2.3720 H     1 <1>   0.0800 
 29 H        1.3910     1.0940    -1.3070 H     1 <1>   0.0800 
 30 H        3.5100    -4.1790    -0.9640 H     1 <1>   0.1500 
 31 H        2.5490     0.8950     2.7130 H     1 <1>   0.0800 
 32 H        1.4310     1.1380     1.3970 H     1 <1>   0.0800 
 33 H        5.0620    -1.0020     1.2440 H     1 <1>   0.0800 
 34 H        4.9700     0.6950     1.5960 H     1 <1>   0.0800 
 35 H        3.2530     2.5960    -1.9050 H     1 <1>   0.0800 
 36 H        4.6480    -0.4270    -1.1000 H     1 <1>   0.4500 
 37 H        1.7880     2.9400     0.0870 H     1 <1>   0.0800 
 38 H        3.3330     3.7450     0.1150 H     1 <1>   0.0800 
 39 H        5.3280     2.3320    -0.3170 H     1 <1>   0.0800 
 40 H        5.2800     1.7230    -1.9440 H     1 <1>   0.0800 
 41 H       -0.3290    -1.4010    -2.1390 H     1 <1>   0.1500 
 42 H       -0.2410    -1.4350     2.1180 H     1 <1>   0.1500 
 43 H        7.1990     0.5750     0.0500 H     1 <1>   0.0800 
 44 H        6.9560     0.0680    -1.6110 H     1 <1>   0.0800 
 45 H        6.8200    -1.0980    -0.3150 H     1 <1>   0.0800 
 46 H        0.6270    -6.6380     1.7120 H     1 <1>   0.0800 
 47 H       -0.0460    -6.9490     0.1280 H     1 <1>   0.0800 
 48 H       -0.9390    -5.9860     1.2840 H     1 <1>   0.0800 
 49 H       -1.6170     0.6850    -2.0960 H     1 <1>   0.1500 
 50 H       -1.5240     0.6590     2.1600 H     1 <1>   0.1500 
 51 H       -2.2040     1.7290     0.0530 H     1 <1>   0.1500 
@<TRIPOS>BOND
  1   1   2  2   
  2   2   3  am  
  3   2   4  1   
  4   3   5  1   
  5   3   6  1   
  6   4   7  ar  
  7   4   8  ar  
  8   5   9  1   
  9   5  10  1   
 10   5  27  1   
 11   6  11  1   
 12   6  28  1   
 13   6  29  1   
 14   7  12  ar  
 15   7  13  1   
 16   8  14  ar  
 17   8  30  1   
 18   9  15  1   
 19   9  31  1   
 20   9  32  1   
 21  10  16  1   
 22  10  33  1   
 23  10  34  1   
 24  11  17  1   
 25  11  18  1   
 26  11  35  1   
 27  12  19  ar  
 28  13  20  ar  
 29  13  21  ar  
 30  14  19  ar  
 31  15  17  1   
 32  16  18  1   
 33  16  22  1   
 34  16  36  1   
 35  17  37  1   
 36  17  38  1   
 37  18  39  1   
 38  18  40  1   
 39  19  23  1   
 40  20  24  ar  
 41  20  41  1   
 42  21  25  ar  
 43  21  42  1   
 44  22  43  1   
 45  22  44  1   
 46  22  45  1   
 47  23  46  1   
 48  23  47  1   
 49  23  48  1   
 50  24  26  ar  
 51  24  49  1   
 52  25  26  ar  
 53  25  50  1   
 54  26  51  1   
@<TRIPOS>SUBSTRUCTURE
  1 ****   3 GROUP 4 **** **** 0

# MOE 2024.06 (io_trps.svl 2023.06)
