@<TRIPOS>MOLECULE
NONAME
59 62 1 0 0 
SMALL
USER_CHARGES


@<TRIPOS>ATOM
  1 O       -0.3520    -0.6230    -0.1700 O.3   1 <1>  -0.2800 
  2 C       -0.3500    -1.8700    -0.5860 C.2   1 <1>  -0.0100 
  3 C       -0.8060    -0.6100     1.0660 C.2   1 <1>  -0.0100 
  4 C       -0.8330    -2.6900     0.3740 C.2   1 <1>  -0.1810 
  5 C       -1.1240    -1.8590     1.4670 C.2   1 <1>  -0.1500 
  6 C       -1.0480    -4.1870     0.3270 C.3   1 <1>   0.5240 
  7 N       -2.2310    -4.4620    -0.5440 N.4   1 <1>  -0.9590 
  8 C       -3.4440    -3.6820    -0.0810 C.3   1 <1>   0.3430 
  9 C       -2.4900    -5.9320    -0.6040 C.3   1 <1>   0.3430 
 10 C       -4.7410    -3.9820    -0.8990 C.3   1 <1>   0.4230 
 11 C       -3.7080    -6.2110    -1.4930 C.3   1 <1>  -0.1600 
 12 N       -5.9940    -3.2730    -0.4430 N.4   1 <1>  -0.9590 
 13 C       -5.0060    -5.5090    -1.0130 C.3   1 <1>   0.0000 
 14 C       -7.0790    -3.4080    -1.4750 C.3   1 <1>   0.3430 
 15 C       -5.8160    -1.8350    -0.0970 C.3   1 <1>   0.4810 
 16 C       -6.0980    -5.7050    -2.0890 C.3   1 <1>  -0.1600 
 17 C       -5.5030    -6.1660     0.3100 C.3   1 <1>   0.1200 
 18 C       -7.3670    -4.8800    -1.7940 C.3   1 <1>  -0.1600 
 19 C       -7.0890    -1.3610     0.5570 C.2   1 <1>  -0.2880 
 20 O       -4.7340    -5.7750     1.3940 O.3   1 <1>  -0.6800 
 21 C       -7.9340    -0.4600     0.0270 C.2   1 <1>  -0.1780 
 22 C       -9.1740     0.0280     0.5890 C.ar  1 <1>   0.0280 
 23 C      -10.0800     0.7120    -0.2190 C.ar  1 <1>  -0.1500 
 24 C       -9.5160    -0.1570     1.9280 C.ar  1 <1>  -0.1500 
 25 C      -11.2800     1.1830     0.2830 C.ar  1 <1>  -0.1500 
 26 C      -10.7140     0.3120     2.4350 C.ar  1 <1>  -0.1500 
 27 C      -11.6000     0.9820     1.6120 C.ar  1 <1>  -0.1500 
 28 H        0.0140    -2.0680    -1.5810 H     1 <1>   0.1500 
 29 H       -0.8600     0.3330     1.5870 H     1 <1>   0.1500 
 30 H       -1.5060    -2.1610     2.4290 H     1 <1>   0.1500 
 31 H       -1.2170    -4.5620     1.3250 H     1 <1>   0.0800 
 32 H       -0.1680    -4.6650    -0.0740 H     1 <1>   0.0800 
 33 H       -1.9570    -4.1400    -1.4820 H     1 <1>   0.4500 
 34 H       -3.6230    -3.9020     0.9570 H     1 <1>   0.0800 
 35 H       -3.2290    -2.6290    -0.1590 H     1 <1>   0.0800 
 36 H       -1.6290    -6.4440    -1.0040 H     1 <1>   0.0800 
 37 H       -2.6730    -6.3140     0.3880 H     1 <1>   0.0800 
 38 H       -4.5340    -3.6310    -1.8960 H     1 <1>   0.0800 
 39 H       -3.4680    -5.9130    -2.5000 H     1 <1>   0.0800 
 40 H       -3.8670    -7.2770    -1.5200 H     1 <1>   0.0800 
 41 H       -6.3300    -3.7400     0.4100 H     1 <1>   0.4500 
 42 H       -7.9880    -2.9410    -1.1270 H     1 <1>   0.0800 
 43 H       -6.7780    -2.9060    -2.3810 H     1 <1>   0.0800 
 44 H       -4.9970    -1.6990     0.5910 H     1 <1>   0.0800 
 45 H       -5.6220    -1.2550    -0.9860 H     1 <1>   0.0800 
 46 H       -5.7200    -5.4040    -3.0520 H     1 <1>   0.0800 
 47 H       -6.3640    -6.7480    -2.1690 H     1 <1>   0.0800 
 48 H       -5.4580    -7.2420     0.2370 H     1 <1>   0.0800 
 49 H       -6.5190    -5.8980     0.5380 H     1 <1>   0.0800 
 50 H       -7.9250    -5.3120    -0.9830 H     1 <1>   0.0800 
 51 H       -8.0150    -4.9190    -2.6530 H     1 <1>   0.0800 
 52 H       -7.2660    -1.8240     1.5120 H     1 <1>   0.1500 
 53 H       -4.9930    -6.2880     2.1960 H     1 <1>   0.4000 
 54 H       -7.7140    -0.0180    -0.9310 H     1 <1>   0.1500 
 55 H       -9.8520     0.8820    -1.2550 H     1 <1>   0.1500 
 56 H       -8.8450    -0.6640     2.5930 H     1 <1>   0.1500 
 57 H      -11.9660     1.7080    -0.3600 H     1 <1>   0.1500 
 58 H      -10.9600     0.1590     3.4720 H     1 <1>   0.1500 
 59 H      -12.5340     1.3480     2.0050 H     1 <1>   0.1500 
@<TRIPOS>BOND
  1   1   2  1   
  2   1   3  1   
  3   2   4  2   
  4   2  28  1   
  5   3   5  2   
  6   3  29  1   
  7   4   5  1   
  8   4   6  1   
  9   5  30  1   
 10   6   7  1   
 11   6  31  1   
 12   6  32  1   
 13   7   8  1   
 14   7   9  1   
 15   7  33  1   
 16   8  10  1   
 17   8  34  1   
 18   8  35  1   
 19   9  11  1   
 20   9  36  1   
 21   9  37  1   
 22  10  12  1   
 23  10  13  1   
 24  10  38  1   
 25  11  13  1   
 26  11  39  1   
 27  11  40  1   
 28  12  14  1   
 29  12  15  1   
 30  12  41  1   
 31  13  16  1   
 32  13  17  1   
 33  14  18  1   
 34  14  42  1   
 35  14  43  1   
 36  15  19  1   
 37  15  44  1   
 38  15  45  1   
 39  16  18  1   
 40  16  46  1   
 41  16  47  1   
 42  17  20  1   
 43  17  48  1   
 44  17  49  1   
 45  18  50  1   
 46  18  51  1   
 47  19  21  2   
 48  19  52  1   
 49  20  53  1   
 50  21  22  1   
 51  21  54  1   
 52  22  23  ar  
 53  22  24  ar  
 54  23  25  ar  
 55  23  55  1   
 56  24  26  ar  
 57  24  56  1   
 58  25  27  ar  
 59  25  57  1   
 60  26  27  ar  
 61  26  58  1   
 62  27  59  1   
@<TRIPOS>SUBSTRUCTURE
  1 ****  15 GROUP 4 **** **** 0

# MOE 2024.06 (io_trps.svl 2023.06)
