@<TRIPOS>MOLECULE
NONAME
50 53 1 0 0 
SMALL
USER_CHARGES


@<TRIPOS>ATOM
  1 F        0.2930    -0.5270    -0.6480 F     1 <1>  -0.1900 
  2 C        0.1790    -1.8290    -0.6860 C.ar  1 <1>   0.1900 
  3 C        0.7650    -2.6530     0.2820 C.ar  1 <1>   0.0820 
  4 C       -0.5590    -2.3520    -1.7310 C.ar  1 <1>  -0.1500 
  5 O        1.5180    -2.2560     1.3470 O.3   1 <1>  -0.3630 
  6 C        0.5750    -4.0200     0.1640 C.ar  1 <1>  -0.1500 
  7 C       -0.7270    -3.7220    -1.8200 C.ar  1 <1>  -0.1500 
  8 C        1.9890    -0.9360     1.5040 C.3   1 <1>   0.0400 
  9 C       -0.1720    -4.5830    -0.8710 C.ar  1 <1>   0.0860 
 10 C       -0.3520    -6.0210    -0.9610 C.2   1 <1>   0.5440 
 11 O        0.6200    -6.7460    -0.8730 O.2   1 <1>  -0.5700 
 12 N       -1.5950    -6.5890    -1.1420 N.am  1 <1>  -0.6600 
 13 C       -2.8820    -5.9260    -0.7650 C.3   1 <1>   0.1400 
 14 C       -1.7610    -8.0300    -1.5090 C.3   1 <1>   0.1400 
 15 C       -3.6410    -6.7470     0.2970 C.3   1 <1>   0.1900 
 16 C       -2.5530    -8.7890    -0.4330 C.3   1 <1>   0.1100 
 17 N       -3.8560    -8.1410    -0.1640 N.3   1 <1>  -0.8100 
 18 C       -4.9870    -6.0750     0.6340 C.3   1 <1>   0.1200 
 19 C       -4.6460    -8.8910     0.8420 C.3   1 <1>   0.3330 
 20 O       -5.6810    -6.8170     1.5950 O.3   1 <1>  -0.5600 
 21 C       -4.9970   -10.2890     0.3360 C.ar  1 <1>  -0.1430 
 22 C       -5.9460    -8.1340     1.1900 C.3   1 <1>   0.1200 
 23 C       -5.5080   -10.4780    -0.9410 C.ar  1 <1>  -0.1500 
 24 C       -4.8130   -11.3930     1.1570 C.ar  1 <1>  -0.1500 
 25 C       -5.8300   -11.7460    -1.3910 C.ar  1 <1>  -0.1500 
 26 C       -5.1350   -12.6630     0.7090 C.ar  1 <1>  -0.1500 
 27 C       -5.6440   -12.8400    -0.5660 C.ar  1 <1>  -0.1500 
 28 H       -0.9900    -1.6920    -2.4630 H     1 <1>   0.1500 
 29 H        1.0240    -4.6720     0.8940 H     1 <1>   0.1500 
 30 H       -1.2910    -4.1400    -2.6370 H     1 <1>   0.1500 
 31 H        2.6470    -0.9150     2.3540 H     1 <1>   0.0800 
 32 H        1.1530    -0.2820     1.6760 H     1 <1>   0.0800 
 33 H        2.5290    -0.6480     0.6180 H     1 <1>   0.0800 
 34 H       -2.6970    -4.9430    -0.3730 H     1 <1>   0.0800 
 35 H       -3.4960    -5.8290    -1.6430 H     1 <1>   0.0800 
 36 H       -2.2900    -8.0960    -2.4430 H     1 <1>   0.0800 
 37 H       -0.8030    -8.5020    -1.6430 H     1 <1>   0.0800 
 38 H       -3.0450    -6.7560     1.1950 H     1 <1>   0.0800 
 39 H       -1.9660    -8.8330     0.4690 H     1 <1>   0.0800 
 40 H       -2.7090    -9.7970    -0.7770 H     1 <1>   0.0800 
 41 H       -5.6010    -5.9920    -0.2450 H     1 <1>   0.0800 
 42 H       -4.8240    -5.0920     1.0400 H     1 <1>   0.0800 
 43 H       -4.0660    -8.9810     1.7440 H     1 <1>   0.0800 
 44 H       -6.4540    -8.6310     1.9970 H     1 <1>   0.0800 
 45 H       -6.6010    -8.1060     0.3380 H     1 <1>   0.0800 
 46 H       -5.6490    -9.6290    -1.5890 H     1 <1>   0.1500 
 47 H       -4.4180   -11.2720     2.1500 H     1 <1>   0.1500 
 48 H       -6.2250   -11.8800    -2.3830 H     1 <1>   0.1500 
 49 H       -4.9890   -13.5140     1.3510 H     1 <1>   0.1500 
 50 H       -5.8940   -13.8270    -0.9140 H     1 <1>   0.1500 
@<TRIPOS>BOND
  1   1   2  1   
  2   2   3  ar  
  3   2   4  ar  
  4   3   5  1   
  5   3   6  ar  
  6   4   7  ar  
  7   4  28  1   
  8   5   8  1   
  9   6   9  ar  
 10   6  29  1   
 11   7   9  ar  
 12   7  30  1   
 13   8  31  1   
 14   8  32  1   
 15   8  33  1   
 16   9  10  1   
 17  10  11  2   
 18  10  12  am  
 19  12  13  1   
 20  12  14  1   
 21  13  15  1   
 22  13  34  1   
 23  13  35  1   
 24  14  16  1   
 25  14  36  1   
 26  14  37  1   
 27  15  17  1   
 28  15  18  1   
 29  15  38  1   
 30  16  17  1   
 31  16  39  1   
 32  16  40  1   
 33  17  19  1   
 34  18  20  1   
 35  18  41  1   
 36  18  42  1   
 37  19  21  1   
 38  19  22  1   
 39  19  43  1   
 40  20  22  1   
 41  21  23  ar  
 42  21  24  ar  
 43  22  44  1   
 44  22  45  1   
 45  23  25  ar  
 46  23  46  1   
 47  24  26  ar  
 48  24  47  1   
 49  25  27  ar  
 50  25  48  1   
 51  26  27  ar  
 52  26  49  1   
 53  27  50  1   
@<TRIPOS>SUBSTRUCTURE
  1 ****  13 GROUP 4 **** **** 0

# MOE 2024.06 (io_trps.svl 2023.06)
