@<TRIPOS>MOLECULE
NONAME
55 58 1 0 0 
SMALL
USER_CHARGES


@<TRIPOS>ATOM
  1 O       -0.3370     0.2700     0.1480 O.2   1 <1>  -0.5700 
  2 C       -1.3970     0.8660     0.2010 C.2   1 <1>   0.5440 
  3 N       -2.5640     0.1370     0.1330 N.am  1 <1>  -0.6600 
  4 C       -1.4100     2.3080     0.3160 C.ar  1 <1>   0.0860 
  5 C       -3.8830     0.6980    -0.2520 C.3   1 <1>   0.1400 
  6 C       -2.5670    -1.3410    -0.0020 C.3   1 <1>   0.1400 
  7 C       -0.6510     3.1020    -0.5440 C.ar  1 <1>  -0.1500 
  8 C       -2.1740     2.9630     1.2830 C.ar  1 <1>  -0.1500 
  9 C       -4.6860    -0.4970    -0.7660 C.3   1 <1>   0.2000 
 10 C       -4.0420    -1.7270    -0.1310 C.3   1 <1>  -0.0800 
 11 C       -0.6620     4.4820    -0.4690 C.ar  1 <1>  -0.1440 
 12 C       -2.1920     4.3390     1.3690 C.ar  1 <1>  -0.1500 
 13 O       -6.0200    -0.4140    -0.3950 O.3   1 <1>  -0.6800 
 14 C       -4.2900    -3.0110    -0.9400 C.3   1 <1>  -0.0170 
 15 C       -1.4430     5.1210     0.4960 C.ar  1 <1>   0.1000 
 16 C        0.1820     5.3000    -1.4360 C.3   1 <1>  -0.0970 
 17 C       -3.6880    -4.2280    -0.2590 C.ar  1 <1>   0.1670 
 18 N       -1.4710     6.5020     0.5960 N.pl3 1 <1>  -0.8380 
 19 N       -2.4050    -4.4560    -0.4880 N.ar  1 <1>  -0.6200 
 20 C       -4.4840    -5.0230     0.5540 C.ar  1 <1>  -0.1500 
 21 C       -0.7330     7.1190     1.7350 C.3   1 <1>   0.2090 
 22 C       -2.7550     7.2000     0.3050 C.3   1 <1>   0.2090 
 23 C       -1.8920    -5.5150     0.1170 C.ar  1 <1>   0.1600 
 24 C       -3.9370    -6.1240     1.1780 C.ar  1 <1>  -0.1500 
 25 C       -0.6240     8.6430     1.5520 C.3   1 <1>   0.1200 
 26 C       -2.5350     8.7200     0.1970 C.3   1 <1>   0.1200 
 27 C       -2.6000    -6.3680     0.9460 C.ar  1 <1>  -0.1500 
 28 O       -1.8860     9.2160     1.3360 O.3   1 <1>  -0.5600 
 29 H       -4.3520     1.1290     0.6150 H     1 <1>   0.0800 
 30 H       -3.7680     1.4420    -1.0220 H     1 <1>   0.0800 
 31 H       -2.0170    -1.6150    -0.8870 H     1 <1>   0.0800 
 32 H       -2.1080    -1.8060     0.8540 H     1 <1>   0.0800 
 33 H       -0.0440     2.6050    -1.2810 H     1 <1>   0.1500 
 34 H       -2.7500     2.3760     1.9750 H     1 <1>   0.1500 
 35 H       -4.6320    -0.5360    -1.8410 H     1 <1>   0.0800 
 36 H       -4.4230    -1.8560     0.8660 H     1 <1>   0.0800 
 37 H       -2.7850     4.8250     2.1210 H     1 <1>   0.1500 
 38 H       -6.0990    -0.4020     0.5780 H     1 <1>   0.4000 
 39 H       -3.8660    -2.9150    -1.9250 H     1 <1>   0.0800 
 40 H       -5.3490    -3.1560    -1.0590 H     1 <1>   0.0800 
 41 H        0.7100     4.6670    -2.1250 H     1 <1>   0.0800 
 42 H        0.8960     5.8850    -0.8860 H     1 <1>   0.0800 
 43 H       -0.4510     5.9660    -1.9930 H     1 <1>   0.0800 
 44 H       -5.5210    -4.7850     0.6990 H     1 <1>   0.1500 
 45 H       -1.2470     6.9070     2.6560 H     1 <1>   0.0800 
 46 H        0.2520     6.6900     1.7940 H     1 <1>   0.0800 
 47 H       -3.1610     6.8270    -0.6190 H     1 <1>   0.0800 
 48 H       -3.4630     7.0000     1.0900 H     1 <1>   0.0800 
 49 H       -0.8480    -5.7140    -0.0580 H     1 <1>   0.1500 
 50 H       -4.5240    -6.7620     1.8150 H     1 <1>   0.1500 
 51 H        0.0070     8.8730     0.7110 H     1 <1>   0.0800 
 52 H       -0.2040     9.0940     2.4340 H     1 <1>   0.0800 
 53 H       -3.4800     9.2270     0.1100 H     1 <1>   0.0800 
 54 H       -1.9370     8.9490    -0.6670 H     1 <1>   0.0800 
 55 H       -2.1100    -7.2090     1.4010 H     1 <1>   0.1500 
@<TRIPOS>BOND
  1   1   2  2   
  2   2   3  am  
  3   2   4  1   
  4   3   5  1   
  5   3   6  1   
  6   4   7  ar  
  7   4   8  ar  
  8   5   9  1   
  9   5  29  1   
 10   5  30  1   
 11   6  10  1   
 12   6  31  1   
 13   6  32  1   
 14   7  11  ar  
 15   7  33  1   
 16   8  12  ar  
 17   8  34  1   
 18   9  10  1   
 19   9  13  1   
 20   9  35  1   
 21  10  14  1   
 22  10  36  1   
 23  11  15  ar  
 24  11  16  1   
 25  12  15  ar  
 26  12  37  1   
 27  13  38  1   
 28  14  17  1   
 29  14  39  1   
 30  14  40  1   
 31  15  18  1   
 32  16  41  1   
 33  16  42  1   
 34  16  43  1   
 35  17  19  ar  
 36  17  20  ar  
 37  18  21  1   
 38  18  22  1   
 39  19  23  ar  
 40  20  24  ar  
 41  20  44  1   
 42  21  25  1   
 43  21  45  1   
 44  21  46  1   
 45  22  26  1   
 46  22  47  1   
 47  22  48  1   
 48  23  27  ar  
 49  23  49  1   
 50  24  27  ar  
 51  24  50  1   
 52  25  28  1   
 53  25  51  1   
 54  25  52  1   
 55  26  28  1   
 56  26  53  1   
 57  26  54  1   
 58  27  55  1   
@<TRIPOS>SUBSTRUCTURE
  1 ****   2 GROUP 4 **** **** 0

# MOE 2024.06 (io_trps.svl 2023.06)
