@<TRIPOS>MOLECULE
NONAME
49 52 1 0 0 
SMALL
USER_CHARGES


@<TRIPOS>ATOM
  1 O       -0.9890    -1.9740    -1.1360 O.2   1 <1>  -0.5700 
  2 C        0.0440    -2.5900    -1.1660 C.2   1 <1>   0.5690 
  3 N        0.3680    -3.3770    -2.2140 N.am  1 <1>  -0.7300 
  4 C        1.0240    -2.5170    -0.0160 C.3   1 <1>  -0.0990 
  5 C        1.6150    -4.1670    -2.2760 C.3   1 <1>   0.1400 
  6 C        2.4660    -2.3910    -0.5440 C.3   1 <1>  -0.0800 
  7 C        2.7940    -3.3360    -1.7290 C.3   1 <1>  -0.0800 
  8 C        3.5250    -2.6530     0.5360 C.3   1 <1>  -0.1600 
  9 C        3.9670    -4.2040    -1.2570 C.3   1 <1>  -0.1600 
 10 C        4.6640    -3.3470    -0.2020 C.3   1 <1>   0.2200 
 11 N        5.5630    -4.1080     0.7180 N.am  1 <1>  -0.6600 
 12 C        6.8450    -3.6760     1.0000 C.2   1 <1>   0.5440 
 13 C        5.0710    -5.3990     1.2920 C.3   1 <1>   0.0600 
 14 O        7.6160    -4.4290     1.5630 O.2   1 <1>  -0.5700 
 15 C        7.2890    -2.3480     0.6430 C.ar  1 <1>   0.0860 
 16 C        8.1660    -2.1210    -0.4460 C.ar  1 <1>   0.0000 
 17 C        6.8540    -1.2460     1.3260 C.ar  1 <1>  -0.1500 
 18 C        8.4900    -0.7840    -0.7680 C.ar  1 <1>   0.3100 
 19 C        8.7230    -3.1560    -1.2270 C.ar  1 <1>  -0.1500 
 20 C        7.2400     0.0360     0.9350 C.ar  1 <1>   0.3930 
 21 N        8.0200     0.2820    -0.0790 N.ar  1 <1>  -0.6200 
 22 C        9.3390    -0.5420    -1.8600 C.ar  1 <1>  -0.1500 
 23 C        9.5500    -2.8850    -2.2850 C.ar  1 <1>  -0.1500 
 24 O        6.7520     1.0530     1.6690 O.3   1 <1>  -0.3620 
 25 C        9.8610    -1.5630    -2.6080 C.ar  1 <1>  -0.1500 
 26 C        7.1020     2.3930     1.3820 C.3   1 <1>   0.0400 
 27 H       -0.3120    -3.4570    -2.9730 H     1 <1>   0.3700 
 28 H        0.7820    -1.6770     0.6090 H     1 <1>   0.0800 
 29 H        0.9110    -3.4150     0.5640 H     1 <1>   0.0800 
 30 H        1.4780    -5.0570    -1.6850 H     1 <1>   0.0800 
 31 H        1.8130    -4.4600    -3.2930 H     1 <1>   0.0800 
 32 H        2.5900    -1.3810    -0.9020 H     1 <1>   0.0800 
 33 H        3.1510    -2.7180    -2.5370 H     1 <1>   0.0800 
 34 H        3.1290    -3.3030     1.2950 H     1 <1>   0.0800 
 35 H        3.8540    -1.7360     0.9900 H     1 <1>   0.0800 
 36 H        4.6330    -4.4480    -2.0660 H     1 <1>   0.0800 
 37 H        3.5840    -5.1070    -0.8210 H     1 <1>   0.0800 
 38 H        5.2240    -2.5950    -0.7310 H     1 <1>   0.0800 
 39 H        4.0210    -5.3410     1.5170 H     1 <1>   0.0800 
 40 H        5.5970    -5.6290     2.2030 H     1 <1>   0.0800 
 41 H        5.2420    -6.1940     0.5880 H     1 <1>   0.0800 
 42 H        6.2040    -1.3450     2.1750 H     1 <1>   0.1500 
 43 H        8.4980    -4.1800    -0.9820 H     1 <1>   0.1500 
 44 H        9.5690     0.4820    -2.0900 H     1 <1>   0.1500 
 45 H        9.9710    -3.6830    -2.8730 H     1 <1>   0.1500 
 46 H       10.5110    -1.3620    -3.4420 H     1 <1>   0.1500 
 47 H        6.6100     3.0320     2.0920 H     1 <1>   0.0800 
 48 H        6.7800     2.6310     0.3830 H     1 <1>   0.0800 
 49 H        8.1700     2.4980     1.4650 H     1 <1>   0.0800 
@<TRIPOS>BOND
  1   1   2  2   
  2   2   3  am  
  3   2   4  1   
  4   3   5  1   
  5   3  27  1   
  6   4   6  1   
  7   4  28  1   
  8   4  29  1   
  9   5   7  1   
 10   5  30  1   
 11   5  31  1   
 12   6   7  1   
 13   6   8  1   
 14   6  32  1   
 15   7   9  1   
 16   7  33  1   
 17   8  10  1   
 18   8  34  1   
 19   8  35  1   
 20   9  10  1   
 21   9  36  1   
 22   9  37  1   
 23  10  11  1   
 24  10  38  1   
 25  11  12  am  
 26  11  13  1   
 27  12  14  2   
 28  12  15  1   
 29  13  39  1   
 30  13  40  1   
 31  13  41  1   
 32  15  16  ar  
 33  15  17  ar  
 34  16  18  ar  
 35  16  19  ar  
 36  17  20  ar  
 37  17  42  1   
 38  18  21  ar  
 39  18  22  ar  
 40  19  23  ar  
 41  19  43  1   
 42  20  21  ar  
 43  20  24  1   
 44  22  25  ar  
 45  22  44  1   
 46  23  25  ar  
 47  23  45  1   
 48  24  26  1   
 49  25  46  1   
 50  26  47  1   
 51  26  48  1   
 52  26  49  1   
@<TRIPOS>SUBSTRUCTURE
  1 ****  10 GROUP 4 **** **** 0

# MOE 2024.06 (io_trps.svl 2023.06)
