@<TRIPOS>MOLECULE
NONAME
47 48 1 0 0 
SMALL
USER_CHARGES


@<TRIPOS>ATOM
  1 S        0.5260     0.0650    -1.1380 S.o2  1 <1>   1.3330 
  2 O        1.8500    -0.2930    -1.5970 O.2   1 <1>  -0.6500 
  3 O       -0.5300     0.2710    -2.1020 O.2   1 <1>  -0.6500 
  4 N       -0.0060    -1.1550    -0.0800 N.am  1 <1>  -0.8490 
  5 C        0.6400     1.5140    -0.0760 C.3   1 <1>  -0.0550 
  6 C        0.4360    -2.4880    -0.5030 C.3   1 <1>   0.1160 
  7 C       -1.4600    -1.1580     0.1230 C.3   1 <1>   0.1160 
  8 C        1.8950     1.6540     0.8160 C.3   1 <1>  -0.0800 
  9 C        3.1800     1.8990     0.0200 C.3   1 <1>   0.2200 
 10 C        2.2440     0.4680     1.7220 C.3   1 <1>   0.1200 
 11 N        3.7240     3.2290     0.3720 N.am  1 <1>  -0.7300 
 12 C        4.1090     0.7890     0.5070 C.3   1 <1>   0.1200 
 13 O        3.6330     0.4480     1.7680 O.3   1 <1>  -0.5600 
 14 C        3.3260     4.3870    -0.2050 C.2   1 <1>   0.5690 
 15 O        2.4670     4.4160    -1.0510 O.2   1 <1>  -0.5700 
 16 C        3.9780     5.6770     0.2310 C.3   1 <1>  -0.0990 
 17 C        5.1930     5.9950    -0.6460 C.3   1 <1>  -0.0170 
 18 C        5.8710     7.2750    -0.1760 C.ar  1 <1>  -0.1440 
 19 C        6.7940     7.2780     0.8620 C.ar  1 <1>   0.1900 
 20 C        5.5750     8.4870    -0.7810 C.ar  1 <1>  -0.1500 
 21 F        7.0920     6.1540     1.4610 F     1 <1>  -0.1900 
 22 C        7.4170     8.4310     1.3010 C.ar  1 <1>  -0.1500 
 23 C        6.1890     9.6550    -0.3540 C.ar  1 <1>  -0.1500 
 24 C        7.1090     9.6310     0.6830 C.ar  1 <1>  -0.1500 
 25 H        0.6010     2.3860    -0.7020 H     1 <1>   0.0800 
 26 H       -0.2290     1.5500     0.5500 H     1 <1>   0.0800 
 27 H        0.0890    -3.2350     0.1900 H     1 <1>   0.0800 
 28 H        1.5120    -2.5290    -0.5300 H     1 <1>   0.0800 
 29 H        0.0570    -2.7120    -1.4870 H     1 <1>   0.0800 
 30 H       -1.7270    -1.8840     0.8720 H     1 <1>   0.0800 
 31 H       -1.9690    -1.4000    -0.7960 H     1 <1>   0.0800 
 32 H       -1.7930    -0.1900     0.4550 H     1 <1>   0.0800 
 33 H        1.7190     2.4950     1.4640 H     1 <1>   0.0800 
 34 H        3.0410     1.8400    -1.0470 H     1 <1>   0.0800 
 35 H        1.9300    -0.4770     1.3200 H     1 <1>   0.0800 
 36 H        1.8610     0.5840     2.7210 H     1 <1>   0.0800 
 37 H        4.3800     3.2320     1.1570 H     1 <1>   0.3700 
 38 H        5.1370     1.0960     0.5740 H     1 <1>   0.0800 
 39 H        4.0240    -0.0800    -0.1240 H     1 <1>   0.0800 
 40 H        3.2590     6.4720     0.1530 H     1 <1>   0.0800 
 41 H        4.2770     5.5980     1.2600 H     1 <1>   0.0800 
 42 H        4.8760     6.1020    -1.6690 H     1 <1>   0.0800 
 43 H        5.8930     5.1780    -0.6110 H     1 <1>   0.0800 
 44 H        4.8630     8.5290    -1.5870 H     1 <1>   0.1500 
 45 H        8.1260     8.3870     2.1070 H     1 <1>   0.1500 
 46 H        5.9500    10.5890    -0.8330 H     1 <1>   0.1500 
 47 H        7.5810    10.5420     1.0080 H     1 <1>   0.1500 
@<TRIPOS>BOND
  1   1   2  2   
  2   1   3  2   
  3   1   4  am  
  4   1   5  1   
  5   4   6  1   
  6   4   7  1   
  7   5   8  1   
  8   5  25  1   
  9   5  26  1   
 10   6  27  1   
 11   6  28  1   
 12   6  29  1   
 13   7  30  1   
 14   7  31  1   
 15   7  32  1   
 16   8   9  1   
 17   8  10  1   
 18   8  33  1   
 19   9  11  1   
 20   9  12  1   
 21   9  34  1   
 22  10  13  1   
 23  10  35  1   
 24  10  36  1   
 25  11  14  am  
 26  11  37  1   
 27  12  13  1   
 28  12  38  1   
 29  12  39  1   
 30  14  15  2   
 31  14  16  1   
 32  16  17  1   
 33  16  40  1   
 34  16  41  1   
 35  17  18  1   
 36  17  42  1   
 37  17  43  1   
 38  18  19  ar  
 39  18  20  ar  
 40  19  21  1   
 41  19  22  ar  
 42  20  23  ar  
 43  20  44  1   
 44  22  24  ar  
 45  22  45  1   
 46  23  24  ar  
 47  23  46  1   
 48  24  47  1   
@<TRIPOS>SUBSTRUCTURE
  1 ****  11 GROUP 4 **** **** 0

# MOE 2024.06 (io_trps.svl 2023.06)
