@<TRIPOS>MOLECULE
NONAME
36 37 1 0 0 
SMALL
USER_CHARGES


@<TRIPOS>ATOM
  1 S        1.2200     0.8640    -1.5830 S.3   1 <1>  -0.0800 
  2 C        2.7020     0.2550    -0.8400 C.2   1 <1>  -0.0450 
  3 C        0.7850     1.7760    -0.1570 C.2   1 <1>  -0.1100 
  4 C        3.5530    -0.6150    -1.6020 C.2   1 <1>   0.5940 
  5 C        2.7860     0.7590     0.4210 C.2   1 <1>  -0.1500 
  6 C        1.7160     1.6230     0.8030 C.2   1 <1>  -0.1810 
  7 O        3.3600    -0.9170    -2.7520 O.2   1 <1>  -0.5700 
  8 C        4.7850    -1.1850    -0.9330 C.3   1 <1>  -0.1790 
  9 C        1.7030     2.3050     2.1690 C.3   1 <1>   0.0820 
 10 C        2.8270     3.3200     2.3140 C.2   1 <1>   0.5690 
 11 O        3.1640     3.6450     3.4240 O.2   1 <1>  -0.5700 
 12 N        3.3990     3.8000     1.1700 N.am  1 <1>  -0.4940 
 13 C        4.4990     4.6400     0.9850 C.2   1 <1>   0.2040 
 14 O        5.1340     5.2110     1.9800 O.3   1 <1>  -0.0190 
 15 C        5.1140     5.0020    -0.1570 C.2   1 <1>  -0.1810 
 16 N        6.1440     5.9320     1.5590 N.2   1 <1>  -0.4100 
 17 C        6.1530     5.8210     0.2790 C.2   1 <1>   0.1080 
 18 C        4.7720     4.6100    -1.5850 C.3   1 <1>   0.0210 
 19 C        7.1730     6.5050    -0.6050 C.3   1 <1>  -0.0590 
 20 C        5.4520     3.2900    -1.9560 C.3   1 <1>  -0.2400 
 21 H       -0.1300     2.3420    -0.1950 H     1 <1>   0.1500 
 22 H        3.5890     0.5470     1.1080 H     1 <1>   0.1500 
 23 H        4.5020    -1.7240    -0.0480 H     1 <1>   0.0800 
 24 H        5.4570    -0.3900    -0.6720 H     1 <1>   0.0800 
 25 H        5.2870    -1.8590    -1.6030 H     1 <1>   0.0800 
 26 H        1.8020     1.5650     2.9420 H     1 <1>   0.0800 
 27 H        0.7690     2.8140     2.3180 H     1 <1>   0.0800 
 28 H        3.0150     3.4060     0.3120 H     1 <1>   0.3700 
 29 H        5.0830     5.3860    -2.2630 H     1 <1>   0.0800 
 30 H        3.7050     4.5010    -1.6830 H     1 <1>   0.0800 
 31 H        7.6510     5.7830    -1.2400 H     1 <1>   0.0800 
 32 H        7.9210     6.9830     0.0010 H     1 <1>   0.0800 
 33 H        6.6900     7.2490    -1.2100 H     1 <1>   0.0800 
 34 H        6.5200     3.3890    -1.8820 H     1 <1>   0.0800 
 35 H        5.1990     3.0130    -2.9640 H     1 <1>   0.0800 
 36 H        5.1320     2.5070    -1.2920 H     1 <1>   0.0800 
@<TRIPOS>BOND
  1   1   2  1   
  2   1   3  1   
  3   2   4  1   
  4   2   5  2   
  5   3   6  2   
  6   3  21  1   
  7   4   7  2   
  8   4   8  1   
  9   5   6  1   
 10   5  22  1   
 11   6   9  1   
 12   8  23  1   
 13   8  24  1   
 14   8  25  1   
 15   9  10  1   
 16   9  26  1   
 17   9  27  1   
 18  10  11  2   
 19  10  12  am  
 20  12  13  1   
 21  12  28  1   
 22  13  14  1   
 23  13  15  2   
 24  14  16  1   
 25  15  17  1   
 26  15  18  1   
 27  16  17  2   
 28  17  19  1   
 29  18  20  1   
 30  18  29  1   
 31  18  30  1   
 32  19  31  1   
 33  19  32  1   
 34  19  33  1   
 35  20  34  1   
 36  20  35  1   
 37  20  36  1   
@<TRIPOS>SUBSTRUCTURE
  1 ****  12 GROUP 4 **** **** 0

# MOE 2024.06 (io_trps.svl 2023.06)
