@<TRIPOS>MOLECULE
NONAME
39 41 1 0 0 
SMALL
USER_CHARGES


@<TRIPOS>ATOM
  1 S       -1.6270     0.5740    -0.8350 S.3   1 <1>  -0.4600 
  2 C       -1.8110    -1.1530    -1.3660 C.3   1 <1>   0.0700 
  3 C       -2.7280     0.6610     0.6110 C.3   1 <1>   0.0700 
  4 C       -1.5760    -2.0760    -0.1660 C.3   1 <1>   0.1400 
  5 C       -2.3900    -0.4780     1.5780 C.3   1 <1>   0.1400 
  6 N       -2.5750    -1.8030     0.9110 N.am  1 <1>  -0.6600 
  7 C       -3.5940    -2.6550     1.2790 C.2   1 <1>   0.5690 
  8 O       -4.2880    -2.4050     2.2410 O.2   1 <1>  -0.5700 
  9 C       -3.8940    -3.9260     0.4630 C.3   1 <1>   0.2610 
 10 O       -2.9790    -4.9630     0.7860 O.3   1 <1>  -0.5600 
 11 C       -5.3650    -4.3840     0.6390 C.3   1 <1>   0.3640 
 12 C       -3.1090    -6.1360     0.0110 C.3   1 <1>   0.1810 
 13 N       -5.5670    -5.7760     0.1690 N.am  1 <1>  -0.7300 
 14 C       -6.3030    -3.4630    -0.1390 C.ar  1 <1>  -0.1440 
 15 C       -4.5560    -6.6250    -0.1150 C.2   1 <1>   0.5690 
 16 C       -6.4650    -3.5870    -1.5140 C.ar  1 <1>  -0.1500 
 17 C       -7.0010    -2.4680     0.5310 C.ar  1 <1>  -0.1500 
 18 O       -4.7820    -7.7440    -0.4960 O.2   1 <1>  -0.5700 
 19 C       -7.3080    -2.7320    -2.2030 C.ar  1 <1>  -0.1500 
 20 C       -7.8440    -1.6130    -0.1570 C.ar  1 <1>  -0.1500 
 21 C       -7.9980    -1.7440    -1.5250 C.ar  1 <1>  -0.1500 
 22 H       -2.8040    -1.2680    -1.7630 H     1 <1>   0.0800 
 23 H       -1.0840    -1.3230    -2.1400 H     1 <1>   0.0800 
 24 H       -2.5740     1.6210     1.0700 H     1 <1>   0.0800 
 25 H       -3.7410     0.5830     0.2590 H     1 <1>   0.0800 
 26 H       -0.5860    -1.9060     0.2220 H     1 <1>   0.0800 
 27 H       -1.6200    -3.1020    -0.4820 H     1 <1>   0.0800 
 28 H       -3.0220    -0.4000     2.4460 H     1 <1>   0.0800 
 29 H       -1.3710    -0.3820     1.9090 H     1 <1>   0.0800 
 30 H       -3.7520    -3.6870    -0.5740 H     1 <1>   0.0800 
 31 H       -5.6230    -4.3550     1.6840 H     1 <1>   0.0800 
 32 H       -2.7140    -5.9410    -0.9690 H     1 <1>   0.0800 
 33 H       -2.5170    -6.9020     0.4770 H     1 <1>   0.0800 
 34 H       -6.5300    -6.1030     0.0830 H     1 <1>   0.3700 
 35 H       -5.9390    -4.3510    -2.0600 H     1 <1>   0.1500 
 36 H       -6.8880    -2.3480     1.5960 H     1 <1>   0.1500 
 37 H       -7.4290    -2.8370    -3.2680 H     1 <1>   0.1500 
 38 H       -8.3790    -0.8450     0.3740 H     1 <1>   0.1500 
 39 H       -8.6540    -1.0800    -2.0600 H     1 <1>   0.1500 
@<TRIPOS>BOND
  1   1   2  1   
  2   1   3  1   
  3   2   4  1   
  4   2  22  1   
  5   2  23  1   
  6   3   5  1   
  7   3  24  1   
  8   3  25  1   
  9   4   6  1   
 10   4  26  1   
 11   4  27  1   
 12   5   6  1   
 13   5  28  1   
 14   5  29  1   
 15   6   7  am  
 16   7   8  2   
 17   7   9  1   
 18   9  10  1   
 19   9  11  1   
 20   9  30  1   
 21  10  12  1   
 22  11  13  1   
 23  11  14  1   
 24  11  31  1   
 25  12  15  1   
 26  12  32  1   
 27  12  33  1   
 28  13  15  am  
 29  13  34  1   
 30  14  16  ar  
 31  14  17  ar  
 32  15  18  2   
 33  16  19  ar  
 34  16  35  1   
 35  17  20  ar  
 36  17  36  1   
 37  19  21  ar  
 38  19  37  1   
 39  20  21  ar  
 40  20  38  1   
 41  21  39  1   
@<TRIPOS>SUBSTRUCTURE
  1 ****   9 GROUP 4 **** **** 0

# MOE 2024.06 (io_trps.svl 2023.06)
