@<TRIPOS>MOLECULE
NONAME
33 34 1 0 0 
SMALL
USER_CHARGES


@<TRIPOS>ATOM
  1 F       -0.9230     0.0530    -0.9300 F     1 <1>  -0.1900 
  2 C       -1.8030    -0.7500    -0.3720 C.ar  1 <1>   0.1900 
  3 C       -2.8810    -0.3020     0.3860 C.ar  1 <1>   0.3920 
  4 C       -1.6480    -2.1000    -0.5500 C.ar  1 <1>   0.1600 
  5 O       -3.1760     0.9920     0.6530 O.3   1 <1>  -0.3630 
  6 N       -3.7240    -1.1610     0.9180 N.ar  1 <1>  -0.6200 
  7 N       -2.4870    -2.9670    -0.0250 N.ar  1 <1>  -0.6200 
  8 C       -2.4190     2.0980     0.2140 C.3   1 <1>   0.0400 
  9 C       -3.4790    -2.4400     0.6900 C.ar  1 <1>   0.7200 
 10 N       -4.3570    -3.2840     1.2660 N.pl3 1 <1>  -0.8690 
 11 C       -4.7510    -4.5830     0.6530 C.3   1 <1>   0.3500 
 12 C       -6.2870    -4.7510     0.5720 C.2   1 <1>   0.5690 
 13 C       -4.0940    -5.7020     1.4750 C.3   1 <1>  -0.1600 
 14 O       -7.0170    -3.9170     1.0570 O.2   1 <1>  -0.5700 
 15 N       -6.8460    -5.8270    -0.0350 N.am  1 <1>  -0.7300 
 16 C       -3.9790    -7.0420     0.7290 C.3   1 <1>  -0.1600 
 17 C       -6.1640    -6.9850    -0.6420 C.3   1 <1>   0.1400 
 18 C       -5.3190    -7.7230     0.4010 C.3   1 <1>  -0.1600 
 19 H       -0.8240    -2.4720    -1.1330 H     1 <1>   0.1500 
 20 H       -2.8890     2.9910     0.5860 H     1 <1>   0.0800 
 21 H       -2.4100     2.1130    -0.8610 H     1 <1>   0.0800 
 22 H       -1.4220     2.0210     0.6100 H     1 <1>   0.0800 
 23 H       -5.1790    -2.7850     1.6220 H     1 <1>   0.4000 
 24 H       -4.3720    -4.6200    -0.3530 H     1 <1>   0.0800 
 25 H       -4.6410    -5.8360     2.3920 H     1 <1>   0.0800 
 26 H       -3.0960    -5.3880     1.7300 H     1 <1>   0.0800 
 27 H       -7.8690    -5.8500    -0.0230 H     1 <1>   0.3700 
 28 H       -3.4080    -7.7130     1.3480 H     1 <1>   0.0800 
 29 H       -3.4150    -6.8980    -0.1780 H     1 <1>   0.0800 
 30 H       -5.5510    -6.6600    -1.4660 H     1 <1>   0.0800 
 31 H       -6.9130    -7.6560    -1.0290 H     1 <1>   0.0800 
 32 H       -5.8940    -7.8740     1.2980 H     1 <1>   0.0800 
 33 H       -5.0950    -8.6980     0.0030 H     1 <1>   0.0800 
@<TRIPOS>BOND
  1   1   2  1   
  2   2   3  ar  
  3   2   4  ar  
  4   3   5  1   
  5   3   6  ar  
  6   4   7  ar  
  7   4  19  1   
  8   5   8  1   
  9   6   9  ar  
 10   7   9  ar  
 11   8  20  1   
 12   8  21  1   
 13   8  22  1   
 14   9  10  1   
 15  10  11  1   
 16  10  23  1   
 17  11  12  1   
 18  11  13  1   
 19  11  24  1   
 20  12  14  2   
 21  12  15  am  
 22  13  16  1   
 23  13  25  1   
 24  13  26  1   
 25  15  17  1   
 26  15  27  1   
 27  16  18  1   
 28  16  28  1   
 29  16  29  1   
 30  17  18  1   
 31  17  30  1   
 32  17  31  1   
 33  18  32  1   
 34  18  33  1   
@<TRIPOS>SUBSTRUCTURE
  1 ****   9 GROUP 4 **** **** 0

# MOE 2024.06 (io_trps.svl 2023.06)
