@<TRIPOS>MOLECULE
NONAME
36 37 1 0 0 
SMALL
USER_CHARGES


@<TRIPOS>ATOM
  1 S       -0.7630     0.6530     1.3740 S.o2  1 <1>   1.4470 
  2 O       -1.2880     1.9230     1.8320 O.2   1 <1>  -0.6500 
  3 O       -0.7120    -0.4320     2.3290 O.2   1 <1>  -0.6500 
  4 N       -1.6900     0.1670     0.0360 N.am  1 <1>  -0.8490 
  5 C        0.8890     0.9000     0.6850 C.ar  1 <1>  -0.0090 
  6 C       -1.2920    -1.1020    -0.6080 C.3   1 <1>   0.1960 
  7 C       -3.1390     0.3020     0.2040 C.3   1 <1>   0.1960 
  8 C        1.1580     1.9280    -0.2040 C.ar  1 <1>   0.1900 
  9 C        1.9490     0.0560     1.0010 C.ar  1 <1>  -0.1500 
 10 C       -1.8840    -2.3440     0.0710 C.3   1 <1>  -0.1860 
 11 C       -3.7420    -0.8900     0.9510 C.3   1 <1>  -0.1600 
 12 F        0.2040     2.7470    -0.5580 F     1 <1>  -0.1900 
 13 C        2.4080     2.1400    -0.7580 C.ar  1 <1>  -0.1500 
 14 C        3.2100     0.2480     0.4570 C.ar  1 <1>  -0.1500 
 15 C       -1.5580    -3.5830    -0.7350 C.2   1 <1>   0.9060 
 16 C       -3.3940    -2.1810     0.2200 C.3   1 <1>   0.2000 
 17 C        3.4490     1.2920    -0.4230 C.ar  1 <1>  -0.1440 
 18 O       -0.7550    -3.5060    -1.6700 O.co2 1 <1>  -0.9000 
 19 O       -2.1210    -4.6440    -0.4360 O.co2 1 <1>  -0.9000 
 20 O       -3.8890    -3.2430     0.9410 O.3   1 <1>  -0.6800 
 21 C        4.8340     1.4870    -1.0120 C.3   1 <1>  -0.0970 
 22 H       -1.6320    -1.0810    -1.6300 H     1 <1>   0.0800 
 23 H       -0.2180    -1.1880    -0.6400 H     1 <1>   0.0800 
 24 H       -3.3710     1.2170     0.7220 H     1 <1>   0.0800 
 25 H       -3.5890     0.3620    -0.7720 H     1 <1>   0.0800 
 26 H        1.7850    -0.7660     1.6790 H     1 <1>   0.1500 
 27 H       -1.4350    -2.4710     1.0360 H     1 <1>   0.0800 
 28 H       -4.8100    -0.7810     0.9920 H     1 <1>   0.0800 
 29 H       -3.3610    -0.9200     1.9560 H     1 <1>   0.0800 
 30 H        2.5510     2.9580    -1.4410 H     1 <1>   0.1500 
 31 H        4.0070    -0.4260     0.7220 H     1 <1>   0.1500 
 32 H       -3.8600    -2.2030    -0.7520 H     1 <1>   0.0800 
 33 H       -3.4120    -4.0490     0.5860 H     1 <1>   0.4000 
 34 H        5.5720     1.4800    -0.2290 H     1 <1>   0.0800 
 35 H        4.9010     2.4240    -1.5340 H     1 <1>   0.0800 
 36 H        5.0520     0.6920    -1.7020 H     1 <1>   0.0800 
@<TRIPOS>BOND
  1   1   2  2   
  2   1   3  2   
  3   1   4  am  
  4   1   5  1   
  5   4   6  1   
  6   4   7  1   
  7   5   8  ar  
  8   5   9  ar  
  9   6  10  1   
 10   6  22  1   
 11   6  23  1   
 12   7  11  1   
 13   7  24  1   
 14   7  25  1   
 15   8  12  1   
 16   8  13  ar  
 17   9  14  ar  
 18   9  26  1   
 19  10  15  1   
 20  10  16  1   
 21  10  27  1   
 22  11  16  1   
 23  11  28  1   
 24  11  29  1   
 25  13  17  ar  
 26  13  30  1   
 27  14  17  ar  
 28  14  31  1   
 29  15  18  ar  
 30  15  19  ar  
 31  16  20  1   
 32  16  32  1   
 33  17  21  1   
 34  20  33  1   
 35  21  34  1   
 36  21  35  1   
 37  21  36  1   
@<TRIPOS>SUBSTRUCTURE
  1 ****   6 GROUP 4 **** **** 0

# MOE 2024.06 (io_trps.svl 2023.06)
