@<TRIPOS>MOLECULE
NONAME
45 47 1 0 0 
SMALL
USER_CHARGES


@<TRIPOS>ATOM
  1 O       -0.1520     0.6850    -0.8470 O.2   1 <1>  -0.5700 
  2 C       -0.0830     1.8830    -0.5670 C.2   1 <1>   0.5440 
  3 N       -1.2800     2.5960    -0.5970 N.am  1 <1>  -0.6600 
  4 C        1.1740     2.4580    -0.1520 C.ar  1 <1>   0.0860 
  5 C       -2.5280     1.9560    -1.0900 C.3   1 <1>   0.1400 
  6 C       -1.3050     4.0690    -0.3950 C.3   1 <1>   0.1400 
  7 C        1.8110     3.5280    -0.8490 C.ar  1 <1>  -0.1710 
  8 C        1.8380     1.9720     0.9910 C.ar  1 <1>   0.0820 
  9 C       -3.5570     3.0000    -1.5340 C.3   1 <1>  -0.1600 
 10 C       -2.5920     4.4370     0.3410 C.3   1 <1>  -0.1600 
 11 O        1.3010     4.0900    -1.8470 O.3   1 <1>  -0.8290 
 12 C        3.0590     4.0010    -0.4220 C.ar  1 <1>  -0.1500 
 13 O        1.2840     1.0120     1.7590 O.3   1 <1>  -0.5320 
 14 C        3.0700     2.4560     1.3930 C.ar  1 <1>  -0.1500 
 15 C       -3.8750     4.0370    -0.4340 C.3   1 <1>   0.2800 
 16 C        3.6850     3.4760     0.6770 C.ar  1 <1>  -0.1500 
 17 O       -4.3570     5.1610    -1.1340 O.3   1 <1>  -0.5600 
 18 C       -4.9770     3.5050     0.5240 C.3   1 <1>  -0.1600 
 19 C       -5.0790     6.1210    -0.4160 C.3   1 <1>   0.1200 
 20 C       -6.3810     3.9990     0.1630 C.3   1 <1>   0.2800 
 21 C       -6.3900     5.5300     0.1270 C.3   1 <1>  -0.1600 
 22 O       -6.6730     3.5700    -1.1030 O.3   1 <1>  -0.6800 
 23 C       -7.4600     3.4310     1.0810 C.3   1 <1>  -0.2400 
 24 H       -2.9300     1.3440    -0.3030 H     1 <1>   0.0800 
 25 H       -2.2890     1.3170    -1.9240 H     1 <1>   0.0800 
 26 H       -1.2460     4.5610    -1.3520 H     1 <1>   0.0800 
 27 H       -0.4560     4.3830     0.1860 H     1 <1>   0.0800 
 28 H       -4.4460     2.4890    -1.8490 H     1 <1>   0.0800 
 29 H       -3.1510     3.5020    -2.3950 H     1 <1>   0.0800 
 30 H       -2.5730     5.4870     0.5550 H     1 <1>   0.0800 
 31 H       -2.5510     3.9170     1.2810 H     1 <1>   0.0800 
 32 H        3.4970     4.7950    -0.9990 H     1 <1>   0.1500 
 33 H        1.8850     0.6780     2.4400 H     1 <1>   0.4500 
 34 H        3.5620     2.0600     2.2590 H     1 <1>   0.1500 
 35 H        4.6430     3.8510     0.9850 H     1 <1>   0.1500 
 36 H       -4.7680     3.8390     1.5240 H     1 <1>   0.0800 
 37 H       -4.9580     2.4310     0.5610 H     1 <1>   0.0800 
 38 H       -5.2860     6.9400    -1.0830 H     1 <1>   0.0800 
 39 H       -4.4660     6.4860     0.3890 H     1 <1>   0.0800 
 40 H       -7.2240     5.8790    -0.4550 H     1 <1>   0.0800 
 41 H       -6.5270     5.9100     1.1230 H     1 <1>   0.0800 
 42 H       -5.9880     3.9650    -1.6870 H     1 <1>   0.4000 
 43 H       -7.2820     3.7310     2.0970 H     1 <1>   0.0800 
 44 H       -7.4560     2.3570     1.0360 H     1 <1>   0.0800 
 45 H       -8.4280     3.7920     0.7820 H     1 <1>   0.0800 
@<TRIPOS>BOND
  1   1   2  2   
  2   2   3  am  
  3   2   4  1   
  4   3   5  1   
  5   3   6  1   
  6   4   7  ar  
  7   4   8  ar  
  8   5   9  1   
  9   5  24  1   
 10   5  25  1   
 11   6  10  1   
 12   6  26  1   
 13   6  27  1   
 14   7  11  1   
 15   7  12  ar  
 16   8  13  1   
 17   8  14  ar  
 18   9  15  1   
 19   9  28  1   
 20   9  29  1   
 21  10  15  1   
 22  10  30  1   
 23  10  31  1   
 24  12  16  ar  
 25  12  32  1   
 26  13  33  1   
 27  14  16  ar  
 28  14  34  1   
 29  15  17  1   
 30  15  18  1   
 31  16  35  1   
 32  17  19  1   
 33  18  20  1   
 34  18  36  1   
 35  18  37  1   
 36  19  21  1   
 37  19  38  1   
 38  19  39  1   
 39  20  21  1   
 40  20  22  1   
 41  20  23  1   
 42  21  40  1   
 43  21  41  1   
 44  22  42  1   
 45  23  43  1   
 46  23  44  1   
 47  23  45  1   
@<TRIPOS>SUBSTRUCTURE
  1 ****   6 GROUP 4 **** **** 0

# MOE 2024.06 (io_trps.svl 2023.06)
