@<TRIPOS>MOLECULE
NONAME
41 42 1 0 0 
SMALL
USER_CHARGES


@<TRIPOS>ATOM
  1 O        1.0230    -2.1430     1.6980 O.3   1 <1>  -0.3630 
  2 C        0.4100    -2.9660     0.8230 C.ar  1 <1>   0.3920 
  3 C        1.0460    -0.7440     1.4880 C.3   1 <1>   0.0400 
  4 N       -0.1850    -2.4470    -0.2470 N.ar  1 <1>  -0.6200 
  5 C        0.4430    -4.3230     1.1080 C.ar  1 <1>  -0.1500 
  6 C       -0.7640    -3.3140    -1.0550 C.ar  1 <1>   0.1600 
  7 C       -0.1700    -5.2160     0.2580 C.ar  1 <1>  -0.1500 
  8 C       -0.7970    -4.6860    -0.8560 C.ar  1 <1>  -0.1440 
  9 C       -1.5160    -5.5830    -1.8400 C.3   1 <1>   0.4870 
 10 N       -2.6910    -6.1750    -1.1610 N.4   1 <1>  -0.9590 
 11 C       -3.2170    -7.3760    -1.8620 C.3   1 <1>   0.5240 
 12 C       -3.7370    -5.1760    -0.7710 C.3   1 <1>   0.3430 
 13 C       -3.3550    -8.4630    -0.8040 C.2   1 <1>   0.0460 
 14 C       -4.6890    -5.7000     0.3140 C.3   1 <1>   0.1200 
 15 N       -2.5290    -8.4720     0.2660 N.2   1 <1>  -0.5650 
 16 C       -4.2370    -9.4840    -0.7370 C.2   1 <1>  -0.3020 
 17 O       -5.6570    -4.7350     0.5260 O.3   1 <1>  -0.6800 
 18 C       -2.9160    -9.4980     0.9510 C.2   1 <1>   0.0060 
 19 N       -3.9540   -10.1590     0.3930 N.pl3 1 <1>   0.0330 
 20 C       -2.2780    -9.9370     2.2530 C.3   1 <1>  -0.0600 
 21 H        1.5850    -0.2890     2.2990 H     1 <1>   0.0800 
 22 H        0.0350    -0.3790     1.4640 H     1 <1>   0.0800 
 23 H        1.5410    -0.5400     0.5550 H     1 <1>   0.0800 
 24 H        0.9520    -4.6550     1.9940 H     1 <1>   0.1500 
 25 H       -1.2400    -2.8930    -1.9250 H     1 <1>   0.1500 
 26 H       -0.1490    -6.2730     0.4680 H     1 <1>   0.1500 
 27 H       -0.8410    -6.3620    -2.1570 H     1 <1>   0.0800 
 28 H       -1.8260    -5.0200    -2.7050 H     1 <1>   0.0800 
 29 H       -2.3310    -6.5980    -0.2820 H     1 <1>   0.4500 
 30 H       -2.5150    -7.7120    -2.6070 H     1 <1>   0.0800 
 31 H       -4.1650    -7.1750    -2.3320 H     1 <1>   0.0800 
 32 H       -4.3150    -4.8960    -1.6370 H     1 <1>   0.0800 
 33 H       -3.2610    -4.2900    -0.3820 H     1 <1>   0.0800 
 34 H       -4.1620    -5.8620     1.2390 H     1 <1>   0.0800 
 35 H       -5.1890    -6.6020     0.0070 H     1 <1>   0.0800 
 36 H       -5.0300    -9.7750    -1.4050 H     1 <1>   0.1500 
 37 H       -6.2530    -4.9780     1.2660 H     1 <1>   0.4000 
 38 H       -4.4150   -11.0010     0.7570 H     1 <1>   0.2700 
 39 H       -1.4620    -9.2830     2.5030 H     1 <1>   0.0800 
 40 H       -1.8970   -10.9380     2.1600 H     1 <1>   0.0800 
 41 H       -3.0000    -9.9070     3.0490 H     1 <1>   0.0800 
@<TRIPOS>BOND
  1   1   2  1   
  2   1   3  1   
  3   2   4  ar  
  4   2   5  ar  
  5   3  21  1   
  6   3  22  1   
  7   3  23  1   
  8   4   6  ar  
  9   5   7  ar  
 10   5  24  1   
 11   6   8  ar  
 12   6  25  1   
 13   7   8  ar  
 14   7  26  1   
 15   8   9  1   
 16   9  10  1   
 17   9  27  1   
 18   9  28  1   
 19  10  11  1   
 20  10  12  1   
 21  10  29  1   
 22  11  13  1   
 23  11  30  1   
 24  11  31  1   
 25  12  14  1   
 26  12  32  1   
 27  12  33  1   
 28  13  15  1   
 29  13  16  2   
 30  14  17  1   
 31  14  34  1   
 32  14  35  1   
 33  15  18  2   
 34  16  19  1   
 35  16  36  1   
 36  17  37  1   
 37  18  19  1   
 38  18  20  1   
 39  19  38  1   
 40  20  39  1   
 41  20  40  1   
 42  20  41  1   
@<TRIPOS>SUBSTRUCTURE
  1 ****  10 GROUP 4 **** **** 0

# MOE 2024.06 (io_trps.svl 2023.06)
