@<TRIPOS>MOLECULE
NONAME
37 39 1 0 0 
SMALL
USER_CHARGES


@<TRIPOS>ATOM
  1 CL      -0.1270    -0.3750    -0.7380 Cl    1 <1>  -0.1770 
  2 C       -1.6030     0.5500    -0.5750 C.ar  1 <1>   0.1770 
  3 C       -2.8230    -0.0940    -0.3960 C.ar  1 <1>  -0.1440 
  4 C       -1.5040     1.9280    -0.6320 C.ar  1 <1>  -0.1500 
  5 C       -3.9600     0.6990    -0.2740 C.ar  1 <1>  -0.1500 
  6 C       -2.8570    -1.6250    -0.3420 C.3   1 <1>  -0.0160 
  7 C       -2.6450     2.6990    -0.5090 C.ar  1 <1>  -0.1500 
  8 C       -3.8700     2.0810    -0.3300 C.ar  1 <1>  -0.1500 
  9 C       -4.2460    -2.2440    -0.1110 C.3   1 <1>  -0.0990 
 10 C       -4.2400    -3.7630    -0.0320 C.2   1 <1>   0.5690 
 11 O       -3.2320    -4.3640    -0.3280 O.2   1 <1>  -0.5700 
 12 N       -5.3720    -4.3990     0.3710 N.am  1 <1>  -0.6600 
 13 C       -6.6870    -3.7620     0.6690 C.3   1 <1>   0.2350 
 14 C       -5.4960    -5.8790     0.4730 C.3   1 <1>   0.2350 
 15 C       -7.7230    -4.8480     0.4540 C.3   1 <1>  -0.2420 
 16 C       -6.9850    -6.1620     0.3520 C.3   1 <1>  -0.2420 
 17 C       -9.0530    -4.4430     1.0970 C.2   1 <1>   0.9470 
 18 C       -7.7590    -5.6400    -0.8300 C.3   1 <1>  -0.2000 
 19 C       -7.3220    -7.5410     0.9220 C.2   1 <1>   0.9470 
 20 O      -10.0920    -4.4560     0.4230 O.co2 1 <1>  -0.9000 
 21 O       -9.0340    -3.9290     2.2250 O.co2 1 <1>  -0.9000 
 22 O       -7.7800    -8.4140     0.1720 O.co2 1 <1>  -0.9000 
 23 O       -6.9820    -7.8070     2.0830 O.co2 1 <1>  -0.9000 
 24 H       -0.5420     2.3860    -0.7720 H     1 <1>   0.1500 
 25 H       -4.9340     0.2660    -0.1330 H     1 <1>   0.1500 
 26 H       -2.4610    -2.0090    -1.2670 H     1 <1>   0.0800 
 27 H       -2.2040    -1.9560     0.4480 H     1 <1>   0.0800 
 28 H       -2.5800     3.7730    -0.5520 H     1 <1>   0.1500 
 29 H       -4.7610     2.6790    -0.2330 H     1 <1>   0.1500 
 30 H       -4.8980    -1.9610    -0.9160 H     1 <1>   0.0800 
 31 H       -4.6440    -1.8670     0.8120 H     1 <1>   0.0800 
 32 H       -6.6970    -3.4390     1.6960 H     1 <1>   0.0800 
 33 H       -6.8860    -2.9290     0.0200 H     1 <1>   0.0800 
 34 H       -4.9450    -6.3730    -0.3080 H     1 <1>   0.0800 
 35 H       -5.1330    -6.2010     1.4340 H     1 <1>   0.0800 
 36 H       -7.2300    -5.2810    -1.6930 H     1 <1>   0.1000 
 37 H       -8.6750    -6.1460    -1.0870 H     1 <1>   0.1000 
@<TRIPOS>BOND
  1   1   2  1   
  2   2   3  ar  
  3   2   4  ar  
  4   3   5  ar  
  5   3   6  1   
  6   4   7  ar  
  7   4  24  1   
  8   5   8  ar  
  9   5  25  1   
 10   6   9  1   
 11   6  26  1   
 12   6  27  1   
 13   7   8  ar  
 14   7  28  1   
 15   8  29  1   
 16   9  10  1   
 17   9  30  1   
 18   9  31  1   
 19  10  11  2   
 20  10  12  am  
 21  12  13  1   
 22  12  14  1   
 23  13  15  1   
 24  13  32  1   
 25  13  33  1   
 26  14  16  1   
 27  14  34  1   
 28  14  35  1   
 29  15  16  1   
 30  15  17  1   
 31  15  18  1   
 32  16  18  1   
 33  16  19  1   
 34  17  20  ar  
 35  17  21  ar  
 36  18  36  1   
 37  18  37  1   
 38  19  22  ar  
 39  19  23  ar  
@<TRIPOS>SUBSTRUCTURE
  1 ****  10 GROUP 4 **** **** 0

# MOE 2024.06 (io_trps.svl 2023.06)
