@<TRIPOS>MOLECULE
Untitled Document
31 32 1 0 0 
SMALL
USER_CHARGES


@<TRIPOS>ATOM
  1 O       -0.1320     1.0770    -0.7680 O.2   1 <1>  -0.5700 
  2 C       -1.3080     1.3740    -0.7360 C.2   1 <1>   0.6900 
  3 N       -1.9900     1.5810     0.4540 N.am  1 <1>  -0.4690 
  4 N       -1.9890     1.5120    -1.9030 N.am  1 <1>  -0.4900 
  5 C       -3.3370     1.9230     0.4430 C.2   1 <1>  -0.0410 
  6 C       -1.2690     1.4250     1.7430 C.3   1 <1>   0.0600 
  7 C       -3.3060     1.8420    -1.9610 C.2   1 <1>   0.6160 
  8 C       -4.0000     2.0590    -0.7320 C.2   1 <1>  -0.1240 
  9 O       -3.8300     1.9370    -3.0530 O.2   1 <1>  -0.5700 
 10 C       -5.4690     2.4340    -0.8410 C.3   1 <1>   0.3380 
 11 O       -6.0880     2.3590     0.4040 O.3   1 <1>  -0.5600 
 12 C       -5.6990     3.8710    -1.2930 C.3   1 <1>  -0.1600 
 13 C       -7.2690     3.1000     0.3730 C.3   1 <1>   0.2000 
 14 C       -6.9980     4.2510    -0.6080 C.3   1 <1>   0.2000 
 15 C       -7.6210     3.5700     1.7880 C.3   1 <1>   0.1200 
 16 O       -8.0180     4.3420    -1.5410 O.3   1 <1>  -0.6800 
 17 O       -8.8530     4.2170     1.7810 O.3   1 <1>  -0.6800 
 18 H       -1.4850     1.3520    -2.7670 H     1 <1>   0.3700 
 19 H       -3.8200     2.0710     1.3960 H     1 <1>   0.1500 
 20 H       -1.9370     1.5760     2.5730 H     1 <1>   0.0800 
 21 H       -0.4700     2.1430     1.7960 H     1 <1>   0.0800 
 22 H       -0.8510     0.4350     1.8030 H     1 <1>   0.0800 
 23 H       -5.9820     1.7460    -1.4950 H     1 <1>   0.0800 
 24 H       -4.9030     4.4890    -0.9160 H     1 <1>   0.0800 
 25 H       -5.7300     3.9570    -2.3640 H     1 <1>   0.0800 
 26 H       -8.0400     2.4460     0.0020 H     1 <1>   0.0800 
 27 H       -6.9190     5.2020    -0.1070 H     1 <1>   0.0800 
 28 H       -6.8820     4.2590     2.1570 H     1 <1>   0.0800 
 29 H       -7.6990     2.7290     2.4550 H     1 <1>   0.0800 
 30 H       -8.0440     3.5480    -2.1100 H     1 <1>   0.4000 
 31 H       -8.9230     4.8430     1.0300 H     1 <1>   0.4000 
@<TRIPOS>BOND
  1   1   2  2   
  2   2   3  am  
  3   2   4  am  
  4   3   5  1   
  5   3   6  1   
  6   4   7  am  
  7   4  18  1   
  8   5   8  2   
  9   5  19  1   
 10   6  20  1   
 11   6  21  1   
 12   6  22  1   
 13   7   8  1   
 14   7   9  2   
 15   8  10  1   
 16  10  11  1   
 17  10  12  1   
 18  10  23  1   
 19  11  13  1   
 20  12  14  1   
 21  12  24  1   
 22  12  25  1   
 23  13  14  1   
 24  13  15  1   
 25  13  26  1   
 26  14  16  1   
 27  14  27  1   
 28  15  17  1   
 29  15  28  1   
 30  15  29  1   
 31  16  30  1   
 32  17  31  1   
@<TRIPOS>SUBSTRUCTURE
  1 ****   8 GROUP 4 **** **** 0

# MOE 2024.06 (io_trps.svl 2023.06)
