@<TRIPOS>MOLECULE
NONAME
53 57 1 0 0 
SMALL
USER_CHARGES


@<TRIPOS>ATOM
  1 CL      -2.0080     1.2270     0.3810 Cl    1 <1>  -0.1770 
  2 C       -3.3850     0.2290    -0.0160 C.ar  1 <1>   0.1770 
  3 C       -3.6000    -0.9390     0.6780 C.ar  1 <1>  -0.1500 
  4 C       -4.2390     0.6450    -1.0370 C.ar  1 <1>  -0.1500 
  5 C       -4.7060    -1.7180     0.3440 C.ar  1 <1>   0.0000 
  6 C       -5.3350    -0.1220    -1.3690 C.ar  1 <1>  -0.1500 
  7 C       -5.5710    -1.3090    -0.6670 C.ar  1 <1>  -0.1520 
  8 C       -5.1970    -2.9540     0.8460 C.ar  1 <1>   0.0000 
  9 N       -6.5840    -2.2480    -0.7840 N.pl3 1 <1>   0.0480 
 10 C       -6.3470    -3.2600     0.1290 C.ar  1 <1>  -0.1520 
 11 C       -4.7410    -3.8190     1.8400 C.ar  1 <1>  -0.1500 
 12 C       -7.7210    -2.1740    -1.7300 C.3   1 <1>   0.1570 
 13 C       -7.0500    -4.4380     0.3930 C.ar  1 <1>  -0.1500 
 14 C       -5.4390    -4.9790     2.1010 C.ar  1 <1>  -0.1500 
 15 C       -9.0690    -2.2830    -1.0350 C.2   1 <1>   0.5690 
 16 C       -6.5920    -5.2870     1.3770 C.ar  1 <1>  -0.1500 
 17 O       -9.7570    -3.2280    -1.3480 O.2   1 <1>  -0.5700 
 18 N       -9.5090    -1.3490    -0.1250 N.am  1 <1>  -0.6600 
 19 C      -10.8070    -1.5290     0.5960 C.3   1 <1>   0.1400 
 20 C       -8.7790    -0.1170     0.2880 C.3   1 <1>   0.1400 
 21 C      -11.7540    -0.3280     0.3470 C.3   1 <1>   0.0000 
 22 C       -9.6650     1.1140     0.0670 C.3   1 <1>  -0.1600 
 23 C      -13.1000    -0.4840     1.0840 C.3   1 <1>   0.2000 
 24 C      -11.0330     0.9740     0.7560 C.3   1 <1>  -0.1600 
 25 C      -12.2110    -0.3040    -1.1230 C.3   1 <1>  -0.1600 
 26 O      -12.9730    -1.0690     2.3320 O.3   1 <1>  -0.6800 
 27 C      -13.9990    -1.3400     0.1890 C.3   1 <1>  -0.1600 
 28 C      -13.3610    -1.3100    -1.2070 C.3   1 <1>  -0.1600 
 29 H       -2.9320    -1.2490     1.4590 H     1 <1>   0.1500 
 30 H       -4.0250     1.5640    -1.5530 H     1 <1>   0.1500 
 31 H       -5.9930     0.1930    -2.1590 H     1 <1>   0.1500 
 32 H       -3.8510    -3.5730     2.3890 H     1 <1>   0.1500 
 33 H       -7.6870    -1.2520    -2.2740 H     1 <1>   0.0800 
 34 H       -7.6250    -2.9820    -2.4310 H     1 <1>   0.0800 
 35 H       -7.9380    -4.6840    -0.1620 H     1 <1>   0.1500 
 36 H       -5.0990    -5.6560     2.8650 H     1 <1>   0.1500 
 37 H       -7.1240    -6.1970     1.5930 H     1 <1>   0.1500 
 38 H      -11.2860    -2.4430     0.2940 H     1 <1>   0.0800 
 39 H      -10.5920    -1.6080     1.6470 H     1 <1>   0.0800 
 40 H       -8.5210    -0.2000     1.3310 H     1 <1>   0.0800 
 41 H       -7.8710     0.0070    -0.2680 H     1 <1>   0.0800 
 42 H       -9.1600     1.9830     0.4500 H     1 <1>   0.0800 
 43 H       -9.8020     1.2600    -0.9900 H     1 <1>   0.0800 
 44 H      -13.5510     0.4850     1.2200 H     1 <1>   0.0800 
 45 H      -11.6440     1.8280     0.5220 H     1 <1>   0.0800 
 46 H      -10.8860     0.9660     1.8230 H     1 <1>   0.0800 
 47 H      -12.5900     0.6730    -1.3680 H     1 <1>   0.0800 
 48 H      -11.4240    -0.5480    -1.8150 H     1 <1>   0.0800 
 49 H      -12.7640    -2.0160     2.2360 H     1 <1>   0.4000 
 50 H      -14.0600    -2.3560     0.5380 H     1 <1>   0.0800 
 51 H      -14.9860    -0.9150     0.1580 H     1 <1>   0.0800 
 52 H      -12.9670    -2.2850    -1.4440 H     1 <1>   0.0800 
 53 H      -14.0720    -1.0320    -1.9660 H     1 <1>   0.0800 
@<TRIPOS>BOND
  1   1   2  1   
  2   2   3  ar  
  3   2   4  ar  
  4   3   5  ar  
  5   3  29  1   
  6   4   6  ar  
  7   4  30  1   
  8   5   7  ar  
  9   5   8  1   
 10   6   7  ar  
 11   6  31  1   
 12   7   9  1   
 13   8  10  ar  
 14   8  11  ar  
 15   9  10  1   
 16   9  12  1   
 17  10  13  ar  
 18  11  14  ar  
 19  11  32  1   
 20  12  15  1   
 21  12  33  1   
 22  12  34  1   
 23  13  16  ar  
 24  13  35  1   
 25  14  16  ar  
 26  14  36  1   
 27  15  17  2   
 28  15  18  am  
 29  16  37  1   
 30  18  19  1   
 31  18  20  1   
 32  19  21  1   
 33  19  38  1   
 34  19  39  1   
 35  20  22  1   
 36  20  40  1   
 37  20  41  1   
 38  21  23  1   
 39  21  24  1   
 40  21  25  1   
 41  22  24  1   
 42  22  42  1   
 43  22  43  1   
 44  23  26  1   
 45  23  27  1   
 46  23  44  1   
 47  24  45  1   
 48  24  46  1   
 49  25  28  1   
 50  25  47  1   
 51  25  48  1   
 52  26  49  1   
 53  27  28  1   
 54  27  50  1   
 55  27  51  1   
 56  28  52  1   
 57  28  53  1   
@<TRIPOS>SUBSTRUCTURE
  1 ****  18 GROUP 4 **** **** 0

# MOE 2024.06 (io_trps.svl 2023.06)
