@<TRIPOS>MOLECULE
NONAME
24 24 1 0 0 
SMALL
USER_CHARGES


@<TRIPOS>ATOM
  1 BR       0.1660    -0.0570    -0.9520 Br    1 <1>  -0.1110 
  2 C       -0.0150     1.8340    -0.6500 C.ar  1 <1>   0.1110 
  3 C       -1.1360     2.3010     0.0050 C.ar  1 <1>  -0.1500 
  4 C        0.9790     2.6770    -1.0960 C.ar  1 <1>  -0.1500 
  5 C       -1.2750     3.6630     0.2290 C.ar  1 <1>  -0.1440 
  6 C        0.8410     4.0350    -0.8730 C.ar  1 <1>  -0.1500 
  7 C       -0.2790     4.5390    -0.2090 C.ar  1 <1>  -0.1430 
  8 C       -2.5340     4.1390     0.9470 C.3   1 <1>  -0.0960 
  9 C       -0.4070     6.0340     0.0510 C.3   1 <1>   0.5670 
 10 N        0.6220     6.3850     1.0250 N.4   1 <1>  -0.8530 
 11 C       -0.2190     6.8870    -1.1980 C.3   1 <1>  -0.2400 
 12 H       -1.8820     1.5950     0.3270 H     1 <1>   0.1500 
 13 H        1.8350     2.2740    -1.6090 H     1 <1>   0.1500 
 14 H        1.6240     4.6790    -1.2350 H     1 <1>   0.1500 
 15 H       -3.1720     3.3080     1.1910 H     1 <1>   0.0800 
 16 H       -3.0970     4.8040     0.3160 H     1 <1>   0.0800 
 17 H       -2.2850     4.6390     1.8650 H     1 <1>   0.0800 
 18 H       -1.3800     6.2420     0.4650 H     1 <1>   0.0800 
 19 H        1.5420     6.1980     0.6200 H     1 <1>   0.4500 
 20 H        0.5180     5.7780     1.8440 H     1 <1>   0.4500 
 21 H        0.5590     7.3670     1.3030 H     1 <1>   0.4500 
 22 H        0.7640     6.7820    -1.6180 H     1 <1>   0.0800 
 23 H       -0.4050     7.9230    -0.9800 H     1 <1>   0.0800 
 24 H       -0.9320     6.5770    -1.9430 H     1 <1>   0.0800 
@<TRIPOS>BOND
  1   1   2  1   
  2   2   3  ar  
  3   2   4  ar  
  4   3   5  ar  
  5   3  12  1   
  6   4   6  ar  
  7   4  13  1   
  8   5   7  ar  
  9   5   8  1   
 10   6   7  ar  
 11   6  14  1   
 12   7   9  1   
 13   8  15  1   
 14   8  16  1   
 15   8  17  1   
 16   9  10  1   
 17   9  11  1   
 18   9  18  1   
 19  10  19  1   
 20  10  20  1   
 21  10  21  1   
 22  11  22  1   
 23  11  23  1   
 24  11  24  1   
@<TRIPOS>SUBSTRUCTURE
  1 ****   7 GROUP 4 **** **** 0

# MOE 2024.06 (io_trps.svl 2023.06)
