@<TRIPOS>MOLECULE
NONAME
50 53 1 0 0 
SMALL
USER_CHARGES


@<TRIPOS>ATOM
  1 O        0.0650    -2.0350     0.3440 O.3   1 <1>  -0.3630 
  2 C       -1.0670    -2.6400    -0.1130 C.ar  1 <1>   0.0820 
  3 C        0.0060    -1.1340     1.4270 C.3   1 <1>   0.0400 
  4 C       -2.3250    -2.4360     0.4240 C.ar  1 <1>  -0.1500 
  5 C       -0.8970    -3.5140    -1.1940 C.ar  1 <1>  -0.1500 
  6 C       -3.4210    -3.1100    -0.1240 C.ar  1 <1>   0.0000 
  7 C       -1.9680    -4.1830    -1.7410 C.ar  1 <1>  -0.1500 
  8 C       -3.2370    -3.9740    -1.1960 C.ar  1 <1>  -0.1520 
  9 C       -4.7990    -3.1330     0.1750 C.2   1 <1>  -0.1500 
 10 N       -4.4550    -4.5030    -1.5390 N.pl3 1 <1>   0.0330 
 11 C       -5.4000    -3.9830    -0.6930 C.2   1 <1>  -0.3320 
 12 C       -6.8590    -4.3500    -0.7740 C.3   1 <1>   0.3890 
 13 N       -6.9390    -5.7640    -0.3870 N.pl3 1 <1>  -0.8690 
 14 C       -7.8920    -6.6950    -0.4490 C.ar  1 <1>   0.7710 
 15 N       -7.5680    -7.8810     0.0180 N.ar  1 <1>  -0.6200 
 16 N       -9.1050    -6.4160    -0.9600 N.ar  1 <1>  -0.1790 
 17 C       -8.4820    -8.8340    -0.0040 C.ar  1 <1>   0.4100 
 18 C      -10.0640    -7.3710    -1.0270 C.ar  1 <1>   0.2110 
 19 N       -8.1500   -10.0450     0.5180 N.pl3 1 <1>  -0.8380 
 20 C       -9.7600    -8.6010    -0.5500 C.ar  1 <1>  -0.1500 
 21 C       -9.1110   -10.9600     1.2040 C.3   1 <1>   0.2090 
 22 C       -6.7330   -10.5190     0.6050 C.3   1 <1>   0.2090 
 23 C       -9.0460   -12.3400     0.5540 C.3   1 <1>  -0.1600 
 24 C       -6.6220   -11.9060    -0.0320 C.3   1 <1>  -0.1600 
 25 C       -7.6150   -12.8740     0.6100 C.3   1 <1>   0.2000 
 26 O       -7.5670   -14.0700    -0.0710 O.3   1 <1>  -0.6800 
 27 H        1.0010    -0.7750     1.6180 H     1 <1>   0.0800 
 28 H       -0.3680    -1.6520     2.2920 H     1 <1>   0.0800 
 29 H       -0.6350    -0.3110     1.1630 H     1 <1>   0.0800 
 30 H       -2.5010    -1.7770     1.2510 H     1 <1>   0.1500 
 31 H        0.0940    -3.6490    -1.5870 H     1 <1>   0.1500 
 32 H       -1.8350    -4.8530    -2.5710 H     1 <1>   0.1500 
 33 H       -5.2390    -2.5560     0.9700 H     1 <1>   0.1500 
 34 H       -4.5960    -5.1800    -2.2960 H     1 <1>   0.2700 
 35 H       -7.2260    -4.1980    -1.7750 H     1 <1>   0.0800 
 36 H       -7.4240    -3.7450    -0.0830 H     1 <1>   0.0800 
 37 H       -6.0760    -6.0670     0.0820 H     1 <1>   0.4000 
 38 H       -9.2590    -5.4680    -1.2850 H     1 <1>   0.4570 
 39 H      -11.0250    -7.1300    -1.4560 H     1 <1>   0.1500 
 40 H      -10.4680    -9.4070    -0.5930 H     1 <1>   0.1500 
 41 H      -10.1160   -10.5790     1.1680 H     1 <1>   0.0800 
 42 H       -8.8340   -11.0390     2.2430 H     1 <1>   0.0800 
 43 H       -6.4350   -10.5610     1.6390 H     1 <1>   0.0800 
 44 H       -6.0660    -9.8460     0.0930 H     1 <1>   0.0800 
 45 H       -9.3790   -12.2620    -0.4650 H     1 <1>   0.0800 
 46 H       -9.6990   -13.0120     1.0820 H     1 <1>   0.0800 
 47 H       -5.6220   -12.2760     0.1030 H     1 <1>   0.0800 
 48 H       -6.8170   -11.8130    -1.0850 H     1 <1>   0.0800 
 49 H       -7.3340   -13.0700     1.6320 H     1 <1>   0.0800 
 50 H       -7.7740   -13.9280    -1.0130 H     1 <1>   0.4000 
@<TRIPOS>BOND
  1   1   2  1   
  2   1   3  1   
  3   2   4  ar  
  4   2   5  ar  
  5   3  27  1   
  6   3  28  1   
  7   3  29  1   
  8   4   6  ar  
  9   4  30  1   
 10   5   7  ar  
 11   5  31  1   
 12   6   8  ar  
 13   6   9  1   
 14   7   8  ar  
 15   7  32  1   
 16   8  10  1   
 17   9  11  2   
 18   9  33  1   
 19  10  11  1   
 20  10  34  1   
 21  11  12  1   
 22  12  13  1   
 23  12  35  1   
 24  12  36  1   
 25  13  14  1   
 26  13  37  1   
 27  14  15  ar  
 28  14  16  ar  
 29  15  17  ar  
 30  16  18  ar  
 31  16  38  1   
 32  17  19  1   
 33  17  20  ar  
 34  18  20  ar  
 35  18  39  1   
 36  19  21  1   
 37  19  22  1   
 38  20  40  1   
 39  21  23  1   
 40  21  41  1   
 41  21  42  1   
 42  22  24  1   
 43  22  43  1   
 44  22  44  1   
 45  23  25  1   
 46  23  45  1   
 47  23  46  1   
 48  24  25  1   
 49  24  47  1   
 50  24  48  1   
 51  25  26  1   
 52  25  49  1   
 53  26  50  1   
@<TRIPOS>SUBSTRUCTURE
  1 ****  13 GROUP 4 **** **** 0

# MOE 2024.06 (io_trps.svl 2023.06)
