@<TRIPOS>MOLECULE
NONAME
49 51 1 0 0 
SMALL
USER_CHARGES


@<TRIPOS>ATOM
  1 CL      -1.3330     0.4680     1.7820 Cl    1 <1>  -0.1770 
  2 C       -2.7330    -0.3180     1.0920 C.ar  1 <1>   0.1770 
  3 C       -3.9130    -0.3980     1.8100 C.ar  1 <1>   0.1600 
  4 C       -2.6570    -0.8600    -0.1720 C.ar  1 <1>  -0.1500 
  5 N       -5.0220    -0.9740     1.3650 N.ar  1 <1>  -0.6200 
  6 C       -3.8040    -1.4620    -0.6430 C.ar  1 <1>  -0.1500 
  7 C       -4.9560    -1.4960     0.1470 C.ar  1 <1>   0.4270 
  8 N       -6.1360    -2.0780    -0.2550 N.am  1 <1>  -0.5470 
  9 C       -6.6040    -2.5410    -1.4460 C.2   1 <1>   0.5690 
 10 O       -5.9630    -2.5440    -2.4690 O.2   1 <1>  -0.5700 
 11 C       -8.0380    -3.0770    -1.4600 C.3   1 <1>   0.1710 
 12 N       -8.8810    -2.5660    -0.3400 N.3   1 <1>  -0.8100 
 13 C       -9.2550    -1.1580    -0.5520 C.3   1 <1>   0.1100 
 14 C      -10.0670    -3.4100    -0.1500 C.3   1 <1>   0.1100 
 15 C       -9.9820    -0.6300     0.6860 C.3   1 <1>  -0.1600 
 16 C      -10.8550    -2.9370     1.0760 C.3   1 <1>  -0.1600 
 17 C      -11.2450    -1.4520     0.9940 C.3   1 <1>   0.2800 
 18 O      -11.6970    -1.1180     2.2820 O.3   1 <1>  -0.5600 
 19 C      -12.3740    -1.2140    -0.0460 C.3   1 <1>  -0.1600 
 20 C      -12.3690     0.0990     2.4380 C.3   1 <1>   0.1200 
 21 C      -13.7540    -1.0190     0.5930 C.3   1 <1>   0.2800 
 22 C      -13.6750     0.1160     1.6250 C.3   1 <1>  -0.1600 
 23 O      -14.0440    -2.1640     1.2980 O.3   1 <1>  -0.6800 
 24 C      -14.8760    -0.8300    -0.4520 C.3   1 <1>   0.1200 
 25 O      -14.6820     0.3190    -1.2220 O.3   1 <1>  -0.6800 
 26 H       -3.9400     0.0340     2.7950 H     1 <1>   0.1500 
 27 H       -1.7510    -0.8120    -0.7490 H     1 <1>   0.1500 
 28 H       -3.8060    -1.9060    -1.6200 H     1 <1>   0.1500 
 29 H       -6.8520    -2.0800     0.4760 H     1 <1>   0.3700 
 30 H       -7.9680    -4.1480    -1.3940 H     1 <1>   0.0800 
 31 H       -8.4930    -2.8340    -2.4050 H     1 <1>   0.0800 
 32 H       -9.8840    -1.0700    -1.4220 H     1 <1>   0.0800 
 33 H       -8.3730    -0.5620    -0.7150 H     1 <1>   0.0800 
 34 H       -9.7590    -4.4300     0.0130 H     1 <1>   0.0800 
 35 H      -10.6840    -3.3830    -1.0320 H     1 <1>   0.0800 
 36 H      -10.2320     0.4010     0.5220 H     1 <1>   0.0800 
 37 H       -9.3080    -0.6830     1.5230 H     1 <1>   0.0800 
 38 H      -10.2390    -3.0920     1.9440 H     1 <1>   0.0800 
 39 H      -11.7340    -3.5460     1.1810 H     1 <1>   0.0800 
 40 H      -12.4230    -2.0140    -0.7600 H     1 <1>   0.0800 
 41 H      -12.1490    -0.3300    -0.6130 H     1 <1>   0.0800 
 42 H      -11.7130     0.8950     2.1320 H     1 <1>   0.0800 
 43 H      -12.5810     0.2210     3.4860 H     1 <1>   0.0800 
 44 H      -13.7240     1.0650     1.1250 H     1 <1>   0.0800 
 45 H      -14.5220     0.0690     2.2860 H     1 <1>   0.0800 
 46 H      -13.3370    -2.2490     1.9770 H     1 <1>   0.4000 
 47 H      -15.8340    -0.7540     0.0310 H     1 <1>   0.0800 
 48 H      -14.8860    -1.6700    -1.1250 H     1 <1>   0.0800 
 49 H      -14.9530     1.1140    -0.7240 H     1 <1>   0.4000 
@<TRIPOS>BOND
  1   1   2  1   
  2   2   3  ar  
  3   2   4  ar  
  4   3   5  ar  
  5   3  26  1   
  6   4   6  ar  
  7   4  27  1   
  8   5   7  ar  
  9   6   7  ar  
 10   6  28  1   
 11   7   8  1   
 12   8   9  am  
 13   8  29  1   
 14   9  10  2   
 15   9  11  1   
 16  11  12  1   
 17  11  30  1   
 18  11  31  1   
 19  12  13  1   
 20  12  14  1   
 21  13  15  1   
 22  13  32  1   
 23  13  33  1   
 24  14  16  1   
 25  14  34  1   
 26  14  35  1   
 27  15  17  1   
 28  15  36  1   
 29  15  37  1   
 30  16  17  1   
 31  16  38  1   
 32  16  39  1   
 33  17  18  1   
 34  17  19  1   
 35  18  20  1   
 36  19  21  1   
 37  19  40  1   
 38  19  41  1   
 39  20  22  1   
 40  20  42  1   
 41  20  43  1   
 42  21  22  1   
 43  21  23  1   
 44  21  24  1   
 45  22  44  1   
 46  22  45  1   
 47  23  46  1   
 48  24  25  1   
 49  24  47  1   
 50  24  48  1   
 51  25  49  1   
@<TRIPOS>SUBSTRUCTURE
  1 ****  13 GROUP 4 **** **** 0

# MOE 2024.06 (io_trps.svl 2023.06)
