@<TRIPOS>MOLECULE
NONAME
50 52 1 0 0 
SMALL
USER_CHARGES


@<TRIPOS>ATOM
  1 CL      -0.3070     0.0530     0.3850 Cl    1 <1>  -0.1770 
  2 C       -1.9970     0.4740     0.3060 C.ar  1 <1>   0.1770 
  3 C       -2.9420    -0.5240     0.1620 C.ar  1 <1>  -0.1500 
  4 C       -2.3740     1.8000     0.3890 C.ar  1 <1>  -0.1500 
  5 C       -4.2820    -0.1850     0.1020 C.ar  1 <1>  -0.1500 
  6 C       -3.7170     2.1260     0.3260 C.ar  1 <1>  -0.1500 
  7 C       -4.7040     1.1460     0.1800 C.ar  1 <1>   0.0530 
  8 C       -6.0990     1.5130     0.1210 C.2   1 <1>   0.0870 
  9 O       -6.5020     2.6460     0.6400 O.3   1 <1>  -0.0190 
 10 C       -7.2050     0.9020    -0.3820 C.2   1 <1>  -0.0860 
 11 N       -7.7880     2.8380     0.5180 N.2   1 <1>  -0.4100 
 12 C       -8.2340     1.8060    -0.1030 C.2   1 <1>   0.3720 
 13 C       -7.3500    -0.3460    -1.0610 C.2   1 <1>   0.7160 
 14 N       -9.5710     1.6240    -0.4570 N.pl3 1 <1>  -0.8520 
 15 O       -6.6980    -0.5680    -2.0640 O.2   1 <1>  -0.5700 
 16 N       -8.1980    -1.3240    -0.5990 N.am  1 <1>  -0.6600 
 17 C      -10.4220     2.8400    -0.5830 C.3   1 <1>   0.2090 
 18 C       -8.3040    -2.6560    -1.2370 C.3   1 <1>   0.1400 
 19 C       -8.8400    -1.3260     0.7350 C.3   1 <1>   0.1400 
 20 C      -11.8950     2.4420    -0.6690 C.3   1 <1>   0.1200 
 21 C       -9.2030    -3.4760    -0.3100 C.3   1 <1>  -0.0800 
 22 C       -9.0500    -2.8000     1.0550 C.3   1 <1>  -0.1600 
 23 O      -12.6580     3.5850    -0.8950 O.3   1 <1>  -0.5600 
 24 C       -8.8440    -4.9710    -0.3070 C.3   1 <1>  -0.1600 
 25 C      -14.0270     3.3500    -0.9510 C.3   1 <1>   0.0400 
 26 C       -9.7820    -5.7950     0.5840 C.3   1 <1>  -0.2400 
 27 H       -2.6270    -1.5500     0.0970 H     1 <1>   0.1500 
 28 H       -1.6240     2.5620     0.5010 H     1 <1>   0.1500 
 29 H       -5.0040    -0.9730    -0.0070 H     1 <1>   0.1500 
 30 H       -4.0070     3.1610     0.3880 H     1 <1>   0.1500 
 31 H       -9.6650     1.0130    -1.2740 H     1 <1>   0.4000 
 32 H      -10.1400     3.3820    -1.4700 H     1 <1>   0.0800 
 33 H      -10.2830     3.4760     0.2750 H     1 <1>   0.0800 
 34 H       -7.3210    -3.0910    -1.3040 H     1 <1>   0.0800 
 35 H       -8.7250    -2.5730    -2.2250 H     1 <1>   0.0800 
 36 H       -9.7890    -0.8200     0.6730 H     1 <1>   0.0800 
 37 H       -8.2220    -0.8450     1.4740 H     1 <1>   0.0800 
 38 H      -12.2080     1.9940     0.2590 H     1 <1>   0.0800 
 39 H      -12.0520     1.7620    -1.4870 H     1 <1>   0.0800 
 40 H      -10.2180    -3.3550    -0.6470 H     1 <1>   0.0800 
 41 H       -9.9100    -2.9490     1.6840 H     1 <1>   0.0800 
 42 H       -8.1770    -3.1720     1.5610 H     1 <1>   0.0800 
 43 H       -7.8290    -5.1030     0.0300 H     1 <1>   0.0800 
 44 H       -8.9060    -5.3480    -1.3140 H     1 <1>   0.0800 
 45 H      -14.5210     4.2880    -1.1290 H     1 <1>   0.0800 
 46 H      -14.3560     2.9400    -0.0110 H     1 <1>   0.0800 
 47 H      -14.2390     2.6690    -1.7570 H     1 <1>   0.0800 
 48 H       -9.6960    -5.4940     1.6130 H     1 <1>   0.0800 
 49 H       -9.5280    -6.8380     0.5160 H     1 <1>   0.0800 
 50 H      -10.8040    -5.6730     0.2700 H     1 <1>   0.0800 
@<TRIPOS>BOND
  1   1   2  1   
  2   2   3  ar  
  3   2   4  ar  
  4   3   5  ar  
  5   3  27  1   
  6   4   6  ar  
  7   4  28  1   
  8   5   7  ar  
  9   5  29  1   
 10   6   7  ar  
 11   6  30  1   
 12   7   8  1   
 13   8   9  1   
 14   8  10  2   
 15   9  11  1   
 16  10  12  1   
 17  10  13  1   
 18  11  12  2   
 19  12  14  1   
 20  13  15  2   
 21  13  16  am  
 22  14  17  1   
 23  14  31  1   
 24  16  18  1   
 25  16  19  1   
 26  17  20  1   
 27  17  32  1   
 28  17  33  1   
 29  18  21  1   
 30  18  34  1   
 31  18  35  1   
 32  19  22  1   
 33  19  36  1   
 34  19  37  1   
 35  20  23  1   
 36  20  38  1   
 37  20  39  1   
 38  21  22  1   
 39  21  24  1   
 40  21  40  1   
 41  22  41  1   
 42  22  42  1   
 43  23  25  1   
 44  24  26  1   
 45  24  43  1   
 46  24  44  1   
 47  25  45  1   
 48  25  46  1   
 49  25  47  1   
 50  26  48  1   
 51  26  49  1   
 52  26  50  1   
@<TRIPOS>SUBSTRUCTURE
  1 ****  10 GROUP 4 **** **** 0

# MOE 2024.06 (io_trps.svl 2023.06)
