@<TRIPOS>MOLECULE
NONAME
52 55 1 0 0 
SMALL
USER_CHARGES


@<TRIPOS>ATOM
  1 O       -1.7790     0.7810     2.3850 O.2   1 <1>  -0.5700 
  2 C       -2.1520     1.2550     1.3370 C.2   1 <1>   0.5690 
  3 N       -2.7080     0.4490     0.3720 N.am  1 <1>  -0.6600 
  4 C       -2.0280     2.7770     1.1340 C.3   1 <1>   0.1710 
  5 C       -3.4220     0.8650    -0.8630 C.3   1 <1>   0.1400 
  6 C       -2.7900    -1.0240     0.5350 C.3   1 <1>   0.1400 
  7 N       -0.7440     3.2800     0.5570 N.3   1 <1>  -0.8100 
  8 C       -4.3590    -0.3030    -1.1640 C.3   1 <1>   0.2000 
  9 C       -3.5720    -1.5270    -0.6840 C.3   1 <1>  -0.0800 
 10 C       -0.7720     4.7520     0.4720 C.3   1 <1>   0.2530 
 11 C       -0.4260     2.6550    -0.7450 C.3   1 <1>   0.1100 
 12 O       -5.4980    -0.1480    -0.3870 O.3   1 <1>  -0.6800 
 13 C       -4.4120    -2.7880    -0.4080 C.3   1 <1>  -0.0170 
 14 C        0.6210     5.3610     0.4520 C.ar  1 <1>  -0.1440 
 15 C        0.9950     2.9510    -1.2430 C.3   1 <1>   0.1200 
 16 C       -3.5190    -3.9590    -0.0300 C.ar  1 <1>  -0.1440 
 17 C        1.4830     5.1420    -0.6150 C.ar  1 <1>   0.0820 
 18 C        1.0370     6.1860     1.4880 C.ar  1 <1>  -0.1500 
 19 O        1.1450     4.3060    -1.6150 O.3   1 <1>  -0.3630 
 20 C       -3.2570    -4.2880     1.2850 C.ar  1 <1>  -0.1500 
 21 C       -2.9190    -4.7530    -0.9870 C.ar  1 <1>  -0.1500 
 22 C        2.7180     5.7680    -0.6690 C.ar  1 <1>  -0.1500 
 23 C        2.2790     6.8000     1.4450 C.ar  1 <1>  -0.1500 
 24 C       -2.4270    -5.3590     1.5710 C.ar  1 <1>   0.1600 
 25 C       -2.1060    -5.8030    -0.5940 C.ar  1 <1>   0.1600 
 26 C        3.1180     6.5970     0.3630 C.ar  1 <1>  -0.1500 
 27 N       -1.8440    -6.1240     0.6630 N.ar  1 <1>  -0.6200 
 28 H       -2.1470     3.2180     2.1080 H     1 <1>   0.0800 
 29 H       -2.8460     3.1210     0.5320 H     1 <1>   0.0800 
 30 H       -3.9700     1.7820    -0.7370 H     1 <1>   0.0800 
 31 H       -2.7090     0.9720    -1.6620 H     1 <1>   0.0800 
 32 H       -1.8050    -1.4570     0.5790 H     1 <1>   0.0800 
 33 H       -3.3130    -1.2460     1.4500 H     1 <1>   0.0800 
 34 H       -4.6530    -0.3570    -2.1980 H     1 <1>   0.0800 
 35 H       -2.8520    -1.7670    -1.4460 H     1 <1>   0.0800 
 36 H       -1.3070     5.0590    -0.4100 H     1 <1>   0.0800 
 37 H       -1.2960     5.1480     1.3250 H     1 <1>   0.0800 
 38 H       -0.4900     1.5870    -0.6380 H     1 <1>   0.0800 
 39 H       -1.1380     2.9590    -1.4920 H     1 <1>   0.0800 
 40 H       -5.2280    -0.0080     0.5430 H     1 <1>   0.4000 
 41 H       -4.9790    -3.0410    -1.2870 H     1 <1>   0.0800 
 42 H       -5.1170    -2.6060     0.3850 H     1 <1>   0.0800 
 43 H        1.1990     2.3620    -2.1180 H     1 <1>   0.0800 
 44 H        1.7200     2.7090    -0.4860 H     1 <1>   0.0800 
 45 H        0.3950     6.3590     2.3330 H     1 <1>   0.1500 
 46 H       -3.6880    -3.7240     2.0920 H     1 <1>   0.1500 
 47 H       -3.0750    -4.5660    -2.0330 H     1 <1>   0.1500 
 48 H        3.3580     5.5950    -1.5140 H     1 <1>   0.1500 
 49 H        2.5900     7.4370     2.2540 H     1 <1>   0.1500 
 50 H       -2.2330    -5.5990     2.6030 H     1 <1>   0.1500 
 51 H       -1.6470    -6.4120    -1.3540 H     1 <1>   0.1500 
 52 H        4.0790     7.0800     0.3260 H     1 <1>   0.1500 
@<TRIPOS>BOND
  1   1   2  2   
  2   2   3  am  
  3   2   4  1   
  4   3   5  1   
  5   3   6  1   
  6   4   7  1   
  7   4  28  1   
  8   4  29  1   
  9   5   8  1   
 10   5  30  1   
 11   5  31  1   
 12   6   9  1   
 13   6  32  1   
 14   6  33  1   
 15   7  10  1   
 16   7  11  1   
 17   8   9  1   
 18   8  12  1   
 19   8  34  1   
 20   9  13  1   
 21   9  35  1   
 22  10  14  1   
 23  10  36  1   
 24  10  37  1   
 25  11  15  1   
 26  11  38  1   
 27  11  39  1   
 28  12  40  1   
 29  13  16  1   
 30  13  41  1   
 31  13  42  1   
 32  14  17  ar  
 33  14  18  ar  
 34  15  19  1   
 35  15  43  1   
 36  15  44  1   
 37  16  20  ar  
 38  16  21  ar  
 39  17  19  1   
 40  17  22  ar  
 41  18  23  ar  
 42  18  45  1   
 43  20  24  ar  
 44  20  46  1   
 45  21  25  ar  
 46  21  47  1   
 47  22  26  ar  
 48  22  48  1   
 49  23  26  ar  
 50  23  49  1   
 51  24  27  ar  
 52  24  50  1   
 53  25  27  ar  
 54  25  51  1   
 55  26  52  1   
@<TRIPOS>SUBSTRUCTURE
  1 ****   3 GROUP 4 **** **** 0

# MOE 2024.06 (io_trps.svl 2023.06)
