@<TRIPOS>MOLECULE
NONAME
64 68 1 0 0 
SMALL
USER_CHARGES


@<TRIPOS>ATOM
  1 O       -1.6160    -1.2960    -0.9280 O.3   1 <1>  -0.5600 
  2 C       -2.4800    -2.2270    -0.3420 C.3   1 <1>   0.1200 
  3 C       -0.2650    -1.6350    -0.8360 C.3   1 <1>   0.1200 
  4 C       -2.3360    -3.6000    -1.0200 C.3   1 <1>   0.2090 
  5 C        0.0080    -2.9730    -1.5510 C.3   1 <1>   0.2090 
  6 N       -0.8950    -4.0570    -1.0300 N.pl3 1 <1>  -0.8380 
  7 C       -0.5360    -5.2840    -0.5670 C.ar  1 <1>   0.7710 
  8 N       -1.4110    -5.9990     0.1200 N.ar  1 <1>  -0.6200 
  9 N        0.6980    -5.7490    -0.8270 N.ar  1 <1>  -0.1790 
 10 C       -1.0630    -7.1990     0.5420 C.ar  1 <1>   0.4100 
 11 C        1.1170    -6.9620    -0.3940 C.ar  1 <1>   0.2180 
 12 N       -1.9930    -7.9320     1.2070 N.pl3 1 <1>  -0.8380 
 13 C        0.2280    -7.7070     0.3060 C.ar  1 <1>  -0.1500 
 14 C        2.5370    -7.4150    -0.7110 C.3   1 <1>  -0.0170 
 15 C       -3.1040    -7.2890     1.9690 C.3   1 <1>   0.2090 
 16 C       -2.1850    -9.3940     1.0010 C.3   1 <1>   0.2090 
 17 C        3.5910    -6.5120    -0.0580 C.3   1 <1>  -0.2400 
 18 C       -4.4140    -7.4900     1.2110 C.3   1 <1>  -0.1600 
 19 C       -3.5000    -9.6310     0.2520 C.3   1 <1>  -0.1600 
 20 C       -4.6960    -8.9820     0.9680 C.3   1 <1>   0.1000 
 21 C       -5.9780    -9.1970     0.1620 C.2   1 <1>   0.0060 
 22 N       -6.4940    -8.3180    -0.6290 N.2   1 <1>  -0.3380 
 23 N       -6.7090   -10.3220     0.1770 N.pl3 1 <1>   0.0480 
 24 N       -7.5910    -8.8550    -1.1560 N.2   1 <1>  -0.3380 
 25 C       -7.7020   -10.0410    -0.6700 C.2   1 <1>   0.0060 
 26 C       -6.5080   -11.5810     0.9280 C.3   1 <1>   0.0960 
 27 C       -8.8230   -10.9990    -1.0240 C.3   1 <1>   0.0200 
 28 C       -6.3470   -12.7840    -0.0130 C.3   1 <1>  -0.1600 
 29 C       -8.2980   -12.3000    -1.6470 C.3   1 <1>  -0.1600 
 30 C       -7.6660   -13.2710    -0.6370 C.3   1 <1>  -0.1600 
 31 H       -3.4850    -1.8610    -0.4580 H     1 <1>   0.0800 
 32 H       -2.2580    -2.2970     0.7090 H     1 <1>   0.0800 
 33 H        0.0040    -1.6930     0.2050 H     1 <1>   0.0800 
 34 H        0.3000    -0.8430    -1.2950 H     1 <1>   0.0800 
 35 H       -2.6880    -3.5200    -2.0340 H     1 <1>   0.0800 
 36 H       -2.9820    -4.2990    -0.5170 H     1 <1>   0.0800 
 37 H        1.0430    -3.2210    -1.4130 H     1 <1>   0.0800 
 38 H       -0.1690    -2.8370    -2.6060 H     1 <1>   0.0800 
 39 H        1.2870    -5.1490    -1.3860 H     1 <1>   0.4570 
 40 H        0.4820    -8.6720     0.7000 H     1 <1>   0.1500 
 41 H        2.6840    -7.4330    -1.7770 H     1 <1>   0.0800 
 42 H        2.6780    -8.4210    -0.3530 H     1 <1>   0.0800 
 43 H       -2.9180    -6.2370     2.1050 H     1 <1>   0.0800 
 44 H       -3.1710    -7.7370     2.9460 H     1 <1>   0.0800 
 45 H       -2.2080    -9.8880     1.9580 H     1 <1>   0.0800 
 46 H       -1.3780    -9.8120     0.4250 H     1 <1>   0.0800 
 47 H        3.5440    -5.5070    -0.4380 H     1 <1>   0.0800 
 48 H        4.5760    -6.8990    -0.2590 H     1 <1>   0.0800 
 49 H        3.4570    -6.4870     1.0110 H     1 <1>   0.0800 
 50 H       -4.3480    -6.9680     0.2720 H     1 <1>   0.0800 
 51 H       -5.2250    -7.0560     1.7690 H     1 <1>   0.0800 
 52 H       -3.6640   -10.6880     0.1500 H     1 <1>   0.0800 
 53 H       -3.4160    -9.2170    -0.7380 H     1 <1>   0.0800 
 54 H       -4.8180    -9.4430     1.9320 H     1 <1>   0.0800 
 55 H       -7.3460   -11.7300     1.5840 H     1 <1>   0.0800 
 56 H       -5.6250   -11.4910     1.5330 H     1 <1>   0.0800 
 57 H       -9.4650   -10.5100    -1.7360 H     1 <1>   0.0800 
 58 H       -9.4120   -11.2090    -0.1490 H     1 <1>   0.0800 
 59 H       -5.9410   -13.5970     0.5630 H     1 <1>   0.0800 
 60 H       -5.6320   -12.5530    -0.7840 H     1 <1>   0.0800 
 61 H       -7.5900   -12.0620    -2.4230 H     1 <1>   0.0800 
 62 H       -9.1280   -12.8010    -2.1150 H     1 <1>   0.0800 
 63 H       -8.3760   -13.4950     0.1420 H     1 <1>   0.0800 
 64 H       -7.4650   -14.1950    -1.1520 H     1 <1>   0.0800 
@<TRIPOS>BOND
  1   1   2  1   
  2   1   3  1   
  3   2   4  1   
  4   2  31  1   
  5   2  32  1   
  6   3   5  1   
  7   3  33  1   
  8   3  34  1   
  9   4   6  1   
 10   4  35  1   
 11   4  36  1   
 12   5   6  1   
 13   5  37  1   
 14   5  38  1   
 15   6   7  1   
 16   7   8  ar  
 17   7   9  ar  
 18   8  10  ar  
 19   9  11  ar  
 20   9  39  1   
 21  10  12  1   
 22  10  13  ar  
 23  11  13  ar  
 24  11  14  1   
 25  12  15  1   
 26  12  16  1   
 27  13  40  1   
 28  14  17  1   
 29  14  41  1   
 30  14  42  1   
 31  15  18  1   
 32  15  43  1   
 33  15  44  1   
 34  16  19  1   
 35  16  45  1   
 36  16  46  1   
 37  17  47  1   
 38  17  48  1   
 39  17  49  1   
 40  18  20  1   
 41  18  50  1   
 42  18  51  1   
 43  19  20  1   
 44  19  52  1   
 45  19  53  1   
 46  20  21  1   
 47  20  54  1   
 48  21  22  2   
 49  21  23  1   
 50  22  24  1   
 51  23  25  1   
 52  23  26  1   
 53  24  25  2   
 54  25  27  1   
 55  26  28  1   
 56  26  55  1   
 57  26  56  1   
 58  27  29  1   
 59  27  57  1   
 60  27  58  1   
 61  28  30  1   
 62  28  59  1   
 63  28  60  1   
 64  29  30  1   
 65  29  61  1   
 66  29  62  1   
 67  30  63  1   
 68  30  64  1   
@<TRIPOS>SUBSTRUCTURE
  1 ****  12 GROUP 4 **** **** 0

# MOE 2024.06 (io_trps.svl 2023.06)
