@<TRIPOS>MOLECULE
NONAME
43 44 1 0 0 
SMALL
USER_CHARGES


@<TRIPOS>ATOM
  1 S        0.3270    -0.0110     0.5520 S.o2  1 <1>   1.3330 
  2 O        1.7190     0.0070     0.9380 O.2   1 <1>  -0.6500 
  3 O       -0.6990    -0.0080     1.5710 O.2   1 <1>  -0.6500 
  4 N        0.0810    -1.3560    -0.4540 N.am  1 <1>  -0.8490 
  5 C        0.0040     1.3690    -0.5420 C.3   1 <1>  -0.0550 
  6 C       -0.3810    -2.5300     0.2920 C.3   1 <1>   0.1160 
  7 C        1.2590    -1.7070    -1.2560 C.3   1 <1>   0.1160 
  8 C        0.0580     2.7290     0.1740 C.3   1 <1>  -0.0800 
  9 C       -0.3490     3.8830    -0.7350 C.3   1 <1>   0.2000 
 10 C        1.4520     3.1260     0.6690 C.3   1 <1>   0.1400 
 11 O       -1.7290     3.9790    -0.7970 O.3   1 <1>  -0.6800 
 12 C        0.2830     5.1240    -0.1110 C.3   1 <1>   0.1400 
 13 N        1.4740     4.6100     0.6150 N.am  1 <1>  -0.6600 
 14 C        2.6260     5.3310     0.8280 C.2   1 <1>   0.5440 
 15 O        3.6690     4.7290     0.9950 O.2   1 <1>  -0.5700 
 16 C        2.6200     6.7770     0.8400 C.ar  1 <1>   0.0860 
 17 C        1.6690     7.4830     1.5710 C.ar  1 <1>   0.1600 
 18 C        3.5520     7.5210     0.1310 C.ar  1 <1>  -0.1500 
 19 N        1.5510     8.7990     1.6250 N.ar  1 <1>  -0.6200 
 20 C        3.4640     8.8970     0.1760 C.ar  1 <1>  -0.1440 
 21 C        2.4500     9.4750     0.9270 C.ar  1 <1>   0.1600 
 22 C        4.4570     9.7580    -0.5850 C.3   1 <1>  -0.0970 
 23 H        0.7080     1.3610    -1.3510 H     1 <1>   0.0800 
 24 H       -0.9770     1.2460    -0.9610 H     1 <1>   0.0800 
 25 H       -0.5420    -3.3580    -0.3760 H     1 <1>   0.0800 
 26 H       -1.3140    -2.3110     0.7850 H     1 <1>   0.0800 
 27 H        0.3450    -2.8100     1.0380 H     1 <1>   0.0800 
 28 H        1.0180    -2.5060    -1.9360 H     1 <1>   0.0800 
 29 H        2.0690    -2.0210    -0.6180 H     1 <1>   0.0800 
 30 H        1.5830    -0.8580    -1.8320 H     1 <1>   0.0800 
 31 H       -0.5920     2.7070     1.0330 H     1 <1>   0.0800 
 32 H        0.0280     3.7490    -1.7360 H     1 <1>   0.0800 
 33 H        2.2210     2.7390     0.0210 H     1 <1>   0.0800 
 34 H        1.6320     2.7800     1.6730 H     1 <1>   0.0800 
 35 H       -2.1130     4.0360     0.1000 H     1 <1>   0.4000 
 36 H       -0.3920     5.5810     0.5930 H     1 <1>   0.0800 
 37 H        0.5700     5.8320    -0.8690 H     1 <1>   0.0800 
 38 H        0.9610     6.9140     2.1480 H     1 <1>   0.1500 
 39 H        4.3200     7.0210    -0.4330 H     1 <1>   0.1500 
 40 H        2.3760    10.5490     0.9590 H     1 <1>   0.1500 
 41 H        5.3920     9.2390    -0.7050 H     1 <1>   0.0800 
 42 H        4.6460    10.6740    -0.0540 H     1 <1>   0.0800 
 43 H        4.0660     9.9950    -1.5580 H     1 <1>   0.0800 
@<TRIPOS>BOND
  1   1   2  2   
  2   1   3  2   
  3   1   4  am  
  4   1   5  1   
  5   4   6  1   
  6   4   7  1   
  7   5   8  1   
  8   5  23  1   
  9   5  24  1   
 10   6  25  1   
 11   6  26  1   
 12   6  27  1   
 13   7  28  1   
 14   7  29  1   
 15   7  30  1   
 16   8   9  1   
 17   8  10  1   
 18   8  31  1   
 19   9  11  1   
 20   9  12  1   
 21   9  32  1   
 22  10  13  1   
 23  10  33  1   
 24  10  34  1   
 25  11  35  1   
 26  12  13  1   
 27  12  36  1   
 28  12  37  1   
 29  13  14  am  
 30  14  15  2   
 31  14  16  1   
 32  16  17  ar  
 33  16  18  ar  
 34  17  19  ar  
 35  17  38  1   
 36  18  20  ar  
 37  18  39  1   
 38  19  21  ar  
 39  20  21  ar  
 40  20  22  1   
 41  21  40  1   
 42  22  41  1   
 43  22  42  1   
 44  22  43  1   
@<TRIPOS>SUBSTRUCTURE
  1 ****  13 GROUP 4 **** **** 0

# MOE 2024.06 (io_trps.svl 2023.06)
