@<TRIPOS>MOLECULE
NONAME
41 43 1 0 0 
SMALL
USER_CHARGES


@<TRIPOS>ATOM
  1 S        1.3940     0.6350     0.9830 S.o2  1 <1>   1.0900 
  2 O        2.8220     0.4460     0.8780 O.2   1 <1>  -0.6500 
  3 O        0.6060    -0.0140     2.0050 O.2   1 <1>  -0.6500 
  4 C        1.0520     2.3810     0.9890 C.3   1 <1>  -0.0550 
  5 C        0.6450     0.3080    -0.6060 C.3   1 <1>  -0.0550 
  6 C        0.0840     2.6390    -0.1650 C.3   1 <1>   0.1900 
  7 C        0.4170     1.6560    -1.2970 C.3   1 <1>  -0.1600 
  8 N        0.0890     4.0530    -0.5780 N.3   1 <1>  -0.8100 
  9 C        1.3040     4.5460    -1.2880 C.3   1 <1>   0.2900 
 10 C       -1.1710     4.4690    -1.2320 C.3   1 <1>   0.1100 
 11 C        1.5890     6.0190    -1.0070 C.2   1 <1>   0.2980 
 12 C       -2.2250     4.8250    -0.1800 C.3   1 <1>   0.1200 
 13 O        0.8960     6.9270    -1.6450 O.3   1 <1>  -0.0190 
 14 N        2.4610     6.4710    -0.2010 N.2   1 <1>  -0.5650 
 15 O       -3.3660     5.2840    -0.8200 O.3   1 <1>  -0.6800 
 16 N        1.3580     8.0510    -1.1980 N.2   1 <1>  -0.4100 
 17 C        2.2790     7.7870    -0.3410 C.2   1 <1>   0.4620 
 18 C        3.0440     8.7660     0.4040 C.ar  1 <1>   0.0540 
 19 C        3.9840     8.3820     1.3620 C.ar  1 <1>   0.1600 
 20 C        2.8800    10.1320     0.2050 C.ar  1 <1>  -0.1500 
 21 N        4.7280     9.1960     2.0950 N.ar  1 <1>  -0.6200 
 22 C        3.6430    10.9990     0.9560 C.ar  1 <1>  -0.1500 
 23 C        4.5410    10.4870     1.8760 C.ar  1 <1>   0.1600 
 24 H        1.9680     2.9180     0.8450 H     1 <1>   0.0800 
 25 H        0.6140     2.6840     1.9200 H     1 <1>   0.0800 
 26 H       -0.3030    -0.1720    -0.4540 H     1 <1>   0.0800 
 27 H        1.2620    -0.3380    -1.2030 H     1 <1>   0.0800 
 28 H       -0.8990     2.3900     0.2030 H     1 <1>   0.0800 
 29 H       -0.3820     1.5870    -2.0140 H     1 <1>   0.0800 
 30 H        1.3270     1.9350    -1.7970 H     1 <1>   0.0800 
 31 H        1.2000     4.3960    -2.3480 H     1 <1>   0.0800 
 32 H        2.1680     3.9950    -0.9650 H     1 <1>   0.0800 
 33 H       -1.5410     3.6810    -1.8670 H     1 <1>   0.0800 
 34 H       -1.0050     5.3390    -1.8410 H     1 <1>   0.0800 
 35 H       -1.8680     5.6020     0.4740 H     1 <1>   0.0800 
 36 H       -2.5010     3.9610     0.3970 H     1 <1>   0.0800 
 37 H       -3.2210     6.1780    -1.1860 H     1 <1>   0.4000 
 38 H        4.1280     7.3280     1.5340 H     1 <1>   0.1500 
 39 H        2.1730    10.5040    -0.5180 H     1 <1>   0.1500 
 40 H        3.5460    12.0620     0.8330 H     1 <1>   0.1500 
 41 H        5.1340    11.1710     2.4590 H     1 <1>   0.1500 
@<TRIPOS>BOND
  1   1   2  2   
  2   1   3  2   
  3   1   4  1   
  4   1   5  1   
  5   4   6  1   
  6   4  24  1   
  7   4  25  1   
  8   5   7  1   
  9   5  26  1   
 10   5  27  1   
 11   6   7  1   
 12   6   8  1   
 13   6  28  1   
 14   7  29  1   
 15   7  30  1   
 16   8   9  1   
 17   8  10  1   
 18   9  11  1   
 19   9  31  1   
 20   9  32  1   
 21  10  12  1   
 22  10  33  1   
 23  10  34  1   
 24  11  13  1   
 25  11  14  2   
 26  12  15  1   
 27  12  35  1   
 28  12  36  1   
 29  13  16  1   
 30  14  17  1   
 31  15  37  1   
 32  16  17  2   
 33  17  18  1   
 34  18  19  ar  
 35  18  20  ar  
 36  19  21  ar  
 37  19  38  1   
 38  20  22  ar  
 39  20  39  1   
 40  21  23  ar  
 41  22  23  ar  
 42  22  40  1   
 43  23  41  1   
@<TRIPOS>SUBSTRUCTURE
  1 ****  11 GROUP 4 **** **** 0

# MOE 2024.06 (io_trps.svl 2023.06)
