@<TRIPOS>MOLECULE
NONAME
47 50 1 0 0 
SMALL
USER_CHARGES


@<TRIPOS>ATOM
  1 S        2.1980    -0.1800    -0.5000 S.3   1 <1>  -0.0800 
  2 C        1.4100     1.3830    -0.5380 C.2   1 <1>  -0.1400 
  3 C        3.6760     0.5580     0.1010 C.2   1 <1>  -0.1100 
  4 C        2.2290     2.3660    -0.1420 C.2   1 <1>  -0.1810 
  5 C       -0.0220     1.5620    -0.9630 C.3   1 <1>   0.0200 
  6 C        3.5300     1.8910     0.2360 C.2   1 <1>  -0.1500 
  7 C        1.7590     3.8220    -0.1150 C.3   1 <1>   0.4610 
  8 C       -0.4790     2.9340    -0.4410 C.3   1 <1>   0.1200 
  9 O        0.4800     3.9280    -0.7170 O.3   1 <1>  -0.5600 
 10 C        2.6890     4.7020    -0.9570 C.3   1 <1>  -0.1600 
 11 C        1.6840     4.3500     1.3250 C.3   1 <1>  -0.1600 
 12 C        2.2850     6.1760    -0.8940 C.3   1 <1>   0.1400 
 13 C        1.2900     5.8270     1.3650 C.3   1 <1>   0.1400 
 14 N        2.2460     6.6070     0.5310 N.am  1 <1>  -0.6600 
 15 C        3.0190     7.6240     1.0580 C.2   1 <1>   0.5440 
 16 O        2.8940     7.9120     2.2340 O.2   1 <1>  -0.5700 
 17 C        3.9240     8.4060     0.2520 C.ar  1 <1>   0.0860 
 18 C        5.1360     7.8900    -0.2240 C.ar  1 <1>   0.3930 
 19 C        3.6140     9.7200    -0.0690 C.ar  1 <1>  -0.1500 
 20 O        5.4550     6.6190     0.0960 O.3   1 <1>  -0.3630 
 21 N        6.0020     8.5680    -0.9800 N.ar  1 <1>  -0.6200 
 22 C        4.5040    10.4290    -0.8430 C.ar  1 <1>  -0.1500 
 23 C        6.7110     6.0650    -0.2350 C.3   1 <1>   0.1200 
 24 C        5.6680     9.8130    -1.2670 C.ar  1 <1>   0.1600 
 25 C        6.7540     4.6270     0.2740 C.3   1 <1>  -0.2400 
 26 H        4.5080    -0.0940     0.2940 H     1 <1>   0.1500 
 27 H       -0.6380     0.7890    -0.5430 H     1 <1>   0.0800 
 28 H       -0.0960     1.5250    -2.0340 H     1 <1>   0.0800 
 29 H        4.2870     2.5650     0.5920 H     1 <1>   0.1500 
 30 H       -0.6360     2.8980     0.6220 H     1 <1>   0.0800 
 31 H       -1.3990     3.2250    -0.9160 H     1 <1>   0.0800 
 32 H        2.6740     4.3590    -1.9750 H     1 <1>   0.0800 
 33 H        3.6960     4.6110    -0.5980 H     1 <1>   0.0800 
 34 H        2.6480     4.2480     1.7890 H     1 <1>   0.0800 
 35 H        0.9930     3.7660     1.9010 H     1 <1>   0.0800 
 36 H        1.3070     6.3050    -1.3260 H     1 <1>   0.0800 
 37 H        2.9800     6.7650    -1.4630 H     1 <1>   0.0800 
 38 H        1.2950     6.1730     2.3840 H     1 <1>   0.0800 
 39 H        0.2960     5.9550     0.9730 H     1 <1>   0.0800 
 40 H        2.7000    10.1620     0.2890 H     1 <1>   0.1500 
 41 H        4.3030    11.4500    -1.1140 H     1 <1>   0.1500 
 42 H        7.4750     6.6610     0.2340 H     1 <1>   0.0800 
 43 H        6.8290     6.0970    -1.3050 H     1 <1>   0.0800 
 44 H        6.3590    10.3760    -1.8730 H     1 <1>   0.1500 
 45 H        6.5610     4.6030     1.3310 H     1 <1>   0.0800 
 46 H        7.7270     4.2090     0.0920 H     1 <1>   0.0800 
 47 H        6.0260     4.0310    -0.2440 H     1 <1>   0.0800 
@<TRIPOS>BOND
  1   1   2  1   
  2   1   3  1   
  3   2   4  2   
  4   2   5  1   
  5   3   6  2   
  6   3  26  1   
  7   4   6  1   
  8   4   7  1   
  9   5   8  1   
 10   5  27  1   
 11   5  28  1   
 12   6  29  1   
 13   7   9  1   
 14   7  10  1   
 15   7  11  1   
 16   8   9  1   
 17   8  30  1   
 18   8  31  1   
 19  10  12  1   
 20  10  32  1   
 21  10  33  1   
 22  11  13  1   
 23  11  34  1   
 24  11  35  1   
 25  12  14  1   
 26  12  36  1   
 27  12  37  1   
 28  13  14  1   
 29  13  38  1   
 30  13  39  1   
 31  14  15  am  
 32  15  16  2   
 33  15  17  1   
 34  17  18  ar  
 35  17  19  ar  
 36  18  20  1   
 37  18  21  ar  
 38  19  22  ar  
 39  19  40  1   
 40  20  23  1   
 41  21  24  ar  
 42  22  24  ar  
 43  22  41  1   
 44  23  25  1   
 45  23  42  1   
 46  23  43  1   
 47  24  44  1   
 48  25  45  1   
 49  25  46  1   
 50  25  47  1   
@<TRIPOS>SUBSTRUCTURE
  1 ****  10 GROUP 4 **** **** 0

# MOE 2024.06 (io_trps.svl 2023.06)
