@<TRIPOS>MOLECULE
NONAME
49 53 1 0 0 
SMALL
USER_CHARGES


@<TRIPOS>ATOM
  1 O       -1.6130     1.0750    -0.3860 O.3   1 <1>  -0.2800 
  2 C       -0.8290     2.1380    -0.1940 C.ar  1 <1>   0.1400 
  3 C       -1.9230     0.5920     0.8160 C.2   1 <1>  -0.0400 
  4 C       -0.6330     2.3500     1.1590 C.ar  1 <1>   0.0000 
  5 C       -0.2600     2.9600    -1.1580 C.ar  1 <1>  -0.1500 
  6 C       -1.3590     1.3240     1.7970 C.2   1 <1>  -0.1500 
  7 C       -2.8310    -0.6210     0.8640 C.3   1 <1>   0.5230 
  8 C        0.1570     3.4210     1.5780 C.ar  1 <1>  -0.1500 
  9 C        0.5210     4.0170    -0.7350 C.ar  1 <1>  -0.1500 
 10 N       -4.0110    -0.3210     0.0130 N.4   1 <1>  -0.9590 
 11 C        0.7270     4.2450     0.6280 C.ar  1 <1>  -0.1500 
 12 C       -4.8730     0.7420     0.6330 C.3   1 <1>   0.3430 
 13 C       -4.7950    -1.5330    -0.3480 C.3   1 <1>   0.3430 
 14 C       -5.9900     1.1930    -0.3220 C.3   1 <1>   0.1440 
 15 C       -5.8920    -1.1510    -1.3460 C.3   1 <1>  -0.1600 
 16 C       -6.8880     2.1540     0.4200 C.ar  1 <1>   0.1670 
 17 C       -6.8000    -0.0250    -0.8140 C.3   1 <1>  -0.1600 
 18 C       -5.4610     2.0620    -1.4960 C.3   1 <1>  -0.1600 
 19 N       -7.3750     1.9390     1.6200 N.ar  1 <1>  -0.6200 
 20 C       -7.1260     3.2850    -0.2980 C.ar  1 <1>  -0.1430 
 21 C       -6.4250     3.2580    -1.6330 C.3   1 <1>  -0.0170 
 22 C       -8.1420     2.9230     2.0750 C.ar  1 <1>   0.4770 
 23 C       -7.9280     4.2420     0.2730 C.ar  1 <1>   0.1600 
 24 N       -8.4440     4.0640     1.4720 N.ar  1 <1>  -0.6200 
 25 C       -8.7410     2.7290     3.4470 C.3   1 <1>  -0.0970 
 26 H       -0.4270     2.7650    -2.2010 H     1 <1>   0.1500 
 27 H       -1.4100     1.2090     2.8660 H     1 <1>   0.1500 
 28 H       -3.1300    -0.8330     1.8770 H     1 <1>   0.0800 
 29 H       -2.2970    -1.4700     0.4690 H     1 <1>   0.0800 
 30 H        0.3140     3.5930     2.6280 H     1 <1>   0.1500 
 31 H        0.9800     4.6740    -1.4550 H     1 <1>   0.1500 
 32 H       -3.6080     0.0840    -0.8450 H     1 <1>   0.4500 
 33 H        1.3400     5.0760     0.9340 H     1 <1>   0.1500 
 34 H       -4.2780     1.6010     0.8990 H     1 <1>   0.0800 
 35 H       -5.3280     0.3620     1.5330 H     1 <1>   0.0800 
 36 H       -5.2470    -1.9530     0.5370 H     1 <1>   0.0800 
 37 H       -4.1510    -2.2770    -0.7890 H     1 <1>   0.0800 
 38 H       -6.4950    -2.0200    -1.5490 H     1 <1>   0.0800 
 39 H       -5.4400    -0.8580    -2.2770 H     1 <1>   0.0800 
 40 H       -7.5000     0.2790    -1.5740 H     1 <1>   0.0800 
 41 H       -7.3780    -0.4110     0.0100 H     1 <1>   0.0800 
 42 H       -5.3870     1.5200    -2.4220 H     1 <1>   0.0800 
 43 H       -4.4860     2.4510    -1.2510 H     1 <1>   0.0800 
 44 H       -7.1450     3.0820    -2.4140 H     1 <1>   0.0800 
 45 H       -5.8970     4.1760    -1.8250 H     1 <1>   0.0800 
 46 H       -8.1500     5.1570    -0.2490 H     1 <1>   0.1500 
 47 H       -8.6890     1.6970     3.7400 H     1 <1>   0.0800 
 48 H       -9.7700     3.0360     3.4380 H     1 <1>   0.0800 
 49 H       -8.2030     3.3270     4.1570 H     1 <1>   0.0800 
@<TRIPOS>BOND
  1   1   2  1   
  2   1   3  1   
  3   2   4  ar  
  4   2   5  ar  
  5   3   6  2   
  6   3   7  1   
  7   4   6  1   
  8   4   8  ar  
  9   5   9  ar  
 10   5  26  1   
 11   6  27  1   
 12   7  10  1   
 13   7  28  1   
 14   7  29  1   
 15   8  11  ar  
 16   8  30  1   
 17   9  11  ar  
 18   9  31  1   
 19  10  12  1   
 20  10  13  1   
 21  10  32  1   
 22  11  33  1   
 23  12  14  1   
 24  12  34  1   
 25  12  35  1   
 26  13  15  1   
 27  13  36  1   
 28  13  37  1   
 29  14  16  1   
 30  14  17  1   
 31  14  18  1   
 32  15  17  1   
 33  15  38  1   
 34  15  39  1   
 35  16  19  ar  
 36  16  20  ar  
 37  17  40  1   
 38  17  41  1   
 39  18  21  1   
 40  18  42  1   
 41  18  43  1   
 42  19  22  ar  
 43  20  21  1   
 44  20  23  ar  
 45  21  44  1   
 46  21  45  1   
 47  22  24  ar  
 48  22  25  1   
 49  23  24  ar  
 50  23  46  1   
 51  25  47  1   
 52  25  48  1   
 53  25  49  1   
@<TRIPOS>SUBSTRUCTURE
  1 ****  12 GROUP 4 **** **** 0

# MOE 2024.06 (io_trps.svl 2023.06)
