@<TRIPOS>MOLECULE
NONAME
50 52 1 0 0 
SMALL
USER_CHARGES


@<TRIPOS>ATOM
  1 S        0.7610    -0.0050    -2.1780 S.3   1 <1>   0.1810 
  2 N        1.8050     1.2620    -1.7860 N.2   1 <1>  -0.2210 
  3 C        1.4360    -1.0740    -0.9950 C.2   1 <1>  -0.0450 
  4 N        2.5870     0.9190    -0.8620 N.2   1 <1>  -0.2270 
  5 C        2.4140    -0.3650    -0.3960 C.2   1 <1>   0.0460 
  6 C        0.8860    -2.3960    -0.8990 C.2   1 <1>   0.7150 
  7 C        3.3430    -0.7990     0.7370 C.3   1 <1>   0.1010 
  8 O        1.5990    -3.3660    -0.7060 O.2   1 <1>  -0.5700 
  9 N       -0.4710    -2.6200    -0.9720 N.am  1 <1>  -0.6600 
 10 C        4.4600    -1.7060     0.2130 C.3   1 <1>  -0.2400 
 11 C        2.5870    -1.4650     1.8950 C.3   1 <1>  -0.2400 
 12 C       -0.9850    -3.9800    -1.2280 C.3   1 <1>   0.1400 
 13 C       -1.4230    -1.8240    -0.1570 C.3   1 <1>   0.1400 
 14 C       -1.2420    -4.5770     0.1680 C.3   1 <1>   0.4230 
 15 C       -1.8600    -2.6290     1.0970 C.3   1 <1>  -0.1600 
 16 N       -0.8970    -6.0420     0.3000 N.4   1 <1>  -0.9590 
 17 C       -2.6270    -4.0220     0.7560 C.3   1 <1>   0.0000 
 18 C       -1.6420    -6.8860    -0.6520 C.3   1 <1>   0.3430 
 19 C        0.5830    -6.2610     0.1910 C.3   1 <1>   0.2630 
 20 C       -3.4470    -5.3620     0.3670 C.3   1 <1>  -0.1600 
 21 C       -3.9650    -3.4400     1.4180 C.3   1 <1>   0.1200 
 22 C       -3.0410    -6.3120    -0.7880 C.3   1 <1>  -0.1600 
 23 O       -4.5840    -2.5810     0.5130 O.3   1 <1>  -0.6800 
 24 H        3.8060     0.0890     1.1360 H     1 <1>   0.0800 
 25 H        4.0590    -2.6210    -0.1830 H     1 <1>   0.0800 
 26 H        5.1500    -1.9440     1.0020 H     1 <1>   0.0800 
 27 H        5.0000    -1.2040    -0.5710 H     1 <1>   0.0800 
 28 H        2.1930    -2.4200     1.6080 H     1 <1>   0.0800 
 29 H        1.7800    -0.8320     2.2190 H     1 <1>   0.0800 
 30 H        3.2540    -1.6130     2.7260 H     1 <1>   0.0800 
 31 H       -1.8940    -3.9120    -1.7990 H     1 <1>   0.0800 
 32 H       -0.2610    -4.5490    -1.7840 H     1 <1>   0.0800 
 33 H       -0.9680    -0.8970     0.1510 H     1 <1>   0.0800 
 34 H       -2.2880    -1.5830    -0.7540 H     1 <1>   0.0800 
 35 H       -0.4480    -4.1490     0.7520 H     1 <1>   0.0800 
 36 H       -1.0160    -2.7740     1.7530 H     1 <1>   0.0800 
 37 H       -2.3900    -1.8610     1.6360 H     1 <1>   0.0800 
 38 H       -1.1950    -6.3160     1.2460 H     1 <1>   0.4500 
 39 H       -1.1590    -6.8930    -1.6160 H     1 <1>   0.0800 
 40 H       -1.6890    -7.8980    -0.2830 H     1 <1>   0.0800 
 41 H        0.9360    -5.9810    -0.7880 H     1 <1>   0.0800 
 42 H        0.8260    -7.2970     0.3630 H     1 <1>   0.0800 
 43 H        1.1050    -5.6590     0.9180 H     1 <1>   0.0800 
 44 H       -3.5430    -5.9680     1.2550 H     1 <1>   0.0800 
 45 H       -4.4530    -5.1380     0.0340 H     1 <1>   0.0800 
 46 H       -3.8120    -2.9160     2.3470 H     1 <1>   0.0800 
 47 H       -4.7120    -4.1560     1.7280 H     1 <1>   0.0800 
 48 H       -3.1200    -5.7940    -1.7280 H     1 <1>   0.0800 
 49 H       -3.7370    -7.1310    -0.8420 H     1 <1>   0.0800 
 50 H       -5.4210    -2.2250     0.8770 H     1 <1>   0.4000 
@<TRIPOS>BOND
  1   1   2  1   
  2   1   3  1   
  3   2   4  2   
  4   3   5  2   
  5   3   6  1   
  6   4   5  1   
  7   5   7  1   
  8   6   8  2   
  9   6   9  am  
 10   7  10  1   
 11   7  11  1   
 12   7  24  1   
 13   9  12  1   
 14   9  13  1   
 15  10  25  1   
 16  10  26  1   
 17  10  27  1   
 18  11  28  1   
 19  11  29  1   
 20  11  30  1   
 21  12  14  1   
 22  12  31  1   
 23  12  32  1   
 24  13  15  1   
 25  13  33  1   
 26  13  34  1   
 27  14  16  1   
 28  14  17  1   
 29  14  35  1   
 30  15  17  1   
 31  15  36  1   
 32  15  37  1   
 33  16  18  1   
 34  16  19  1   
 35  16  38  1   
 36  17  20  1   
 37  17  21  1   
 38  18  22  1   
 39  18  39  1   
 40  18  40  1   
 41  19  41  1   
 42  19  42  1   
 43  19  43  1   
 44  20  22  1   
 45  20  44  1   
 46  20  45  1   
 47  21  23  1   
 48  21  46  1   
 49  21  47  1   
 50  22  48  1   
 51  22  49  1   
 52  23  50  1   
@<TRIPOS>SUBSTRUCTURE
  1 ****   9 GROUP 4 **** **** 0

# MOE 2024.06 (io_trps.svl 2023.06)
