@<TRIPOS>MOLECULE
NONAME
55 58 1 0 0 
SMALL
USER_CHARGES


@<TRIPOS>ATOM
  1 O       -2.0060    -2.9580    -1.3770 O.co2 1 <1>  -0.9000 
  2 C       -2.9680    -2.3530    -0.9120 C.2   1 <1>   0.9060 
  3 O       -4.1540    -2.6360    -1.1700 O.co2 1 <1>  -0.9000 
  4 C       -2.7520    -1.1230    -0.0170 C.3   1 <1>   0.2370 
  5 N       -4.0410    -0.3390     0.0590 N.4   1 <1>  -0.9590 
  6 C       -4.5020     0.1650     1.3870 C.3   1 <1>   0.3430 
  7 C       -4.3060     0.5100    -1.1270 C.3   1 <1>   0.3430 
  8 C       -6.0490     0.1230     1.4680 C.3   1 <1>   0.2200 
  9 C       -5.8150     0.6620    -1.4140 C.3   1 <1>  -0.0800 
 10 N       -6.5910    -0.9060     0.4910 N.am  1 <1>  -0.6600 
 11 C       -6.6800     1.5160     1.3170 C.3   1 <1>   0.1200 
 12 C       -6.3550     2.0230    -0.9580 C.3   1 <1>   0.1200 
 13 C       -6.7070    -0.5180    -0.9600 C.3   1 <1>   0.1400 
 14 C       -6.6260    -2.2230     0.9240 C.2   1 <1>   0.5690 
 15 O       -6.0120     2.2810     0.3600 O.3   1 <1>  -0.5600 
 16 O       -6.2980    -2.4840     2.0600 O.2   1 <1>  -0.5700 
 17 C       -7.0020    -3.4120     0.0130 C.3   1 <1>   0.1710 
 18 N       -8.4480    -3.7930    -0.0430 N.3   1 <1>  -0.8100 
 19 C       -8.5940    -5.0000    -0.8790 C.3   1 <1>   0.2530 
 20 C       -9.3030    -2.6880    -0.5200 C.3   1 <1>   0.1100 
 21 C       -9.8680    -5.7720    -0.5710 C.ar  1 <1>  -0.1430 
 22 C      -10.8060    -2.9630    -0.3790 C.3   1 <1>   0.1200 
 23 C      -11.1190    -5.2270    -0.8340 C.ar  1 <1>   0.0830 
 24 C       -9.7940    -7.0600    -0.0600 C.ar  1 <1>  -0.1500 
 25 O      -11.2410    -3.9620    -1.2770 O.3   1 <1>  -0.3630 
 26 C      -12.2710    -5.9690    -0.6310 C.ar  1 <1>  -0.1500 
 27 C      -10.9460    -7.7980     0.1610 C.ar  1 <1>  -0.1500 
 28 C      -12.1860    -7.2560    -0.1310 C.ar  1 <1>  -0.1500 
 29 H       -1.9560    -0.5270    -0.4230 H     1 <1>   0.0800 
 30 H       -2.4700    -1.4790     0.9560 H     1 <1>   0.0800 
 31 H       -4.6960    -1.1390    -0.1200 H     1 <1>   0.4500 
 32 H       -4.1140    -0.4770     2.1600 H     1 <1>   0.0800 
 33 H       -4.1420     1.1640     1.5620 H     1 <1>   0.0800 
 34 H       -3.8520     1.4790    -0.9980 H     1 <1>   0.0800 
 35 H       -3.8520     0.0390    -1.9840 H     1 <1>   0.0800 
 36 H       -6.3090    -0.1860     2.4660 H     1 <1>   0.0800 
 37 H       -5.9010     0.6860    -2.4860 H     1 <1>   0.0800 
 38 H       -6.5780     2.0440     2.2490 H     1 <1>   0.0800 
 39 H       -7.7280     1.4530     1.0810 H     1 <1>   0.0800 
 40 H       -7.4250     2.0870    -1.0650 H     1 <1>   0.0800 
 41 H       -5.9130     2.8060    -1.5500 H     1 <1>   0.0800 
 42 H       -6.4460    -1.3570    -1.5790 H     1 <1>   0.0800 
 43 H       -7.7360    -0.2790    -1.1680 H     1 <1>   0.0800 
 44 H       -6.4540    -4.2540     0.3980 H     1 <1>   0.0800 
 45 H       -6.6300    -3.2550    -0.9810 H     1 <1>   0.0800 
 46 H       -8.5830    -4.7290    -1.9210 H     1 <1>   0.0800 
 47 H       -7.7570    -5.6560    -0.7090 H     1 <1>   0.0800 
 48 H       -9.0980    -1.8180     0.0760 H     1 <1>   0.0800 
 49 H       -9.0760    -2.4540    -1.5450 H     1 <1>   0.0800 
 50 H      -11.3590    -2.0710    -0.6110 H     1 <1>   0.0800 
 51 H      -11.0440    -3.2640     0.6270 H     1 <1>   0.0800 
 52 H       -8.8370    -7.4960     0.1660 H     1 <1>   0.1500 
 53 H      -13.2250    -5.5300    -0.8580 H     1 <1>   0.1500 
 54 H      -10.8760    -8.7960     0.5580 H     1 <1>   0.1500 
 55 H      -13.0800    -7.8310     0.0330 H     1 <1>   0.1500 
@<TRIPOS>BOND
  1   1   2  ar  
  2   2   3  ar  
  3   2   4  1   
  4   4   5  1   
  5   4  29  1   
  6   4  30  1   
  7   5   6  1   
  8   5   7  1   
  9   5  31  1   
 10   6   8  1   
 11   6  32  1   
 12   6  33  1   
 13   7   9  1   
 14   7  34  1   
 15   7  35  1   
 16   8  10  1   
 17   8  11  1   
 18   8  36  1   
 19   9  12  1   
 20   9  13  1   
 21   9  37  1   
 22  10  13  1   
 23  10  14  am  
 24  11  15  1   
 25  11  38  1   
 26  11  39  1   
 27  12  15  1   
 28  12  40  1   
 29  12  41  1   
 30  13  42  1   
 31  13  43  1   
 32  14  16  2   
 33  14  17  1   
 34  17  18  1   
 35  17  44  1   
 36  17  45  1   
 37  18  19  1   
 38  18  20  1   
 39  19  21  1   
 40  19  46  1   
 41  19  47  1   
 42  20  22  1   
 43  20  48  1   
 44  20  49  1   
 45  21  23  ar  
 46  21  24  ar  
 47  22  25  1   
 48  22  50  1   
 49  22  51  1   
 50  23  25  1   
 51  23  26  ar  
 52  24  27  ar  
 53  24  52  1   
 54  26  28  ar  
 55  26  53  1   
 56  27  28  ar  
 57  27  54  1   
 58  28  55  1   
@<TRIPOS>SUBSTRUCTURE
  1 ****  17 GROUP 4 **** **** 0

# MOE 2024.06 (io_trps.svl 2023.06)
