@<TRIPOS>MOLECULE
NONAME
52 54 1 0 0 
SMALL
USER_CHARGES


@<TRIPOS>ATOM
  1 O       -1.1070    -0.1710     0.8180 O.3   1 <1>  -0.3630 
  2 C       -0.4010     0.7240     0.0760 C.ar  1 <1>   0.0830 
  3 C       -1.9640    -1.1100     0.2200 C.3   1 <1>   0.1200 
  4 C        0.4560     1.5880     0.7520 C.ar  1 <1>  -0.1440 
  5 C       -0.5030     0.8040    -1.3110 C.ar  1 <1>  -0.1500 
  6 C       -2.5630    -1.9620     1.3400 C.3   1 <1>   0.3430 
  7 C        1.1970     2.5150     0.0360 C.ar  1 <1>  -0.1500 
  8 C        0.5920     1.5280     2.2670 C.3   1 <1>  -0.0960 
  9 C        0.2420     1.7350    -2.0120 C.ar  1 <1>  -0.1500 
 10 N       -3.4370    -3.0510     0.8090 N.4   1 <1>  -0.9590 
 11 C        1.0950     2.5950    -1.3430 C.ar  1 <1>  -0.1430 
 12 C       -4.6560    -2.6180     0.0630 C.3   1 <1>   0.3430 
 13 C       -3.8830    -4.0450     1.8120 C.3   1 <1>   0.3430 
 14 C        1.9160     3.6160    -2.1090 C.3   1 <1>  -0.0970 
 15 C       -5.6760    -3.7540     0.2250 C.3   1 <1>   0.2000 
 16 C       -5.0130    -4.8080     1.1210 C.3   1 <1>  -0.0800 
 17 O       -6.8110    -3.2660     0.8620 O.3   1 <1>  -0.6800 
 18 C       -4.5060    -6.0330     0.3230 C.3   1 <1>   0.0210 
 19 C       -3.2280    -5.8380    -0.4870 C.2   1 <1>   0.1080 
 20 N       -3.0220    -4.8670    -1.3290 N.2   1 <1>  -0.7070 
 21 C       -2.1440    -6.7060    -0.4210 C.2   1 <1>  -0.1500 
 22 N       -1.8050    -5.1290    -1.8630 N.pl3 1 <1>   0.3000 
 23 C       -1.2510    -6.2240    -1.3080 C.2   1 <1>  -0.3320 
 24 C        0.1170    -6.7690    -1.6830 C.3   1 <1>  -0.0600 
 25 H       -2.7290    -0.5720    -0.3110 H     1 <1>   0.0800 
 26 H       -1.3790    -1.7160    -0.4490 H     1 <1>   0.0800 
 27 H       -1.1520     0.1600    -1.8700 H     1 <1>   0.1500 
 28 H       -3.1320    -1.3270     1.9980 H     1 <1>   0.0800 
 29 H       -1.7530    -2.3990     1.9010 H     1 <1>   0.0800 
 30 H        1.8620     3.1830     0.5540 H     1 <1>   0.1500 
 31 H        1.2840     2.2690     2.6240 H     1 <1>   0.0800 
 32 H        0.9470     0.5580     2.5630 H     1 <1>   0.0800 
 33 H       -0.3640     1.7050     2.7260 H     1 <1>   0.0800 
 34 H        0.1580     1.7890    -3.0830 H     1 <1>   0.1500 
 35 H       -2.9120    -3.6190     0.1050 H     1 <1>   0.4500 
 36 H       -5.0580    -1.7060     0.4730 H     1 <1>   0.0800 
 37 H       -4.4220    -2.4790    -0.9800 H     1 <1>   0.0800 
 38 H       -3.0790    -4.7030     2.1020 H     1 <1>   0.0800 
 39 H       -4.2650    -3.5380     2.6830 H     1 <1>   0.0800 
 40 H        1.4430     3.8590    -3.0440 H     1 <1>   0.0800 
 41 H        2.8960     3.2200    -2.3080 H     1 <1>   0.0800 
 42 H        2.0160     4.5210    -1.5360 H     1 <1>   0.0800 
 43 H       -5.9790    -4.1450    -0.7320 H     1 <1>   0.0800 
 44 H       -5.7130    -5.1730     1.8530 H     1 <1>   0.0800 
 45 H       -6.6610    -3.0370     1.7990 H     1 <1>   0.4000 
 46 H       -5.2800    -6.3720    -0.3440 H     1 <1>   0.0800 
 47 H       -4.3310    -6.8360     1.0180 H     1 <1>   0.0800 
 48 H       -2.0600    -7.5820     0.1990 H     1 <1>   0.1500 
 49 H       -1.3850    -4.5640    -2.6140 H     1 <1>   0.2700 
 50 H        0.3340    -7.6530    -1.1100 H     1 <1>   0.0800 
 51 H        0.8810    -6.0380    -1.4850 H     1 <1>   0.0800 
 52 H        0.1420    -7.0280    -2.7270 H     1 <1>   0.0800 
@<TRIPOS>BOND
  1   1   2  1   
  2   1   3  1   
  3   2   4  ar  
  4   2   5  ar  
  5   3   6  1   
  6   3  25  1   
  7   3  26  1   
  8   4   7  ar  
  9   4   8  1   
 10   5   9  ar  
 11   5  27  1   
 12   6  10  1   
 13   6  28  1   
 14   6  29  1   
 15   7  11  ar  
 16   7  30  1   
 17   8  31  1   
 18   8  32  1   
 19   8  33  1   
 20   9  11  ar  
 21   9  34  1   
 22  10  12  1   
 23  10  13  1   
 24  10  35  1   
 25  11  14  1   
 26  12  15  1   
 27  12  36  1   
 28  12  37  1   
 29  13  16  1   
 30  13  38  1   
 31  13  39  1   
 32  14  40  1   
 33  14  41  1   
 34  14  42  1   
 35  15  16  1   
 36  15  17  1   
 37  15  43  1   
 38  16  18  1   
 39  16  44  1   
 40  17  45  1   
 41  18  19  1   
 42  18  46  1   
 43  18  47  1   
 44  19  20  2   
 45  19  21  1   
 46  20  22  1   
 47  21  23  2   
 48  21  48  1   
 49  22  23  1   
 50  22  49  1   
 51  23  24  1   
 52  24  50  1   
 53  24  51  1   
 54  24  52  1   
@<TRIPOS>SUBSTRUCTURE
  1 ****   3 GROUP 4 **** **** 0

# MOE 2024.06 (io_trps.svl 2023.06)
