@<TRIPOS>MOLECULE
NONAME
36 38 1 0 0 
SMALL
USER_CHARGES


@<TRIPOS>ATOM
  1 CL       0.0650     0.3800     1.5450 Cl    1 <1>  -0.1770 
  2 C        1.1360    -0.7610     0.7470 C.ar  1 <1>   0.1770 
  3 C        0.7900    -2.0960     0.5530 C.ar  1 <1>   0.4100 
  4 C        2.3590    -0.3380     0.3050 C.ar  1 <1>   0.1600 
  5 N        1.6390    -2.9200    -0.0410 N.ar  1 <1>  -0.6200 
  6 N       -0.4260    -2.6310     0.9440 N.pl3 1 <1>  -0.8380 
  7 N        3.2090    -1.1550    -0.2940 N.ar  1 <1>  -0.6200 
  8 C        2.7920    -2.4030    -0.4260 C.ar  1 <1>   0.4770 
  9 C       -0.5120    -4.0530     1.4020 C.3   1 <1>   0.2090 
 10 C       -1.6870    -2.1380     0.3080 C.3   1 <1>   0.2090 
 11 C        3.7460    -3.3550    -1.1060 C.3   1 <1>  -0.0960 
 12 C       -0.9670    -4.9870     0.2660 C.3   1 <1>   0.1400 
 13 C       -2.1320    -3.0700    -0.8320 C.3   1 <1>   0.1400 
 14 N       -2.2300    -4.4910    -0.3690 N.am  1 <1>  -0.6600 
 15 C       -3.4470    -5.1290    -0.2310 C.2   1 <1>   0.7150 
 16 O       -4.4600    -4.4520    -0.2740 O.2   1 <1>  -0.5700 
 17 C       -3.5270    -6.5630    -0.0490 C.2   1 <1>   0.0550 
 18 O       -4.4210    -7.1050     0.7740 O.3   1 <1>  -0.2800 
 19 C       -2.7980    -7.5720    -0.6080 C.2   1 <1>  -0.1500 
 20 C       -4.2820    -8.4110     0.7560 C.2   1 <1>  -0.0100 
 21 C       -3.2880    -8.7680    -0.0840 C.2   1 <1>  -0.1500 
 22 H        2.6530     0.6880     0.4430 H     1 <1>   0.1500 
 23 H       -1.2130    -4.1170     2.2160 H     1 <1>   0.0800 
 24 H        0.4470    -4.3760     1.7710 H     1 <1>   0.0800 
 25 H       -1.5420    -1.1480    -0.0870 H     1 <1>   0.0800 
 26 H       -2.4650    -2.0880     1.0500 H     1 <1>   0.0800 
 27 H        3.7090    -4.3150    -0.6260 H     1 <1>   0.0800 
 28 H        4.7510    -2.9790    -1.0520 H     1 <1>   0.0800 
 29 H        3.4660    -3.4630    -2.1360 H     1 <1>   0.0800 
 30 H       -1.1000    -5.9730     0.6690 H     1 <1>   0.0800 
 31 H       -0.1920    -5.0320    -0.4790 H     1 <1>   0.0800 
 32 H       -1.4110    -3.0120    -1.6290 H     1 <1>   0.0800 
 33 H       -3.0760    -2.7310    -1.2220 H     1 <1>   0.0800 
 34 H       -2.0000    -7.4840    -1.3240 H     1 <1>   0.1500 
 35 H       -4.9320    -9.0130     1.3680 H     1 <1>   0.1500 
 36 H       -2.9310    -9.7550    -0.3200 H     1 <1>   0.1500 
@<TRIPOS>BOND
  1   1   2  1   
  2   2   3  ar  
  3   2   4  ar  
  4   3   5  ar  
  5   3   6  1   
  6   4   7  ar  
  7   4  22  1   
  8   5   8  ar  
  9   6   9  1   
 10   6  10  1   
 11   7   8  ar  
 12   8  11  1   
 13   9  12  1   
 14   9  23  1   
 15   9  24  1   
 16  10  13  1   
 17  10  25  1   
 18  10  26  1   
 19  11  27  1   
 20  11  28  1   
 21  11  29  1   
 22  12  14  1   
 23  12  30  1   
 24  12  31  1   
 25  13  14  1   
 26  13  32  1   
 27  13  33  1   
 28  14  15  am  
 29  15  16  2   
 30  15  17  1   
 31  17  18  1   
 32  17  19  2   
 33  18  20  1   
 34  19  21  1   
 35  19  34  1   
 36  20  21  2   
 37  20  35  1   
 38  21  36  1   
@<TRIPOS>SUBSTRUCTURE
  1 ****  12 GROUP 4 **** **** 0

# MOE 2024.06 (io_trps.svl 2023.06)
