@<TRIPOS>MOLECULE
NONAME
55 56 1 0 0 
SMALL
USER_CHARGES


@<TRIPOS>ATOM
  1 O       -1.3080     1.6260     0.4100 O.2   1 <1>  -0.5700 
  2 C       -0.7380     2.6790     0.2860 C.2   1 <1>   0.5690 
  3 N       -1.4250     3.8450     0.3130 N.am  1 <1>  -0.7300 
  4 C        0.7830     2.7090     0.0690 C.3   1 <1>   0.1810 
  5 C       -0.7680     5.1640     0.2310 C.3   1 <1>   0.3640 
  6 O        1.3520     4.0000     0.2140 O.3   1 <1>  -0.5600 
  7 C       -1.7270     6.1500    -0.4310 C.ar  1 <1>  -0.1440 
  8 C        0.6200     5.0250    -0.4400 C.3   1 <1>   0.2610 
  9 C       -2.5390     6.9370     0.3750 C.ar  1 <1>  -0.1500 
 10 C       -1.8260     6.2810    -1.8110 C.ar  1 <1>  -0.1500 
 11 C        1.3850     6.3490    -0.3950 C.2   1 <1>   0.5690 
 12 C       -3.4170     7.8500    -0.1820 C.ar  1 <1>  -0.1500 
 13 C       -2.7020     7.1960    -2.3690 C.ar  1 <1>  -0.1500 
 14 O        1.2280     7.1610    -1.2750 O.2   1 <1>  -0.5700 
 15 N        2.2440     6.6040     0.6300 N.am  1 <1>  -0.7300 
 16 C       -3.4960     7.9830    -1.5550 C.ar  1 <1>  -0.1500 
 17 C        3.2430     7.7130     0.6970 C.3   1 <1>   0.1400 
 18 C        2.6140     9.0780     1.0520 C.3   1 <1>   0.3430 
 19 N        1.7250     9.5980    -0.0460 N.4   1 <1>  -0.9590 
 20 C        2.5680    10.4130    -0.9740 C.3   1 <1>   0.4230 
 21 C        0.4150    10.1750     0.4120 C.3   1 <1>   0.4230 
 22 C        2.4710    11.9130    -0.7000 C.3   1 <1>  -0.2400 
 23 C        2.2860    10.0660    -2.4320 C.3   1 <1>  -0.2400 
 24 C       -0.2120     9.3280     1.5250 C.3   1 <1>  -0.2400 
 25 C       -0.5730    10.2240    -0.7530 C.3   1 <1>  -0.2400 
 26 H       -2.4420     3.8230     0.4150 H     1 <1>   0.3700 
 27 H        1.0050     2.3510    -0.9200 H     1 <1>   0.0800 
 28 H        1.2560     2.0580     0.7830 H     1 <1>   0.0800 
 29 H       -0.5970     5.5020     1.2380 H     1 <1>   0.0800 
 30 H        0.5080     4.7410    -1.4700 H     1 <1>   0.0800 
 31 H       -2.5020     6.8410     1.4470 H     1 <1>   0.1500 
 32 H       -1.2310     5.6770    -2.4730 H     1 <1>   0.1500 
 33 H       -4.0450     8.4530     0.4520 H     1 <1>   0.1500 
 34 H       -2.7690     7.2930    -3.4390 H     1 <1>   0.1500 
 35 H        2.4380     5.7970     1.2400 H     1 <1>   0.3700 
 36 H       -4.1800     8.6910    -1.9920 H     1 <1>   0.1500 
 37 H        3.9720     7.4650     1.4500 H     1 <1>   0.0800 
 38 H        3.7630     7.7830    -0.2440 H     1 <1>   0.0800 
 39 H        3.3990     9.7910     1.2410 H     1 <1>   0.0800 
 40 H        2.0750     8.9540     1.9710 H     1 <1>   0.0800 
 41 H        1.4540     8.7550    -0.5930 H     1 <1>   0.4500 
 42 H        3.5980    10.1380    -0.8070 H     1 <1>   0.0800 
 43 H        0.5640    11.1730     0.7910 H     1 <1>   0.0800 
 44 H        1.5120    12.3100    -0.9770 H     1 <1>   0.0800 
 45 H        3.2110    12.4280    -1.2860 H     1 <1>   0.0800 
 46 H        2.6670    12.1250     0.3350 H     1 <1>   0.0800 
 47 H        1.2990    10.3420    -2.7440 H     1 <1>   0.0800 
 48 H        2.4300     9.0150    -2.6060 H     1 <1>   0.0800 
 49 H        2.9800    10.5930    -3.0610 H     1 <1>   0.0800 
 50 H       -0.2110     8.2870     1.2600 H     1 <1>   0.0800 
 51 H       -1.2330     9.6280     1.6850 H     1 <1>   0.0800 
 52 H        0.2910     9.4740     2.4610 H     1 <1>   0.0800 
 53 H       -0.6330     9.2710    -1.2500 H     1 <1>   0.0800 
 54 H       -0.3120    10.9890    -1.4560 H     1 <1>   0.0800 
 55 H       -1.5570    10.4710    -0.3960 H     1 <1>   0.0800 
@<TRIPOS>BOND
  1   1   2  2   
  2   2   3  am  
  3   2   4  1   
  4   3   5  1   
  5   3  26  1   
  6   4   6  1   
  7   4  27  1   
  8   4  28  1   
  9   5   7  1   
 10   5   8  1   
 11   5  29  1   
 12   6   8  1   
 13   7   9  ar  
 14   7  10  ar  
 15   8  11  1   
 16   8  30  1   
 17   9  12  ar  
 18   9  31  1   
 19  10  13  ar  
 20  10  32  1   
 21  11  14  2   
 22  11  15  am  
 23  12  16  ar  
 24  12  33  1   
 25  13  16  ar  
 26  13  34  1   
 27  15  17  1   
 28  15  35  1   
 29  16  36  1   
 30  17  18  1   
 31  17  37  1   
 32  17  38  1   
 33  18  19  1   
 34  18  39  1   
 35  18  40  1   
 36  19  20  1   
 37  19  21  1   
 38  19  41  1   
 39  20  22  1   
 40  20  23  1   
 41  20  42  1   
 42  21  24  1   
 43  21  25  1   
 44  21  43  1   
 45  22  44  1   
 46  22  45  1   
 47  22  46  1   
 48  23  47  1   
 49  23  48  1   
 50  23  49  1   
 51  24  50  1   
 52  24  51  1   
 53  24  52  1   
 54  25  53  1   
 55  25  54  1   
 56  25  55  1   
@<TRIPOS>SUBSTRUCTURE
  1 ****  11 GROUP 4 **** **** 0

# MOE 2024.06 (io_trps.svl 2023.06)
