@<TRIPOS>MOLECULE
NONAME
64 66 1 0 0 
SMALL
USER_CHARGES


@<TRIPOS>ATOM
  1 O        0.0570     0.4300     2.4790 O.2   1 <1>  -0.5700 
  2 C       -0.0340     1.2250     1.5620 C.2   1 <1>   0.5440 
  3 N       -1.1280     1.1700     0.7240 N.am  1 <1>  -0.6600 
  4 C        1.0110     2.2120     1.3640 C.ar  1 <1>   0.0860 
  5 C       -1.1640     1.8570    -0.6010 C.3   1 <1>   0.1400 
  6 C       -2.4090     0.5740     1.1810 C.3   1 <1>   0.1400 
  7 C        2.2910     1.8960     0.8890 C.ar  1 <1>  -0.1440 
  8 C        0.7180     3.5420     1.6590 C.ar  1 <1>  -0.1500 
  9 C       -2.5940     2.2440    -1.0080 C.3   1 <1>  -0.1600 
 10 C       -3.5080     1.6470     1.2540 C.3   1 <1>  -0.1600 
 11 C        3.2490     2.9010     0.7260 C.ar  1 <1>   0.1170 
 12 C        2.6390     0.4440     0.5470 C.3   1 <1>  -0.0960 
 13 C        1.6560     4.5390     1.4900 C.ar  1 <1>  -0.1500 
 14 C       -3.4160     2.7740     0.1950 C.3   1 <1>   0.2800 
 15 N        4.5440     2.5780     0.2940 N.am  1 <1>  -0.5470 
 16 C        2.9140     4.2160     1.0260 C.ar  1 <1>  -0.1500 
 17 O       -2.6800     3.8140     0.7920 O.3   1 <1>  -0.5600 
 18 C       -4.8620     3.2820    -0.1500 C.3   1 <1>   0.2000 
 19 C        5.4330     3.2780    -0.4780 C.2   1 <1>   0.5690 
 20 C       -2.4660     5.0100     0.0960 C.3   1 <1>   0.1200 
 21 O       -5.3420     2.6310    -1.3010 O.3   1 <1>  -0.6800 
 22 C       -4.9850     4.8320    -0.2790 C.3   1 <1>   0.2800 
 23 O        5.1690     4.3610    -0.9450 O.2   1 <1>  -0.5700 
 24 C        6.8120     2.6240    -0.7550 C.3   1 <1>   0.0610 
 25 C       -3.6650     5.4290    -0.7700 C.3   1 <1>  -0.1600 
 26 O       -5.2360     5.3580     0.9750 O.3   1 <1>  -0.6800 
 27 C       -6.1610     5.3050    -1.1440 C.3   1 <1>  -0.2400 
 28 C        6.6320     1.2560    -1.4440 C.3   1 <1>  -0.2400 
 29 C        7.6880     3.5000    -1.6740 C.3   1 <1>  -0.2400 
 30 C        7.5780     2.4140     0.5660 C.3   1 <1>  -0.2400 
 31 H       -0.5680     2.7510    -0.5610 H     1 <1>   0.0800 
 32 H       -0.7370     1.2080    -1.3450 H     1 <1>   0.0800 
 33 H       -2.6930    -0.1920     0.4800 H     1 <1>   0.0800 
 34 H       -2.2960     0.1090     2.1450 H     1 <1>   0.0800 
 35 H       -0.2660     3.7850     2.0250 H     1 <1>   0.1500 
 36 H       -3.0750     1.3700    -1.4080 H     1 <1>   0.0800 
 37 H       -2.5540     2.9640    -1.8020 H     1 <1>   0.0800 
 38 H       -3.5130     2.0860     2.2360 H     1 <1>   0.0800 
 39 H       -4.4410     1.1250     1.1440 H     1 <1>   0.0800 
 40 H        1.7600    -0.1430     0.3490 H     1 <1>   0.0800 
 41 H        3.1610    -0.0070     1.3720 H     1 <1>   0.0800 
 42 H        3.2530     0.3910    -0.3330 H     1 <1>   0.0800 
 43 H        1.4100     5.5610     1.7210 H     1 <1>   0.1500 
 44 H        4.8550     1.6470     0.5600 H     1 <1>   0.3700 
 45 H        3.6450     4.9950     0.9030 H     1 <1>   0.1500 
 46 H       -5.5330     2.9860     0.6380 H     1 <1>   0.0800 
 47 H       -2.2790     5.7630     0.8430 H     1 <1>   0.0800 
 48 H       -1.5790     4.9030    -0.5030 H     1 <1>   0.0800 
 49 H       -4.8310     2.9100    -2.0820 H     1 <1>   0.4000 
 50 H       -3.4890     5.1010    -1.7770 H     1 <1>   0.0800 
 51 H       -3.7240     6.5020    -0.8060 H     1 <1>   0.0800 
 52 H       -5.3240     6.3250     0.9180 H     1 <1>   0.4000 
 53 H       -6.0240     5.0050    -2.1660 H     1 <1>   0.0800 
 54 H       -6.2500     6.3760    -1.1230 H     1 <1>   0.0800 
 55 H       -7.0770     4.8660    -0.7880 H     1 <1>   0.0800 
 56 H        7.5880     0.8210    -1.6780 H     1 <1>   0.0800 
 57 H        6.0820     1.3760    -2.3610 H     1 <1>   0.0800 
 58 H        6.0980     0.5680    -0.8150 H     1 <1>   0.0800 
 59 H        8.6420     3.0380    -1.8590 H     1 <1>   0.0800 
 60 H        7.8580     4.4620    -1.2220 H     1 <1>   0.0800 
 61 H        7.1970     3.6600    -2.6180 H     1 <1>   0.0800 
 62 H        8.5480     1.9880     0.3800 H     1 <1>   0.0800 
 63 H        7.0420     1.7560     1.2260 H     1 <1>   0.0800 
 64 H        7.7120     3.3570     1.0660 H     1 <1>   0.0800 
@<TRIPOS>BOND
  1   1   2  2   
  2   2   3  am  
  3   2   4  1   
  4   3   5  1   
  5   3   6  1   
  6   4   7  ar  
  7   4   8  ar  
  8   5   9  1   
  9   5  31  1   
 10   5  32  1   
 11   6  10  1   
 12   6  33  1   
 13   6  34  1   
 14   7  11  ar  
 15   7  12  1   
 16   8  13  ar  
 17   8  35  1   
 18   9  14  1   
 19   9  36  1   
 20   9  37  1   
 21  10  14  1   
 22  10  38  1   
 23  10  39  1   
 24  11  15  1   
 25  11  16  ar  
 26  12  40  1   
 27  12  41  1   
 28  12  42  1   
 29  13  16  ar  
 30  13  43  1   
 31  14  17  1   
 32  14  18  1   
 33  15  19  am  
 34  15  44  1   
 35  16  45  1   
 36  17  20  1   
 37  18  21  1   
 38  18  22  1   
 39  18  46  1   
 40  19  23  2   
 41  19  24  1   
 42  20  25  1   
 43  20  47  1   
 44  20  48  1   
 45  21  49  1   
 46  22  25  1   
 47  22  26  1   
 48  22  27  1   
 49  24  28  1   
 50  24  29  1   
 51  24  30  1   
 52  25  50  1   
 53  25  51  1   
 54  26  52  1   
 55  27  53  1   
 56  27  54  1   
 57  27  55  1   
 58  28  56  1   
 59  28  57  1   
 60  28  58  1   
 61  29  59  1   
 62  29  60  1   
 63  29  61  1   
 64  30  62  1   
 65  30  63  1   
 66  30  64  1   
@<TRIPOS>SUBSTRUCTURE
  1 ****   4 GROUP 4 **** **** 0

# MOE 2024.06 (io_trps.svl 2023.06)
