@<TRIPOS>MOLECULE
NONAME
49 51 1 0 0 
SMALL
USER_CHARGES


@<TRIPOS>ATOM
  1 O       -1.3990     1.0820    -2.0240 O.2   1 <1>  -0.5700 
  2 C       -0.9060     1.9500    -1.3500 C.2   1 <1>   0.5690 
  3 N       -1.6840     2.7890    -0.6290 N.am  1 <1>  -0.7300 
  4 C        0.6180     2.1310    -1.3280 C.3   1 <1>   0.1810 
  5 C       -1.1320     3.8170     0.2820 C.3   1 <1>   0.3640 
  6 O        1.0820     2.9360    -0.2620 O.3   1 <1>  -0.5600 
  7 C       -1.9920     5.0760     0.2040 C.ar  1 <1>  -0.1440 
  8 C        0.3420     4.1310    -0.0670 C.3   1 <1>   0.2610 
  9 C       -2.2540     5.6970    -1.0080 C.ar  1 <1>  -0.1500 
 10 C       -2.5050     5.6340     1.3630 C.ar  1 <1>  -0.1500 
 11 C        0.9740     5.0370     1.0020 C.2   1 <1>   0.5690 
 12 C       -3.0000     6.8610    -1.0770 C.ar  1 <1>   0.0820 
 13 C       -3.2530     6.7970     1.3150 C.ar  1 <1>  -0.1500 
 14 O        0.5840     4.9550     2.1480 O.2   1 <1>  -0.5700 
 15 N        1.9180     5.9670     0.6460 N.am  1 <1>  -0.6600 
 16 O       -3.1750     7.3550    -2.3350 O.3   1 <1>  -0.3620 
 17 C       -3.5000     7.4370     0.1030 C.ar  1 <1>   0.0820 
 18 C        2.0300     7.2230     1.4340 C.3   1 <1>   0.3200 
 19 C        2.6440     5.9700    -0.6550 C.3   1 <1>   0.0600 
 20 C       -4.3680     8.0140    -2.6970 C.3   1 <1>   0.0400 
 21 O       -4.1890     8.6150     0.0500 O.3   1 <1>  -0.3630 
 22 C        1.1080     8.2630     0.8200 C.2   1 <1>  -0.0400 
 23 C       -4.6080     9.2940     1.2130 C.3   1 <1>   0.0400 
 24 O        1.5240     8.9810    -0.2080 O.3   1 <1>  -0.2800 
 25 C       -0.1620     8.5910     1.1420 C.2   1 <1>  -0.1500 
 26 C        0.5310     9.7700    -0.5670 C.2   1 <1>  -0.0100 
 27 C       -0.5430     9.5790     0.2270 C.2   1 <1>  -0.1500 
 28 H       -2.6980     2.6720    -0.6490 H     1 <1>   0.3700 
 29 H        0.9330     2.5810    -2.2510 H     1 <1>   0.0800 
 30 H        1.0880     1.1680    -1.2360 H     1 <1>   0.0800 
 31 H       -1.1710     3.4230     1.2840 H     1 <1>   0.0800 
 32 H        0.3530     4.6690    -0.9960 H     1 <1>   0.0800 
 33 H       -1.8780     5.2820    -1.9260 H     1 <1>   0.1500 
 34 H       -2.3130     5.1700     2.3170 H     1 <1>   0.1500 
 35 H       -3.6260     7.1880     2.2420 H     1 <1>   0.1500 
 36 H        1.7400     7.0480     2.4550 H     1 <1>   0.0800 
 37 H        3.0450     7.5780     1.4310 H     1 <1>   0.0800 
 38 H        3.6330     6.3710    -0.5200 H     1 <1>   0.0800 
 39 H        2.1140     6.5810    -1.3660 H     1 <1>   0.0800 
 40 H        2.7340     4.9690    -1.0390 H     1 <1>   0.0800 
 41 H       -4.4600     7.9760    -3.7670 H     1 <1>   0.0800 
 42 H       -4.3110     9.0370    -2.3730 H     1 <1>   0.0800 
 43 H       -5.2010     7.5130    -2.2360 H     1 <1>   0.0800 
 44 H       -5.0810    10.2110     0.9120 H     1 <1>   0.0800 
 45 H       -3.7470     9.5100     1.8220 H     1 <1>   0.0800 
 46 H       -5.3120     8.6780     1.7430 H     1 <1>   0.0800 
 47 H       -0.7820     8.1840     1.9200 H     1 <1>   0.1500 
 48 H        0.6710    10.4360    -1.4010 H     1 <1>   0.1500 
 49 H       -1.5070    10.0560     0.1870 H     1 <1>   0.1500 
@<TRIPOS>BOND
  1   1   2  2   
  2   2   3  am  
  3   2   4  1   
  4   3   5  1   
  5   3  28  1   
  6   4   6  1   
  7   4  29  1   
  8   4  30  1   
  9   5   7  1   
 10   5   8  1   
 11   5  31  1   
 12   6   8  1   
 13   7   9  ar  
 14   7  10  ar  
 15   8  11  1   
 16   8  32  1   
 17   9  12  ar  
 18   9  33  1   
 19  10  13  ar  
 20  10  34  1   
 21  11  14  2   
 22  11  15  am  
 23  12  16  1   
 24  12  17  ar  
 25  13  17  ar  
 26  13  35  1   
 27  15  18  1   
 28  15  19  1   
 29  16  20  1   
 30  17  21  1   
 31  18  22  1   
 32  18  36  1   
 33  18  37  1   
 34  19  38  1   
 35  19  39  1   
 36  19  40  1   
 37  20  41  1   
 38  20  42  1   
 39  20  43  1   
 40  21  23  1   
 41  22  24  1   
 42  22  25  2   
 43  23  44  1   
 44  23  45  1   
 45  23  46  1   
 46  24  26  1   
 47  25  27  1   
 48  25  47  1   
 49  26  27  2   
 50  26  48  1   
 51  27  49  1   
@<TRIPOS>SUBSTRUCTURE
  1 ****   7 GROUP 4 **** **** 0

# MOE 2024.06 (io_trps.svl 2023.06)
