@<TRIPOS>MOLECULE
NONAME
46 47 1 0 0 
SMALL
USER_CHARGES


@<TRIPOS>ATOM
  1 CL      -2.4570    -0.2210    -2.5950 Cl    1 <1>  -0.1770 
  2 C       -2.6460     0.5560    -1.0410 C.ar  1 <1>   0.1770 
  3 C       -2.8780    -0.2140     0.0890 C.ar  1 <1>  -0.1440 
  4 C       -2.5720     1.9340    -0.9760 C.ar  1 <1>  -0.1500 
  5 C       -3.0310     0.4290     1.3090 C.ar  1 <1>  -0.1500 
  6 C       -2.9600    -1.7240    -0.0100 C.3   1 <1>   0.4870 
  7 C       -2.7330     2.5700     0.2430 C.ar  1 <1>  -0.1440 
  8 C       -2.9600     1.8110     1.3810 C.ar  1 <1>  -0.1500 
  9 N       -4.1860    -2.1010    -0.7680 N.4   1 <1>  -0.9590 
 10 C       -2.6530     4.0830     0.3390 C.3   1 <1>  -0.0970 
 11 C       -5.4510    -1.5900    -0.1420 C.3   1 <1>   0.3430 
 12 C       -4.3160    -3.5770    -0.9510 C.3   1 <1>   0.3430 
 13 C       -6.4170    -2.7770    -0.1190 C.3   1 <1>   0.2000 
 14 C       -5.5260    -4.0100    -0.1200 C.3   1 <1>  -0.0800 
 15 O       -7.2260    -2.7760     1.0050 O.3   1 <1>  -0.6800 
 16 C       -6.2450    -5.2680    -0.6550 C.3   1 <1>  -0.0550 
 17 S       -5.1900    -6.7200    -0.7050 S.o2  1 <1>   1.3330 
 18 O       -4.0390    -6.3460    -1.4970 O.2   1 <1>  -0.6500 
 19 O       -5.9770    -7.8800    -1.0430 O.2   1 <1>  -0.6500 
 20 N       -4.6720    -6.8650     0.9040 N.am  1 <1>  -0.8490 
 21 C       -5.6880    -7.4720     1.7770 C.3   1 <1>   0.1160 
 22 C       -3.4390    -7.6590     1.0010 C.3   1 <1>   0.1160 
 23 H       -2.3900     2.5000    -1.8730 H     1 <1>   0.1500 
 24 H       -3.2020    -0.1280     2.2160 H     1 <1>   0.1500 
 25 H       -2.9860    -2.1530     0.9780 H     1 <1>   0.0800 
 26 H       -2.0840    -2.0940    -0.5190 H     1 <1>   0.0800 
 27 H       -3.0780     2.3010     2.3340 H     1 <1>   0.1500 
 28 H       -4.0800    -1.6630    -1.6970 H     1 <1>   0.4500 
 29 H       -3.3530     4.4520     1.0680 H     1 <1>   0.0800 
 30 H       -2.8820     4.5380    -0.6080 H     1 <1>   0.0800 
 31 H       -1.6610     4.3790     0.6320 H     1 <1>   0.0800 
 32 H       -5.2600    -1.2630     0.8670 H     1 <1>   0.0800 
 33 H       -5.8620    -0.7720    -0.7110 H     1 <1>   0.0800 
 34 H       -4.4970    -3.7960    -1.9920 H     1 <1>   0.0800 
 35 H       -3.4250    -4.1040    -0.6440 H     1 <1>   0.0800 
 36 H       -7.0520    -2.7430    -0.9890 H     1 <1>   0.0800 
 37 H       -5.1740    -4.2000     0.8800 H     1 <1>   0.0800 
 38 H       -6.7380    -2.9560     1.8330 H     1 <1>   0.4000 
 39 H       -6.6150    -5.0770    -1.6440 H     1 <1>   0.0800 
 40 H       -7.0950    -5.4730    -0.0320 H     1 <1>   0.0800 
 41 H       -5.3370    -7.4940     2.7950 H     1 <1>   0.0800 
 42 H       -5.9040    -8.4810     1.4630 H     1 <1>   0.0800 
 43 H       -6.6000    -6.9020     1.7480 H     1 <1>   0.0800 
 44 H       -3.1210    -7.7330     2.0270 H     1 <1>   0.0800 
 45 H       -2.6490    -7.1920     0.4370 H     1 <1>   0.0800 
 46 H       -3.6000    -8.6510     0.6100 H     1 <1>   0.0800 
@<TRIPOS>BOND
  1   1   2  1   
  2   2   3  ar  
  3   2   4  ar  
  4   3   5  ar  
  5   3   6  1   
  6   4   7  ar  
  7   4  23  1   
  8   5   8  ar  
  9   5  24  1   
 10   6   9  1   
 11   6  25  1   
 12   6  26  1   
 13   7   8  ar  
 14   7  10  1   
 15   8  27  1   
 16   9  11  1   
 17   9  12  1   
 18   9  28  1   
 19  10  29  1   
 20  10  30  1   
 21  10  31  1   
 22  11  13  1   
 23  11  32  1   
 24  11  33  1   
 25  12  14  1   
 26  12  34  1   
 27  12  35  1   
 28  13  14  1   
 29  13  15  1   
 30  13  36  1   
 31  14  16  1   
 32  14  37  1   
 33  15  38  1   
 34  16  17  1   
 35  16  39  1   
 36  16  40  1   
 37  17  18  2   
 38  17  19  2   
 39  17  20  am  
 40  20  21  1   
 41  20  22  1   
 42  21  41  1   
 43  21  42  1   
 44  21  43  1   
 45  22  44  1   
 46  22  45  1   
 47  22  46  1   
@<TRIPOS>SUBSTRUCTURE
  1 ****   9 GROUP 4 **** **** 0

# MOE 2024.06 (io_trps.svl 2023.06)
