@<TRIPOS>MOLECULE
NONAME
46 49 1 0 0 
SMALL
USER_CHARGES


@<TRIPOS>ATOM
  1 F        0.3300    -1.0680    -0.6570 F     1 <1>  -0.1900 
  2 C       -0.4790    -2.0610    -0.3850 C.ar  1 <1>   0.1900 
  3 C       -0.0480    -3.3930    -0.3910 C.ar  1 <1>   0.0820 
  4 C       -1.7850    -1.7260    -0.0870 C.ar  1 <1>  -0.1500 
  5 O        1.2090    -3.8480    -0.6670 O.3   1 <1>  -0.3630 
  6 C       -0.9820    -4.3700    -0.0860 C.ar  1 <1>  -0.1500 
  7 C       -2.6890    -2.7280     0.2140 C.ar  1 <1>  -0.1500 
  8 C        2.2630    -2.9990    -1.0620 C.3   1 <1>   0.0400 
  9 C       -2.3120    -4.0730     0.2200 C.ar  1 <1>   0.0530 
 10 C       -3.2470    -5.1300     0.5310 C.2   1 <1>   0.0870 
 11 O       -2.8100    -6.2490     1.0560 O.3   1 <1>  -0.0190 
 12 C       -4.5900    -5.2650     0.3880 C.2   1 <1>  -0.2330 
 13 N       -3.7630    -7.1140     1.2730 N.2   1 <1>  -0.4100 
 14 C       -4.8540    -6.5510     0.8750 C.2   1 <1>   0.3720 
 15 C       -5.5340    -4.3370    -0.1450 C.2   1 <1>   1.0330 
 16 N       -6.1140    -7.1770     0.9470 N.pl3 1 <1>  -0.8210 
 17 O       -5.9340    -3.3730     0.5320 O.co2 1 <1>  -0.9000 
 18 O       -5.9320    -4.4440    -1.3190 O.co2 1 <1>  -0.9000 
 19 C       -6.2030    -8.5780     1.4480 C.3   1 <1>   0.2090 
 20 C       -6.9730    -7.0480    -0.2610 C.3   1 <1>   0.2090 
 21 C       -6.8660    -9.3860     0.3270 C.3   1 <1>   0.0000 
 22 C       -7.7610    -8.3490    -0.3550 C.3   1 <1>  -0.1600 
 23 C       -7.6400   -10.6210     0.7950 C.3   1 <1>  -0.1600 
 24 C       -5.8500    -9.9720    -0.6630 C.3   1 <1>  -0.1600 
 25 C       -7.7500   -11.5140    -0.4420 C.3   1 <1>  -0.1600 
 26 C       -6.5640   -11.1450    -1.3430 C.3   1 <1>  -0.1600 
 27 H       -2.0960    -0.6970    -0.0900 H     1 <1>   0.1500 
 28 H       -0.6650    -5.3970    -0.0900 H     1 <1>   0.1500 
 29 H       -3.7030    -2.4580     0.4530 H     1 <1>   0.1500 
 30 H        3.1290    -3.6080    -1.2520 H     1 <1>   0.0800 
 31 H        2.4720    -2.3070    -0.2660 H     1 <1>   0.0800 
 32 H        1.9770    -2.4810    -1.9600 H     1 <1>   0.0800 
 33 H       -6.8320    -8.5770     2.3200 H     1 <1>   0.0800 
 34 H       -5.2480    -8.9910     1.7170 H     1 <1>   0.0800 
 35 H       -6.3550    -6.9280    -1.1350 H     1 <1>   0.0800 
 36 H       -7.6260    -6.1960    -0.1730 H     1 <1>   0.0800 
 37 H       -7.9970    -8.5910    -1.3750 H     1 <1>   0.0800 
 38 H       -8.6760    -8.2240     0.1940 H     1 <1>   0.0800 
 39 H       -8.6030   -10.3750     1.2060 H     1 <1>   0.0800 
 40 H       -7.0630   -11.1340     1.5450 H     1 <1>   0.0800 
 41 H       -5.0010   -10.3520    -0.1210 H     1 <1>   0.0800 
 42 H       -5.4950    -9.2430    -1.3720 H     1 <1>   0.0800 
 43 H       -8.6700   -11.3010    -0.9590 H     1 <1>   0.0800 
 44 H       -7.7350   -12.5560    -0.1730 H     1 <1>   0.0800 
 45 H       -5.8920   -11.9770    -1.4650 H     1 <1>   0.0800 
 46 H       -6.9240   -10.8450    -2.3130 H     1 <1>   0.0800 
@<TRIPOS>BOND
  1   1   2  1   
  2   2   3  ar  
  3   2   4  ar  
  4   3   5  1   
  5   3   6  ar  
  6   4   7  ar  
  7   4  27  1   
  8   5   8  1   
  9   6   9  ar  
 10   6  28  1   
 11   7   9  ar  
 12   7  29  1   
 13   8  30  1   
 14   8  31  1   
 15   8  32  1   
 16   9  10  1   
 17  10  11  1   
 18  10  12  2   
 19  11  13  1   
 20  12  14  1   
 21  12  15  1   
 22  13  14  2   
 23  14  16  1   
 24  15  17  ar  
 25  15  18  ar  
 26  16  19  1   
 27  16  20  1   
 28  19  21  1   
 29  19  33  1   
 30  19  34  1   
 31  20  22  1   
 32  20  35  1   
 33  20  36  1   
 34  21  22  1   
 35  21  23  1   
 36  21  24  1   
 37  22  37  1   
 38  22  38  1   
 39  23  25  1   
 40  23  39  1   
 41  23  40  1   
 42  24  26  1   
 43  24  41  1   
 44  24  42  1   
 45  25  26  1   
 46  25  43  1   
 47  25  44  1   
 48  26  45  1   
 49  26  46  1   
@<TRIPOS>SUBSTRUCTURE
  1 ****  12 GROUP 4 **** **** 0

# MOE 2024.06 (io_trps.svl 2023.06)
