@<TRIPOS>MOLECULE
NONAME
46 48 1 0 0 
SMALL
USER_CHARGES


@<TRIPOS>ATOM
  1 O       -1.3500     0.2880     1.1460 O.2   1 <1>  -0.5700 
  2 C       -2.5280     0.4920     1.2760 C.2   1 <1>   0.4230 
  3 C       -3.5230    -0.2300     0.5340 C.ar  1 <1>   0.0860 
  4 C       -2.9280     1.5100     2.3260 C.3   1 <1>  -0.1790 
  5 C       -4.6630     0.3060    -0.0600 C.ar  1 <1>   0.1660 
  6 C       -3.3770    -1.5960     0.3700 C.ar  1 <1>   0.1600 
  7 N       -5.5550    -0.4380    -0.6600 N.ar  1 <1>  -0.6200 
  8 C       -4.9540     1.7980    -0.0860 C.3   1 <1>  -0.0960 
  9 N       -4.2530    -2.3560    -0.2340 N.ar  1 <1>  -0.6200 
 10 C       -5.3340    -1.7510    -0.7210 C.ar  1 <1>   0.7200 
 11 N       -6.2870    -2.5330    -1.3320 N.pl3 1 <1>  -0.8380 
 12 C       -6.2470    -4.0230    -1.3130 C.3   1 <1>   0.2090 
 13 C       -7.5110    -1.9730    -1.9720 C.3   1 <1>   0.2090 
 14 C       -7.4660    -4.5490    -0.5550 C.3   1 <1>  -0.1600 
 15 C       -8.7410    -2.4720    -1.2160 C.3   1 <1>  -0.1600 
 16 C       -8.7630    -3.9990    -1.1620 C.3   1 <1>   0.2000 
 17 O       -9.8400    -4.3630    -0.3620 O.3   1 <1>  -0.5600 
 18 C      -10.3560    -5.6470    -0.5950 C.3   1 <1>   0.2630 
 19 C      -11.5330    -5.9740     0.3210 C.ar  1 <1>   0.1670 
 20 N      -12.0940    -7.1590     0.1110 N.ar  1 <1>  -0.6200 
 21 C      -11.9650    -5.0830     1.2960 C.ar  1 <1>  -0.1500 
 22 C      -13.1170    -7.4620     0.8960 C.ar  1 <1>   0.1600 
 23 C      -13.0310    -5.4130     2.1060 C.ar  1 <1>  -0.1500 
 24 C      -13.6170    -6.6400     1.8910 C.ar  1 <1>  -0.1500 
 25 H       -3.9480     1.3660     2.6320 H     1 <1>   0.0800 
 26 H       -2.8000     2.5040     1.9390 H     1 <1>   0.0800 
 27 H       -2.2960     1.3970     3.1880 H     1 <1>   0.0800 
 28 H       -2.4940    -2.0690     0.7690 H     1 <1>   0.1500 
 29 H       -4.0470     2.3670    -0.1690 H     1 <1>   0.0800 
 30 H       -5.4850     2.0840     0.8030 H     1 <1>   0.0800 
 31 H       -5.5680     2.0350    -0.9360 H     1 <1>   0.0800 
 32 H       -5.3530    -4.3950    -0.8440 H     1 <1>   0.0800 
 33 H       -6.2570    -4.3840    -2.3270 H     1 <1>   0.0800 
 34 H       -7.5500    -2.3020    -2.9960 H     1 <1>   0.0800 
 35 H       -7.5070    -0.8980    -1.9780 H     1 <1>   0.0800 
 36 H       -7.3880    -4.2420     0.4720 H     1 <1>   0.0800 
 37 H       -7.4560    -5.6210    -0.5960 H     1 <1>   0.0800 
 38 H       -9.6280    -2.1160    -1.7060 H     1 <1>   0.0800 
 39 H       -8.7150    -2.0710    -0.2180 H     1 <1>   0.0800 
 40 H       -8.9110    -4.3870    -2.1570 H     1 <1>   0.0800 
 41 H       -9.5790    -6.3710    -0.4310 H     1 <1>   0.0800 
 42 H      -10.6840    -5.7010    -1.6180 H     1 <1>   0.0800 
 43 H      -11.4730    -4.1360     1.4250 H     1 <1>   0.1500 
 44 H      -13.5830    -8.4190     0.7370 H     1 <1>   0.1500 
 45 H      -13.3850    -4.7410     2.8680 H     1 <1>   0.1500 
 46 H      -14.4520    -6.9600     2.4870 H     1 <1>   0.1500 
@<TRIPOS>BOND
  1   1   2  2   
  2   2   3  1   
  3   2   4  1   
  4   3   5  ar  
  5   3   6  ar  
  6   4  25  1   
  7   4  26  1   
  8   4  27  1   
  9   5   7  ar  
 10   5   8  1   
 11   6   9  ar  
 12   6  28  1   
 13   7  10  ar  
 14   8  29  1   
 15   8  30  1   
 16   8  31  1   
 17   9  10  ar  
 18  10  11  1   
 19  11  12  1   
 20  11  13  1   
 21  12  14  1   
 22  12  32  1   
 23  12  33  1   
 24  13  15  1   
 25  13  34  1   
 26  13  35  1   
 27  14  16  1   
 28  14  36  1   
 29  14  37  1   
 30  15  16  1   
 31  15  38  1   
 32  15  39  1   
 33  16  17  1   
 34  16  40  1   
 35  17  18  1   
 36  18  19  1   
 37  18  41  1   
 38  18  42  1   
 39  19  20  ar  
 40  19  21  ar  
 41  20  22  ar  
 42  21  23  ar  
 43  21  43  1   
 44  22  24  ar  
 45  22  44  1   
 46  23  24  ar  
 47  23  45  1   
 48  24  46  1   
@<TRIPOS>SUBSTRUCTURE
  1 ****  14 GROUP 4 **** **** 0

# MOE 2024.06 (io_trps.svl 2023.06)
