@<TRIPOS>MOLECULE
NONAME
44 46 1 0 0 
SMALL
USER_CHARGES


@<TRIPOS>ATOM
  1 O        1.9320    -2.0660     0.0220 O.2   1 <1>  -0.5700 
  2 C        2.8280    -1.2630     0.0660 C.2   1 <1>   0.5690 
  3 N        2.7660    -0.0270    -0.4560 N.am  1 <1>  -0.7300 
  4 C        4.1710    -1.5040     0.6960 C.3   1 <1>  -0.0990 
  5 C        4.0260     0.7090    -0.3730 C.3   1 <1>   0.3000 
  6 C        4.7280    -0.0680     0.7700 C.3   1 <1>  -0.1860 
  7 C        4.6830     0.5830    -1.7620 C.3   1 <1>  -0.1600 
  8 C        3.7600     2.1920    -0.0330 C.3   1 <1>  -0.1600 
  9 C        6.2220     0.0920     0.7440 C.2   1 <1>   0.9060 
 10 C        5.9710     1.3980    -1.9290 C.3   1 <1>   0.3430 
 11 C        4.7050     3.1790    -0.7310 C.3   1 <1>   0.3430 
 12 O        6.9160    -0.6290     0.0310 O.co2 1 <1>  -0.9000 
 13 O        6.6830     1.1260     1.2380 O.co2 1 <1>  -0.9000 
 14 N        6.0210     2.5400    -0.9780 N.4   1 <1>  -0.9590 
 15 C        7.1200     3.4880    -1.2890 C.3   1 <1>   0.5230 
 16 C        7.2160     4.5640    -0.2210 C.2   1 <1>   0.0070 
 17 N        6.6110     5.7070    -0.3270 N.2   1 <1>  -0.5650 
 18 N        7.9190     4.4160     0.9320 N.pl3 1 <1>   0.0480 
 19 C        6.9280     6.3430     0.8150 C.2   1 <1>   0.0770 
 20 C        7.7170     5.5720     1.5920 C.2   1 <1>  -0.3020 
 21 C        8.7310     3.2700     1.4140 C.3   1 <1>   0.0960 
 22 C       10.2000     3.6710     1.5890 C.3   1 <1>  -0.2400 
 23 H        1.9590     0.2830    -0.9940 H     1 <1>   0.3700 
 24 H        4.7610    -2.1290     0.0500 H     1 <1>   0.0800 
 25 H        4.0780    -1.9540     1.6670 H     1 <1>   0.0800 
 26 H        4.4020     0.3340     1.7110 H     1 <1>   0.0800 
 27 H        3.9870     0.9160    -2.5110 H     1 <1>   0.0800 
 28 H        4.9100    -0.4480    -1.9720 H     1 <1>   0.0800 
 29 H        3.8440     2.3500     1.0270 H     1 <1>   0.0800 
 30 H        2.7560     2.4600    -0.3060 H     1 <1>   0.0800 
 31 H        6.0360     1.7520    -2.9440 H     1 <1>   0.0800 
 32 H        6.8200     0.7550    -1.7460 H     1 <1>   0.0800 
 33 H        4.8190     4.0540    -0.1100 H     1 <1>   0.0800 
 34 H        4.2800     3.4890    -1.6710 H     1 <1>   0.0800 
 35 H        6.3090     2.1230    -0.0560 H     1 <1>   0.4500 
 36 H        6.9320     3.9620    -2.2370 H     1 <1>   0.0800 
 37 H        8.0550     2.9580    -1.3480 H     1 <1>   0.0800 
 38 H        6.5670     7.3360     1.0250 H     1 <1>   0.1500 
 39 H        8.1370     5.7790     2.5600 H     1 <1>   0.1500 
 40 H        8.6670     2.4590     0.7130 H     1 <1>   0.0800 
 41 H        8.3220     2.9280     2.3490 H     1 <1>   0.0800 
 42 H       10.6090     4.0190     0.6570 H     1 <1>   0.0800 
 43 H       10.7670     2.8160     1.9130 H     1 <1>   0.0800 
 44 H       10.2950     4.4410     2.3330 H     1 <1>   0.0800 
@<TRIPOS>BOND
  1   1   2  2   
  2   2   3  am  
  3   2   4  1   
  4   3   5  1   
  5   3  23  1   
  6   4   6  1   
  7   4  24  1   
  8   4  25  1   
  9   5   6  1   
 10   5   7  1   
 11   5   8  1   
 12   6   9  1   
 13   6  26  1   
 14   7  10  1   
 15   7  27  1   
 16   7  28  1   
 17   8  11  1   
 18   8  29  1   
 19   8  30  1   
 20   9  12  ar  
 21   9  13  ar  
 22  10  14  1   
 23  10  31  1   
 24  10  32  1   
 25  11  14  1   
 26  11  33  1   
 27  11  34  1   
 28  14  15  1   
 29  14  35  1   
 30  15  16  1   
 31  15  36  1   
 32  15  37  1   
 33  16  17  2   
 34  16  18  1   
 35  17  19  1   
 36  18  20  1   
 37  18  21  1   
 38  19  20  2   
 39  19  38  1   
 40  20  39  1   
 41  21  22  1   
 42  21  40  1   
 43  21  41  1   
 44  22  42  1   
 45  22  43  1   
 46  22  44  1   
@<TRIPOS>SUBSTRUCTURE
  1 ****  14 GROUP 4 **** **** 0

# MOE 2024.06 (io_trps.svl 2023.06)
