@<TRIPOS>MOLECULE
NONAME
57 61 1 0 0 
SMALL
USER_CHARGES


@<TRIPOS>ATOM
  1 O       -0.0390     0.3580     0.6520 O.2   1 <1>  -0.5700 
  2 C       -0.7600     1.2370     0.2410 C.2   1 <1>   0.5690 
  3 N       -2.1260     1.1590     0.3580 N.am  1 <1>  -0.6600 
  4 C       -0.1160     2.4550    -0.4180 C.3   1 <1>  -0.0990 
  5 C       -3.0980     2.2100    -0.0860 C.3   1 <1>   0.1400 
  6 C       -2.7820    -0.0350     0.9660 C.3   1 <1>   0.1400 
  7 C        1.4240     2.4140    -0.4660 C.3   1 <1>  -0.1600 
  8 C       -3.9660     2.6910     1.0930 C.3   1 <1>   0.1440 
  9 C       -3.6610     0.3930     2.1490 C.3   1 <1>  -0.1600 
 10 C        2.0130     3.6620    -1.1380 C.3   1 <1>   0.0210 
 11 C       -4.9500     3.7220     0.5710 C.ar  1 <1>   0.1660 
 12 C       -4.6710     1.4820     1.7460 C.3   1 <1>  -0.1600 
 13 C       -3.1410     3.5080     2.1250 C.3   1 <1>  -0.1600 
 14 C        3.5320     3.6350    -1.1710 C.2   1 <1>  -0.1810 
 15 N       -5.9870     3.4640    -0.1890 N.ar  1 <1>  -0.6200 
 16 C       -4.6210     4.9800     0.9710 C.ar  1 <1>  -0.1440 
 17 C       -3.3710     4.9970     1.8140 C.3   1 <1>  -0.0170 
 18 C        4.3450     4.6360    -1.6980 C.2   1 <1>   0.1390 
 19 C        4.3970     2.6970    -0.7280 C.2   1 <1>  -0.3020 
 20 C       -6.7320     4.5200    -0.5430 C.ar  1 <1>   0.6200 
 21 C       -5.4290     6.0090     0.5650 C.ar  1 <1>   0.1600 
 22 N        5.6080     4.3540    -1.5950 N.2   1 <1>  -0.7070 
 23 N        5.6370     3.1500    -0.9930 N.pl3 1 <1>   0.3000 
 24 N       -6.4820     5.7900    -0.1890 N.ar  1 <1>  -0.6200 
 25 C       -7.8990     4.2700    -1.3800 C.ar  1 <1>   0.0000 
 26 C       -7.9670     3.1660    -2.2360 C.ar  1 <1>  -0.1500 
 27 C       -9.0080     5.1220    -1.3660 C.ar  1 <1>  -0.1500 
 28 C       -9.0730     2.9250    -3.0300 C.ar  1 <1>  -0.1500 
 29 C      -10.1180     4.8880    -2.1570 C.ar  1 <1>  -0.1500 
 30 C      -10.1530     3.7870    -2.9930 C.ar  1 <1>  -0.1500 
 31 H       -0.4190     3.3290     0.1270 H     1 <1>   0.0800 
 32 H       -0.4930     2.5270    -1.4210 H     1 <1>   0.0800 
 33 H       -3.7380     1.7860    -0.8410 H     1 <1>   0.0800 
 34 H       -2.5980     3.0520    -0.5250 H     1 <1>   0.0800 
 35 H       -2.0480    -0.7460     1.3050 H     1 <1>   0.0800 
 36 H       -3.3870    -0.5180     0.2180 H     1 <1>   0.0800 
 37 H        1.7380     1.5380    -1.0080 H     1 <1>   0.0800 
 38 H        1.8070     2.3370     0.5370 H     1 <1>   0.0800 
 39 H       -3.0250     0.7490     2.9410 H     1 <1>   0.0800 
 40 H       -4.1900    -0.4670     2.5210 H     1 <1>   0.0800 
 41 H        1.6980     4.5410    -0.6030 H     1 <1>   0.0800 
 42 H        1.6480     3.7330    -2.1480 H     1 <1>   0.0800 
 43 H       -5.3670     1.0620     1.0400 H     1 <1>   0.0800 
 44 H       -5.2370     1.8000     2.6040 H     1 <1>   0.0800 
 45 H       -2.0960     3.2550     2.1140 H     1 <1>   0.0800 
 46 H       -3.5170     3.3150     3.1150 H     1 <1>   0.0800 
 47 H       -2.5530     5.3980     1.2430 H     1 <1>   0.0800 
 48 H       -3.5070     5.5720     2.7150 H     1 <1>   0.0800 
 49 H        3.9800     5.5460    -2.1430 H     1 <1>   0.1500 
 50 H        4.2080     1.7530    -0.2500 H     1 <1>   0.1500 
 51 H       -5.2110     7.0230     0.8570 H     1 <1>   0.1500 
 52 H        6.5180     2.6670    -0.7780 H     1 <1>   0.2700 
 53 H       -7.1370     2.4830    -2.2800 H     1 <1>   0.1500 
 54 H       -9.0010     5.9840    -0.7220 H     1 <1>   0.1500 
 55 H       -9.0940     2.0660    -3.6780 H     1 <1>   0.1500 
 56 H      -10.9550     5.5640    -2.1230 H     1 <1>   0.1500 
 57 H      -11.0160     3.6030    -3.6100 H     1 <1>   0.1500 
@<TRIPOS>BOND
  1   1   2  2   
  2   2   3  am  
  3   2   4  1   
  4   3   5  1   
  5   3   6  1   
  6   4   7  1   
  7   4  31  1   
  8   4  32  1   
  9   5   8  1   
 10   5  33  1   
 11   5  34  1   
 12   6   9  1   
 13   6  35  1   
 14   6  36  1   
 15   7  10  1   
 16   7  37  1   
 17   7  38  1   
 18   8  11  1   
 19   8  12  1   
 20   8  13  1   
 21   9  12  1   
 22   9  39  1   
 23   9  40  1   
 24  10  14  1   
 25  10  41  1   
 26  10  42  1   
 27  11  15  ar  
 28  11  16  ar  
 29  12  43  1   
 30  12  44  1   
 31  13  17  1   
 32  13  45  1   
 33  13  46  1   
 34  14  18  1   
 35  14  19  2   
 36  15  20  ar  
 37  16  17  1   
 38  16  21  ar  
 39  17  47  1   
 40  17  48  1   
 41  18  22  2   
 42  18  49  1   
 43  19  23  1   
 44  19  50  1   
 45  20  24  ar  
 46  20  25  1   
 47  21  24  ar  
 48  21  51  1   
 49  22  23  1   
 50  23  52  1   
 51  25  26  ar  
 52  25  27  ar  
 53  26  28  ar  
 54  26  53  1   
 55  27  29  ar  
 56  27  54  1   
 57  28  30  ar  
 58  28  55  1   
 59  29  30  ar  
 60  29  56  1   
 61  30  57  1   
@<TRIPOS>SUBSTRUCTURE
  1 ****   5 GROUP 4 **** **** 0

# MOE 2024.06 (io_trps.svl 2023.06)
