@<TRIPOS>MOLECULE
NONAME
45 47 1 0 0 
SMALL
USER_CHARGES


@<TRIPOS>ATOM
  1 O       -0.6650     2.4790     2.9490 O.2   1 <1>  -0.5700 
  2 C       -0.3170     3.0140     1.9070 C.2   1 <1>   0.5440 
  3 N       -1.2830     3.6870     1.1740 N.am  1 <1>  -0.6600 
  4 C        1.0940     2.9300     1.5140 C.ar  1 <1>   0.3960 
  5 C       -2.7440     3.4380     1.3710 C.3   1 <1>   0.1400 
  6 C       -0.9950     4.6030     0.0400 C.3   1 <1>   0.1400 
  7 N        1.4380     2.6810     0.2360 N.ar  1 <1>  -0.6200 
  8 C        2.0680     3.1000     2.4990 C.ar  1 <1>  -0.1500 
  9 C       -3.3590     2.7980     0.1000 C.3   1 <1>   0.0000 
 10 C       -1.5520     3.9990    -1.2540 C.3   1 <1>  -0.1600 
 11 C        2.7230     2.6110    -0.0490 C.ar  1 <1>   0.1660 
 12 C        3.4090     3.0270     2.1960 C.ar  1 <1>  -0.1500 
 13 C       -4.8700     2.5630     0.2660 C.3   1 <1>   0.2000 
 14 C       -3.0540     3.6850    -1.1290 C.3   1 <1>  -0.1600 
 15 C       -2.8420     1.3590    -0.0800 C.3   1 <1>  -0.1600 
 16 C        3.7350     2.7760     0.8820 C.ar  1 <1>  -0.1500 
 17 C        3.0610     2.3280    -1.4970 C.3   1 <1>  -0.0970 
 18 O       -5.4890     3.6360     0.9130 O.3   1 <1>  -0.5600 
 19 C       -5.0030     1.2680     1.0740 C.3   1 <1>  -0.1600 
 20 C       -3.6930     0.4980     0.8590 C.3   1 <1>  -0.1600 
 21 C       -6.8790     3.6460     0.8340 C.3   1 <1>   0.0400 
 22 H       -2.9110     2.8040     2.2230 H     1 <1>   0.0800 
 23 H       -3.2240     4.3800     1.5730 H     1 <1>   0.0800 
 24 H       -1.4730     5.5490     0.2310 H     1 <1>   0.0800 
 25 H        0.0600     4.7850    -0.0570 H     1 <1>   0.0800 
 26 H        1.7530     3.2860     3.5100 H     1 <1>   0.1500 
 27 H       -1.3940     4.6890    -2.0620 H     1 <1>   0.0800 
 28 H       -1.0030     3.1010    -1.4790 H     1 <1>   0.0800 
 29 H        4.1660     3.1580     2.9500 H     1 <1>   0.1500 
 30 H       -5.3150     2.4350    -0.7070 H     1 <1>   0.0800 
 31 H       -3.3990     3.2080    -2.0290 H     1 <1>   0.0800 
 32 H       -3.5930     4.6110    -1.0230 H     1 <1>   0.0800 
 33 H       -3.0100     1.0370    -1.0930 H     1 <1>   0.0800 
 34 H       -1.7920     1.2610     0.1360 H     1 <1>   0.0800 
 35 H        4.7660     2.7070     0.5880 H     1 <1>   0.1500 
 36 H        4.1230     2.2900    -1.6490 H     1 <1>   0.0800 
 37 H        2.6470     3.1000    -2.1190 H     1 <1>   0.0800 
 38 H        2.6340     1.3850    -1.7860 H     1 <1>   0.0800 
 39 H       -5.1180     1.4930     2.1200 H     1 <1>   0.0800 
 40 H       -5.8450     0.6940     0.7310 H     1 <1>   0.0800 
 41 H       -3.1830     0.3830     1.8020 H     1 <1>   0.0800 
 42 H       -3.8660    -0.4770     0.4380 H     1 <1>   0.0800 
 43 H       -7.2340     4.5220     1.3470 H     1 <1>   0.0800 
 44 H       -7.2720     2.7660     1.3110 H     1 <1>   0.0800 
 45 H       -7.1760     3.6850    -0.1990 H     1 <1>   0.0800 
@<TRIPOS>BOND
  1   1   2  2   
  2   2   3  am  
  3   2   4  1   
  4   3   5  1   
  5   3   6  1   
  6   4   7  ar  
  7   4   8  ar  
  8   5   9  1   
  9   5  22  1   
 10   5  23  1   
 11   6  10  1   
 12   6  24  1   
 13   6  25  1   
 14   7  11  ar  
 15   8  12  ar  
 16   8  26  1   
 17   9  13  1   
 18   9  14  1   
 19   9  15  1   
 20  10  14  1   
 21  10  27  1   
 22  10  28  1   
 23  11  16  ar  
 24  11  17  1   
 25  12  16  ar  
 26  12  29  1   
 27  13  18  1   
 28  13  19  1   
 29  13  30  1   
 30  14  31  1   
 31  14  32  1   
 32  15  20  1   
 33  15  33  1   
 34  15  34  1   
 35  16  35  1   
 36  17  36  1   
 37  17  37  1   
 38  17  38  1   
 39  18  21  1   
 40  19  20  1   
 41  19  39  1   
 42  19  40  1   
 43  20  41  1   
 44  20  42  1   
 45  21  43  1   
 46  21  44  1   
 47  21  45  1   
@<TRIPOS>SUBSTRUCTURE
  1 ****   3 GROUP 4 **** **** 0

# MOE 2024.06 (io_trps.svl 2023.06)
