@<TRIPOS>MOLECULE
NONAME
53 54 1 0 0 
SMALL
USER_CHARGES


@<TRIPOS>ATOM
  1 O        0.5970     0.3570    -0.4630 O.2   1 <1>  -0.5700 
  2 C        1.3420    -0.2010    -1.2360 C.2   1 <1>   0.5690 
  3 N        2.3350     0.4300    -1.9230 N.am  1 <1>  -0.7300 
  4 C        1.1360    -1.7170    -1.4030 C.3   1 <1>   0.4040 
  5 C        2.9430     1.7480    -1.6250 C.3   1 <1>   0.3640 
  6 N       -0.1390    -2.2020    -0.7470 N.4   1 <1>  -0.9590 
  7 C        3.9020     1.5700    -0.4440 C.ar  1 <1>  -0.1430 
  8 C        1.9120     2.8660    -1.4520 C.3   1 <1>  -0.2400 
  9 C       -0.0160    -3.6090    -0.2570 C.3   1 <1>   0.3430 
 10 C       -1.3230    -1.9630    -1.6320 C.3   1 <1>   0.2630 
 11 C        5.2830     1.4750    -0.6250 C.ar  1 <1>  -0.1430 
 12 C        3.3890     1.4780     0.8460 C.ar  1 <1>  -0.1500 
 13 C       -1.1380    -3.9870     0.7130 C.3   1 <1>   0.0210 
 14 C        6.1050     1.2930     0.4770 C.ar  1 <1>  -0.1500 
 15 C        5.9440     1.5680    -1.9940 C.3   1 <1>  -0.0970 
 16 C        4.2130     1.2950     1.9420 C.ar  1 <1>  -0.1430 
 17 C       -0.8490    -5.3640     1.2660 C.2   1 <1>  -0.1810 
 18 C        5.5770     1.2030     1.7510 C.ar  1 <1>  -0.1500 
 19 C        3.6320     1.2070     3.3420 C.3   1 <1>  -0.0970 
 20 C        0.0610    -5.6830     2.2680 C.2   1 <1>   0.1390 
 21 C       -1.3900    -6.5480     0.9080 C.2   1 <1>  -0.3020 
 22 N        0.0970    -6.9560     2.5050 N.2   1 <1>  -0.7070 
 23 N       -0.8070    -7.4940     1.6720 N.pl3 1 <1>   0.3140 
 24 C       -1.0710    -8.9380     1.6570 C.3   1 <1>   0.0160 
 25 H        2.9640    -0.1200    -2.5090 H     1 <1>   0.3700 
 26 H        1.9810    -2.2030    -0.9460 H     1 <1>   0.0800 
 27 H        1.1320    -1.9630    -2.4510 H     1 <1>   0.0800 
 28 H        3.5120     2.0280    -2.4920 H     1 <1>   0.0800 
 29 H       -0.2420    -1.5600     0.0640 H     1 <1>   0.4500 
 30 H        1.3020     2.7330    -0.5790 H     1 <1>   0.0800 
 31 H        1.2790     2.9230    -2.3180 H     1 <1>   0.0800 
 32 H        2.4270     3.8030    -1.3470 H     1 <1>   0.0800 
 33 H        0.9230    -3.7270     0.2600 H     1 <1>   0.0800 
 34 H       -0.0210    -4.2950    -1.0890 H     1 <1>   0.0800 
 35 H       -1.2590    -2.5670    -2.5220 H     1 <1>   0.0800 
 36 H       -1.3670    -0.9230    -1.9190 H     1 <1>   0.0800 
 37 H       -2.2360    -2.2070    -1.1130 H     1 <1>   0.0800 
 38 H        2.3290     1.5500     1.0100 H     1 <1>   0.1500 
 39 H       -2.0860    -4.0080     0.2060 H     1 <1>   0.0800 
 40 H       -1.1870    -3.2860     1.5270 H     1 <1>   0.0800 
 41 H        7.1710     1.2220     0.3550 H     1 <1>   0.1500 
 42 H        5.5420     0.8250    -2.6580 H     1 <1>   0.0800 
 43 H        7.0050     1.4080    -1.9220 H     1 <1>   0.0800 
 44 H        5.7860     2.5460    -2.4140 H     1 <1>   0.0800 
 45 H        6.2350     1.0660     2.5910 H     1 <1>   0.1500 
 46 H        2.5990     0.9100     3.3080 H     1 <1>   0.0800 
 47 H        3.7010     2.1660     3.8230 H     1 <1>   0.0800 
 48 H        4.1740     0.4860     3.9260 H     1 <1>   0.0800 
 49 H        0.6760    -4.9770     2.8000 H     1 <1>   0.1500 
 50 H       -2.1410    -6.7770     0.1740 H     1 <1>   0.1500 
 51 H       -1.9750    -9.1360     1.1120 H     1 <1>   0.0800 
 52 H       -1.1750    -9.2820     2.6690 H     1 <1>   0.0800 
 53 H       -0.2440    -9.4390     1.1920 H     1 <1>   0.0800 
@<TRIPOS>BOND
  1   1   2  2   
  2   2   3  am  
  3   2   4  1   
  4   3   5  1   
  5   3  25  1   
  6   4   6  1   
  7   4  26  1   
  8   4  27  1   
  9   5   7  1   
 10   5   8  1   
 11   5  28  1   
 12   6   9  1   
 13   6  10  1   
 14   6  29  1   
 15   7  11  ar  
 16   7  12  ar  
 17   8  30  1   
 18   8  31  1   
 19   8  32  1   
 20   9  13  1   
 21   9  33  1   
 22   9  34  1   
 23  10  35  1   
 24  10  36  1   
 25  10  37  1   
 26  11  14  ar  
 27  11  15  1   
 28  12  16  ar  
 29  12  38  1   
 30  13  17  1   
 31  13  39  1   
 32  13  40  1   
 33  14  18  ar  
 34  14  41  1   
 35  15  42  1   
 36  15  43  1   
 37  15  44  1   
 38  16  18  ar  
 39  16  19  1   
 40  17  20  1   
 41  17  21  2   
 42  18  45  1   
 43  19  46  1   
 44  19  47  1   
 45  19  48  1   
 46  20  22  2   
 47  20  49  1   
 48  21  23  1   
 49  21  50  1   
 50  22  23  1   
 51  23  24  1   
 52  24  51  1   
 53  24  52  1   
 54  24  53  1   
@<TRIPOS>SUBSTRUCTURE
  1 ****   4 GROUP 4 **** **** 0

# MOE 2024.06 (io_trps.svl 2023.06)
