@<TRIPOS>MOLECULE
NONAME
43 45 1 0 0 
SMALL
USER_CHARGES


@<TRIPOS>ATOM
  1 S        0.4290     0.0620     0.6790 S.o2  1 <1>   1.3330 
  2 O       -0.6720     0.0920     1.6150 O.2   1 <1>  -0.6500 
  3 O        1.7800     0.2480     1.1580 O.2   1 <1>  -0.6500 
  4 N        0.3750    -1.4080    -0.1680 N.am  1 <1>  -0.8490 
  5 C        0.0880     1.2710    -0.5970 C.3   1 <1>  -0.0550 
  6 C       -0.0390    -2.5250     0.6870 C.3   1 <1>   0.1160 
  7 C        1.6330    -1.7380    -0.8450 C.3   1 <1>   0.1160 
  8 C       -0.0020     2.7070    -0.0560 C.3   1 <1>  -0.0800 
  9 C       -0.3660     3.7130    -1.1400 C.3   1 <1>   0.2000 
 10 C        1.3120     3.2450     0.5130 C.3   1 <1>   0.2090 
 11 O       -1.7380     3.7150    -1.3450 O.3   1 <1>  -0.6800 
 12 C        0.1470     5.0560    -0.6260 C.3   1 <1>   0.2090 
 13 N        1.2720     4.7160     0.2840 N.pl3 1 <1>  -0.8380 
 14 C        2.4330     5.4520     0.1920 C.ar  1 <1>   0.4100 
 15 N        3.4980     4.8670    -0.3300 N.ar  1 <1>  -0.6200 
 16 C        2.4810     6.7800     0.6110 C.ar  1 <1>   0.0000 
 17 C        4.5940     5.6050    -0.4360 C.ar  1 <1>   0.4770 
 18 C        3.6870     7.4060     0.4240 C.ar  1 <1>   0.2970 
 19 C        1.4920     7.6320     1.2190 C.2   1 <1>  -0.1500 
 20 N        4.7690     6.8670    -0.0940 N.ar  1 <1>  -0.5670 
 21 C        5.7920     4.9020    -1.0290 C.3   1 <1>  -0.0970 
 22 S        3.6040     9.0770     0.9820 S.3   1 <1>  -0.0800 
 23 C        1.9200     8.8810     1.4780 C.2   1 <1>  -0.1100 
 24 H        0.8490     1.2220    -1.3510 H     1 <1>   0.0800 
 25 H       -0.8480     1.0230    -1.0600 H     1 <1>   0.0800 
 26 H       -0.0790    -3.4370     0.1170 H     1 <1>   0.0800 
 27 H       -1.0200    -2.3380     1.0890 H     1 <1>   0.0800 
 28 H        0.6530    -2.6470     1.5040 H     1 <1>   0.0800 
 29 H        1.5120    -2.6300    -1.4360 H     1 <1>   0.0800 
 30 H        2.4180    -1.8990    -0.1240 H     1 <1>   0.0800 
 31 H        1.9250    -0.9360    -1.5000 H     1 <1>   0.0800 
 32 H       -0.7330     2.7510     0.7340 H     1 <1>   0.0800 
 33 H        0.1180     3.4780    -2.0730 H     1 <1>   0.0800 
 34 H        2.1500     2.8080    -0.0050 H     1 <1>   0.0800 
 35 H        1.4030     3.0300     1.5650 H     1 <1>   0.0800 
 36 H       -2.2100     3.8560    -0.5000 H     1 <1>   0.4000 
 37 H       -0.6150     5.5670    -0.0660 H     1 <1>   0.0800 
 38 H        0.4860     5.6730    -1.4410 H     1 <1>   0.0800 
 39 H        0.5120     7.2450     1.4310 H     1 <1>   0.1500 
 40 H        5.5140     4.4380    -1.9570 H     1 <1>   0.0800 
 41 H        6.1330     4.1470    -0.3460 H     1 <1>   0.0800 
 42 H        6.5890     5.5980    -1.2110 H     1 <1>   0.0800 
 43 H        1.4360     9.7350     1.9170 H     1 <1>   0.1500 
@<TRIPOS>BOND
  1   1   2  2   
  2   1   3  2   
  3   1   4  am  
  4   1   5  1   
  5   4   6  1   
  6   4   7  1   
  7   5   8  1   
  8   5  24  1   
  9   5  25  1   
 10   6  26  1   
 11   6  27  1   
 12   6  28  1   
 13   7  29  1   
 14   7  30  1   
 15   7  31  1   
 16   8   9  1   
 17   8  10  1   
 18   8  32  1   
 19   9  11  1   
 20   9  12  1   
 21   9  33  1   
 22  10  13  1   
 23  10  34  1   
 24  10  35  1   
 25  11  36  1   
 26  12  13  1   
 27  12  37  1   
 28  12  38  1   
 29  13  14  1   
 30  14  15  ar  
 31  14  16  ar  
 32  15  17  ar  
 33  16  18  ar  
 34  16  19  1   
 35  17  20  ar  
 36  17  21  1   
 37  18  20  ar  
 38  18  22  1   
 39  19  23  2   
 40  19  39  1   
 41  21  40  1   
 42  21  41  1   
 43  21  42  1   
 44  22  23  1   
 45  23  43  1   
@<TRIPOS>SUBSTRUCTURE
  1 ****  10 GROUP 4 **** **** 0

# MOE 2024.06 (io_trps.svl 2023.06)
