@<TRIPOS>MOLECULE
NONAME
51 52 1 0 0 
SMALL
USER_CHARGES


@<TRIPOS>ATOM
  1 O       -0.0510     0.1200     0.0470 O.2   1 <1>  -0.5700 
  2 C        1.0680     0.5210    -0.2390 C.2   1 <1>   0.5440 
  3 N        1.2090     1.8220    -0.6380 N.am  1 <1>  -0.7300 
  4 C        2.2210    -0.3500    -0.1580 C.ar  1 <1>   0.0860 
  5 C        0.1200     2.8300    -0.7360 C.3   1 <1>   0.0600 
  6 C        2.1340    -1.7140    -0.5050 C.ar  1 <1>   0.4100 
  7 C        3.4530     0.1190     0.2800 C.ar  1 <1>  -0.1500 
  8 N        3.1400    -2.5770    -0.4120 N.ar  1 <1>  -0.6200 
  9 N        0.9500    -2.2360    -0.9650 N.pl3 1 <1>  -0.8690 
 10 C        4.5020    -0.7700     0.3550 C.ar  1 <1>  -0.1500 
 11 C        4.2930    -2.0910     0.0020 C.ar  1 <1>   0.1600 
 12 C        0.6060    -3.6850    -1.1130 C.3   1 <1>   0.2090 
 13 C       -0.0270    -4.3660     0.1560 C.3   1 <1>   0.5030 
 14 N       -1.0300    -3.4880     0.8900 N.4   1 <1>  -0.9590 
 15 C       -0.8110    -5.6250    -0.2880 C.3   1 <1>  -0.1600 
 16 C        1.0690    -4.8170     1.1570 C.3   1 <1>  -0.1600 
 17 C       -2.0040    -2.8110    -0.0110 C.3   1 <1>   0.3430 
 18 C       -0.4100    -2.4620     1.7990 C.3   1 <1>   0.2630 
 19 C        0.0810    -6.7520    -0.8370 C.3   1 <1>  -0.1600 
 20 C        1.9660    -5.9630     0.6520 C.3   1 <1>  -0.1600 
 21 C       -3.3140    -2.5950     0.7360 C.3   1 <1>  -0.2400 
 22 C        1.1360    -7.1650     0.1930 C.3   1 <1>  -0.1600 
 23 H        2.1190     2.1350    -0.9850 H     1 <1>   0.3700 
 24 H       -0.7960     2.4420    -0.3230 H     1 <1>   0.0800 
 25 H       -0.0480     3.0860    -1.7690 H     1 <1>   0.0800 
 26 H        0.3940     3.7170    -0.1930 H     1 <1>   0.0800 
 27 H        3.5870     1.1480     0.5640 H     1 <1>   0.1500 
 28 H        0.1700    -1.5650    -0.9880 H     1 <1>   0.4000 
 29 H        5.4740    -0.4490     0.6860 H     1 <1>   0.1500 
 30 H        5.1200    -2.7790     0.0660 H     1 <1>   0.1500 
 31 H        1.4850    -4.2250    -1.4160 H     1 <1>   0.0800 
 32 H       -0.0820    -3.7700    -1.9340 H     1 <1>   0.0800 
 33 H       -1.5680    -4.1280     1.4820 H     1 <1>   0.4500 
 34 H       -1.5300    -5.3750    -1.0470 H     1 <1>   0.0800 
 35 H       -1.3490    -6.0230     0.5550 H     1 <1>   0.0800 
 36 H        0.6020    -5.1530     2.0660 H     1 <1>   0.0800 
 37 H        1.7130    -3.9910     1.3970 H     1 <1>   0.0800 
 38 H       -2.1960    -3.4170    -0.8800 H     1 <1>   0.0800 
 39 H       -1.6070    -1.8630    -0.3410 H     1 <1>   0.0800 
 40 H        0.2590    -1.8230     1.2510 H     1 <1>   0.0800 
 41 H        0.1490    -2.9400     2.5860 H     1 <1>   0.0800 
 42 H       -1.1690    -1.8450     2.2500 H     1 <1>   0.0800 
 43 H        0.5690    -6.4400    -1.7450 H     1 <1>   0.0800 
 44 H       -0.5280    -7.6080    -1.0790 H     1 <1>   0.0800 
 45 H        2.6280    -6.2720     1.4430 H     1 <1>   0.0800 
 46 H        2.5870    -5.6200    -0.1580 H     1 <1>   0.0800 
 47 H       -3.7260    -3.5310     1.0690 H     1 <1>   0.0800 
 48 H       -4.0250    -2.1380     0.0700 H     1 <1>   0.0800 
 49 H       -3.1840    -1.9340     1.5740 H     1 <1>   0.0800 
 50 H        1.7880    -7.9090    -0.2360 H     1 <1>   0.0800 
 51 H        0.6510    -7.6120     1.0450 H     1 <1>   0.0800 
@<TRIPOS>BOND
  1   1   2  2   
  2   2   3  am  
  3   2   4  1   
  4   3   5  1   
  5   3  23  1   
  6   4   6  ar  
  7   4   7  ar  
  8   5  24  1   
  9   5  25  1   
 10   5  26  1   
 11   6   8  ar  
 12   6   9  1   
 13   7  10  ar  
 14   7  27  1   
 15   8  11  ar  
 16   9  12  1   
 17   9  28  1   
 18  10  11  ar  
 19  10  29  1   
 20  11  30  1   
 21  12  13  1   
 22  12  31  1   
 23  12  32  1   
 24  13  14  1   
 25  13  15  1   
 26  13  16  1   
 27  14  17  1   
 28  14  18  1   
 29  14  33  1   
 30  15  19  1   
 31  15  34  1   
 32  15  35  1   
 33  16  20  1   
 34  16  36  1   
 35  16  37  1   
 36  17  21  1   
 37  17  38  1   
 38  17  39  1   
 39  18  40  1   
 40  18  41  1   
 41  18  42  1   
 42  19  22  1   
 43  19  43  1   
 44  19  44  1   
 45  20  22  1   
 46  20  45  1   
 47  20  46  1   
 48  21  47  1   
 49  21  48  1   
 50  21  49  1   
 51  22  50  1   
 52  22  51  1   
@<TRIPOS>SUBSTRUCTURE
  1 ****   9 GROUP 4 **** **** 0

# MOE 2024.06 (io_trps.svl 2023.06)
