@<TRIPOS>MOLECULE
NONAME
49 51 1 0 0 
SMALL
USER_CHARGES


@<TRIPOS>ATOM
  1 F       -3.0300    -0.0900     0.7470 F     1 <1>  -0.1900 
  2 C       -2.7320     0.5890    -0.3300 C.ar  1 <1>   0.1900 
  3 C       -2.5710    -0.1020    -1.5300 C.ar  1 <1>   0.0860 
  4 C       -2.5990     1.9660    -0.2180 C.ar  1 <1>  -0.1440 
  5 C       -2.7290    -1.5350    -1.6290 C.2   1 <1>   0.5440 
  6 C       -2.2410     0.6600    -2.6500 C.ar  1 <1>  -0.1500 
  7 C       -2.2800     2.6870    -1.3580 C.ar  1 <1>  -0.1500 
  8 C       -2.7910     2.6760     1.1150 C.3   1 <1>  -0.0960 
  9 O       -1.7630    -2.2130    -1.9240 O.2   1 <1>  -0.5700 
 10 N       -3.9440    -2.1590    -1.4340 N.am  1 <1>  -0.6600 
 11 C       -2.1000     2.0340    -2.5670 C.ar  1 <1>  -0.1500 
 12 C       -5.2360    -1.4530    -1.1780 C.3   1 <1>   0.1400 
 13 C       -4.0690    -3.6440    -1.3150 C.3   1 <1>   0.1400 
 14 C       -5.8630    -1.9440     0.1390 C.3   1 <1>   0.2950 
 15 C       -4.7900    -4.0320    -0.0040 C.3   1 <1>   0.2000 
 16 O       -6.0000    -3.3360     0.1130 O.3   1 <1>  -0.5600 
 17 C       -7.2540    -1.3420     0.3590 C.3   1 <1>  -0.1950 
 18 C       -5.1320    -5.5260     0.0770 C.3   1 <1>  -0.1600 
 19 C       -7.4170     0.0030     0.9950 C.3   1 <1>  -0.2000 
 20 C       -7.8450    -1.2370     1.7290 C.3   1 <1>  -0.2000 
 21 C       -3.8870    -6.4280     0.1160 C.3   1 <1>  -0.1600 
 22 C       -4.2810    -7.8990     0.2910 C.3   1 <1>  -0.1600 
 23 C       -3.0430    -8.8000     0.3270 C.3   1 <1>  -0.2400 
 24 H       -2.0910     0.1590    -3.5910 H     1 <1>   0.1500 
 25 H       -2.1660     3.7560    -1.3130 H     1 <1>   0.1500 
 26 H       -2.6410     3.7360     1.0140 H     1 <1>   0.0800 
 27 H       -2.0870     2.2990     1.8350 H     1 <1>   0.0800 
 28 H       -3.7870     2.5040     1.4830 H     1 <1>   0.0800 
 29 H       -1.8460     2.6010    -3.4470 H     1 <1>   0.1500 
 30 H       -5.0990    -0.3890    -1.1310 H     1 <1>   0.0800 
 31 H       -5.9150    -1.6610    -1.9870 H     1 <1>   0.0800 
 32 H       -4.6260    -4.0190    -2.1550 H     1 <1>   0.0800 
 33 H       -3.0970    -4.1020    -1.3340 H     1 <1>   0.0800 
 34 H       -5.2250    -1.6850     0.9660 H     1 <1>   0.0800 
 35 H       -4.1710    -3.7650     0.8370 H     1 <1>   0.0800 
 36 H       -7.9280    -1.5880    -0.4450 H     1 <1>   0.1000 
 37 H       -5.7050    -5.6890     0.9730 H     1 <1>   0.0800 
 38 H       -5.7440    -5.7930    -0.7660 H     1 <1>   0.0800 
 39 H       -6.5490     0.5300     1.3530 H     1 <1>   0.1000 
 40 H       -8.1770     0.6660     0.6200 H     1 <1>   0.1000 
 41 H       -8.8960    -1.4410     1.8470 H     1 <1>   0.1000 
 42 H       -7.2640    -1.5800     2.5670 H     1 <1>   0.1000 
 43 H       -3.3270    -6.3230    -0.7970 H     1 <1>   0.0800 
 44 H       -3.2540    -6.1290     0.9340 H     1 <1>   0.0800 
 45 H       -4.8330    -8.0200     1.2080 H     1 <1>   0.0800 
 46 H       -4.9160    -8.2030    -0.5230 H     1 <1>   0.0800 
 47 H       -2.4030    -8.5270     1.1480 H     1 <1>   0.0800 
 48 H       -2.4870    -8.7130    -0.5900 H     1 <1>   0.0800 
 49 H       -3.3390    -9.8260     0.4510 H     1 <1>   0.0800 
@<TRIPOS>BOND
  1   1   2  1   
  2   2   3  ar  
  3   2   4  ar  
  4   3   5  1   
  5   3   6  ar  
  6   4   7  ar  
  7   4   8  1   
  8   5   9  2   
  9   5  10  am  
 10   6  11  ar  
 11   6  24  1   
 12   7  11  ar  
 13   7  25  1   
 14   8  26  1   
 15   8  27  1   
 16   8  28  1   
 17  10  12  1   
 18  10  13  1   
 19  11  29  1   
 20  12  14  1   
 21  12  30  1   
 22  12  31  1   
 23  13  15  1   
 24  13  32  1   
 25  13  33  1   
 26  14  16  1   
 27  14  17  1   
 28  14  34  1   
 29  15  16  1   
 30  15  18  1   
 31  15  35  1   
 32  17  19  1   
 33  17  20  1   
 34  17  36  1   
 35  18  21  1   
 36  18  37  1   
 37  18  38  1   
 38  19  20  1   
 39  19  39  1   
 40  19  40  1   
 41  20  41  1   
 42  20  42  1   
 43  21  22  1   
 44  21  43  1   
 45  21  44  1   
 46  22  23  1   
 47  22  45  1   
 48  22  46  1   
 49  23  47  1   
 50  23  48  1   
 51  23  49  1   
@<TRIPOS>SUBSTRUCTURE
  1 ****  10 GROUP 4 **** **** 0

# MOE 2024.06 (io_trps.svl 2023.06)
