@<TRIPOS>MOLECULE
NONAME
42 44 1 0 0 
SMALL
USER_CHARGES


@<TRIPOS>ATOM
  1 F        0.4030     1.5460     1.8690 F     1 <1>  -0.1900 
  2 C       -0.7200     1.4090     1.2040 C.ar  1 <1>   0.1900 
  3 C       -1.0160     2.2800     0.1430 C.ar  1 <1>   0.1000 
  4 C       -1.5660     0.3900     1.5980 C.ar  1 <1>  -0.1500 
  5 N       -0.1900     3.3230    -0.2920 N.pl3 1 <1>  -0.8380 
  6 C       -2.2210     2.0870    -0.5250 C.ar  1 <1>  -0.1500 
  7 C       -2.7470     0.2460     0.8980 C.ar  1 <1>   0.1900 
  8 C        0.0250     4.4480     0.6730 C.3   1 <1>   0.2090 
  9 C        1.1140     2.9200    -0.9110 C.3   1 <1>   0.2090 
 10 C       -3.0920     1.0740    -0.1550 C.ar  1 <1>  -0.1500 
 11 F       -3.5720    -0.7090     1.2450 F     1 <1>  -0.1900 
 12 C        0.6890     5.6620    -0.0080 C.3   1 <1>   0.2090 
 13 C        1.7940     4.1100    -1.6170 C.3   1 <1>   0.2090 
 14 N        1.9620     5.2930    -0.7070 N.pl3 1 <1>  -0.8380 
 15 C        3.1520     5.4660     0.0240 C.ar  1 <1>   0.4100 
 16 N        3.8310     4.3500     0.2460 N.ar  1 <1>  -0.6200 
 17 C        3.5870     6.7540     0.5160 C.ar  1 <1>   0.4100 
 18 C        4.9190     4.5420     0.9780 C.ar  1 <1>   0.1600 
 19 N        4.6770     6.9040     1.2540 N.ar  1 <1>  -0.6200 
 20 N        2.8970     7.9520     0.2390 N.pl3 1 <1>  -0.8380 
 21 C        5.3220     5.7680     1.4650 C.ar  1 <1>   0.1600 
 22 C        3.0580     9.1250     1.1420 C.3   1 <1>   0.1290 
 23 C        2.7070     8.3080    -1.1930 C.3   1 <1>   0.1290 
 24 H       -1.3160    -0.2630     2.4120 H     1 <1>   0.1500 
 25 H       -2.4650     2.7440    -1.3400 H     1 <1>   0.1500 
 26 H        0.6580     4.1170     1.4780 H     1 <1>   0.0800 
 27 H       -0.9210     4.7460     1.0890 H     1 <1>   0.0800 
 28 H        0.9420     2.1340    -1.6240 H     1 <1>   0.0800 
 29 H        1.7760     2.5430    -0.1510 H     1 <1>   0.0800 
 30 H       -4.0230     0.9270    -0.6730 H     1 <1>   0.1500 
 31 H        0.8800     6.4130     0.7380 H     1 <1>   0.0800 
 32 H        0.0050     6.0800    -0.7250 H     1 <1>   0.0800 
 33 H        1.1910     4.4030    -2.4580 H     1 <1>   0.0800 
 34 H        2.7520     3.8010    -1.9970 H     1 <1>   0.0800 
 35 H        5.5130     3.6740     1.1980 H     1 <1>   0.1500 
 36 H        6.2190     5.8240     2.0550 H     1 <1>   0.1500 
 37 H        3.0600     8.7990     2.1680 H     1 <1>   0.0800 
 38 H        2.2450     9.8140     0.9990 H     1 <1>   0.0800 
 39 H        3.9900     9.6210     0.9330 H     1 <1>   0.0800 
 40 H        2.9590     7.4760    -1.8280 H     1 <1>   0.0800 
 41 H        3.3390     9.1390    -1.4540 H     1 <1>   0.0800 
 42 H        1.6790     8.5730    -1.3650 H     1 <1>   0.0800 
@<TRIPOS>BOND
  1   1   2  1   
  2   2   3  ar  
  3   2   4  ar  
  4   3   5  1   
  5   3   6  ar  
  6   4   7  ar  
  7   4  24  1   
  8   5   8  1   
  9   5   9  1   
 10   6  10  ar  
 11   6  25  1   
 12   7  10  ar  
 13   7  11  1   
 14   8  12  1   
 15   8  26  1   
 16   8  27  1   
 17   9  13  1   
 18   9  28  1   
 19   9  29  1   
 20  10  30  1   
 21  12  14  1   
 22  12  31  1   
 23  12  32  1   
 24  13  14  1   
 25  13  33  1   
 26  13  34  1   
 27  14  15  1   
 28  15  16  ar  
 29  15  17  ar  
 30  16  18  ar  
 31  17  19  ar  
 32  17  20  1   
 33  18  21  ar  
 34  18  35  1   
 35  19  21  ar  
 36  20  22  1   
 37  20  23  1   
 38  21  36  1   
 39  22  37  1   
 40  22  38  1   
 41  22  39  1   
 42  23  40  1   
 43  23  41  1   
 44  23  42  1   
@<TRIPOS>SUBSTRUCTURE
  1 ****   8 GROUP 4 **** **** 0

# MOE 2024.06 (io_trps.svl 2023.06)
