@<TRIPOS>MOLECULE
NONAME
48 51 1 0 0 
SMALL
USER_CHARGES


@<TRIPOS>ATOM
  1 S       -0.5730    -0.4680     0.9480 S.3   1 <1>  -0.0800 
  2 C       -2.3150    -0.3360     0.6480 C.2   1 <1>   0.4620 
  3 C       -0.3350     1.1170     0.2520 C.ar  1 <1>   0.0400 
  4 N       -2.6610     0.7690     0.0940 N.2   1 <1>  -0.5650 
  5 N       -3.1490    -1.3700     1.0170 N.pl3 1 <1>  -0.8220 
  6 C       -1.5710     1.5940    -0.1360 C.ar  1 <1>   0.2270 
  7 C        0.8450     1.8180     0.0910 C.ar  1 <1>  -0.1500 
  8 C       -4.6270    -1.1740     0.9390 C.3   1 <1>   0.2090 
  9 C       -2.6550    -2.6990     1.4720 C.3   1 <1>   0.2090 
 10 C       -1.6270     2.8530    -0.7210 C.ar  1 <1>  -0.1500 
 11 C        0.7700     3.0710    -0.4950 C.ar  1 <1>  -0.1500 
 12 C       -5.1810    -1.6400    -0.4170 C.3   1 <1>   0.1100 
 13 C       -3.5340    -3.8680     1.0110 C.3   1 <1>  -0.1600 
 14 C       -0.4610     3.5830    -0.8980 C.ar  1 <1>  -0.1500 
 15 N       -5.2870    -3.1130    -0.5550 N.3   1 <1>  -0.8100 
 16 C       -3.9730    -3.7760    -0.4540 C.3   1 <1>   0.1100 
 17 C       -5.9450    -3.4520    -1.8570 C.3   1 <1>   0.1710 
 18 C       -6.5310    -4.8680    -1.9190 C.2   1 <1>   0.5690 
 19 O       -6.8170    -5.3560    -2.9860 O.2   1 <1>  -0.5700 
 20 N       -6.7130    -5.5320    -0.7550 N.am  1 <1>  -0.7300 
 21 C       -7.3200    -6.8600    -0.5920 C.3   1 <1>   0.3200 
 22 C       -8.0550    -6.9210     0.7340 C.2   1 <1>  -0.1400 
 23 S       -8.6360    -8.5030     1.2320 S.3   1 <1>  -0.0800 
 24 C       -8.3780    -5.9920     1.6560 C.2   1 <1>  -0.1500 
 25 C       -9.3100    -7.8420     2.7110 C.2   1 <1>  -0.1100 
 26 C       -9.0900    -6.5160     2.7820 C.2   1 <1>  -0.1500 
 27 H        1.7820     1.3980     0.4120 H     1 <1>   0.1500 
 28 H       -4.8480    -0.1270     1.0560 H     1 <1>   0.0800 
 29 H       -5.1210    -1.6950     1.7400 H     1 <1>   0.0800 
 30 H       -2.5880    -2.7000     2.5460 H     1 <1>   0.0800 
 31 H       -1.6670    -2.8650     1.0800 H     1 <1>   0.0800 
 32 H       -2.5800     3.2410    -1.0290 H     1 <1>   0.1500 
 33 H        1.6650     3.6520    -0.6390 H     1 <1>   0.1500 
 34 H       -4.5670    -1.2320    -1.2020 H     1 <1>   0.0800 
 35 H       -6.1660    -1.2200    -0.5190 H     1 <1>   0.0800 
 36 H       -4.3930    -3.9660     1.6500 H     1 <1>   0.0800 
 37 H       -2.9550    -4.7650     1.1330 H     1 <1>   0.0800 
 38 H       -0.5070     4.5590    -1.3520 H     1 <1>   0.1500 
 39 H       -4.0520    -4.7800    -0.8360 H     1 <1>   0.0800 
 40 H       -3.2370    -3.2560    -1.0450 H     1 <1>   0.0800 
 41 H       -5.2460    -3.3290    -2.6650 H     1 <1>   0.0800 
 42 H       -6.7640    -2.7770    -2.0280 H     1 <1>   0.0800 
 43 H       -6.4000    -5.0550     0.0960 H     1 <1>   0.3700 
 44 H       -6.5430    -7.6050    -0.6100 H     1 <1>   0.0800 
 45 H       -8.0030    -7.0550    -1.4030 H     1 <1>   0.0800 
 46 H       -8.1480    -4.9430     1.5960 H     1 <1>   0.1500 
 47 H       -9.8050    -8.5250     3.3780 H     1 <1>   0.1500 
 48 H       -9.4020    -5.8730     3.5860 H     1 <1>   0.1500 
@<TRIPOS>BOND
  1   1   2  1   
  2   1   3  1   
  3   2   4  2   
  4   2   5  1   
  5   3   6  ar  
  6   3   7  ar  
  7   4   6  1   
  8   5   8  1   
  9   5   9  1   
 10   6  10  ar  
 11   7  11  ar  
 12   7  27  1   
 13   8  12  1   
 14   8  28  1   
 15   8  29  1   
 16   9  13  1   
 17   9  30  1   
 18   9  31  1   
 19  10  14  ar  
 20  10  32  1   
 21  11  14  ar  
 22  11  33  1   
 23  12  15  1   
 24  12  34  1   
 25  12  35  1   
 26  13  16  1   
 27  13  36  1   
 28  13  37  1   
 29  14  38  1   
 30  15  16  1   
 31  15  17  1   
 32  16  39  1   
 33  16  40  1   
 34  17  18  1   
 35  17  41  1   
 36  17  42  1   
 37  18  19  2   
 38  18  20  am  
 39  20  21  1   
 40  20  43  1   
 41  21  22  1   
 42  21  44  1   
 43  21  45  1   
 44  22  23  1   
 45  22  24  2   
 46  23  25  1   
 47  24  26  1   
 48  24  46  1   
 49  25  26  2   
 50  25  47  1   
 51  26  48  1   
@<TRIPOS>SUBSTRUCTURE
  1 ****  15 GROUP 4 **** **** 0

# MOE 2024.06 (io_trps.svl 2023.06)
