@<TRIPOS>MOLECULE
NONAME
41 42 1 0 0 
SMALL
USER_CHARGES


@<TRIPOS>ATOM
  1 F       -0.8430    -0.0090    -0.3980 F     1 <1>  -0.1900 
  2 C       -1.8570    -0.8240    -0.2640 C.ar  1 <1>   0.1900 
  3 C       -3.0730    -0.3120     0.1460 C.ar  1 <1>  -0.1500 
  4 C       -1.6720    -2.1660    -0.5370 C.ar  1 <1>  -0.1500 
  5 C       -4.1410    -1.1820     0.2860 C.ar  1 <1>  -0.1500 
  6 C       -2.7460    -3.0290    -0.3940 C.ar  1 <1>  -0.1500 
  7 C       -3.9860    -2.5370     0.0190 C.ar  1 <1>   0.0830 
  8 O       -5.0870    -3.3140     0.1820 O.3   1 <1>  -0.3630 
  9 C       -5.0490    -4.6970    -0.0560 C.3   1 <1>   0.1200 
 10 C       -6.4520    -5.2370     0.2160 C.3   1 <1>  -0.1600 
 11 C       -6.5060    -6.7430    -0.0260 C.3   1 <1>   0.3430 
 12 N       -7.8530    -7.2690     0.3070 N.4   1 <1>  -0.9590 
 13 C       -7.8090    -8.7780     0.4670 C.3   1 <1>   0.3430 
 14 C       -8.8940    -6.8660    -0.6900 C.3   1 <1>   0.3430 
 15 C       -9.1530    -9.4820     0.1880 C.3   1 <1>   0.2000 
 16 C      -10.2820    -7.2150    -0.1440 C.3   1 <1>  -0.1600 
 17 O       -9.2360    -9.7330    -1.1710 O.3   1 <1>  -0.6800 
 18 C      -10.3280    -8.5830     0.5840 C.3   1 <1>  -0.1860 
 19 C      -11.6280    -9.3160     0.3490 C.2   1 <1>   0.9060 
 20 O      -12.4100    -9.4260     1.2890 O.co2 1 <1>  -0.9000 
 21 O      -11.8250    -9.7880    -0.7770 O.co2 1 <1>  -0.9000 
 22 H       -3.1770     0.7380     0.3490 H     1 <1>   0.1500 
 23 H       -0.7080    -2.5210    -0.8540 H     1 <1>   0.1500 
 24 H       -5.1000    -0.8140     0.6040 H     1 <1>   0.1500 
 25 H       -2.5950    -4.0700    -0.6090 H     1 <1>   0.1500 
 26 H       -4.7620    -4.8550    -1.0820 H     1 <1>   0.0800 
 27 H       -4.3240    -5.1340     0.6100 H     1 <1>   0.0800 
 28 H       -6.7070    -5.0250     1.2390 H     1 <1>   0.0800 
 29 H       -7.1360    -4.7280    -0.4390 H     1 <1>   0.0800 
 30 H       -5.7700    -7.2230     0.5980 H     1 <1>   0.0800 
 31 H       -6.2720    -6.9650    -1.0550 H     1 <1>   0.0800 
 32 H       -8.1640    -6.8820     1.2060 H     1 <1>   0.4500 
 33 H       -7.0790    -9.2040    -0.2000 H     1 <1>   0.0800 
 34 H       -7.5100    -9.0090     1.4750 H     1 <1>   0.0800 
 35 H       -8.8480    -5.8110    -0.8990 H     1 <1>   0.0800 
 36 H       -8.7330    -7.4040    -1.6110 H     1 <1>   0.0800 
 37 H       -9.2050   -10.4320     0.6940 H     1 <1>   0.0800 
 38 H      -10.6300    -6.4420     0.5180 H     1 <1>   0.0800 
 39 H      -10.9600    -7.2350    -0.9810 H     1 <1>   0.0800 
 40 H      -10.2100    -9.9260    -1.3510 H     1 <1>   0.4000 
 41 H      -10.2640    -8.4090     1.6430 H     1 <1>   0.0800 
@<TRIPOS>BOND
  1   1   2  1   
  2   2   3  ar  
  3   2   4  ar  
  4   3   5  ar  
  5   3  22  1   
  6   4   6  ar  
  7   4  23  1   
  8   5   7  ar  
  9   5  24  1   
 10   6   7  ar  
 11   6  25  1   
 12   7   8  1   
 13   8   9  1   
 14   9  10  1   
 15   9  26  1   
 16   9  27  1   
 17  10  11  1   
 18  10  28  1   
 19  10  29  1   
 20  11  12  1   
 21  11  30  1   
 22  11  31  1   
 23  12  13  1   
 24  12  14  1   
 25  12  32  1   
 26  13  15  1   
 27  13  33  1   
 28  13  34  1   
 29  14  16  1   
 30  14  35  1   
 31  14  36  1   
 32  15  17  1   
 33  15  18  1   
 34  15  37  1   
 35  16  18  1   
 36  16  38  1   
 37  16  39  1   
 38  17  40  1   
 39  18  19  1   
 40  18  41  1   
 41  19  20  ar  
 42  19  21  ar  
@<TRIPOS>SUBSTRUCTURE
  1 ****  10 GROUP 4 **** **** 0

# MOE 2024.06 (io_trps.svl 2023.06)
