@<TRIPOS>MOLECULE
NONAME
49 51 1 0 0 
SMALL
USER_CHARGES


@<TRIPOS>ATOM
  1 O        0.2140    -0.1150    -0.0370 O.2   1 <1>  -0.5750 
  2 C        1.2920    -0.6120    -0.2250 C.2   1 <1>   0.8490 
  3 N        2.4110     0.1550    -0.3260 N.pl3 1 <1>  -0.7330 
  4 C        1.4070    -2.1300    -0.3580 C.3   1 <1>  -0.0270 
  5 C        2.4890     1.4870    -0.2230 C.cat 1 <1>   1.0690 
  6 C        0.0000    -2.7570    -0.3400 C.3   1 <1>   0.3370 
  7 C        2.2870    -2.7460     0.7510 C.3   1 <1>  -0.1670 
  8 N        1.4810     2.3110    -0.0080 N.pl3 1 <1>  -0.7040 
  9 N        3.6220     2.1840    -0.3250 N.pl3 1 <1>  -0.7670 
 10 N        0.0540    -4.2500    -0.4150 N.4   1 <1>  -0.9610 
 11 C        2.2700    -4.2800     0.6750 C.3   1 <1>  -0.1670 
 12 C        1.9610     3.5970     0.0340 C.2   1 <1>   0.1930 
 13 C        3.2890     3.5210    -0.1620 C.2   1 <1>   0.1930 
 14 C        5.0270     1.7470    -0.5640 C.3   1 <1>   0.2670 
 15 C       -1.3230    -4.8170    -0.5330 C.3   1 <1>   0.4170 
 16 C        0.8470    -4.8420     0.7050 C.3   1 <1>   0.3370 
 17 C       -2.1330    -4.7020     0.7700 C.3   1 <1>  -0.1670 
 18 C       -1.2520    -6.2720    -1.0130 C.3   1 <1>  -0.1670 
 19 C       -3.5470    -5.2670     0.5710 C.3   1 <1>  -0.1670 
 20 C       -2.6630    -6.8420    -1.2130 C.3   1 <1>  -0.1670 
 21 C       -3.4990    -6.7150     0.0670 C.3   1 <1>  -0.1670 
 22 H        3.2920    -0.3150    -0.4760 H     1 <1>   0.4450 
 23 H        1.8470    -2.3390    -1.3170 H     1 <1>   0.0720 
 24 H       -0.5750    -2.3730    -1.1670 H     1 <1>   0.0720 
 25 H       -0.5000    -2.4670     0.5710 H     1 <1>   0.0720 
 26 H        1.9170    -2.4430     1.7180 H     1 <1>   0.0720 
 27 H        3.3040    -2.4030     0.6660 H     1 <1>   0.0720 
 28 H        0.5130     1.9860     0.1020 H     1 <1>   0.4450 
 29 H        0.5280    -4.5180    -1.2860 H     1 <1>   0.4450 
 30 H        2.8150    -4.6830     1.5120 H     1 <1>   0.0720 
 31 H        2.7670    -4.6180    -0.2190 H     1 <1>   0.0720 
 32 H        1.3340     4.4610     0.1980 H     1 <1>   0.1430 
 33 H        4.0140     4.3210    -0.1970 H     1 <1>   0.1430 
 34 H        5.0920     0.6780    -0.6620 H     1 <1>   0.0720 
 35 H        5.6500     2.0580     0.2580 H     1 <1>   0.0720 
 36 H        5.3990     2.1990    -1.4690 H     1 <1>   0.0720 
 37 H       -1.8520    -4.2620    -1.2910 H     1 <1>   0.0720 
 38 H        0.8820    -5.9150     0.6110 H     1 <1>   0.0720 
 39 H        0.3850    -4.5990     1.6480 H     1 <1>   0.0720 
 40 H       -2.2210    -3.6740     1.0730 H     1 <1>   0.0720 
 41 H       -1.6640    -5.2590     1.5600 H     1 <1>   0.0720 
 42 H       -0.7440    -6.8850    -0.2900 H     1 <1>   0.0720 
 43 H       -0.7230    -6.3270    -1.9480 H     1 <1>   0.0720 
 44 H       -4.0850    -4.6620    -0.1390 H     1 <1>   0.0720 
 45 H       -4.0850    -5.2320     1.5040 H     1 <1>   0.0720 
 46 H       -2.5980    -7.8800    -1.4960 H     1 <1>   0.0720 
 47 H       -3.1570    -6.3160    -2.0130 H     1 <1>   0.0720 
 48 H       -4.5010    -7.0620    -0.1240 H     1 <1>   0.0720 
 49 H       -3.0790    -7.3470     0.8320 H     1 <1>   0.0720 
@<TRIPOS>BOND
  1   1   2  2   
  2   2   3  1   
  3   2   4  1   
  4   3   5  ar  
  5   3  22  1   
  6   4   6  1   
  7   4   7  1   
  8   4  23  1   
  9   5   8  ar  
 10   5   9  ar  
 11   6  10  1   
 12   6  24  1   
 13   6  25  1   
 14   7  11  1   
 15   7  26  1   
 16   7  27  1   
 17   8  12  1   
 18   8  28  1   
 19   9  13  1   
 20   9  14  1   
 21  10  15  1   
 22  10  16  1   
 23  10  29  1   
 24  11  16  1   
 25  11  30  1   
 26  11  31  1   
 27  12  13  2   
 28  12  32  1   
 29  13  33  1   
 30  14  34  1   
 31  14  35  1   
 32  14  36  1   
 33  15  17  1   
 34  15  18  1   
 35  15  37  1   
 36  16  38  1   
 37  16  39  1   
 38  17  19  1   
 39  17  40  1   
 40  17  41  1   
 41  18  20  1   
 42  18  42  1   
 43  18  43  1   
 44  19  21  1   
 45  19  44  1   
 46  19  45  1   
 47  20  21  1   
 48  20  46  1   
 49  20  47  1   
 50  21  48  1   
 51  21  49  1   
@<TRIPOS>SUBSTRUCTURE
  1 ****   4 GROUP 4 **** **** 0

# MOE 2024.06 (io_trps.svl 2023.06)
