@<TRIPOS>MOLECULE
NONAME
54 57 1 0 0 
SMALL
USER_CHARGES


@<TRIPOS>ATOM
  1 O       -0.8120     0.3260     2.6440 O.2   1 <1>  -0.5700 
  2 C       -1.4900     1.0950     1.9870 C.2   1 <1>   0.5440 
  3 N       -2.8210     0.7830     1.7640 N.am  1 <1>  -0.6600 
  4 C       -0.8830     2.3230     1.5220 C.ar  1 <1>   0.0860 
  5 C       -3.7510     1.7100     1.0540 C.3   1 <1>   0.2200 
  6 C       -3.3370    -0.5420     2.2290 C.3   1 <1>   0.0600 
  7 C       -0.6180     2.5610     0.1700 C.ar  1 <1>   0.0820 
  8 C       -0.5420     3.3180     2.4400 C.ar  1 <1>  -0.1500 
  9 C       -4.8930     2.1990     1.9420 C.3   1 <1>  -0.1600 
 10 C       -4.4320     1.0830    -0.1620 C.3   1 <1>  -0.1600 
 11 O       -0.9530     1.6220    -0.7530 O.3   1 <1>  -0.3620 
 12 C       -0.0190     3.7590    -0.2310 C.ar  1 <1>   0.0820 
 13 C        0.0320     4.5110     2.0390 C.ar  1 <1>  -0.1500 
 14 C       -5.9920     2.6250     0.9590 C.3   1 <1>  -0.0800 
 15 C       -5.6930     1.9320    -0.3760 C.3   1 <1>  -0.0800 
 16 C       -0.8710     1.9590    -2.1250 C.3   1 <1>   0.1200 
 17 O        0.2810     3.9920    -1.5340 O.3   1 <1>  -0.3630 
 18 C        0.2930     4.7330     0.6980 C.ar  1 <1>  -0.1500 
 19 C       -7.4160     2.1960     1.3420 C.3   1 <1>  -0.1600 
 20 C       -6.9610     1.1420    -0.7340 C.3   1 <1>  -0.1600 
 21 C        0.3390     2.8640    -2.3820 C.3   1 <1>   0.1200 
 22 C       -8.1030     1.8330     0.0210 C.3   1 <1>   0.4230 
 23 N       -8.5530     3.0660    -0.7050 N.4   1 <1>  -0.9590 
 24 C       -9.5700     3.8530     0.0650 C.3   1 <1>   0.2630 
 25 C       -9.1190     2.7650    -2.0600 C.3   1 <1>   0.2630 
 26 H       -3.2220     2.5810     0.7100 H     1 <1>   0.0800 
 27 H       -4.4080    -0.5890     2.1850 H     1 <1>   0.0800 
 28 H       -3.0270    -0.7150     3.2450 H     1 <1>   0.0800 
 29 H       -2.9240    -1.3190     1.6090 H     1 <1>   0.0800 
 30 H       -0.7320     3.1400     3.4840 H     1 <1>   0.1500 
 31 H       -5.2370     1.4060     2.5800 H     1 <1>   0.0800 
 32 H       -4.5720     3.0230     2.5540 H     1 <1>   0.0800 
 33 H       -3.7830     1.1140    -1.0190 H     1 <1>   0.0800 
 34 H       -4.6930     0.0610     0.0380 H     1 <1>   0.0800 
 35 H        0.2820     5.2640     2.7670 H     1 <1>   0.1500 
 36 H       -5.9490     3.6920     0.8140 H     1 <1>   0.0800 
 37 H       -5.4950     2.6840    -1.1220 H     1 <1>   0.0800 
 38 H       -0.7910     1.0450    -2.6850 H     1 <1>   0.0800 
 39 H       -1.7790     2.4650    -2.4000 H     1 <1>   0.0800 
 40 H        0.7460     5.6520     0.3710 H     1 <1>   0.1500 
 41 H       -7.9230     2.9360     1.9310 H     1 <1>   0.0800 
 42 H       -7.3720     1.2960     1.9310 H     1 <1>   0.0800 
 43 H       -6.8840     0.1430    -0.3410 H     1 <1>   0.0800 
 44 H       -7.1030     1.0560    -1.7940 H     1 <1>   0.0800 
 45 H        0.3500     3.2110    -3.3990 H     1 <1>   0.0800 
 46 H        1.2530     2.3350    -2.1770 H     1 <1>   0.0800 
 47 H       -8.9340     1.1640     0.1780 H     1 <1>   0.0800 
 48 H       -7.7120     3.6480    -0.8230 H     1 <1>   0.4500 
 49 H      -10.4280     3.2390     0.2900 H     1 <1>   0.0800 
 50 H       -9.8980     4.7030    -0.5110 H     1 <1>   0.0800 
 51 H       -9.1540     4.2170     0.9900 H     1 <1>   0.0800 
 52 H       -9.9480     2.0810    -1.9770 H     1 <1>   0.0800 
 53 H       -8.3710     2.3250    -2.6990 H     1 <1>   0.0800 
 54 H       -9.4670     3.6720    -2.5290 H     1 <1>   0.0800 
@<TRIPOS>BOND
  1   1   2  2   
  2   2   3  am  
  3   2   4  1   
  4   3   5  1   
  5   3   6  1   
  6   4   7  ar  
  7   4   8  ar  
  8   5   9  1   
  9   5  10  1   
 10   5  26  1   
 11   6  27  1   
 12   6  28  1   
 13   6  29  1   
 14   7  11  1   
 15   7  12  ar  
 16   8  13  ar  
 17   8  30  1   
 18   9  14  1   
 19   9  31  1   
 20   9  32  1   
 21  10  15  1   
 22  10  33  1   
 23  10  34  1   
 24  11  16  1   
 25  12  17  1   
 26  12  18  ar  
 27  13  18  ar  
 28  13  35  1   
 29  14  15  1   
 30  14  19  1   
 31  14  36  1   
 32  15  20  1   
 33  15  37  1   
 34  16  21  1   
 35  16  38  1   
 36  16  39  1   
 37  17  21  1   
 38  18  40  1   
 39  19  22  1   
 40  19  41  1   
 41  19  42  1   
 42  20  22  1   
 43  20  43  1   
 44  20  44  1   
 45  21  45  1   
 46  21  46  1   
 47  22  23  1   
 48  22  47  1   
 49  23  24  1   
 50  23  25  1   
 51  23  48  1   
 52  24  49  1   
 53  24  50  1   
 54  24  51  1   
 55  25  52  1   
 56  25  53  1   
 57  25  54  1   
@<TRIPOS>SUBSTRUCTURE
  1 ****   5 GROUP 4 **** **** 0

# MOE 2024.06 (io_trps.svl 2023.06)
