@<TRIPOS>MOLECULE
NONAME
62 64 1 0 0 
SMALL
USER_CHARGES


@<TRIPOS>ATOM
  1 O       -0.5650     0.4140     1.7780 O.2   1 <1>  -0.5700 
  2 C       -1.4340     1.0510     1.2130 C.2   1 <1>   0.5440 
  3 N       -2.4420     0.3820     0.5480 N.am  1 <1>  -0.6600 
  4 C       -1.3660     2.4980     1.2570 C.ar  1 <1>   0.0860 
  5 C       -2.6230    -1.0910     0.6920 C.3   1 <1>   0.1400 
  6 C       -3.2910     0.9970    -0.5100 C.3   1 <1>   0.1400 
  7 C       -0.2130     3.1850     0.9310 C.ar  1 <1>  -0.1500 
  8 C       -2.4330     3.2960     1.6480 C.ar  1 <1>  -0.1500 
  9 C       -2.3300    -1.7820    -0.6440 C.3   1 <1>  -0.1600 
 10 C       -3.0100     0.3220    -1.8570 C.3   1 <1>  -0.1600 
 11 C       -0.1700     4.5690     0.9880 C.ar  1 <1>   0.4100 
 12 C       -2.2980     4.6700     1.6730 C.ar  1 <1>   0.1600 
 13 C       -3.1860    -1.2010    -1.7790 C.3   1 <1>  -0.1600 
 14 N       -1.1960     5.3240     1.3480 N.ar  1 <1>  -0.6200 
 15 N        0.9980     5.2310     0.6820 N.pl3 1 <1>  -0.8380 
 16 C        0.8970     6.2300    -0.4490 C.3   1 <1>   0.2090 
 17 C        1.7400     5.7190     1.8980 C.3   1 <1>   0.2090 
 18 C        2.0890     7.2260    -0.5110 C.3   1 <1>   0.4230 
 19 C        3.1170     6.3430     1.5590 C.3   1 <1>   0.3430 
 20 N        3.2870     6.5300     0.0790 N.4   1 <1>  -0.9590 
 21 C        1.6850     8.5620     0.1630 C.3   1 <1>  -0.1600 
 22 C        4.6320     7.0380    -0.3060 C.3   1 <1>   0.3430 
 23 C        2.7200     9.6900     0.2230 C.3   1 <1>   0.1200 
 24 C        4.9010     6.8580    -1.8110 C.3   1 <1>  -0.0800 
 25 O        3.6010     9.4460     1.2610 O.3   1 <1>  -0.6800 
 26 C        4.7160     5.4040    -2.2800 C.3   1 <1>  -0.2400 
 27 C        6.3300     7.3150    -2.1320 C.3   1 <1>  -0.2400 
 28 H       -3.6370    -1.2900     0.9910 H     1 <1>   0.0800 
 29 H       -1.9720    -1.4850     1.4530 H     1 <1>   0.0800 
 30 H       -3.0960     2.0500    -0.6020 H     1 <1>   0.0800 
 31 H       -4.3270     0.8680    -0.2460 H     1 <1>   0.0800 
 32 H        0.6640     2.6410     0.6360 H     1 <1>   0.1500 
 33 H       -3.3610     2.8360     1.9360 H     1 <1>   0.1500 
 34 H       -2.5210    -2.8360    -0.5480 H     1 <1>   0.0800 
 35 H       -1.2860    -1.6570    -0.8730 H     1 <1>   0.0800 
 36 H       -2.0030     0.5530    -2.1570 H     1 <1>   0.0800 
 37 H       -3.6740     0.7230    -2.6020 H     1 <1>   0.0800 
 38 H       -3.1430     5.2650     1.9800 H     1 <1>   0.1500 
 39 H       -4.2220    -1.4340    -1.6000 H     1 <1>   0.0800 
 40 H       -2.9000    -1.6500    -2.7150 H     1 <1>   0.0800 
 41 H       -0.0310     6.7730    -0.3850 H     1 <1>   0.0800 
 42 H        0.8670     5.6800    -1.3730 H     1 <1>   0.0800 
 43 H        1.8830     4.8990     2.5820 H     1 <1>   0.0800 
 44 H        1.1370     6.4500     2.4080 H     1 <1>   0.0800 
 45 H        2.2800     7.4340    -1.5500 H     1 <1>   0.0800 
 46 H        3.8910     5.6930     1.9320 H     1 <1>   0.0800 
 47 H        3.2120     7.2870     2.0690 H     1 <1>   0.0800 
 48 H        3.2070     5.5700    -0.2850 H     1 <1>   0.4500 
 49 H        1.2850     8.3980     1.1470 H     1 <1>   0.0800 
 50 H        0.8650     8.9490    -0.4160 H     1 <1>   0.0800 
 51 H        5.3840     6.4930     0.2400 H     1 <1>   0.0800 
 52 H        4.7350     8.0760    -0.0500 H     1 <1>   0.0800 
 53 H        2.2260    10.6260     0.4320 H     1 <1>   0.0800 
 54 H        3.2740     9.7820    -0.6960 H     1 <1>   0.0800 
 55 H        4.2330     7.4930    -2.3670 H     1 <1>   0.0800 
 56 H        4.0670    10.2720     1.5150 H     1 <1>   0.4000 
 57 H        5.3460     4.7370    -1.7160 H     1 <1>   0.0800 
 58 H        4.9830     5.3140    -3.3190 H     1 <1>   0.0800 
 59 H        3.6950     5.0820    -2.1820 H     1 <1>   0.0800 
 60 H        7.0540     6.7060    -1.6190 H     1 <1>   0.0800 
 61 H        6.4760     8.3410    -1.8400 H     1 <1>   0.0800 
 62 H        6.5180     7.2430    -3.1900 H     1 <1>   0.0800 
@<TRIPOS>BOND
  1   1   2  2   
  2   2   3  am  
  3   2   4  1   
  4   3   5  1   
  5   3   6  1   
  6   4   7  ar  
  7   4   8  ar  
  8   5   9  1   
  9   5  28  1   
 10   5  29  1   
 11   6  10  1   
 12   6  30  1   
 13   6  31  1   
 14   7  11  ar  
 15   7  32  1   
 16   8  12  ar  
 17   8  33  1   
 18   9  13  1   
 19   9  34  1   
 20   9  35  1   
 21  10  13  1   
 22  10  36  1   
 23  10  37  1   
 24  11  14  ar  
 25  11  15  1   
 26  12  14  ar  
 27  12  38  1   
 28  13  39  1   
 29  13  40  1   
 30  15  16  1   
 31  15  17  1   
 32  16  18  1   
 33  16  41  1   
 34  16  42  1   
 35  17  19  1   
 36  17  43  1   
 37  17  44  1   
 38  18  20  1   
 39  18  21  1   
 40  18  45  1   
 41  19  20  1   
 42  19  46  1   
 43  19  47  1   
 44  20  22  1   
 45  20  48  1   
 46  21  23  1   
 47  21  49  1   
 48  21  50  1   
 49  22  24  1   
 50  22  51  1   
 51  22  52  1   
 52  23  25  1   
 53  23  53  1   
 54  23  54  1   
 55  24  26  1   
 56  24  27  1   
 57  24  55  1   
 58  25  56  1   
 59  26  57  1   
 60  26  58  1   
 61  26  59  1   
 62  27  60  1   
 63  27  61  1   
 64  27  62  1   
@<TRIPOS>SUBSTRUCTURE
  1 ****  11 GROUP 4 **** **** 0

# MOE 2024.06 (io_trps.svl 2023.06)
