@<TRIPOS>MOLECULE
NONAME
47 49 1 0 0 
SMALL
USER_CHARGES


@<TRIPOS>ATOM
  1 O        0.0540     2.1470     2.2800 O.2   1 <1>  -0.5700 
  2 C       -0.0080     2.6300     1.1670 C.2   1 <1>   0.5440 
  3 N       -1.2210     3.0710     0.6840 N.am  1 <1>  -0.6600 
  4 C        1.1900     2.7300     0.3700 C.ar  1 <1>   0.0860 
  5 C       -2.4860     2.8150     1.4490 C.3   1 <1>   0.1400 
  6 C       -1.3500     3.7820    -0.6240 C.3   1 <1>   0.1400 
  7 C        1.5040     1.8080    -0.6200 C.ar  1 <1>   0.1660 
  8 C        2.0860     3.7760     0.5330 C.ar  1 <1>   0.1660 
  9 C       -3.7020     2.5990     0.5160 C.3   1 <1>   0.0000 
 10 C       -2.6070     4.6520    -0.6440 C.3   1 <1>  -0.1600 
 11 N        2.5680     1.9300    -1.3830 N.ar  1 <1>  -0.6200 
 12 C        0.6340     0.5930    -0.8990 C.3   1 <1>  -0.0970 
 13 N        3.1570     3.9140    -0.2180 N.ar  1 <1>  -0.6200 
 14 C        1.8690     4.8370     1.5980 C.3   1 <1>  -0.0970 
 15 C       -4.9440     2.2810     1.3750 C.3   1 <1>   0.2000 
 16 C       -3.8960     3.8490    -0.3850 C.3   1 <1>  -0.1600 
 17 C       -3.5310     1.2960    -0.2930 C.3   1 <1>  -0.1600 
 18 C        3.3350     2.9770    -1.1340 C.ar  1 <1>   0.4700 
 19 O       -6.0990     2.4510     0.6020 O.3   1 <1>  -0.5600 
 20 C       -4.8190     0.7940     1.7320 C.3   1 <1>  -0.1600 
 21 C       -3.9440     0.1570     0.6450 C.3   1 <1>  -0.1600 
 22 C       -7.2630     2.7030     1.3240 C.3   1 <1>   0.0400 
 23 H       -2.3520     1.9560     2.0820 H     1 <1>   0.0800 
 24 H       -2.6710     3.6620     2.0860 H     1 <1>   0.0800 
 25 H       -0.4880     4.4050    -0.7910 H     1 <1>   0.0800 
 26 H       -1.4010     3.0570    -1.4190 H     1 <1>   0.0800 
 27 H       -2.5000     5.4100     0.1130 H     1 <1>   0.0800 
 28 H       -2.6830     5.1560    -1.5910 H     1 <1>   0.0800 
 29 H        0.0420     0.3200    -0.0450 H     1 <1>   0.0800 
 30 H        1.2560    -0.2470    -1.1530 H     1 <1>   0.0800 
 31 H       -0.0180     0.7990    -1.7280 H     1 <1>   0.0800 
 32 H        1.7780     4.3750     2.5650 H     1 <1>   0.0800 
 33 H        0.9730     5.3920     1.3890 H     1 <1>   0.0800 
 34 H        2.6990     5.5210     1.6250 H     1 <1>   0.0800 
 35 H       -5.0010     2.9170     2.2420 H     1 <1>   0.0800 
 36 H       -4.3290     3.5500    -1.3240 H     1 <1>   0.0800 
 37 H       -4.6040     4.5160     0.0760 H     1 <1>   0.0800 
 38 H       -4.2130     1.3020    -1.1260 H     1 <1>   0.0800 
 39 H       -2.5350     1.1540    -0.6700 H     1 <1>   0.0800 
 40 H        4.2110     3.0800    -1.7530 H     1 <1>   0.1500 
 41 H       -4.3230     0.6990     2.6820 H     1 <1>   0.0800 
 42 H       -5.7780     0.3120     1.7980 H     1 <1>   0.0800 
 43 H       -3.0720    -0.2900     1.0920 H     1 <1>   0.0800 
 44 H       -4.4860    -0.5990     0.1040 H     1 <1>   0.0800 
 45 H       -8.0770     2.7830     0.6270 H     1 <1>   0.0800 
 46 H       -7.1530     3.6310     1.8590 H     1 <1>   0.0800 
 47 H       -7.4480     1.8920     2.0060 H     1 <1>   0.0800 
@<TRIPOS>BOND
  1   1   2  2   
  2   2   3  am  
  3   2   4  1   
  4   3   5  1   
  5   3   6  1   
  6   4   7  ar  
  7   4   8  ar  
  8   5   9  1   
  9   5  23  1   
 10   5  24  1   
 11   6  10  1   
 12   6  25  1   
 13   6  26  1   
 14   7  11  ar  
 15   7  12  1   
 16   8  13  ar  
 17   8  14  1   
 18   9  15  1   
 19   9  16  1   
 20   9  17  1   
 21  10  16  1   
 22  10  27  1   
 23  10  28  1   
 24  11  18  ar  
 25  12  29  1   
 26  12  30  1   
 27  12  31  1   
 28  13  18  ar  
 29  14  32  1   
 30  14  33  1   
 31  14  34  1   
 32  15  19  1   
 33  15  20  1   
 34  15  35  1   
 35  16  36  1   
 36  16  37  1   
 37  17  21  1   
 38  17  38  1   
 39  17  39  1   
 40  18  40  1   
 41  19  22  1   
 42  20  21  1   
 43  20  41  1   
 44  20  42  1   
 45  21  43  1   
 46  21  44  1   
 47  22  45  1   
 48  22  46  1   
 49  22  47  1   
@<TRIPOS>SUBSTRUCTURE
  1 ****   3 GROUP 4 **** **** 0

# MOE 2024.06 (io_trps.svl 2023.06)
