@<TRIPOS>MOLECULE
NONAME
51 53 1 0 0 
SMALL
USER_CHARGES


@<TRIPOS>ATOM
  1 O        1.4610     4.3840     1.6220 O.3   1 <1>  -0.5600 
  2 C        0.6960     3.8930     0.5600 C.3   1 <1>   0.1200 
  3 C        2.7200     3.7940     1.7080 C.3   1 <1>   0.0400 
  4 C       -0.7430     4.3730     0.7400 C.3   1 <1>   0.0960 
  5 N       -1.5440     4.1640    -0.4880 N.pl3 1 <1>   0.0480 
  6 C       -1.5000     4.7910    -1.6900 C.2   1 <1>  -0.3320 
  7 C       -2.5790     3.2990    -0.5990 C.2   1 <1>   0.0360 
  8 C       -2.4990     4.2640    -2.4310 C.2   1 <1>   0.0770 
  9 C       -0.5130     5.8560    -2.1260 C.3   1 <1>   0.3890 
 10 N       -3.1740     3.3270    -1.7450 N.2   1 <1>  -0.5650 
 11 N       -0.5610     6.9580    -1.1470 N.pl3 1 <1>  -0.8690 
 12 C        0.4360     7.3390    -0.3220 C.ar  1 <1>   0.4100 
 13 N        1.6470     6.9160    -0.6150 N.ar  1 <1>  -0.6200 
 14 C        0.1530     8.1040     0.8380 C.ar  1 <1>  -0.1430 
 15 C        2.6060     7.1320     0.2680 C.ar  1 <1>   0.7710 
 16 C        1.1630     8.2890     1.7360 C.ar  1 <1>   0.2180 
 17 C       -1.2620     8.6660     1.0220 C.3   1 <1>  -0.0970 
 18 N        2.3750     7.7770     1.4200 N.ar  1 <1>  -0.1790 
 19 N        3.8610     6.6930     0.0010 N.pl3 1 <1>  -0.8380 
 20 C        1.0630     9.0190     3.0700 C.3   1 <1>  -0.0970 
 21 C        4.1980     6.0420    -1.2970 C.3   1 <1>   0.2090 
 22 C        5.0660     6.7450     0.8720 C.3   1 <1>   0.2090 
 23 C        5.7070     5.8430    -1.2670 C.3   1 <1>  -0.1600 
 24 C        6.0630     5.8020     0.2140 C.3   1 <1>  -0.1600 
 25 H        0.7250     2.8170     0.5670 H     1 <1>   0.0800 
 26 H        1.1180     4.2670    -0.3550 H     1 <1>   0.0800 
 27 H        3.2460     4.2350     2.5350 H     1 <1>   0.0800 
 28 H        3.2600     3.9690     0.7940 H     1 <1>   0.0800 
 29 H        2.6050     2.7360     1.8800 H     1 <1>   0.0800 
 30 H       -0.7600     5.4140     0.9860 H     1 <1>   0.0800 
 31 H       -1.1970     3.8280     1.5470 H     1 <1>   0.0800 
 32 H       -2.8720     2.6530     0.2090 H     1 <1>   0.1500 
 33 H       -2.7760     4.5090    -3.4440 H     1 <1>   0.1500 
 34 H       -0.7840     6.2350    -3.0970 H     1 <1>   0.0800 
 35 H        0.4730     5.4340    -2.1990 H     1 <1>   0.0800 
 36 H       -1.5180     7.2760    -0.9850 H     1 <1>   0.4000 
 37 H       -1.6080     9.1030     0.1010 H     1 <1>   0.0800 
 38 H       -1.3090     9.4380     1.7660 H     1 <1>   0.0800 
 39 H       -1.9390     7.8770     1.3010 H     1 <1>   0.0800 
 40 H        3.1740     7.8650     2.0310 H     1 <1>   0.4570 
 41 H        0.0500     9.0620     3.4250 H     1 <1>   0.0800 
 42 H        1.4350    10.0240     2.9710 H     1 <1>   0.0800 
 43 H        1.6370     8.5090     3.8240 H     1 <1>   0.0800 
 44 H        3.9020     6.6580    -2.1300 H     1 <1>   0.0800 
 45 H        3.6960     5.0910    -1.3610 H     1 <1>   0.0800 
 46 H        4.8500     6.4250     1.8770 H     1 <1>   0.0800 
 47 H        5.4650     7.7460     0.8740 H     1 <1>   0.0800 
 48 H        6.1810     6.6880    -1.7370 H     1 <1>   0.0800 
 49 H        6.0020     4.9480    -1.7860 H     1 <1>   0.0800 
 50 H        5.9190     4.8070     0.5980 H     1 <1>   0.0800 
 51 H        7.0810     6.1010     0.3970 H     1 <1>   0.0800 
@<TRIPOS>BOND
  1   1   2  1   
  2   1   3  1   
  3   2   4  1   
  4   2  25  1   
  5   2  26  1   
  6   3  27  1   
  7   3  28  1   
  8   3  29  1   
  9   4   5  1   
 10   4  30  1   
 11   4  31  1   
 12   5   6  1   
 13   5   7  1   
 14   6   8  2   
 15   6   9  1   
 16   7  10  2   
 17   7  32  1   
 18   8  10  1   
 19   8  33  1   
 20   9  11  1   
 21   9  34  1   
 22   9  35  1   
 23  11  12  1   
 24  11  36  1   
 25  12  13  ar  
 26  12  14  ar  
 27  13  15  ar  
 28  14  16  ar  
 29  14  17  1   
 30  15  18  ar  
 31  15  19  1   
 32  16  18  ar  
 33  16  20  1   
 34  17  37  1   
 35  17  38  1   
 36  17  39  1   
 37  18  40  1   
 38  19  21  1   
 39  19  22  1   
 40  20  41  1   
 41  20  42  1   
 42  20  43  1   
 43  21  23  1   
 44  21  44  1   
 45  21  45  1   
 46  22  24  1   
 47  22  46  1   
 48  22  47  1   
 49  23  24  1   
 50  23  48  1   
 51  23  49  1   
 52  24  50  1   
 53  24  51  1   
@<TRIPOS>SUBSTRUCTURE
  1 ****  13 GROUP 4 **** **** 0

# MOE 2024.06 (io_trps.svl 2023.06)
