@<TRIPOS>MOLECULE
NONAME
45 47 1 0 0 
SMALL
USER_CHARGES


@<TRIPOS>ATOM
  1 S       -1.4500     0.4750    -2.5190 S.3   1 <1>  -0.0800 
  2 C       -0.7130     1.3330    -1.1870 C.2   1 <1>   0.1980 
  3 C       -2.2760    -0.5340    -1.3680 C.2   1 <1>  -0.1100 
  4 N       -1.0480     0.9100    -0.0310 N.2   1 <1>  -0.5650 
  5 C        0.2330     2.4770    -1.5210 C.3   1 <1>   0.5230 
  6 C       -1.9360    -0.1500    -0.1280 C.2   1 <1>   0.0460 
  7 N        0.9520     2.8970    -0.2750 N.4   1 <1>  -0.9590 
  8 C       -2.4300    -0.7610     1.1650 C.3   1 <1>  -0.0590 
  9 C        1.3320     4.3410    -0.3270 C.3   1 <1>   0.3430 
 10 C        2.0730     1.9570     0.0300 C.3   1 <1>   0.2630 
 11 C        1.8170     4.8810     1.0290 C.3   1 <1>  -0.0800 
 12 C        1.5820     6.3820     1.0130 C.3   1 <1>   0.2090 
 13 C        3.3460     4.8130     1.1780 C.3   1 <1>  -0.1600 
 14 N        2.6750     6.8590     0.1460 N.pl3 1 <1>  -0.8380 
 15 C        3.8760     6.0340     0.4210 C.3   1 <1>   0.2090 
 16 C        2.8570     8.2220    -0.1160 C.ar  1 <1>   0.1000 
 17 C        3.7420     8.6090    -1.1190 C.ar  1 <1>  -0.1500 
 18 C        2.1810     9.2240     0.5770 C.ar  1 <1>  -0.1500 
 19 C        3.9530     9.9430    -1.4160 C.ar  1 <1>  -0.1500 
 20 C        2.3870    10.5600     0.2840 C.ar  1 <1>  -0.1500 
 21 C        3.2750    10.9230    -0.7130 C.ar  1 <1>  -0.1500 
 22 H       -2.9260    -1.3050    -1.7420 H     1 <1>   0.1500 
 23 H       -0.3520     3.2950    -1.9070 H     1 <1>   0.0800 
 24 H        0.9350     2.1680    -2.2760 H     1 <1>   0.0800 
 25 H        0.2390     2.7540     0.4630 H     1 <1>   0.4500 
 26 H       -3.1120    -1.5670     0.9620 H     1 <1>   0.0800 
 27 H       -2.9380    -0.0160     1.7500 H     1 <1>   0.0800 
 28 H       -1.6000    -1.1430     1.7300 H     1 <1>   0.0800 
 29 H        0.4690     4.9140    -0.6240 H     1 <1>   0.0800 
 30 H        2.0970     4.5090    -1.0690 H     1 <1>   0.0800 
 31 H        2.8500     2.0400    -0.7120 H     1 <1>   0.0800 
 32 H        1.7120     0.9400     0.0450 H     1 <1>   0.0800 
 33 H        2.4910     2.1770     0.9990 H     1 <1>   0.0800 
 34 H        1.2870     4.4290     1.8480 H     1 <1>   0.0800 
 35 H        1.6970     6.7930     2.0030 H     1 <1>   0.0800 
 36 H        0.6210     6.6590     0.6120 H     1 <1>   0.0800 
 37 H        3.7880     3.9100     0.8050 H     1 <1>   0.0800 
 38 H        3.6140     4.9160     2.2160 H     1 <1>   0.0800 
 39 H        4.3330     5.7430    -0.5090 H     1 <1>   0.0800 
 40 H        4.5880     6.5870     1.0140 H     1 <1>   0.0800 
 41 H        4.2650     7.8580    -1.6770 H     1 <1>   0.1500 
 42 H        1.4890     8.9750     1.3570 H     1 <1>   0.1500 
 43 H        4.6410    10.2200    -2.1940 H     1 <1>   0.1500 
 44 H        1.8570    11.3190     0.8310 H     1 <1>   0.1500 
 45 H        3.4360    11.9620    -0.9420 H     1 <1>   0.1500 
@<TRIPOS>BOND
  1   1   2  1   
  2   1   3  1   
  3   2   4  2   
  4   2   5  1   
  5   3   6  2   
  6   3  22  1   
  7   4   6  1   
  8   5   7  1   
  9   5  23  1   
 10   5  24  1   
 11   6   8  1   
 12   7   9  1   
 13   7  10  1   
 14   7  25  1   
 15   8  26  1   
 16   8  27  1   
 17   8  28  1   
 18   9  11  1   
 19   9  29  1   
 20   9  30  1   
 21  10  31  1   
 22  10  32  1   
 23  10  33  1   
 24  11  12  1   
 25  11  13  1   
 26  11  34  1   
 27  12  14  1   
 28  12  35  1   
 29  12  36  1   
 30  13  15  1   
 31  13  37  1   
 32  13  38  1   
 33  14  15  1   
 34  14  16  1   
 35  15  39  1   
 36  15  40  1   
 37  16  17  ar  
 38  16  18  ar  
 39  17  19  ar  
 40  17  41  1   
 41  18  20  ar  
 42  18  42  1   
 43  19  21  ar  
 44  19  43  1   
 45  20  21  ar  
 46  20  44  1   
 47  21  45  1   
@<TRIPOS>SUBSTRUCTURE
  1 ****   9 GROUP 4 **** **** 0

# MOE 2024.06 (io_trps.svl 2023.06)
