@<TRIPOS>MOLECULE
NONAME
36 37 1 0 0 
SMALL
USER_CHARGES


@<TRIPOS>ATOM
  1 S        0.8460     0.6190    -0.1980 S.3   1 <1>  -0.3320 
  2 C        0.3100     2.3390    -0.1510 C.ar  1 <1>   0.1020 
  3 C       -0.6290    -0.4090     0.2220 C.3   1 <1>  -0.0100 
  4 C        1.2620     3.3030    -0.4260 C.ar  1 <1>  -0.1500 
  5 C       -0.9960     2.6970     0.1470 C.ar  1 <1>  -0.1500 
  6 C        0.9180     4.6470    -0.4090 C.ar  1 <1>  -0.1430 
  7 C       -1.3410     4.0380     0.1660 C.ar  1 <1>  -0.1500 
  8 C       -0.3890     5.0060    -0.1100 C.ar  1 <1>  -0.1500 
  9 C        1.9630     5.7100    -0.7200 C.3   1 <1>   0.2530 
 10 N        3.1270     5.5930     0.1780 N.3   1 <1>  -0.8100 
 11 C        4.2850     6.4040    -0.2700 C.3   1 <1>   0.2900 
 12 C        2.7730     5.8650     1.5800 C.3   1 <1>   0.0300 
 13 C        4.0610     7.9170    -0.2510 C.2   1 <1>   0.2980 
 14 O        3.3570     8.4530    -1.2140 O.3   1 <1>  -0.0190 
 15 N        4.5040     8.7350     0.6160 N.2   1 <1>  -0.5650 
 16 N        3.3370     9.7140    -0.9360 N.2   1 <1>  -0.4100 
 17 C        4.0140     9.9000     0.1480 C.2   1 <1>   0.4300 
 18 C        4.2540    11.1790     0.8260 C.2   1 <1>   0.7160 
 19 O        3.8080    12.2390     0.4300 O.2   1 <1>  -0.5700 
 20 N        5.0020    11.2520     1.9600 N.am  1 <1>  -0.8000 
 21 H       -0.3210    -1.4390     0.2020 H     1 <1>   0.0800 
 22 H       -1.3850    -0.2220    -0.5180 H     1 <1>   0.0800 
 23 H       -0.9600    -0.1290     1.2050 H     1 <1>   0.0800 
 24 H        2.2710     3.0040    -0.6470 H     1 <1>   0.1500 
 25 H       -1.7420     1.9590     0.3620 H     1 <1>   0.1500 
 26 H       -2.3510     4.3290     0.3970 H     1 <1>   0.1500 
 27 H       -0.6730     6.0440    -0.0910 H     1 <1>   0.1500 
 28 H        1.5240     6.6900    -0.6280 H     1 <1>   0.0800 
 29 H        2.2820     5.5790    -1.7400 H     1 <1>   0.0800 
 30 H        4.5580     6.1070    -1.2670 H     1 <1>   0.0800 
 31 H        5.1230     6.1810     0.3670 H     1 <1>   0.0800 
 32 H        2.0340     5.1590     1.9190 H     1 <1>   0.0800 
 33 H        2.3780     6.8610     1.6890 H     1 <1>   0.0800 
 34 H        3.6430     5.7620     2.2070 H     1 <1>   0.0800 
 35 H        5.1580    12.1550     2.4060 H     1 <1>   0.3700 
 36 H        5.4270    10.4240     2.3770 H     1 <1>   0.3700 
@<TRIPOS>BOND
  1   1   2  1   
  2   1   3  1   
  3   2   4  ar  
  4   2   5  ar  
  5   3  21  1   
  6   3  22  1   
  7   3  23  1   
  8   4   6  ar  
  9   4  24  1   
 10   5   7  ar  
 11   5  25  1   
 12   6   8  ar  
 13   6   9  1   
 14   7   8  ar  
 15   7  26  1   
 16   8  27  1   
 17   9  10  1   
 18   9  28  1   
 19   9  29  1   
 20  10  11  1   
 21  10  12  1   
 22  11  13  1   
 23  11  30  1   
 24  11  31  1   
 25  12  32  1   
 26  12  33  1   
 27  12  34  1   
 28  13  14  1   
 29  13  15  2   
 30  14  16  1   
 31  15  17  1   
 32  16  17  2   
 33  17  18  1   
 34  18  19  2   
 35  18  20  am  
 36  20  35  1   
 37  20  36  1   
@<TRIPOS>SUBSTRUCTURE
  1 ****   9 GROUP 4 **** **** 0

# MOE 2024.06 (io_trps.svl 2023.06)
