@<TRIPOS>MOLECULE
NONAME
39 41 1 0 0 
SMALL
USER_CHARGES


@<TRIPOS>ATOM
  1 O       -0.5410     0.2460    -1.4270 O.2   1 <1>  -0.5700 
  2 C       -1.4750     0.7920    -0.8360 C.2   1 <1>   0.5440 
  3 N       -2.5380    -0.0460    -0.5250 N.am  1 <1>  -0.6600 
  4 C       -1.4500     2.2080    -0.5140 C.ar  1 <1>   0.3960 
  5 C       -3.9080     0.4850    -0.2740 C.3   1 <1>   0.1400 
  6 C       -2.2550    -1.1200     0.4540 C.3   1 <1>   0.1400 
  7 N       -1.1640     3.1020    -1.4930 N.ar  1 <1>  -0.6200 
  8 C       -1.7450     2.6460     0.8170 C.ar  1 <1>  -0.1710 
  9 C       -4.4290    -0.2560     0.9600 C.3   1 <1>   0.2000 
 10 C       -3.6160    -1.5490     1.0060 C.3   1 <1>  -0.0800 
 11 C       -1.1530     4.3720    -1.1710 C.ar  1 <1>   0.1600 
 12 O       -2.0280     1.8700     1.7640 O.3   1 <1>  -0.8290 
 13 C       -1.7240     4.0120     1.1060 C.ar  1 <1>  -0.1500 
 14 O       -4.1640     0.4880     2.0990 O.3   1 <1>  -0.6800 
 15 C       -4.2720    -2.6310     0.1260 C.3   1 <1>   0.0210 
 16 C       -1.4240     4.8770     0.0980 C.ar  1 <1>  -0.1500 
 17 C       -3.5440    -3.9610     0.1950 C.2   1 <1>   0.1080 
 18 N       -3.7900    -4.8550     1.1020 N.2   1 <1>  -0.7070 
 19 C       -2.5590    -4.3750    -0.6960 C.2   1 <1>  -0.1500 
 20 N       -2.9530    -5.8700     0.8160 N.pl3 1 <1>   0.3000 
 21 C       -2.1980    -5.6040    -0.2710 C.2   1 <1>  -0.3320 
 22 C       -1.1590    -6.5500    -0.8440 C.3   1 <1>  -0.0600 
 23 H       -3.9220     1.5500    -0.1200 H     1 <1>   0.0800 
 24 H       -4.5200     0.2480    -1.1240 H     1 <1>   0.0800 
 25 H       -1.7100    -1.9230    -0.0090 H     1 <1>   0.0800 
 26 H       -1.6570    -0.7080     1.2510 H     1 <1>   0.0800 
 27 H       -5.4900    -0.4240     0.9250 H     1 <1>   0.0800 
 28 H       -3.5280    -1.9210     2.0120 H     1 <1>   0.0800 
 29 H       -0.9180     5.0730    -1.9520 H     1 <1>   0.1500 
 30 H       -1.9440     4.3240     2.1100 H     1 <1>   0.1500 
 31 H       -3.2930     1.0110     1.9770 H     1 <1>   0.4000 
 32 H       -4.3060    -2.3060    -0.8980 H     1 <1>   0.0800 
 33 H       -5.2820    -2.7910     0.4570 H     1 <1>   0.0800 
 34 H       -1.3920     5.9350     0.2700 H     1 <1>   0.1500 
 35 H       -2.1860    -3.8060    -1.5300 H     1 <1>   0.1500 
 36 H       -2.9220    -6.7250     1.3810 H     1 <1>   0.2700 
 37 H       -0.6910    -6.1050    -1.7040 H     1 <1>   0.0800 
 38 H       -1.6220    -7.4740    -1.1450 H     1 <1>   0.0800 
 39 H       -0.4000    -6.7580    -0.1110 H     1 <1>   0.0800 
@<TRIPOS>BOND
  1   1   2  2   
  2   2   3  am  
  3   2   4  1   
  4   3   5  1   
  5   3   6  1   
  6   4   7  ar  
  7   4   8  ar  
  8   5   9  1   
  9   5  23  1   
 10   5  24  1   
 11   6  10  1   
 12   6  25  1   
 13   6  26  1   
 14   7  11  ar  
 15   8  12  1   
 16   8  13  ar  
 17   9  10  1   
 18   9  14  1   
 19   9  27  1   
 20  10  15  1   
 21  10  28  1   
 22  11  16  ar  
 23  11  29  1   
 24  13  16  ar  
 25  13  30  1   
 26  14  31  1   
 27  15  17  1   
 28  15  32  1   
 29  15  33  1   
 30  16  34  1   
 31  17  18  2   
 32  17  19  1   
 33  18  20  1   
 34  19  21  2   
 35  19  35  1   
 36  20  21  1   
 37  20  36  1   
 38  21  22  1   
 39  22  37  1   
 40  22  38  1   
 41  22  39  1   
@<TRIPOS>SUBSTRUCTURE
  1 ****   6 GROUP 4 **** **** 0

# MOE 2024.06 (io_trps.svl 2023.06)
