@<TRIPOS>MOLECULE
NONAME
36 38 1 0 0 
SMALL
USER_CHARGES


@<TRIPOS>ATOM
  1 S       -0.0850    -0.0590    -0.8140 S.3   1 <1>  -0.0800 
  2 C       -1.1620    -0.9640     0.1970 C.2   1 <1>   0.4420 
  3 C       -0.1770     1.2200     0.3520 C.2   1 <1>   0.1980 
  4 N       -1.4940    -0.3140     1.2530 N.2   1 <1>  -0.3380 
  5 N       -1.5090    -2.2180    -0.2490 N.am  1 <1>  -0.4940 
  6 N       -0.9300     0.9290     1.3350 N.2   1 <1>  -0.3380 
  7 C        0.6020     2.5100     0.1010 C.3   1 <1>   0.3800 
  8 C       -2.3480    -3.1480     0.2960 C.2   1 <1>   0.7150 
  9 O        0.2650     3.0630    -1.1390 O.3   1 <1>  -0.5600 
 10 C        2.1130     2.2840     0.0930 C.3   1 <1>  -0.2400 
 11 O       -2.9440    -2.9170     1.3260 O.2   1 <1>  -0.5700 
 12 C       -2.4870    -4.3960    -0.3960 C.2   1 <1>  -0.2370 
 13 C       -1.0150     3.6130    -1.2090 C.3   1 <1>   0.0400 
 14 N       -3.6320    -5.1540    -0.3760 N.pl3 1 <1>   0.2940 
 15 C       -1.5630    -5.0550    -1.1720 C.2   1 <1>  -0.1500 
 16 C       -3.4070    -6.2610    -1.1250 C.2   1 <1>  -0.3020 
 17 C       -4.9180    -4.8380     0.2930 C.3   1 <1>  -0.0910 
 18 C       -2.1460    -6.2310    -1.6300 C.2   1 <1>  -0.1500 
 19 C       -6.2290    -5.1410    -0.3740 C.3   1 <1>  -0.2000 
 20 C       -5.7640    -3.7240    -0.2500 C.3   1 <1>  -0.2000 
 21 H       -1.1060    -2.4980    -1.1360 H     1 <1>   0.3700 
 22 H        0.3590     3.2260     0.8680 H     1 <1>   0.0800 
 23 H        2.3900     1.6200    -0.7050 H     1 <1>   0.0800 
 24 H        2.4200     1.8510     1.0270 H     1 <1>   0.0800 
 25 H        2.6200     3.2230    -0.0340 H     1 <1>   0.0800 
 26 H       -1.1470     4.0260    -2.1940 H     1 <1>   0.0800 
 27 H       -1.1110     4.3940    -0.4750 H     1 <1>   0.0800 
 28 H       -1.7510     2.8450    -1.0410 H     1 <1>   0.0800 
 29 H       -0.5540    -4.7560    -1.3970 H     1 <1>   0.1500 
 30 H       -4.1590    -7.0170    -1.2620 H     1 <1>   0.1500 
 31 H       -4.8410    -4.9310     1.3630 H     1 <1>   0.1000 
 32 H       -1.6720    -6.9660    -2.2600 H     1 <1>   0.1500 
 33 H       -7.0610    -5.4540     0.2330 H     1 <1>   0.1000 
 34 H       -6.2380    -5.5900    -1.3520 H     1 <1>   0.1000 
 35 H       -5.4370    -3.2050    -1.1340 H     1 <1>   0.1000 
 36 H       -6.2620    -3.0760     0.4500 H     1 <1>   0.1000 
@<TRIPOS>BOND
  1   1   2  1   
  2   1   3  1   
  3   2   4  2   
  4   2   5  1   
  5   3   6  2   
  6   3   7  1   
  7   4   6  1   
  8   5   8  am  
  9   5  21  1   
 10   7   9  1   
 11   7  10  1   
 12   7  22  1   
 13   8  11  2   
 14   8  12  1   
 15   9  13  1   
 16  10  23  1   
 17  10  24  1   
 18  10  25  1   
 19  12  14  1   
 20  12  15  2   
 21  13  26  1   
 22  13  27  1   
 23  13  28  1   
 24  14  16  1   
 25  14  17  1   
 26  15  18  1   
 27  15  29  1   
 28  16  18  2   
 29  16  30  1   
 30  17  19  1   
 31  17  20  1   
 32  17  31  1   
 33  18  32  1   
 34  19  20  1   
 35  19  33  1   
 36  19  34  1   
 37  20  35  1   
 38  20  36  1   
@<TRIPOS>SUBSTRUCTURE
  1 ****   5 GROUP 4 **** **** 0

# MOE 2024.06 (io_trps.svl 2023.06)
