@<TRIPOS>MOLECULE
NONAME
56 58 1 0 0 
SMALL
USER_CHARGES


@<TRIPOS>ATOM
  1 CL      -2.7000    -1.3620    -2.7870 Cl    1 <1>  -0.1770 
  2 C       -2.8160    -1.4970    -1.0420 C.ar  1 <1>   0.1770 
  3 C       -2.8770    -0.3590    -0.2230 C.ar  1 <1>   0.1000 
  4 C       -2.8840    -2.7760    -0.5340 C.ar  1 <1>  -0.1500 
  5 N       -2.8210     0.9440    -0.7340 N.pl3 1 <1>  -0.8380 
  6 C       -3.0030    -0.5930     1.1470 C.ar  1 <1>  -0.1500 
  7 C       -3.0540    -2.9940     0.8300 C.ar  1 <1>   0.0860 
  8 C       -1.6780     1.3510    -1.5950 C.3   1 <1>   0.2090 
  9 C       -3.3790     2.1400    -0.0460 C.3   1 <1>   0.2090 
 10 C       -3.0900    -1.8740     1.6590 C.ar  1 <1>  -0.1500 
 11 C       -3.2370    -4.3310     1.3410 C.2   1 <1>   0.5440 
 12 C       -1.4140     2.8110    -1.2530 C.3   1 <1>  -0.1600 
 13 C       -2.7610     3.3310    -0.7660 C.3   1 <1>  -0.1600 
 14 O       -2.2810    -5.0720     1.4530 O.2   1 <1>  -0.5700 
 15 N       -4.4970    -4.7950     1.6540 N.am  1 <1>  -0.6600 
 16 C       -4.7100    -6.2140     2.0860 C.3   1 <1>   0.3210 
 17 C       -5.7430    -4.0090     1.4330 C.3   1 <1>   0.1400 
 18 C       -5.3580    -7.0390     0.9730 C.2   1 <1>   0.0460 
 19 C       -6.0960    -3.9760    -0.0660 C.3   1 <1>   0.3430 
 20 N       -6.6880    -6.9820     0.7180 N.2   1 <1>  -0.5650 
 21 C       -4.7480    -7.9140     0.1390 C.2   1 <1>  -0.3320 
 22 N       -7.4800    -3.4570    -0.3280 N.4   1 <1>  -0.9590 
 23 C       -6.8540    -7.8450    -0.2330 C.2   1 <1>   0.0360 
 24 N       -5.7130    -8.4430    -0.6330 N.pl3 1 <1>   0.0330 
 25 C       -3.2860    -8.3130     0.0150 C.3   1 <1>  -0.0600 
 26 C       -8.5000    -4.4870     0.0540 C.3   1 <1>   0.2630 
 27 C       -7.6210    -3.0950    -1.7710 C.3   1 <1>   0.2630 
 28 H       -2.8130    -3.6170    -1.2000 H     1 <1>   0.1500 
 29 H       -3.0260     0.2330     1.8300 H     1 <1>   0.1500 
 30 H       -1.9700     1.2660    -2.6280 H     1 <1>   0.0800 
 31 H       -0.8120     0.7370    -1.4120 H     1 <1>   0.0800 
 32 H       -3.0730     2.1560     0.9840 H     1 <1>   0.0800 
 33 H       -4.4530     2.1540    -0.1120 H     1 <1>   0.0800 
 34 H       -3.1840    -2.0180     2.7220 H     1 <1>   0.1500 
 35 H       -1.0430     3.3590    -2.1000 H     1 <1>   0.0800 
 36 H       -0.6910     2.8570    -0.4570 H     1 <1>   0.0800 
 37 H       -2.6650     4.1850    -0.1200 H     1 <1>   0.0800 
 38 H       -3.3800     3.5910    -1.6070 H     1 <1>   0.0800 
 39 H       -5.3430    -6.2350     2.9550 H     1 <1>   0.0800 
 40 H       -3.7770    -6.6670     2.3670 H     1 <1>   0.0800 
 41 H       -5.6070    -3.0070     1.8000 H     1 <1>   0.0800 
 42 H       -6.5410    -4.4670     1.9910 H     1 <1>   0.0800 
 43 H       -6.0080    -4.9720    -0.4670 H     1 <1>   0.0800 
 44 H       -5.3800    -3.3490    -0.5680 H     1 <1>   0.0800 
 45 H       -7.6280    -2.6070     0.2370 H     1 <1>   0.4500 
 46 H       -7.8030    -8.0910    -0.6780 H     1 <1>   0.1500 
 47 H       -5.6070    -9.1620    -1.3550 H     1 <1>   0.2700 
 48 H       -2.6690    -7.7260     0.6730 H     1 <1>   0.0800 
 49 H       -2.9410    -8.1540    -0.9920 H     1 <1>   0.0800 
 50 H       -3.1600    -9.3510     0.2670 H     1 <1>   0.0800 
 51 H       -8.3500    -5.3890    -0.5180 H     1 <1>   0.0800 
 52 H       -9.4960    -4.1190    -0.1320 H     1 <1>   0.0800 
 53 H       -8.4150    -4.7370     1.0990 H     1 <1>   0.0800 
 54 H       -7.4640    -3.9620    -2.3910 H     1 <1>   0.0800 
 55 H       -6.8960    -2.3430    -2.0410 H     1 <1>   0.0800 
 56 H       -8.6070    -2.7050    -1.9640 H     1 <1>   0.0800 
@<TRIPOS>BOND
  1   1   2  1   
  2   2   3  ar  
  3   2   4  ar  
  4   3   5  1   
  5   3   6  ar  
  6   4   7  ar  
  7   4  28  1   
  8   5   8  1   
  9   5   9  1   
 10   6  10  ar  
 11   6  29  1   
 12   7  10  ar  
 13   7  11  1   
 14   8  12  1   
 15   8  30  1   
 16   8  31  1   
 17   9  13  1   
 18   9  32  1   
 19   9  33  1   
 20  10  34  1   
 21  11  14  2   
 22  11  15  am  
 23  12  13  1   
 24  12  35  1   
 25  12  36  1   
 26  13  37  1   
 27  13  38  1   
 28  15  16  1   
 29  15  17  1   
 30  16  18  1   
 31  16  39  1   
 32  16  40  1   
 33  17  19  1   
 34  17  41  1   
 35  17  42  1   
 36  18  20  1   
 37  18  21  2   
 38  19  22  1   
 39  19  43  1   
 40  19  44  1   
 41  20  23  2   
 42  21  24  1   
 43  21  25  1   
 44  22  26  1   
 45  22  27  1   
 46  22  45  1   
 47  23  24  1   
 48  23  46  1   
 49  24  47  1   
 50  25  48  1   
 51  25  49  1   
 52  25  50  1   
 53  26  51  1   
 54  26  52  1   
 55  26  53  1   
 56  27  54  1   
 57  27  55  1   
 58  27  56  1   
@<TRIPOS>SUBSTRUCTURE
  1 ****   7 GROUP 4 **** **** 0

# MOE 2024.06 (io_trps.svl 2023.06)
