@<TRIPOS>MOLECULE
NONAME
45 47 1 0 0 
SMALL
USER_CHARGES


@<TRIPOS>ATOM
  1 S        2.6460     0.5960     0.2840 S.3   1 <1>  -0.3320 
  2 C        2.3830    -1.0930    -0.2230 C.ar  1 <1>   0.7220 
  3 C        0.9270     1.2700     0.5120 C.3   1 <1>   0.1310 
  4 N        1.1190    -1.4720    -0.3290 N.ar  1 <1>  -0.6200 
  5 N        3.4890    -1.7840    -0.4370 N.ar  1 <1>  -0.6200 
  6 C        0.9440     2.7030     1.0230 C.2   1 <1>   0.5690 
  7 C        0.9510    -2.7190    -0.7020 C.ar  1 <1>   0.1660 
  8 C        3.2840    -3.0270    -0.8080 C.ar  1 <1>   0.1600 
  9 O       -0.0940     3.1950     1.3920 O.2   1 <1>  -0.5700 
 10 N        2.1040     3.4050     1.0600 N.am  1 <1>  -0.7300 
 11 C        2.0200    -3.5480    -0.9570 C.ar  1 <1>  -0.1500 
 12 C       -0.4760    -3.2080    -0.8400 C.3   1 <1>  -0.0970 
 13 C        2.2320     4.8100     1.5290 C.3   1 <1>   0.3200 
 14 C        3.0490     5.6570     0.5660 C.2   1 <1>   0.2980 
 15 O        2.5420     5.9370    -0.6080 O.3   1 <1>  -0.0190 
 16 N        4.2070     6.1390     0.7920 N.2   1 <1>  -0.5650 
 17 N        3.4550     6.6630    -1.1780 N.2   1 <1>  -0.4100 
 18 C        4.4220     6.7730    -0.3550 C.2   1 <1>   0.3350 
 19 C        5.7220     7.5440    -0.5880 C.3   1 <1>   0.1010 
 20 C        5.6620     8.9220     0.0960 C.3   1 <1>  -0.1600 
 21 C        6.0600     7.6990    -2.0840 C.3   1 <1>  -0.1600 
 22 C        6.9580     9.7200    -0.1160 C.3   1 <1>  -0.1600 
 23 C        7.3600     8.4900    -2.2930 C.3   1 <1>  -0.1600 
 24 C        7.2880     9.8600    -1.6070 C.3   1 <1>  -0.1600 
 25 H        0.4250     0.6340     1.2170 H     1 <1>   0.0800 
 26 H        0.4340     1.2190    -0.4410 H     1 <1>   0.0800 
 27 H        4.1470    -3.6440    -0.9980 H     1 <1>   0.1500 
 28 H        2.9700     2.9500     0.7530 H     1 <1>   0.3700 
 29 H        1.8800    -4.5680    -1.2620 H     1 <1>   0.1500 
 30 H       -0.9920    -2.6130    -1.5700 H     1 <1>   0.0800 
 31 H       -0.9820    -3.1130     0.1040 H     1 <1>   0.0800 
 32 H       -0.5040    -4.2370    -1.1470 H     1 <1>   0.0800 
 33 H        2.7150     4.8120     2.4900 H     1 <1>   0.0800 
 34 H        1.2580     5.2530     1.6420 H     1 <1>   0.0800 
 35 H        6.5130     6.9760    -0.1290 H     1 <1>   0.0800 
 36 H        5.4910     8.7910     1.1500 H     1 <1>   0.0800 
 37 H        4.8320     9.4780    -0.3060 H     1 <1>   0.0800 
 38 H        5.2530     8.2110    -2.5810 H     1 <1>   0.0800 
 39 H        6.1540     6.7250    -2.5320 H     1 <1>   0.0800 
 40 H        7.7700     9.2200     0.3840 H     1 <1>   0.0800 
 41 H        6.8540    10.6980     0.3230 H     1 <1>   0.0800 
 42 H        7.5330     8.6230    -3.3470 H     1 <1>   0.0800 
 43 H        8.1880     7.9310    -1.8910 H     1 <1>   0.0800 
 44 H        8.2280    10.3700    -1.7220 H     1 <1>   0.0800 
 45 H        6.5290    10.4570    -2.0850 H     1 <1>   0.0800 
@<TRIPOS>BOND
  1   1   2  1   
  2   1   3  1   
  3   2   4  ar  
  4   2   5  ar  
  5   3   6  1   
  6   3  25  1   
  7   3  26  1   
  8   4   7  ar  
  9   5   8  ar  
 10   6   9  2   
 11   6  10  am  
 12   7  11  ar  
 13   7  12  1   
 14   8  11  ar  
 15   8  27  1   
 16  10  13  1   
 17  10  28  1   
 18  11  29  1   
 19  12  30  1   
 20  12  31  1   
 21  12  32  1   
 22  13  14  1   
 23  13  33  1   
 24  13  34  1   
 25  14  15  1   
 26  14  16  2   
 27  15  17  1   
 28  16  18  1   
 29  17  18  2   
 30  18  19  1   
 31  19  20  1   
 32  19  21  1   
 33  19  35  1   
 34  20  22  1   
 35  20  36  1   
 36  20  37  1   
 37  21  23  1   
 38  21  38  1   
 39  21  39  1   
 40  22  24  1   
 41  22  40  1   
 42  22  41  1   
 43  23  24  1   
 44  23  42  1   
 45  23  43  1   
 46  24  44  1   
 47  24  45  1   
@<TRIPOS>SUBSTRUCTURE
  1 ****  10 GROUP 4 **** **** 0

# MOE 2024.06 (io_trps.svl 2023.06)
