@<TRIPOS>MOLECULE
NONAME
41 43 1 0 0 
SMALL
USER_CHARGES


@<TRIPOS>ATOM
  1 CL       0.4010     0.4460    -1.8470 Cl    1 <1>  -0.1770 
  2 C        1.2840    -0.7640    -0.9330 C.ar  1 <1>   0.1770 
  3 C        0.7510    -2.0260    -0.6940 C.ar  1 <1>   0.4100 
  4 C        2.5220    -0.4800    -0.4280 C.ar  1 <1>   0.1600 
  5 N        1.4190    -2.9180     0.0200 N.ar  1 <1>  -0.6200 
  6 N       -0.4940    -2.4200    -1.1480 N.pl3 1 <1>  -0.8380 
  7 N        3.2030    -1.3680     0.2770 N.ar  1 <1>  -0.6200 
  8 C        2.6100    -2.5360     0.4540 C.ar  1 <1>   0.4770 
  9 C       -0.6370    -3.7870    -1.7340 C.3   1 <1>   0.2090 
 10 C       -1.6790    -1.9510    -0.3760 C.3   1 <1>   0.2090 
 11 C        3.3900    -3.5500     1.2560 C.3   1 <1>  -0.0960 
 12 C       -1.0420    -4.8090    -0.6500 C.3   1 <1>   0.3430 
 13 C       -2.0690    -2.9880     0.7010 C.3   1 <1>   0.3430 
 14 N       -2.2600    -4.3740     0.1350 N.4   1 <1>  -0.9590 
 15 C       -2.5970    -5.3570     1.1980 C.3   1 <1>   0.4860 
 16 C       -2.9670    -6.6730     0.5400 C.ar  1 <1>  -0.1440 
 17 C       -4.1880    -6.8150    -0.1050 C.ar  1 <1>  -0.1500 
 18 C       -2.0850    -7.7490     0.5740 C.ar  1 <1>  -0.1500 
 19 C       -4.4870    -8.0210    -0.7100 C.ar  1 <1>   0.1900 
 20 C       -2.4060    -8.9510    -0.0380 C.ar  1 <1>  -0.1500 
 21 F       -5.6310    -8.1450    -1.3240 F     1 <1>  -0.1900 
 22 C       -3.6180    -9.0940    -0.6920 C.ar  1 <1>  -0.1500 
 23 H        2.9650     0.4860    -0.5980 H     1 <1>   0.1500 
 24 H        0.2970    -4.0900    -2.1760 H     1 <1>   0.0800 
 25 H       -1.3760    -3.7670    -2.5170 H     1 <1>   0.0800 
 26 H       -2.5020    -1.7860    -1.0490 H     1 <1>   0.0800 
 27 H       -1.4540    -1.0110     0.1000 H     1 <1>   0.0800 
 28 H        3.0730    -4.5470     1.0160 H     1 <1>   0.0800 
 29 H        3.2360    -3.3700     2.3040 H     1 <1>   0.0800 
 30 H        4.4390    -3.4600     1.0380 H     1 <1>   0.0800 
 31 H       -0.2050    -4.9260     0.0190 H     1 <1>   0.0800 
 32 H       -1.2250    -5.7610    -1.1200 H     1 <1>   0.0800 
 33 H       -2.9710    -2.6620     1.1910 H     1 <1>   0.0800 
 34 H       -1.2800    -3.0090     1.4360 H     1 <1>   0.0800 
 35 H       -3.0480    -4.3550    -0.5240 H     1 <1>   0.4500 
 36 H       -3.4320    -5.0040     1.7810 H     1 <1>   0.0800 
 37 H       -1.7550    -5.4970     1.8570 H     1 <1>   0.0800 
 38 H       -4.9140    -6.0230    -0.1490 H     1 <1>   0.1500 
 39 H       -1.1360    -7.6690     1.0800 H     1 <1>   0.1500 
 40 H       -1.7170    -9.7790    -0.0050 H     1 <1>   0.1500 
 41 H       -3.8880   -10.0180    -1.1740 H     1 <1>   0.1500 
@<TRIPOS>BOND
  1   1   2  1   
  2   2   3  ar  
  3   2   4  ar  
  4   3   5  ar  
  5   3   6  1   
  6   4   7  ar  
  7   4  23  1   
  8   5   8  ar  
  9   6   9  1   
 10   6  10  1   
 11   7   8  ar  
 12   8  11  1   
 13   9  12  1   
 14   9  24  1   
 15   9  25  1   
 16  10  13  1   
 17  10  26  1   
 18  10  27  1   
 19  11  28  1   
 20  11  29  1   
 21  11  30  1   
 22  12  14  1   
 23  12  31  1   
 24  12  32  1   
 25  13  14  1   
 26  13  33  1   
 27  13  34  1   
 28  14  15  1   
 29  14  35  1   
 30  15  16  1   
 31  15  36  1   
 32  15  37  1   
 33  16  17  ar  
 34  16  18  ar  
 35  17  19  ar  
 36  17  38  1   
 37  18  20  ar  
 38  18  39  1   
 39  19  21  1   
 40  19  22  ar  
 41  20  22  ar  
 42  20  40  1   
 43  22  41  1   
@<TRIPOS>SUBSTRUCTURE
  1 ****  12 GROUP 4 **** **** 0

# MOE 2024.06 (io_trps.svl 2023.06)
