@<TRIPOS>MOLECULE
NONAME
40 40 1 0 0 
SMALL
USER_CHARGES


@<TRIPOS>ATOM
  1 O        0.6600     0.5440     1.4420 O.2   1 <1>  -0.5700 
  2 C        0.8210     0.7110     0.2480 C.2   1 <1>   0.7800 
  3 O        1.5300    -0.1410    -0.4910 O.3   1 <1>  -0.4300 
  4 N        0.3070     1.7620    -0.4160 N.am  1 <1>  -0.7300 
  5 C        2.1680    -1.3210    -0.0550 C.3   1 <1>   0.2800 
  6 C       -0.7610     2.6980     0.0690 C.3   1 <1>   0.1140 
  7 C        3.2550    -0.9880     0.9730 C.3   1 <1>  -0.2400 
  8 C        2.8210    -1.9070    -1.3080 C.3   1 <1>  -0.2400 
  9 C        1.1330    -2.3150     0.4860 C.3   1 <1>  -0.2400 
 10 C       -1.7770     3.0010    -1.0530 C.2   1 <1>   0.9060 
 11 C       -0.0700     3.9410     0.6670 C.3   1 <1>   0.0000 
 12 O       -2.9500     3.2730    -0.7630 O.co2 1 <1>  -0.9000 
 13 O       -1.4000     2.9140    -2.2330 O.co2 1 <1>  -0.9000 
 14 C       -0.9660     5.1470     1.0730 C.3   1 <1>   0.0000 
 15 C        0.6580     4.8880    -0.3300 C.3   1 <1>   0.0000 
 16 C        0.1530     6.0840     0.5290 C.3   1 <1>   0.0000 
 17 C       -0.3810     7.2540    -0.3070 C.3   1 <1>  -0.2400 
 18 C        1.1530     6.5490     1.6000 C.3   1 <1>  -0.2400 
 19 H        0.3230     1.7480    -1.4420 H     1 <1>   0.3700 
 20 H       -1.3110     2.2130     0.8540 H     1 <1>   0.0800 
 21 H        3.9160    -0.2340     0.5850 H     1 <1>   0.0800 
 22 H        3.8310    -1.8670     1.1970 H     1 <1>   0.0800 
 23 H        2.8240    -0.6380     1.8930 H     1 <1>   0.0800 
 24 H        3.5310    -1.2100    -1.7160 H     1 <1>   0.0800 
 25 H        2.0730    -2.1200    -2.0500 H     1 <1>   0.0800 
 26 H        3.3360    -2.8200    -1.0710 H     1 <1>   0.0800 
 27 H        0.7040    -1.9630     1.4070 H     1 <1>   0.0800 
 28 H        1.6000    -3.2610     0.6850 H     1 <1>   0.0800 
 29 H        0.3480    -2.4630    -0.2330 H     1 <1>   0.0800 
 30 H        0.5740     3.6670     1.4860 H     1 <1>   0.0000 
 31 H       -1.1250     5.2250     2.1340 H     1 <1>   0.0000 
 32 H       -1.8780     5.2280     0.5100 H     1 <1>   0.0000 
 33 H        0.2340     4.8760    -1.3190 H     1 <1>   0.0000 
 34 H        1.7270     4.7670    -0.3330 H     1 <1>   0.0000 
 35 H       -1.0780     6.8990    -1.0470 H     1 <1>   0.0800 
 36 H        0.4280     7.7500    -0.8110 H     1 <1>   0.0800 
 37 H       -0.8870     7.9610     0.3250 H     1 <1>   0.0800 
 38 H        1.5210     5.7180     2.1750 H     1 <1>   0.0800 
 39 H        0.6790     7.2420     2.2700 H     1 <1>   0.0800 
 40 H        1.9910     7.0360     1.1330 H     1 <1>   0.0800 
@<TRIPOS>BOND
  1   1   2  2   
  2   2   3  1   
  3   2   4  am  
  4   3   5  1   
  5   4   6  1   
  6   4  19  1   
  7   5   7  1   
  8   5   8  1   
  9   5   9  1   
 10   6  10  1   
 11   6  11  1   
 12   6  20  1   
 13   7  21  1   
 14   7  22  1   
 15   7  23  1   
 16   8  24  1   
 17   8  25  1   
 18   8  26  1   
 19   9  27  1   
 20   9  28  1   
 21   9  29  1   
 22  10  12  ar  
 23  10  13  ar  
 24  11  14  1   
 25  11  15  1   
 26  11  30  1   
 27  14  16  1   
 28  14  31  1   
 29  14  32  1   
 30  15  16  1   
 31  15  33  1   
 32  15  34  1   
 33  16  17  1   
 34  16  18  1   
 35  17  35  1   
 36  17  36  1   
 37  17  37  1   
 38  18  38  1   
 39  18  39  1   
 40  18  40  1   
@<TRIPOS>SUBSTRUCTURE
  1 ****   4 GROUP 4 **** **** 0

# MOE 2024.06 (io_trps.svl 2023.06)
