@<TRIPOS>MOLECULE
NONAME
59 61 1 0 0 
SMALL
USER_CHARGES


@<TRIPOS>ATOM
  1 O        0.1130    -1.0760    -0.8630 O.2   1 <1>  -0.5700 
  2 C        0.1700    -1.6470     0.2010 C.2   1 <1>   0.5690 
  3 N        1.3520    -1.8700     0.8390 N.am  1 <1>  -0.7300 
  4 C       -1.1600    -2.1020     0.8280 C.3   1 <1>   0.4040 
  5 C        2.6780    -1.4290     0.3310 C.3   1 <1>   0.1400 
  6 N       -2.3390    -1.2840     0.3600 N.4   1 <1>  -0.9590 
  7 C        3.4640    -2.6290    -0.1980 C.3   1 <1>  -0.0170 
  8 C       -3.6460    -1.9460     0.6610 C.3   1 <1>   0.3430 
  9 C       -2.2810     0.1150     0.8710 C.3   1 <1>   0.3430 
 10 C        4.8670    -2.1940    -0.6020 C.ar  1 <1>  -0.1430 
 11 C       -4.8320    -1.1690     0.0490 C.3   1 <1>   0.0000 
 12 C       -3.4180     0.9380     0.2600 C.3   1 <1>  -0.1600 
 13 C        5.8560    -1.9860     0.3570 C.ar  1 <1>   0.0830 
 14 C        5.1590    -1.9990    -1.9430 C.ar  1 <1>  -0.1500 
 15 C       -6.1470    -1.8590     0.4460 C.3   1 <1>   0.2000 
 16 C       -4.7920     0.2990     0.5190 C.3   1 <1>  -0.1600 
 17 C       -4.8380    -1.2990    -1.4840 C.3   1 <1>  -0.1600 
 18 O        5.5250    -2.1810     1.6620 O.3   1 <1>  -0.3630 
 19 C        7.1290    -1.5870    -0.0460 C.ar  1 <1>  -0.1500 
 20 C        6.4250    -1.6020    -2.3360 C.ar  1 <1>  -0.1500 
 21 O       -6.0390    -2.3760     1.7380 O.3   1 <1>  -0.5600 
 22 C       -6.3670    -2.9790    -0.5780 C.3   1 <1>  -0.1600 
 23 C       -5.4420    -2.6760    -1.7650 C.3   1 <1>  -0.1600 
 24 C        6.4820    -2.0640     2.6920 C.3   1 <1>   0.0400 
 25 C        7.4100    -1.3970    -1.3870 C.ar  1 <1>  -0.1500 
 26 C       -7.2560    -2.7110     2.3340 C.3   1 <1>   0.0400 
 27 H        1.4070    -2.3860     1.7220 H     1 <1>   0.3700 
 28 H       -1.0810    -2.0470     1.8990 H     1 <1>   0.0800 
 29 H       -1.3110    -3.1310     0.5530 H     1 <1>   0.0800 
 30 H        2.5570    -0.7060    -0.4590 H     1 <1>   0.0800 
 31 H        3.2260    -0.9590     1.1300 H     1 <1>   0.0800 
 32 H       -2.2330    -1.2120    -0.6650 H     1 <1>   0.4500 
 33 H        3.5360    -3.3880     0.5610 H     1 <1>   0.0800 
 34 H        2.9510    -3.0460    -1.0450 H     1 <1>   0.0800 
 35 H       -3.6530    -2.9530     0.2780 H     1 <1>   0.0800 
 36 H       -3.7820    -1.9980     1.7290 H     1 <1>   0.0800 
 37 H       -2.3760     0.1160     1.9450 H     1 <1>   0.0800 
 38 H       -1.3350     0.5650     0.6090 H     1 <1>   0.0800 
 39 H       -3.4000     1.9250     0.6880 H     1 <1>   0.0800 
 40 H       -3.2500     1.0470    -0.7970 H     1 <1>   0.0800 
 41 H        4.4030    -2.1530    -2.6940 H     1 <1>   0.1500 
 42 H       -6.9590    -1.1500     0.4070 H     1 <1>   0.0800 
 43 H       -5.5580     0.8720     0.0240 H     1 <1>   0.0800 
 44 H       -5.0000     0.3330     1.5760 H     1 <1>   0.0800 
 45 H       -5.4890    -0.5510    -1.9050 H     1 <1>   0.0800 
 46 H       -3.8670    -1.1910    -1.9340 H     1 <1>   0.0800 
 47 H        7.9140    -1.4180     0.6660 H     1 <1>   0.1500 
 48 H        6.6430    -1.4530    -3.3790 H     1 <1>   0.1500 
 49 H       -6.1250    -3.9420    -0.1600 H     1 <1>   0.0800 
 50 H       -7.3940    -2.9810    -0.8980 H     1 <1>   0.0800 
 51 H       -4.6650    -3.4190    -1.8160 H     1 <1>   0.0800 
 52 H       -5.9820    -2.6820    -2.6970 H     1 <1>   0.0800 
 53 H        6.0000    -2.2920     3.6250 H     1 <1>   0.0800 
 54 H        6.8550    -1.0550     2.7100 H     1 <1>   0.0800 
 55 H        7.2770    -2.7660     2.5110 H     1 <1>   0.0800 
 56 H        8.3940    -1.0880    -1.6940 H     1 <1>   0.1500 
 57 H       -7.0540    -3.0940     3.3190 H     1 <1>   0.0800 
 58 H       -7.7500    -3.4680     1.7500 H     1 <1>   0.0800 
 59 H       -7.8720    -1.8320     2.4100 H     1 <1>   0.0800 
@<TRIPOS>BOND
  1   1   2  2   
  2   2   3  am  
  3   2   4  1   
  4   3   5  1   
  5   3  27  1   
  6   4   6  1   
  7   4  28  1   
  8   4  29  1   
  9   5   7  1   
 10   5  30  1   
 11   5  31  1   
 12   6   8  1   
 13   6   9  1   
 14   6  32  1   
 15   7  10  1   
 16   7  33  1   
 17   7  34  1   
 18   8  11  1   
 19   8  35  1   
 20   8  36  1   
 21   9  12  1   
 22   9  37  1   
 23   9  38  1   
 24  10  13  ar  
 25  10  14  ar  
 26  11  15  1   
 27  11  16  1   
 28  11  17  1   
 29  12  16  1   
 30  12  39  1   
 31  12  40  1   
 32  13  18  1   
 33  13  19  ar  
 34  14  20  ar  
 35  14  41  1   
 36  15  21  1   
 37  15  22  1   
 38  15  42  1   
 39  16  43  1   
 40  16  44  1   
 41  17  23  1   
 42  17  45  1   
 43  17  46  1   
 44  18  24  1   
 45  19  25  ar  
 46  19  47  1   
 47  20  25  ar  
 48  20  48  1   
 49  21  26  1   
 50  22  23  1   
 51  22  49  1   
 52  22  50  1   
 53  23  51  1   
 54  23  52  1   
 55  24  53  1   
 56  24  54  1   
 57  24  55  1   
 58  25  56  1   
 59  26  57  1   
 60  26  58  1   
 61  26  59  1   
@<TRIPOS>SUBSTRUCTURE
  1 ****   2 GROUP 4 **** **** 0

# MOE 2024.06 (io_trps.svl 2023.06)
