@<TRIPOS>MOLECULE
NONAME
47 49 1 0 0 
SMALL
USER_CHARGES


@<TRIPOS>ATOM
  1 O        0.5380    -0.4020    -1.8650 O.2   1 <1>  -0.5700 
  2 C        1.3360    -0.9260    -1.1210 C.2   1 <1>   0.6900 
  3 N        1.0910    -2.1090    -0.5350 N.am  1 <1>  -0.7300 
  4 N        2.4980    -0.3230    -0.8720 N.am  1 <1>  -0.8000 
  5 C       -0.2380    -2.7820    -0.5610 C.3   1 <1>   0.2010 
  6 C       -0.4870    -3.6720     0.6640 C.2   1 <1>   0.5690 
  7 O        0.4150    -3.7970     1.4650 O.2   1 <1>  -0.5700 
  8 N       -1.6950    -4.3070     0.8320 N.am  1 <1>  -0.6600 
  9 C       -2.8580    -4.2050    -0.0950 C.3   1 <1>   0.1400 
 10 C       -1.9460    -5.2130     1.9890 C.3   1 <1>   0.1400 
 11 C       -3.1810    -5.5940    -0.6500 C.3   1 <1>  -0.1600 
 12 C       -2.2710    -6.6180     1.4740 C.3   1 <1>  -0.1600 
 13 C       -3.4430    -6.6150     0.4760 C.3   1 <1>   0.4240 
 14 O       -4.5250    -6.1130     1.2310 O.3   1 <1>  -0.5600 
 15 C       -3.7360    -8.0440    -0.0680 C.ar  1 <1>  -0.1430 
 16 C       -5.8130    -6.3900     0.7910 C.3   1 <1>   0.1200 
 17 C       -2.7890    -8.7730    -0.8010 C.ar  1 <1>   0.0830 
 18 C       -4.9760    -8.6360     0.1700 C.ar  1 <1>  -0.1430 
 19 C       -6.0480    -7.8850     0.9330 C.3   1 <1>  -0.0170 
 20 O       -1.5810    -8.2080    -1.0640 O.3   1 <1>  -0.3620 
 21 C       -3.0890   -10.0550    -1.2570 C.ar  1 <1>  -0.1500 
 22 C       -5.2620    -9.9120    -0.2850 C.ar  1 <1>  -0.1500 
 23 C       -0.5080    -8.9280    -1.6310 C.3   1 <1>   0.0400 
 24 C       -4.3190   -10.6230    -0.9980 C.ar  1 <1>  -0.1500 
 25 H        1.6530    -2.3920     0.2720 H     1 <1>   0.3700 
 26 H        2.7120     0.5260    -1.3920 H     1 <1>   0.3700 
 27 H        3.2740    -0.8110    -0.4350 H     1 <1>   0.3700 
 28 H       -0.2990    -3.3880    -1.4470 H     1 <1>   0.0800 
 29 H       -1.0070    -2.0320    -0.6050 H     1 <1>   0.0800 
 30 H       -2.6570    -3.5330    -0.9090 H     1 <1>   0.0800 
 31 H       -3.7050    -3.8210     0.4480 H     1 <1>   0.0800 
 32 H       -2.7710    -4.8300     2.5650 H     1 <1>   0.0800 
 33 H       -1.0850    -5.2580     2.6350 H     1 <1>   0.0800 
 34 H       -2.3490    -5.9070    -1.2500 H     1 <1>   0.0800 
 35 H       -4.0310    -5.5430    -1.3030 H     1 <1>   0.0800 
 36 H       -2.5160    -7.2600     2.2990 H     1 <1>   0.0800 
 37 H       -1.3820    -7.0090     1.0220 H     1 <1>   0.0800 
 38 H       -5.9200    -6.0730    -0.2320 H     1 <1>   0.0800 
 39 H       -6.5000    -5.8390     1.4080 H     1 <1>   0.0800 
 40 H       -7.0220    -8.1280     0.5470 H     1 <1>   0.0800 
 41 H       -6.0150    -8.1580     1.9720 H     1 <1>   0.0800 
 42 H       -2.3820   -10.6310    -1.8200 H     1 <1>   0.1500 
 43 H       -6.2210   -10.3580    -0.0870 H     1 <1>   0.1500 
 44 H        0.3500    -8.2820    -1.6560 H     1 <1>   0.0800 
 45 H       -0.7740    -9.2210    -2.6310 H     1 <1>   0.0800 
 46 H       -0.3020    -9.7870    -1.0170 H     1 <1>   0.0800 
 47 H       -4.5450   -11.6140    -1.3500 H     1 <1>   0.1500 
@<TRIPOS>BOND
  1   1   2  2   
  2   2   3  am  
  3   2   4  am  
  4   3   5  1   
  5   3  25  1   
  6   4  26  1   
  7   4  27  1   
  8   5   6  1   
  9   5  28  1   
 10   5  29  1   
 11   6   7  2   
 12   6   8  am  
 13   8   9  1   
 14   8  10  1   
 15   9  11  1   
 16   9  30  1   
 17   9  31  1   
 18  10  12  1   
 19  10  32  1   
 20  10  33  1   
 21  11  13  1   
 22  11  34  1   
 23  11  35  1   
 24  12  13  1   
 25  12  36  1   
 26  12  37  1   
 27  13  14  1   
 28  13  15  1   
 29  14  16  1   
 30  15  17  ar  
 31  15  18  ar  
 32  16  19  1   
 33  16  38  1   
 34  16  39  1   
 35  17  20  1   
 36  17  21  ar  
 37  18  19  1   
 38  18  22  ar  
 39  19  40  1   
 40  19  41  1   
 41  20  23  1   
 42  21  24  ar  
 43  21  42  1   
 44  22  24  ar  
 45  22  43  1   
 46  23  44  1   
 47  23  45  1   
 48  23  46  1   
 49  24  47  1   
@<TRIPOS>SUBSTRUCTURE
  1 ****  11 GROUP 4 **** **** 0

# MOE 2024.06 (io_trps.svl 2023.06)
