@<TRIPOS>MOLECULE
NONAME
45 47 1 0 0 
SMALL
USER_CHARGES


@<TRIPOS>ATOM
  1 O        0.2750     0.0300    -0.2120 O.3   1 <1>  -0.6800 
  2 C        1.3300    -0.2220    -1.0820 C.3   1 <1>   0.2000 
  3 C        2.0830    -1.4480    -0.5710 C.3   1 <1>  -0.0800 
  4 C        2.3520     0.9020    -0.9180 C.3   1 <1>   0.3430 
  5 C        3.0120    -0.8950     0.5210 C.3   1 <1>   0.3430 
  6 C        2.9000    -2.1250    -1.6870 C.3   1 <1>   0.0200 
  7 N        3.0450     0.5940     0.3690 N.4   1 <1>  -0.9590 
  8 C        3.7780    -3.2350    -1.1320 C.2   1 <1>  -0.3320 
  9 C        4.4330     1.1420     0.4760 C.3   1 <1>   0.3430 
 10 N        4.9700    -3.5850    -1.6700 N.pl3 1 <1>   0.3000 
 11 C        3.5840    -4.0580    -0.0760 C.2   1 <1>  -0.1500 
 12 C        4.4670     2.6730     0.5620 C.3   1 <1>   0.0200 
 13 N        5.5510    -4.5780    -0.9800 N.2   1 <1>  -0.7070 
 14 C        4.7160    -4.8630    -0.0340 C.2   1 <1>   0.1080 
 15 C        5.9090     3.1390     0.4960 C.2   1 <1>   0.0060 
 16 C        4.9830    -5.9560     0.9750 C.3   1 <1>  -0.0590 
 17 N        6.8770     2.3510     0.1520 N.2   1 <1>  -0.5650 
 18 N        6.3110     4.4040     0.7800 N.pl3 1 <1>   0.0480 
 19 C        7.9690     3.1340     0.2160 C.2   1 <1>   0.0770 
 20 C        7.6420     4.3860     0.5970 C.2   1 <1>  -0.3020 
 21 C        5.5130     5.5710     1.1990 C.3   1 <1>   0.0160 
 22 H       -0.4780    -0.5780    -0.3770 H     1 <1>   0.4000 
 23 H        0.9490    -0.3100    -2.0860 H     1 <1>   0.0800 
 24 H        1.4060    -2.1760    -0.1580 H     1 <1>   0.0800 
 25 H        1.8710     1.8660    -0.9000 H     1 <1>   0.0800 
 26 H        3.0580     0.8660    -1.7310 H     1 <1>   0.0800 
 27 H        4.0000    -1.3160     0.4210 H     1 <1>   0.0800 
 28 H        2.6260    -1.1520     1.4940 H     1 <1>   0.0800 
 29 H        3.5260    -1.3990    -2.1780 H     1 <1>   0.0800 
 30 H        2.2370    -2.5430    -2.4270 H     1 <1>   0.0800 
 31 H        2.4450     0.9710     1.1170 H     1 <1>   0.4500 
 32 H        4.9190     0.7440     1.3520 H     1 <1>   0.0800 
 33 H        5.0100     0.8300    -0.3800 H     1 <1>   0.0800 
 34 H        5.4200    -3.1790    -2.5000 H     1 <1>   0.2700 
 35 H        2.7570    -4.1250     0.6080 H     1 <1>   0.1500 
 36 H        4.0290     2.9930     1.4900 H     1 <1>   0.0800 
 37 H        3.9350     3.1120    -0.2610 H     1 <1>   0.0800 
 38 H        4.1710    -6.0350     1.6730 H     1 <1>   0.0800 
 39 H        5.8900    -5.7390     1.5080 H     1 <1>   0.0800 
 40 H        5.0990    -6.8940     0.4620 H     1 <1>   0.0800 
 41 H        8.9500     2.7510    -0.0180 H     1 <1>   0.1500 
 42 H        8.2760     5.2420     0.7430 H     1 <1>   0.1500 
 43 H        6.1160     6.4590     1.1360 H     1 <1>   0.0800 
 44 H        5.1880     5.4350     2.2150 H     1 <1>   0.0800 
 45 H        4.6610     5.6770     0.5540 H     1 <1>   0.0800 
@<TRIPOS>BOND
  1   1   2  1   
  2   1  22  1   
  3   2   3  1   
  4   2   4  1   
  5   2  23  1   
  6   3   5  1   
  7   3   6  1   
  8   3  24  1   
  9   4   7  1   
 10   4  25  1   
 11   4  26  1   
 12   5   7  1   
 13   5  27  1   
 14   5  28  1   
 15   6   8  1   
 16   6  29  1   
 17   6  30  1   
 18   7   9  1   
 19   7  31  1   
 20   8  10  1   
 21   8  11  2   
 22   9  12  1   
 23   9  32  1   
 24   9  33  1   
 25  10  13  1   
 26  10  34  1   
 27  11  14  1   
 28  11  35  1   
 29  12  15  1   
 30  12  36  1   
 31  12  37  1   
 32  13  14  2   
 33  14  16  1   
 34  15  17  2   
 35  15  18  1   
 36  16  38  1   
 37  16  39  1   
 38  16  40  1   
 39  17  19  1   
 40  18  20  1   
 41  18  21  1   
 42  19  20  2   
 43  19  41  1   
 44  20  42  1   
 45  21  43  1   
 46  21  44  1   
 47  21  45  1   
@<TRIPOS>SUBSTRUCTURE
  1 ****   9 GROUP 4 **** **** 0

# MOE 2024.06 (io_trps.svl 2023.06)
