@<TRIPOS>MOLECULE
NONAME
48 51 1 0 0 
SMALL
USER_CHARGES


@<TRIPOS>ATOM
  1 O        0.4320     0.0950     0.6160 O.3   1 <1>  -0.6840 
  2 C        1.5820     0.0130    -0.1460 C.3   1 <1>   0.1930 
  3 C        2.3430    -1.2650     0.1810 C.3   1 <1>  -0.0880 
  4 C        2.5370     1.1470     0.2260 C.3   1 <1>   0.1600 
  5 C        3.8000    -0.8940    -0.0890 C.3   1 <1>   0.1600 
  6 C        1.8710    -2.4900    -0.6230 C.3   1 <1>  -0.0250 
  7 N        3.9090     0.5720     0.1360 N.pl3 1 <1>  -0.5960 
  8 C        2.7100    -3.7230    -0.3210 C.ar  1 <1>   0.1590 
  9 C        5.0920     1.2130     0.2210 C.cat 1 <1>   1.0690 
 10 N        3.9000    -3.7880    -0.9050 N.ar  1 <1>  -0.6240 
 11 C        2.2070    -4.7000     0.5260 C.ar  1 <1>  -0.1580 
 12 N        6.2460     0.5740     0.0470 N.pl3 1 <1>  -0.7040 
 13 N        5.3380     2.5170     0.4590 N.pl3 1 <1>  -0.7670 
 14 C        4.6030    -4.8800    -0.6460 C.ar  1 <1>   0.1520 
 15 C        2.9570    -5.8250     0.7930 C.ar  1 <1>  -0.1580 
 16 C        7.2870     1.4670     0.1690 C.ar  1 <1>   0.3030 
 17 C        6.7190     2.6990     0.4280 C.ar  1 <1>   0.3030 
 18 C        4.4050     3.6330     0.7720 C.3   1 <1>   0.3480 
 19 C        4.1880    -5.9090     0.1820 C.ar  1 <1>  -0.1580 
 20 C        8.6640     1.3090     0.0730 C.ar  1 <1>  -0.1170 
 21 C        7.5260     3.8200     0.5990 C.ar  1 <1>  -0.1170 
 22 C        4.0180     4.3900    -0.5050 C.3   1 <1>   0.1120 
 23 C        9.4640     2.4230     0.2440 C.ar  1 <1>  -0.1580 
 24 C        8.8970     3.6720     0.5050 C.ar  1 <1>  -0.1580 
 25 O        2.9640     5.2390    -0.2110 O.3   1 <1>  -0.6840 
 26 H       -0.2040    -0.6050     0.3700 H     1 <1>   0.3940 
 27 H        1.3170     0.0720    -1.1890 H     1 <1>   0.0720 
 28 H        2.2530    -1.4750     1.2340 H     1 <1>   0.0720 
 29 H        2.3460     1.4560     1.2390 H     1 <1>   0.0720 
 30 H        2.4150     1.9720    -0.4520 H     1 <1>   0.0720 
 31 H        4.0520    -1.1110    -1.1140 H     1 <1>   0.0720 
 32 H        4.4530    -1.4470     0.5660 H     1 <1>   0.0720 
 33 H        1.9280    -2.2870    -1.6780 H     1 <1>   0.0720 
 34 H        0.8410    -2.6930    -0.3910 H     1 <1>   0.0720 
 35 H        1.2370    -4.5900     0.9740 H     1 <1>   0.1420 
 36 H        6.3280    -0.4190    -0.1530 H     1 <1>   0.4450 
 37 H        5.5660    -4.9650    -1.1200 H     1 <1>   0.1420 
 38 H        2.5960    -6.6030     1.4440 H     1 <1>   0.1420 
 39 H        3.5250     3.2590     1.2590 H     1 <1>   0.0720 
 40 H        4.8790     4.3160     1.4560 H     1 <1>   0.0720 
 41 H        4.8200    -6.7630     0.3420 H     1 <1>   0.1420 
 42 H        9.0910     0.3430    -0.1290 H     1 <1>   0.1420 
 43 H        7.0940     4.7830     0.8010 H     1 <1>   0.1420 
 44 H        3.6910     3.7130    -1.2740 H     1 <1>   0.0720 
 45 H        4.8420     4.9840    -0.8610 H     1 <1>   0.0720 
 46 H       10.5370     2.3340     0.1760 H     1 <1>   0.1420 
 47 H        9.5440     4.5250     0.6350 H     1 <1>   0.1420 
 48 H        2.7180     5.7900    -0.9840 H     1 <1>   0.3940 
@<TRIPOS>BOND
  1   1   2  1   
  2   1  26  1   
  3   2   3  1   
  4   2   4  1   
  5   2  27  1   
  6   3   5  1   
  7   3   6  1   
  8   3  28  1   
  9   4   7  1   
 10   4  29  1   
 11   4  30  1   
 12   5   7  1   
 13   5  31  1   
 14   5  32  1   
 15   6   8  1   
 16   6  33  1   
 17   6  34  1   
 18   7   9  ar  
 19   8  10  ar  
 20   8  11  ar  
 21   9  12  ar  
 22   9  13  ar  
 23  10  14  ar  
 24  11  15  ar  
 25  11  35  1   
 26  12  16  1   
 27  12  36  1   
 28  13  17  1   
 29  13  18  1   
 30  14  19  ar  
 31  14  37  1   
 32  15  19  ar  
 33  15  38  1   
 34  16  17  ar  
 35  16  20  ar  
 36  17  21  ar  
 37  18  22  1   
 38  18  39  1   
 39  18  40  1   
 40  19  41  1   
 41  20  23  ar  
 42  20  42  1   
 43  21  24  ar  
 44  21  43  1   
 45  22  25  1   
 46  22  44  1   
 47  22  45  1   
 48  23  24  ar  
 49  23  46  1   
 50  24  47  1   
 51  25  48  1   
@<TRIPOS>SUBSTRUCTURE
  1 ****   7 GROUP 4 **** **** 0

# MOE 2024.06 (io_trps.svl 2023.06)
