@<TRIPOS>MOLECULE
NONAME
46 49 1 0 0 
SMALL
USER_CHARGES


@<TRIPOS>ATOM
  1 O       -0.5110     0.1560    -0.6040 O.2   1 <1>  -0.5700 
  2 C       -1.5700     0.7390    -0.6550 C.2   1 <1>   0.5770 
  3 N       -2.7320     0.0740    -0.9620 N.am  1 <1>  -0.6600 
  4 C       -1.5900     2.2420    -0.3700 C.3   1 <1>   0.0530 
  5 C       -4.0930     0.6840    -1.0660 C.3   1 <1>   0.1400 
  6 C       -2.7600    -1.4100    -1.1440 C.3   1 <1>   0.1400 
  7 C       -0.2610     2.8880     0.1170 C.3   1 <1>   0.0000 
  8 C       -2.1780     2.6200     1.0180 C.3   1 <1>   0.0000 
  9 C       -5.0670     0.0040    -0.0850 C.3   1 <1>   0.1900 
 10 C       -3.7770    -2.0580    -0.1890 C.3   1 <1>   0.1100 
 11 C       -1.1250     3.7560     1.0670 C.3   1 <1>   0.0000 
 12 N       -5.1240    -1.4580    -0.3350 N.3   1 <1>  -0.8100 
 13 C       -6.4720     0.6270    -0.1990 C.3   1 <1>   0.1200 
 14 C       -6.1120    -2.0870     0.5750 C.3   1 <1>   0.3340 
 15 O       -7.3540     0.0080     0.6930 O.3   1 <1>  -0.5600 
 16 C       -6.2920    -3.5700     0.2530 C.ar  1 <1>  -0.1440 
 17 C       -7.4780    -1.3740     0.4770 C.3   1 <1>   0.1200 
 18 C       -6.2750    -4.5110     1.2730 C.ar  1 <1>  -0.1500 
 19 C       -6.4800    -3.9970    -1.0550 C.ar  1 <1>  -0.1500 
 20 C       -6.4440    -5.8550     0.9910 C.ar  1 <1>  -0.1500 
 21 C       -6.6490    -5.3410    -1.3390 C.ar  1 <1>  -0.1500 
 22 C       -6.6310    -6.2710    -0.3150 C.ar  1 <1>  -0.1500 
 23 H       -2.0330     2.8150    -1.1670 H     1 <1>   0.0000 
 24 H       -4.0630     1.7380    -0.8640 H     1 <1>   0.0800 
 25 H       -4.4580     0.5520    -2.0700 H     1 <1>   0.0800 
 26 H       -3.0350    -1.6370    -2.1590 H     1 <1>   0.0800 
 27 H       -1.7890    -1.8360    -0.9640 H     1 <1>   0.0800 
 28 H        0.3820     2.2180     0.6620 H     1 <1>   0.0000 
 29 H        0.2520     3.4540    -0.6400 H     1 <1>   0.0000 
 30 H       -3.1940     2.9730     0.9840 H     1 <1>   0.0000 
 31 H       -2.0090     1.8650     1.7680 H     1 <1>   0.0000 
 32 H       -4.7080     0.1840     0.9150 H     1 <1>   0.0800 
 33 H       -3.4290    -1.9440     0.8230 H     1 <1>   0.0800 
 34 H       -3.8220    -3.1110    -0.4080 H     1 <1>   0.0800 
 35 H       -1.4710     4.6640     0.6030 H     1 <1>   0.0000 
 36 H       -0.6900     3.9050     2.0390 H     1 <1>   0.0000 
 37 H       -6.8580     0.5160    -1.1970 H     1 <1>   0.0800 
 38 H       -6.4410     1.6720     0.0500 H     1 <1>   0.0800 
 39 H       -5.7620    -1.9900     1.5890 H     1 <1>   0.0800 
 40 H       -8.1490    -1.7650     1.2200 H     1 <1>   0.0800 
 41 H       -7.9110    -1.5320    -0.4940 H     1 <1>   0.0800 
 42 H       -6.1300    -4.2030     2.2940 H     1 <1>   0.1500 
 43 H       -6.4880    -3.2760    -1.8540 H     1 <1>   0.1500 
 44 H       -6.4300    -6.5790     1.7870 H     1 <1>   0.1500 
 45 H       -6.7930    -5.6600    -2.3560 H     1 <1>   0.1500 
 46 H       -6.7630    -7.3160    -0.5350 H     1 <1>   0.1500 
@<TRIPOS>BOND
  1   1   2  2   
  2   2   3  am  
  3   2   4  1   
  4   3   5  1   
  5   3   6  1   
  6   4   7  1   
  7   4   8  1   
  8   4  23  1   
  9   5   9  1   
 10   5  24  1   
 11   5  25  1   
 12   6  10  1   
 13   6  26  1   
 14   6  27  1   
 15   7  11  1   
 16   7  28  1   
 17   7  29  1   
 18   8  11  1   
 19   8  30  1   
 20   8  31  1   
 21   9  12  1   
 22   9  13  1   
 23   9  32  1   
 24  10  12  1   
 25  10  33  1   
 26  10  34  1   
 27  11  35  1   
 28  11  36  1   
 29  12  14  1   
 30  13  15  1   
 31  13  37  1   
 32  13  38  1   
 33  14  16  1   
 34  14  17  1   
 35  14  39  1   
 36  15  17  1   
 37  16  18  ar  
 38  16  19  ar  
 39  17  40  1   
 40  17  41  1   
 41  18  20  ar  
 42  18  42  1   
 43  19  21  ar  
 44  19  43  1   
 45  20  22  ar  
 46  20  44  1   
 47  21  22  ar  
 48  21  45  1   
 49  22  46  1   
@<TRIPOS>SUBSTRUCTURE
  1 ****  12 GROUP 4 **** **** 0

# MOE 2024.06 (io_trps.svl 2023.06)
