@<TRIPOS>MOLECULE
NONAME
58 61 1 0 0 
SMALL
USER_CHARGES


@<TRIPOS>ATOM
  1 O       -1.5260     0.5030    -1.7110 O.2   1 <1>  -0.5700 
  2 C       -1.6450     0.8590    -0.5530 C.2   1 <1>   0.7150 
  3 N       -2.0920    -0.0370     0.3700 N.am  1 <1>  -0.7300 
  4 C       -1.3170     2.2100    -0.1620 C.2   1 <1>   0.0550 
  5 C       -2.4710    -1.4410     0.1040 C.3   1 <1>   0.2200 
  6 O       -1.3940     2.6060     1.1040 O.3   1 <1>  -0.2800 
  7 C       -0.9000     3.2640    -0.9100 C.2   1 <1>  -0.1500 
  8 C       -3.9860    -1.5550     0.1010 C.3   1 <1>  -0.0800 
  9 C       -2.0940    -2.3100     1.2990 C.3   1 <1>   0.1200 
 10 C       -1.0420     3.8680     1.1950 C.2   1 <1>  -0.0400 
 11 C       -0.7110     4.3370    -0.0350 C.2   1 <1>  -0.1810 
 12 C       -4.2990    -1.7000     1.5950 C.3   1 <1>   0.1200 
 13 C       -4.4600    -2.7720    -0.7160 C.3   1 <1>  -0.0160 
 14 O       -3.1460    -2.1980     2.2110 O.3   1 <1>  -0.5600 
 15 C       -1.0880     4.4620     2.5980 C.3   1 <1>   0.0200 
 16 C       -0.2240     5.6990    -0.4780 C.3   1 <1>   0.5240 
 17 C       -5.9770    -2.8680    -0.7410 C.ar  1 <1>  -0.1440 
 18 C       -0.7500     5.9540     2.6880 C.3   1 <1>  -0.2400 
 19 N        1.2580     5.6960    -0.4000 N.4   1 <1>  -0.9590 
 20 C       -6.6670    -3.8060     0.0010 C.ar  1 <1>  -0.1500 
 21 C       -6.7440    -2.0180    -1.5120 C.ar  1 <1>  -0.1500 
 22 C        1.8750     7.0300    -0.5680 C.3   1 <1>   0.3430 
 23 C        1.9080     4.8050    -1.3910 C.3   1 <1>   0.3430 
 24 C       -8.0510    -3.8430    -0.0580 C.ar  1 <1>   0.1600 
 25 C       -8.1230    -2.1380    -1.5000 C.ar  1 <1>   0.1600 
 26 C        3.3290     6.7280    -0.9040 C.3   1 <1>  -0.1600 
 27 C        3.3490     5.2950    -1.4460 C.3   1 <1>  -0.1600 
 28 N       -8.7960    -3.0290    -0.7890 N.ar  1 <1>  -0.6200 
 29 H       -2.2140     0.2780     1.3350 H     1 <1>   0.3700 
 30 H       -2.0160    -1.7870    -0.8100 H     1 <1>   0.0800 
 31 H       -0.7530     3.2590    -1.9770 H     1 <1>   0.1500 
 32 H       -4.4430    -0.6700    -0.3040 H     1 <1>   0.0800 
 33 H       -1.1760    -2.0000     1.7650 H     1 <1>   0.0800 
 34 H       -2.0240    -3.3440     1.0100 H     1 <1>   0.0800 
 35 H       -5.1190    -2.3670     1.7940 H     1 <1>   0.0800 
 36 H       -4.5100    -0.7390     2.0320 H     1 <1>   0.0800 
 37 H       -4.0480    -3.6800    -0.3090 H     1 <1>   0.0800 
 38 H       -4.1060    -2.6810    -1.7280 H     1 <1>   0.0800 
 39 H       -2.0790     4.3110     2.9920 H     1 <1>   0.0800 
 40 H       -0.4100     3.9080     3.2240 H     1 <1>   0.0800 
 41 H       -0.6270     6.4570     0.1720 H     1 <1>   0.0800 
 42 H       -0.5530     5.9020    -1.4840 H     1 <1>   0.0800 
 43 H       -1.4500     6.5340     2.1150 H     1 <1>   0.0800 
 44 H        0.2520     6.1420     2.3520 H     1 <1>   0.0800 
 45 H       -0.8210     6.2720     3.7150 H     1 <1>   0.0800 
 46 H        1.5050     5.3320     0.5280 H     1 <1>   0.4500 
 47 H       -6.1450    -4.5070     0.6250 H     1 <1>   0.1500 
 48 H       -6.2820    -1.2620    -2.1210 H     1 <1>   0.1500 
 49 H        1.4160     7.5460    -1.3970 H     1 <1>   0.0800 
 50 H        1.7870     7.6300     0.3240 H     1 <1>   0.0800 
 51 H        1.8470     3.7690    -1.0960 H     1 <1>   0.0800 
 52 H        1.4480     4.9310    -2.3580 H     1 <1>   0.0800 
 53 H       -8.5720    -4.5800     0.5280 H     1 <1>   0.1500 
 54 H       -8.7050    -1.4650    -2.1070 H     1 <1>   0.1500 
 55 H        3.7030     7.4340    -1.6260 H     1 <1>   0.0800 
 56 H        3.9310     6.8010    -0.0150 H     1 <1>   0.0800 
 57 H        3.9710     4.6680    -0.8290 H     1 <1>   0.0800 
 58 H        3.7200     5.2530    -2.4550 H     1 <1>   0.0800 
@<TRIPOS>BOND
  1   1   2  2   
  2   2   3  am  
  3   2   4  1   
  4   3   5  1   
  5   3  29  1   
  6   4   6  1   
  7   4   7  2   
  8   5   8  1   
  9   5   9  1   
 10   5  30  1   
 11   6  10  1   
 12   7  11  1   
 13   7  31  1   
 14   8  12  1   
 15   8  13  1   
 16   8  32  1   
 17   9  14  1   
 18   9  33  1   
 19   9  34  1   
 20  10  11  2   
 21  10  15  1   
 22  11  16  1   
 23  12  14  1   
 24  12  35  1   
 25  12  36  1   
 26  13  17  1   
 27  13  37  1   
 28  13  38  1   
 29  15  18  1   
 30  15  39  1   
 31  15  40  1   
 32  16  19  1   
 33  16  41  1   
 34  16  42  1   
 35  17  20  ar  
 36  17  21  ar  
 37  18  43  1   
 38  18  44  1   
 39  18  45  1   
 40  19  22  1   
 41  19  23  1   
 42  19  46  1   
 43  20  24  ar  
 44  20  47  1   
 45  21  25  ar  
 46  21  48  1   
 47  22  26  1   
 48  22  49  1   
 49  22  50  1   
 50  23  27  1   
 51  23  51  1   
 52  23  52  1   
 53  24  28  ar  
 54  24  53  1   
 55  25  28  ar  
 56  25  54  1   
 57  26  27  1   
 58  26  55  1   
 59  26  56  1   
 60  27  57  1   
 61  27  58  1   
@<TRIPOS>SUBSTRUCTURE
  1 ****   2 GROUP 4 **** **** 0

# MOE 2024.06 (io_trps.svl 2023.06)
