@<TRIPOS>MOLECULE
NONAME
56 59 1 0 0 
SMALL
USER_CHARGES


@<TRIPOS>ATOM
  1 O        0.1950     0.1050    -0.5380 O.co2 1 <1>  -0.9000 
  2 C        1.2580     0.0670     0.0780 C.2   1 <1>   0.9060 
  3 O        1.2920    -0.1110     1.3070 O.co2 1 <1>  -0.9000 
  4 C        2.5750     0.1790    -0.7110 C.3   1 <1>  -0.1060 
  5 C        3.7700     0.2330     0.2570 C.3   1 <1>   0.4230 
  6 C        2.5230     1.4820    -1.5730 C.3   1 <1>  -0.1600 
  7 C        2.7700    -1.0760    -1.5920 C.3   1 <1>  -0.1600 
  8 N        3.7740    -0.9580     1.1710 N.4   1 <1>  -0.9590 
  9 C        3.8230     1.6360     0.8910 C.3   1 <1>   0.2090 
 10 C        3.8040     2.3320    -1.5560 C.3   1 <1>   0.2090 
 11 C        2.8780    -2.3370    -0.7130 C.3   1 <1>  -0.1600 
 12 C        3.9330    -2.2190     0.3960 C.3   1 <1>   0.3430 
 13 C        4.7220    -0.8630     2.3100 C.3   1 <1>   0.2630 
 14 N        4.2970     2.5930    -0.1640 N.pl3 1 <1>  -0.8380 
 15 C        5.6040     3.0150    -0.0760 C.ar  1 <1>   0.4100 
 16 N        6.5110     2.0660     0.0640 N.ar  1 <1>  -0.6200 
 17 C        5.9480     4.3550    -0.1540 C.ar  1 <1>  -0.1430 
 18 C        7.7600     2.4810     0.1080 C.ar  1 <1>   0.4700 
 19 C        7.2940     4.6480    -0.1030 C.ar  1 <1>   0.3930 
 20 C        4.8810     5.4440    -0.2920 C.3   1 <1>  -0.0970 
 21 N        8.2180     3.7110     0.0320 N.ar  1 <1>  -0.6200 
 22 O        7.6850     5.9420    -0.1830 O.3   1 <1>  -0.1650 
 23 C        8.9420     6.3570    -0.4990 C.ar  1 <1>   0.0830 
 24 C        9.5570     7.3710     0.2400 C.ar  1 <1>   0.1670 
 25 C        9.6140     5.8120    -1.5800 C.ar  1 <1>  -0.1500 
 26 N       10.7620     7.8560    -0.0260 N.ar  1 <1>  -0.6200 
 27 C        8.8710     8.0130     1.4340 C.3   1 <1>  -0.0970 
 28 C       10.8690     6.3080    -1.8550 C.ar  1 <1>  -0.1500 
 29 C       11.3880     7.3150    -1.0590 C.ar  1 <1>   0.1600 
 30 H        4.6680     0.1670    -0.3330 H     1 <1>   0.0800 
 31 H        1.7340     2.1170    -1.2060 H     1 <1>   0.0800 
 32 H        2.2590     1.2450    -2.5880 H     1 <1>   0.0800 
 33 H        1.9290    -1.1810    -2.2590 H     1 <1>   0.0800 
 34 H        3.6580    -0.9710    -2.1910 H     1 <1>   0.0800 
 35 H        2.7850    -0.9260     1.5390 H     1 <1>   0.4500 
 36 H        4.5060     1.6640     1.7190 H     1 <1>   0.0800 
 37 H        2.8510     1.9380     1.2420 H     1 <1>   0.0800 
 38 H        3.6110     3.2730    -2.0430 H     1 <1>   0.0800 
 39 H        4.5740     1.8240    -2.1130 H     1 <1>   0.0800 
 40 H        3.1140    -3.1840    -1.3330 H     1 <1>   0.0800 
 41 H        1.9230    -2.5400    -0.2590 H     1 <1>   0.0800 
 42 H        4.9140    -2.2380    -0.0500 H     1 <1>   0.0800 
 43 H        3.8450    -3.0650     1.0570 H     1 <1>   0.0800 
 44 H        5.7300    -0.7410     1.9480 H     1 <1>   0.0800 
 45 H        4.6680    -1.7550     2.9110 H     1 <1>   0.0800 
 46 H        4.4690    -0.0210     2.9320 H     1 <1>   0.0800 
 47 H        8.5080     1.7140     0.2210 H     1 <1>   0.1500 
 48 H        3.9900     5.1700     0.2450 H     1 <1>   0.0800 
 49 H        4.6300     5.5760    -1.3290 H     1 <1>   0.0800 
 50 H        5.2230     6.3830     0.1030 H     1 <1>   0.0800 
 51 H        9.1740     5.0340    -2.1770 H     1 <1>   0.1500 
 52 H        7.9820     7.4870     1.7230 H     1 <1>   0.0800 
 53 H        8.6140     9.0280     1.1930 H     1 <1>   0.0800 
 54 H        9.5470     8.0190     2.2700 H     1 <1>   0.0800 
 55 H       11.4420     5.9210    -2.6780 H     1 <1>   0.1500 
 56 H       12.3690     7.6960    -1.2830 H     1 <1>   0.1500 
@<TRIPOS>BOND
  1   1   2  ar  
  2   2   3  ar  
  3   2   4  1   
  4   4   5  1   
  5   4   6  1   
  6   4   7  1   
  7   5   8  1   
  8   5   9  1   
  9   5  30  1   
 10   6  10  1   
 11   6  31  1   
 12   6  32  1   
 13   7  11  1   
 14   7  33  1   
 15   7  34  1   
 16   8  12  1   
 17   8  13  1   
 18   8  35  1   
 19   9  14  1   
 20   9  36  1   
 21   9  37  1   
 22  10  14  1   
 23  10  38  1   
 24  10  39  1   
 25  11  12  1   
 26  11  40  1   
 27  11  41  1   
 28  12  42  1   
 29  12  43  1   
 30  13  44  1   
 31  13  45  1   
 32  13  46  1   
 33  14  15  1   
 34  15  16  ar  
 35  15  17  ar  
 36  16  18  ar  
 37  17  19  ar  
 38  17  20  1   
 39  18  21  ar  
 40  18  47  1   
 41  19  21  ar  
 42  19  22  1   
 43  20  48  1   
 44  20  49  1   
 45  20  50  1   
 46  22  23  1   
 47  23  24  ar  
 48  23  25  ar  
 49  24  26  ar  
 50  24  27  1   
 51  25  28  ar  
 52  25  51  1   
 53  26  29  ar  
 54  27  52  1   
 55  27  53  1   
 56  27  54  1   
 57  28  29  ar  
 58  28  55  1   
 59  29  56  1   
@<TRIPOS>SUBSTRUCTURE
  1 ****  15 GROUP 4 **** **** 0

# MOE 2024.06 (io_trps.svl 2023.06)
