@<TRIPOS>MOLECULE
NONAME
48 50 1 0 0 
SMALL
USER_CHARGES


@<TRIPOS>ATOM
  1 O       -0.3100    -0.8400     0.3360 O.2   1 <1>  -0.5700 
  2 C       -0.7130    -1.9670     0.4710 C.2   1 <1>   0.4230 
  3 C       -1.9940    -2.4050    -0.0300 C.ar  1 <1>   0.0860 
  4 C        0.2060    -2.9250     1.2060 C.3   1 <1>  -0.1790 
  5 C       -2.4950    -3.6960     0.1660 C.ar  1 <1>   0.1600 
  6 C       -2.8120    -1.5380    -0.7510 C.ar  1 <1>  -0.1500 
  7 N       -3.6570    -4.1640    -0.2590 N.ar  1 <1>  -0.6200 
  8 C       -4.0210    -2.0010    -1.2040 C.ar  1 <1>  -0.1500 
  9 C       -4.4160    -3.3090    -0.9410 C.ar  1 <1>   0.4100 
 10 N       -5.6400    -3.7680    -1.3720 N.pl3 1 <1>  -0.8380 
 11 C       -5.8040    -5.2100    -1.6870 C.3   1 <1>   0.2090 
 12 C       -6.8700    -3.1120    -0.8520 C.3   1 <1>   0.2090 
 13 C       -6.2500    -5.9740    -0.4160 C.3   1 <1>   0.4230 
 14 C       -7.3130    -3.8470     0.4180 C.3   1 <1>  -0.1600 
 15 N       -6.2840    -7.4910    -0.5750 N.4   1 <1>  -0.9590 
 16 C       -7.5450    -5.3720     0.2080 C.3   1 <1>   0.0000 
 17 C       -7.0810    -8.1980     0.4790 C.3   1 <1>   0.3430 
 18 C       -6.6760    -7.9880    -1.9350 C.3   1 <1>   0.2630 
 19 C       -7.8010    -6.0300     1.5970 C.3   1 <1>  -0.1600 
 20 C       -8.7560    -5.6090    -0.7380 C.3   1 <1>   0.1200 
 21 C       -7.1080    -7.3940     1.7760 C.3   1 <1>  -0.1600 
 22 O       -9.8770    -4.9110    -0.3210 O.3   1 <1>  -0.6800 
 23 H        0.4420    -3.7660     0.5810 H     1 <1>   0.0800 
 24 H       -0.2590    -3.2610     2.1140 H     1 <1>   0.0800 
 25 H        1.1230    -2.4250     1.4600 H     1 <1>   0.0800 
 26 H       -1.8910    -4.3940     0.7160 H     1 <1>   0.1500 
 27 H       -2.4920    -0.5280    -0.9460 H     1 <1>   0.1500 
 28 H       -4.6730    -1.3640    -1.7710 H     1 <1>   0.1500 
 29 H       -6.5230    -5.3070    -2.4790 H     1 <1>   0.0800 
 30 H       -4.8630    -5.6010    -2.0350 H     1 <1>   0.0800 
 31 H       -6.6710    -2.0790    -0.6180 H     1 <1>   0.0800 
 32 H       -7.6440    -3.1370    -1.6010 H     1 <1>   0.0800 
 33 H       -5.4760    -5.7670     0.3050 H     1 <1>   0.0800 
 34 H       -6.5430    -3.6940     1.1560 H     1 <1>   0.0800 
 35 H       -8.2010    -3.3740     0.7980 H     1 <1>   0.0800 
 36 H       -5.3040    -7.7740    -0.4260 H     1 <1>   0.4500 
 37 H       -8.0950    -8.3330     0.1400 H     1 <1>   0.0800 
 38 H       -6.6610    -9.1750     0.6620 H     1 <1>   0.0800 
 39 H       -7.6810    -7.6820    -2.1740 H     1 <1>   0.0800 
 40 H       -6.6280    -9.0650    -1.9660 H     1 <1>   0.0800 
 41 H       -6.0080    -7.6000    -2.6870 H     1 <1>   0.0800 
 42 H       -7.4520    -5.3890     2.3900 H     1 <1>   0.0800 
 43 H       -8.8580    -6.1520     1.7590 H     1 <1>   0.0800 
 44 H       -9.0240    -6.6490    -0.7830 H     1 <1>   0.0800 
 45 H       -8.5460    -5.2690    -1.7370 H     1 <1>   0.0800 
 46 H       -7.6290    -7.9570     2.5320 H     1 <1>   0.0800 
 47 H       -6.0990    -7.2550     2.1270 H     1 <1>   0.0800 
 48 H      -10.1710    -5.1820     0.5710 H     1 <1>   0.4000 
@<TRIPOS>BOND
  1   1   2  2   
  2   2   3  1   
  3   2   4  1   
  4   3   5  ar  
  5   3   6  ar  
  6   4  23  1   
  7   4  24  1   
  8   4  25  1   
  9   5   7  ar  
 10   5  26  1   
 11   6   8  ar  
 12   6  27  1   
 13   7   9  ar  
 14   8   9  ar  
 15   8  28  1   
 16   9  10  1   
 17  10  11  1   
 18  10  12  1   
 19  11  13  1   
 20  11  29  1   
 21  11  30  1   
 22  12  14  1   
 23  12  31  1   
 24  12  32  1   
 25  13  15  1   
 26  13  16  1   
 27  13  33  1   
 28  14  16  1   
 29  14  34  1   
 30  14  35  1   
 31  15  17  1   
 32  15  18  1   
 33  15  36  1   
 34  16  19  1   
 35  16  20  1   
 36  17  21  1   
 37  17  37  1   
 38  17  38  1   
 39  18  39  1   
 40  18  40  1   
 41  18  41  1   
 42  19  21  1   
 43  19  42  1   
 44  19  43  1   
 45  20  22  1   
 46  20  44  1   
 47  20  45  1   
 48  21  46  1   
 49  21  47  1   
 50  22  48  1   
@<TRIPOS>SUBSTRUCTURE
  1 ****  10 GROUP 4 **** **** 0

# MOE 2024.06 (io_trps.svl 2023.06)
