@<TRIPOS>MOLECULE
NONAME
38 40 1 0 0 
SMALL
USER_CHARGES


@<TRIPOS>ATOM
  1 CL       0.2150     0.7440    -0.9520 Cl    1 <1>  -0.1770 
  2 C        1.7220     1.3290    -0.2990 C.ar  1 <1>   0.1770 
  3 C        2.7950     0.4650    -0.2060 C.ar  1 <1>  -0.1500 
  4 C        1.8170     2.6450     0.1100 C.ar  1 <1>  -0.1500 
  5 C        3.9760     0.9550     0.3150 C.ar  1 <1>   0.1770 
  6 C        3.0120     3.1440     0.6260 C.ar  1 <1>   0.0860 
  7 CL       5.3540    -0.1060     0.4460 Cl    1 <1>  -0.1770 
  8 C        4.0910     2.2670     0.7320 C.ar  1 <1>  -0.1500 
  9 C        3.1230     4.5270     1.0380 C.2   1 <1>   0.5440 
 10 O        2.4830     4.8970     2.0040 O.2   1 <1>  -0.5700 
 11 N        3.9100     5.4350     0.3560 N.am  1 <1>  -0.6600 
 12 C        4.2540     6.7530     0.9910 C.3   1 <1>   0.1400 
 13 C        4.4370     5.1720    -1.0230 C.3   1 <1>   0.1400 
 14 C        5.7630     7.0660     1.1130 C.3   1 <1>   0.2200 
 15 C        5.9630     5.3020    -1.1960 C.3   1 <1>  -0.0190 
 16 N        6.3150     7.5530    -0.1830 N.am  1 <1>  -0.6600 
 17 C        6.6350     5.9370     1.7180 C.3   1 <1>   0.1200 
 18 C        6.3780     6.7530    -1.2860 C.2   1 <1>   0.5690 
 19 C        6.8650     4.5350    -0.2120 C.3   1 <1>   0.1200 
 20 C        6.7340     8.9840    -0.2220 C.3   1 <1>   0.0600 
 21 O        6.4850     4.6760     1.1220 O.3   1 <1>  -0.5600 
 22 O        6.7620     7.1610    -2.3560 O.2   1 <1>  -0.5700 
 23 H        2.7130    -0.5570    -0.5270 H     1 <1>   0.1500 
 24 H        0.9610     3.2930     0.0320 H     1 <1>   0.1500 
 25 H        5.0200     2.6150     1.1470 H     1 <1>   0.1500 
 26 H        3.7750     7.5410     0.4370 H     1 <1>   0.0800 
 27 H        3.8500     6.7840     1.9860 H     1 <1>   0.0800 
 28 H        4.1540     4.1850    -1.3380 H     1 <1>   0.0800 
 29 H        3.9580     5.8590    -1.6990 H     1 <1>   0.0800 
 30 H        5.8340     7.8880     1.8040 H     1 <1>   0.0800 
 31 H        6.1810     4.8900    -2.1640 H     1 <1>   0.0800 
 32 H        6.3580     5.8110     2.7500 H     1 <1>   0.0800 
 33 H        7.6750     6.2090     1.6840 H     1 <1>   0.0800 
 34 H        7.8910     4.8460    -0.3110 H     1 <1>   0.0800 
 35 H        6.8120     3.4830    -0.4340 H     1 <1>   0.0800 
 36 H        7.4990     9.1610     0.5130 H     1 <1>   0.0800 
 37 H        5.8880     9.6170    -0.0170 H     1 <1>   0.0800 
 38 H        7.1270     9.2430    -1.1910 H     1 <1>   0.0800 
@<TRIPOS>BOND
  1   1   2  1   
  2   2   3  ar  
  3   2   4  ar  
  4   3   5  ar  
  5   3  23  1   
  6   4   6  ar  
  7   4  24  1   
  8   5   7  1   
  9   5   8  ar  
 10   6   8  ar  
 11   6   9  1   
 12   8  25  1   
 13   9  10  2   
 14   9  11  am  
 15  11  12  1   
 16  11  13  1   
 17  12  14  1   
 18  12  26  1   
 19  12  27  1   
 20  13  15  1   
 21  13  28  1   
 22  13  29  1   
 23  14  16  1   
 24  14  17  1   
 25  14  30  1   
 26  15  18  1   
 27  15  19  1   
 28  15  31  1   
 29  16  18  am  
 30  16  20  1   
 31  17  21  1   
 32  17  32  1   
 33  17  33  1   
 34  18  22  2   
 35  19  21  1   
 36  19  34  1   
 37  19  35  1   
 38  20  36  1   
 39  20  37  1   
 40  20  38  1   
@<TRIPOS>SUBSTRUCTURE
  1 ****  11 GROUP 4 **** **** 0

# MOE 2024.06 (io_trps.svl 2023.06)
