@<TRIPOS>MOLECULE
NONAME
49 51 1 0 0 
SMALL
USER_CHARGES


@<TRIPOS>ATOM
  1 O        1.0340     0.4590    -1.9240 O.2   1 <1>  -0.5700 
  2 C        2.0000     0.1930    -1.2400 C.2   1 <1>   0.7150 
  3 N        2.6070     1.2180    -0.6050 N.am  1 <1>  -0.8000 
  4 C        2.4680    -1.1670    -1.1070 C.2   1 <1>   0.0550 
  5 O        3.4520    -1.4900    -0.2790 O.3   1 <1>  -0.2800 
  6 C        2.0510    -2.3000    -1.7260 C.2   1 <1>  -0.1500 
  7 C        3.6860    -2.7860    -0.3380 C.2   1 <1>  -0.0400 
  8 C        2.8230    -3.3520    -1.2210 C.2   1 <1>  -0.1810 
  9 C        4.8170    -3.3170     0.5600 C.3   1 <1>   0.1800 
 10 C        2.6210    -4.7870    -1.6580 C.3   1 <1>   0.5240 
 11 C        4.4380    -3.0890     2.0300 C.3   1 <1>  -0.2400 
 12 C        5.0970    -4.8120     0.3580 C.3   1 <1>  -0.2400 
 13 C        6.1100    -2.5480     0.2490 C.3   1 <1>  -0.2400 
 14 N        1.7680    -5.4880    -0.6570 N.4   1 <1>  -0.9590 
 15 C        1.5610    -6.9280    -0.9490 C.3   1 <1>   0.6030 
 16 C        0.4440    -4.7940    -0.4540 C.3   1 <1>   0.3430 
 17 C        0.7550    -7.5100     0.2000 C.2   1 <1>  -0.3320 
 18 C        2.8970    -7.6590    -1.0860 C.3   1 <1>  -0.2400 
 19 C       -0.2980    -5.3000     0.7890 C.3   1 <1>   0.0960 
 20 N       -0.1110    -6.7500     0.9280 N.pl3 1 <1>   0.0480 
 21 C        0.7240    -8.7860     0.6780 C.2   1 <1>  -0.1500 
 22 C       -0.6790    -7.5510     1.8630 C.2   1 <1>  -0.3020 
 23 C       -0.1890    -8.8100     1.7350 C.2   1 <1>  -0.1500 
 24 H        2.2650     2.1690    -0.7380 H     1 <1>   0.3700 
 25 H        3.4410     1.0850    -0.0350 H     1 <1>   0.3700 
 26 H        1.2710    -2.3590    -2.4680 H     1 <1>   0.1500 
 27 H        3.5820    -5.2660    -1.7350 H     1 <1>   0.0800 
 28 H        2.1540    -4.8070    -2.6300 H     1 <1>   0.0800 
 29 H        3.5280    -3.6070     2.2710 H     1 <1>   0.0800 
 30 H        4.2880    -2.0410     2.2200 H     1 <1>   0.0800 
 31 H        5.2170    -3.4390     2.6830 H     1 <1>   0.0800 
 32 H        4.2490    -5.4040     0.6380 H     1 <1>   0.0800 
 33 H        5.9230    -5.1180     0.9770 H     1 <1>   0.0800 
 34 H        5.3670    -5.0120    -0.6640 H     1 <1>   0.0800 
 35 H        5.9800    -1.4970     0.4390 H     1 <1>   0.0800 
 36 H        6.3790    -2.6710    -0.7840 H     1 <1>   0.0800 
 37 H        6.9220    -2.8990     0.8600 H     1 <1>   0.0800 
 38 H        2.2660    -5.4620     0.2390 H     1 <1>   0.4500 
 39 H        0.9950    -7.0360    -1.8610 H     1 <1>   0.0800 
 40 H       -0.1790    -4.9500    -1.3190 H     1 <1>   0.0800 
 41 H        0.5870    -3.7320    -0.3430 H     1 <1>   0.0800 
 42 H        3.4730    -7.5760    -0.1820 H     1 <1>   0.0800 
 43 H        3.4670    -7.3070    -1.9240 H     1 <1>   0.0800 
 44 H        2.7100    -8.7030    -1.2600 H     1 <1>   0.0800 
 45 H       -1.3470    -5.0800     0.7130 H     1 <1>   0.0800 
 46 H        0.0890    -4.8190     1.6690 H     1 <1>   0.0800 
 47 H        1.2690    -9.6550     0.3460 H     1 <1>   0.1500 
 48 H       -1.4010    -7.1940     2.5780 H     1 <1>   0.1500 
 49 H       -0.4380    -9.6790     2.3230 H     1 <1>   0.1500 
@<TRIPOS>BOND
  1   1   2  2   
  2   2   3  am  
  3   2   4  1   
  4   3  24  1   
  5   3  25  1   
  6   4   5  1   
  7   4   6  2   
  8   5   7  1   
  9   6   8  1   
 10   6  26  1   
 11   7   8  2   
 12   7   9  1   
 13   8  10  1   
 14   9  11  1   
 15   9  12  1   
 16   9  13  1   
 17  10  14  1   
 18  10  27  1   
 19  10  28  1   
 20  11  29  1   
 21  11  30  1   
 22  11  31  1   
 23  12  32  1   
 24  12  33  1   
 25  12  34  1   
 26  13  35  1   
 27  13  36  1   
 28  13  37  1   
 29  14  15  1   
 30  14  16  1   
 31  14  38  1   
 32  15  17  1   
 33  15  18  1   
 34  15  39  1   
 35  16  19  1   
 36  16  40  1   
 37  16  41  1   
 38  17  20  1   
 39  17  21  2   
 40  18  42  1   
 41  18  43  1   
 42  18  44  1   
 43  19  20  1   
 44  19  45  1   
 45  19  46  1   
 46  20  22  1   
 47  21  23  1   
 48  21  47  1   
 49  22  23  2   
 50  22  48  1   
 51  23  49  1   
@<TRIPOS>SUBSTRUCTURE
  1 ****  14 GROUP 4 **** **** 0

# MOE 2024.06 (io_trps.svl 2023.06)
