@<TRIPOS>MOLECULE
NONAME
39 40 1 0 0 
SMALL
USER_CHARGES


@<TRIPOS>ATOM
  1 S       -1.9020     0.1790    -0.7000 S.3   1 <1>  -0.0800 
  2 C       -1.2490    -1.3980    -0.2900 C.2   1 <1>  -0.1100 
  3 C       -3.0530    -0.5420    -1.8100 C.2   1 <1>  -0.1100 
  4 C       -1.8880    -2.3730    -0.9650 C.2   1 <1>  -0.1810 
  5 C       -2.9160    -1.8800    -1.8340 C.2   1 <1>  -0.1500 
  6 C       -1.5900    -3.8580    -0.8560 C.3   1 <1>   0.0210 
  7 C       -2.7230    -4.5840    -0.1160 C.3   1 <1>  -0.0990 
  8 C       -2.5020    -6.0860     0.0200 C.2   1 <1>   0.5690 
  9 O       -1.4210    -6.5310    -0.2860 O.2   1 <1>  -0.5700 
 10 N       -3.5040    -6.8970     0.4920 N.am  1 <1>  -0.6600 
 11 C       -3.2570    -8.3620     0.6440 C.3   1 <1>   0.3200 
 12 C       -4.8110    -6.3860     1.0160 C.3   1 <1>   0.1400 
 13 C       -4.3850    -9.1600     0.0220 C.2   1 <1>  -0.3320 
 14 C       -5.8710    -6.2920    -0.0890 C.3   1 <1>   0.1200 
 15 N       -5.4410    -9.6540     0.6970 N.pl3 1 <1>   0.0330 
 16 C       -4.5600    -9.5190    -1.2680 C.2   1 <1>   0.0770 
 17 O       -7.0460    -5.8160     0.4730 O.3   1 <1>  -0.6800 
 18 C       -6.1980   -10.2730    -0.2330 C.2   1 <1>   0.0060 
 19 N       -5.7040   -10.2130    -1.4250 N.2   1 <1>  -0.5650 
 20 C       -7.5010   -10.9670     0.1000 C.3   1 <1>  -0.0600 
 21 H       -0.4450    -1.4270     0.4240 H     1 <1>   0.1500 
 22 H       -3.7160     0.1220    -2.3340 H     1 <1>   0.1500 
 23 H       -3.5010    -2.5510    -2.4390 H     1 <1>   0.1500 
 24 H       -0.6660    -3.9990    -0.3220 H     1 <1>   0.0800 
 25 H       -1.4670    -4.2730    -1.8420 H     1 <1>   0.0800 
 26 H       -3.6400    -4.4140    -0.6450 H     1 <1>   0.0800 
 27 H       -2.8150    -4.1620     0.8670 H     1 <1>   0.0800 
 28 H       -3.1570    -8.6020     1.6880 H     1 <1>   0.0800 
 29 H       -2.3380    -8.6430     0.1570 H     1 <1>   0.0800 
 30 H       -4.6740    -5.4140     1.4540 H     1 <1>   0.0800 
 31 H       -5.1660    -7.0430     1.7900 H     1 <1>   0.0800 
 32 H       -6.0770    -7.2540    -0.5230 H     1 <1>   0.0800 
 33 H       -5.5660    -5.6070    -0.8600 H     1 <1>   0.0800 
 34 H       -5.6440    -9.5800     1.6970 H     1 <1>   0.2700 
 35 H       -3.9160    -9.3060    -2.1060 H     1 <1>   0.1500 
 36 H       -7.7560    -5.7810    -0.2000 H     1 <1>   0.4000 
 37 H       -8.1960   -10.2660     0.5240 H     1 <1>   0.0800 
 38 H       -7.3260   -11.7660     0.7970 H     1 <1>   0.0800 
 39 H       -7.9300   -11.3800    -0.7960 H     1 <1>   0.0800 
@<TRIPOS>BOND
  1   1   2  1   
  2   1   3  1   
  3   2   4  2   
  4   2  21  1   
  5   3   5  2   
  6   3  22  1   
  7   4   5  1   
  8   4   6  1   
  9   5  23  1   
 10   6   7  1   
 11   6  24  1   
 12   6  25  1   
 13   7   8  1   
 14   7  26  1   
 15   7  27  1   
 16   8   9  2   
 17   8  10  am  
 18  10  11  1   
 19  10  12  1   
 20  11  13  1   
 21  11  28  1   
 22  11  29  1   
 23  12  14  1   
 24  12  30  1   
 25  12  31  1   
 26  13  15  1   
 27  13  16  2   
 28  14  17  1   
 29  14  32  1   
 30  14  33  1   
 31  15  18  1   
 32  15  34  1   
 33  16  19  1   
 34  16  35  1   
 35  17  36  1   
 36  18  19  2   
 37  18  20  1   
 38  20  37  1   
 39  20  38  1   
 40  20  39  1   
@<TRIPOS>SUBSTRUCTURE
  1 ****  10 GROUP 4 **** **** 0

# MOE 2024.06 (io_trps.svl 2023.06)
